# generated using pymatgen
data_Ho8ScSi4AgB16
_symmetry_space_group_name_H-M   'P 1'
_cell_length_a   7.15350600
_cell_length_b   7.15350600
_cell_length_c   7.79173600
_cell_angle_alpha   90.00000000
_cell_angle_beta   90.00000000
_cell_angle_gamma   90.00000000
_symmetry_Int_Tables_number   1
_chemical_formula_structural   Ho8ScSi4AgB16
_chemical_formula_sum   'Ho8 Sc1 Si4 Ag1 B16'
_cell_volume   398.72376435
_cell_formula_units_Z   1
loop_
 _symmetry_equiv_pos_site_id
 _symmetry_equiv_pos_as_xyz
  1  'x, y, z'
loop_
 _atom_site_type_symbol
 _atom_site_label
 _atom_site_symmetry_multiplicity
 _atom_site_fract_x
 _atom_site_fract_y
 _atom_site_fract_z
 _atom_site_occupancy
  Ho  Ho0  1  0.681326  0.181193  0.232672  1
  Ho  Ho1  1  0.318674  0.818807  0.767328  1
  Ho  Ho2  1  0.318674  0.818807  0.232672  1
  Ho  Ho3  1  0.818807  0.681326  0.232672  1
  Ho  Ho4  1  0.818807  0.681326  0.767328  1
  Ho  Ho5  1  0.681326  0.181193  0.767328  1
  Ho  Ho6  1  0.181193  0.318674  0.767328  1
  Ho  Ho7  1  0.181193  0.318674  0.232672  1
  Sc  Sc8  1  0.500000  0.500000  0.500000  1
  Si  Si9  1  0.122175  0.609913  0.500000  1
  Si  Si10  1  0.877825  0.390087  0.500000  1
  Si  Si11  1  0.390087  0.122175  0.500000  1
  Si  Si12  1  0.609913  0.877825  0.500000  1
  Ag  Ag13  1  0.000000  0.000000  0.500000  1
  B  B14  1  0.174810  0.038747  0.000000  1
  B  B15  1  0.825190  0.961253  0.000000  1
  B  B16  1  0.961253  0.174810  0.000000  1
  B  B17  1  0.327664  0.540066  0.000000  1
  B  B18  1  0.038747  0.825190  0.000000  1
  B  B19  1  0.672336  0.459934  0.000000  1
  B  B20  1  0.540066  0.672336  0.000000  1
  B  B21  1  0.459934  0.327664  0.000000  1
  B  B22  1  0.089422  0.588621  0.000000  1
  B  B23  1  0.910578  0.411379  0.000000  1
  B  B24  1  0.411379  0.089422  0.000000  1
  B  B25  1  0.588621  0.910578  0.000000  1
  B  B26  1  0.000000  0.000000  0.160947  1
  B  B27  1  0.000000  0.000000  0.839053  1
  B  B28  1  0.500000  0.500000  0.831584  1
  B  B29  1  0.500000  0.500000  0.168416  1
