# generated using pymatgen
data_La7SmLu12Si15Pt
_symmetry_space_group_name_H-M   'P 1'
_cell_length_a   7.44135621
_cell_length_b   7.81303728
_cell_length_c   14.66636003
_cell_angle_alpha   89.89890708
_cell_angle_beta   90.03290788
_cell_angle_gamma   90.11715601
_symmetry_Int_Tables_number   1
_chemical_formula_structural   La7SmLu12Si15Pt
_chemical_formula_sum   'La7 Sm1 Lu12 Si15 Pt1'
_cell_volume   852.69296066
_cell_formula_units_Z   1
loop_
 _symmetry_equiv_pos_site_id
 _symmetry_equiv_pos_as_xyz
  1  'x, y, z'
loop_
 _atom_site_type_symbol
 _atom_site_label
 _atom_site_symmetry_multiplicity
 _atom_site_fract_x
 _atom_site_fract_y
 _atom_site_fract_z
 _atom_site_occupancy
  La  La0  1  0.012730  0.176712  0.097725  1
  La  La1  1  0.991329  0.824589  0.903109  1
  La  La2  1  0.487808  0.673118  0.903749  1
  La  La3  1  0.990897  0.824062  0.596216  1
  La  La4  1  0.512055  0.326461  0.097068  1
  La  La5  1  0.013685  0.176537  0.402996  1
  La  La6  1  0.511961  0.325758  0.403772  1
  Sm  Sm7  1  0.486951  0.677062  0.598278  1
  Lu  Lu8  1  0.156841  0.501846  0.749136  1
  Lu  Lu9  1  0.838491  0.495975  0.250053  1
  Lu  Lu10  1  0.338552  0.005409  0.250164  1
  Lu  Lu11  1  0.666151  0.998469  0.749260  1
  Lu  Lu12  1  0.320617  0.172751  0.624834  1
  Lu  Lu13  1  0.673969  0.825915  0.375530  1
  Lu  Lu14  1  0.174889  0.675059  0.375925  1
  Lu  Lu15  1  0.675040  0.827786  0.125196  1
  Lu  Lu16  1  0.828284  0.322330  0.624464  1
  Lu  Lu17  1  0.320563  0.172094  0.874054  1
  Lu  Lu18  1  0.827889  0.322506  0.874348  1
  Lu  Lu19  1  0.173845  0.675609  0.124641  1
  Si  Si20  1  0.970709  0.876855  0.250453  1
  Si  Si21  1  0.469380  0.621888  0.250192  1
  Si  Si22  1  0.530359  0.386324  0.748586  1
  Si  Si23  1  0.287707  0.874466  0.748882  1
  Si  Si24  1  0.711262  0.123473  0.250350  1
  Si  Si25  1  0.212132  0.378034  0.250288  1
  Si  Si26  1  0.777127  0.619839  0.748152  1
  Si  Si27  1  0.156112  0.469689  0.539540  1
  Si  Si28  1  0.848691  0.535764  0.461878  1
  Si  Si29  1  0.352135  0.961627  0.462643  1
  Si  Si30  1  0.849499  0.536020  0.038541  1
  Si  Si31  1  0.649634  0.030821  0.539636  1
  Si  Si32  1  0.151475  0.467712  0.961226  1
  Si  Si33  1  0.650391  0.034509  0.961112  1
  Si  Si34  1  0.351400  0.965300  0.038689  1
  Pt  Pt35  1  0.029444  0.117632  0.749317  1
