# generated using pymatgen
data_TaMn5B6RuW5
_symmetry_space_group_name_H-M   'P 1'
_cell_length_a   3.05833200
_cell_length_b   6.09611290
_cell_length_c   10.50846957
_cell_angle_alpha   90.12004410
_cell_angle_beta   90.00000000
_cell_angle_gamma   90.00000000
_symmetry_Int_Tables_number   1
_chemical_formula_structural   TaMn5B6RuW5
_chemical_formula_sum   'Ta1 Mn5 B6 Ru1 W5'
_cell_volume   195.91881611
_cell_formula_units_Z   1
loop_
 _symmetry_equiv_pos_site_id
 _symmetry_equiv_pos_as_xyz
  1  'x, y, z'
loop_
 _atom_site_type_symbol
 _atom_site_label
 _atom_site_symmetry_multiplicity
 _atom_site_fract_x
 _atom_site_fract_y
 _atom_site_fract_z
 _atom_site_occupancy
  Ta  Ta0  1  0.000000  0.855560  0.754897  1
  Mn  Mn1  1  0.500000  0.432226  0.125376  1
  Mn  Mn2  1  0.500000  0.567448  0.879738  1
  Mn  Mn3  1  0.500000  0.431260  0.372394  1
  Mn  Mn4  1  0.500000  0.798158  0.248130  1
  Mn  Mn5  1  0.500000  0.198259  0.750687  1
  B  B6  1  0.500000  0.054606  0.088755  1
  B  B7  1  0.500000  0.949887  0.918220  1
  B  B8  1  0.500000  0.055958  0.407449  1
  B  B9  1  0.500000  0.949043  0.583031  1
  B  B10  1  0.000000  0.554742  0.249163  1
  B  B11  1  0.000000  0.438663  0.759717  1
  Ru  Ru12  1  0.500000  0.564123  0.621691  1
  W  W13  1  0.000000  0.229274  0.958229  1
  W  W14  1  0.000000  0.772664  0.047863  1
  W  W15  1  0.000000  0.218751  0.539963  1
  W  W16  1  0.000000  0.778608  0.446563  1
  W  W17  1  0.000000  0.150770  0.248136  1
