# generated using pymatgen
data_ErPa2Zn11
_symmetry_space_group_name_H-M   'P 1'
_cell_length_a   8.08567721
_cell_length_b   8.08567723
_cell_length_c   8.08567674
_cell_angle_alpha   148.35209907
_cell_angle_beta   112.90575319
_cell_angle_gamma   76.08364795
_symmetry_Int_Tables_number   1
_chemical_formula_structural   ErPa2Zn11
_chemical_formula_sum   'Er1 Pa2 Zn11'
_cell_volume   250.94542867
_cell_formula_units_Z   1
loop_
 _symmetry_equiv_pos_site_id
 _symmetry_equiv_pos_as_xyz
  1  'x, y, z'
loop_
 _atom_site_type_symbol
 _atom_site_label
 _atom_site_symmetry_multiplicity
 _atom_site_fract_x
 _atom_site_fract_y
 _atom_site_fract_z
 _atom_site_occupancy
  Er  Er0  1  0.000000  0.000000  0.000000  1
  Pa  Pa1  1  0.293056  0.293056  0.000000  1
  Pa  Pa2  1  0.706944  0.706944  0.000000  1
  Zn  Zn3  1  0.500000  0.000000  0.500000  1
  Zn  Zn4  1  0.682373  0.500000  0.182373  1
  Zn  Zn5  1  0.317627  0.500000  0.817627  1
  Zn  Zn6  1  0.704988  0.343690  0.361297  1
  Zn  Zn7  1  0.295012  0.656310  0.638703  1
  Zn  Zn8  1  0.982392  0.343690  0.638703  1
  Zn  Zn9  1  0.017608  0.656310  0.361297  1
  Zn  Zn10  1  0.425841  0.142392  0.283449  1
  Zn  Zn11  1  0.574159  0.857608  0.716551  1
  Zn  Zn12  1  0.858943  0.142392  0.716551  1
  Zn  Zn13  1  0.141057  0.857608  0.283449  1
