# generated using pymatgen
data_Nb4Fe3Si4Ir
_symmetry_space_group_name_H-M   'P 1'
_cell_length_a   3.74560900
_cell_length_b   6.28010336
_cell_length_c   7.11289725
_cell_angle_alpha   90.53780461
_cell_angle_beta   90.00000000
_cell_angle_gamma   90.00000000
_symmetry_Int_Tables_number   1
_chemical_formula_structural   Nb4Fe3Si4Ir
_chemical_formula_sum   'Nb4 Fe3 Si4 Ir1'
_cell_volume   167.30797179
_cell_formula_units_Z   1
loop_
 _symmetry_equiv_pos_site_id
 _symmetry_equiv_pos_as_xyz
  1  'x, y, z'
loop_
 _atom_site_type_symbol
 _atom_site_label
 _atom_site_symmetry_multiplicity
 _atom_site_fract_x
 _atom_site_fract_y
 _atom_site_fract_z
 _atom_site_occupancy
  Nb  Nb0  1  0.250000  0.513067  0.178722  1
  Nb  Nb1  1  0.750000  0.476849  0.824672  1
  Nb  Nb2  1  0.750000  0.984755  0.687761  1
  Nb  Nb3  1  0.250000  0.024252  0.313307  1
  Fe  Fe4  1  0.750000  0.351964  0.435837  1
  Fe  Fe5  1  0.750000  0.855977  0.062127  1
  Fe  Fe6  1  0.250000  0.146014  0.937066  1
  Si  Si7  1  0.250000  0.780675  0.892018  1
  Si  Si8  1  0.750000  0.219590  0.117064  1
  Si  Si9  1  0.750000  0.726534  0.367873  1
  Si  Si10  1  0.250000  0.271488  0.620188  1
  Ir  Ir11  1  0.250000  0.648835  0.563365  1
