# generated using pymatgen
data_Ce3Dy5(Si3Ni)4
_symmetry_space_group_name_H-M   'P 1'
_cell_length_a   8.13325500
_cell_length_b   8.13325441
_cell_length_c   8.21637100
_cell_angle_alpha   90.00000000
_cell_angle_beta   90.00000000
_cell_angle_gamma   120.00473270
_symmetry_Int_Tables_number   1
_chemical_formula_structural   Ce3Dy5(Si3Ni)4
_chemical_formula_sum   'Ce3 Dy5 Si12 Ni4'
_cell_volume   470.67237092
_cell_formula_units_Z   1
loop_
 _symmetry_equiv_pos_site_id
 _symmetry_equiv_pos_as_xyz
  1  'x, y, z'
loop_
 _atom_site_type_symbol
 _atom_site_label
 _atom_site_symmetry_multiplicity
 _atom_site_fract_x
 _atom_site_fract_y
 _atom_site_fract_z
 _atom_site_occupancy
  Ce  Ce0  1  0.499990  0.500010  0.750007  1
  Ce  Ce1  1  0.000004  0.999996  0.249994  1
  Ce  Ce2  1  0.000003  0.999997  0.750005  1
  Dy  Dy3  1  0.500010  0.000017  0.250000  1
  Dy  Dy4  1  0.500000  0.999997  0.750002  1
  Dy  Dy5  1  0.999983  0.499990  0.250000  1
  Dy  Dy6  1  0.000003  0.500000  0.750002  1
  Dy  Dy7  1  0.499996  0.500004  0.249998  1
  Si  Si8  1  0.171021  0.342561  0.999612  1
  Si  Si9  1  0.828958  0.657437  0.999548  1
  Si  Si10  1  0.657439  0.828979  0.999612  1
  Si  Si11  1  0.828968  0.657428  0.500418  1
  Si  Si12  1  0.342563  0.171042  0.999548  1
  Si  Si13  1  0.171039  0.342558  0.500424  1
  Si  Si14  1  0.171666  0.828334  0.000187  1
  Si  Si15  1  0.342572  0.171032  0.500418  1
  Si  Si16  1  0.828323  0.171677  0.000213  1
  Si  Si17  1  0.657442  0.828961  0.500424  1
  Si  Si18  1  0.828336  0.171664  0.499849  1
  Si  Si19  1  0.171678  0.828322  0.499758  1
  Ni  Ni20  1  0.333457  0.666543  0.999753  1
  Ni  Ni21  1  0.666527  0.333473  0.999851  1
  Ni  Ni22  1  0.666547  0.333453  0.500161  1
  Ni  Ni23  1  0.333476  0.666524  0.500215  1
