# generated using pymatgen
data_LuNbB6Ru
_symmetry_space_group_name_H-M   'P 1'
_cell_length_a   3.47143000
_cell_length_b   8.99441400
_cell_length_c   11.26187100
_cell_angle_alpha   90.00000000
_cell_angle_beta   90.00000000
_cell_angle_gamma   90.00000000
_symmetry_Int_Tables_number   1
_chemical_formula_structural   LuNbB6Ru
_chemical_formula_sum   'Lu4 Nb4 B24 Ru4'
_cell_volume   351.63478807
_cell_formula_units_Z   4
loop_
 _symmetry_equiv_pos_site_id
 _symmetry_equiv_pos_as_xyz
  1  'x, y, z'
loop_
 _atom_site_type_symbol
 _atom_site_label
 _atom_site_symmetry_multiplicity
 _atom_site_fract_x
 _atom_site_fract_y
 _atom_site_fract_z
 _atom_site_occupancy
  Lu  Lu0  1  0.000000  0.323330  0.412731  1
  Lu  Lu1  1  0.000000  0.676670  0.587269  1
  Lu  Lu2  1  0.000000  0.823330  0.087269  1
  Lu  Lu3  1  0.000000  0.176670  0.912731  1
  Nb  Nb4  1  0.000000  0.946160  0.375050  1
  Nb  Nb5  1  0.000000  0.053840  0.624950  1
  Nb  Nb6  1  0.000000  0.446160  0.124950  1
  Nb  Nb7  1  0.000000  0.553840  0.875050  1
  B  B8  1  0.500000  0.554086  0.435069  1
  B  B9  1  0.500000  0.445914  0.564931  1
  B  B10  1  0.500000  0.054086  0.064931  1
  B  B11  1  0.500000  0.945914  0.935069  1
  B  B12  1  0.500000  0.753564  0.419691  1
  B  B13  1  0.500000  0.246436  0.580309  1
  B  B14  1  0.500000  0.253564  0.080309  1
  B  B15  1  0.500000  0.746436  0.919691  1
  B  B16  1  0.500000  0.798292  0.262386  1
  B  B17  1  0.500000  0.201708  0.737614  1
  B  B18  1  0.500000  0.298292  0.237614  1
  B  B19  1  0.500000  0.701708  0.762386  1
  B  B20  1  0.500000  0.630122  0.181401  1
  B  B21  1  0.500000  0.369878  0.818599  1
  B  B22  1  0.500000  0.130122  0.318599  1
  B  B23  1  0.500000  0.869878  0.681401  1
  B  B24  1  0.500000  0.980258  0.212997  1
  B  B25  1  0.500000  0.019742  0.787003  1
  B  B26  1  0.500000  0.480258  0.287003  1
  B  B27  1  0.500000  0.519742  0.712997  1
  B  B28  1  0.500000  0.601244  0.026964  1
  B  B29  1  0.500000  0.398756  0.973036  1
  B  B30  1  0.500000  0.101244  0.473036  1
  B  B31  1  0.500000  0.898756  0.526964  1
  Ru  Ru32  1  0.000000  0.643113  0.318092  1
  Ru  Ru33  1  0.000000  0.356887  0.681908  1
  Ru  Ru34  1  0.000000  0.143113  0.181908  1
  Ru  Ru35  1  0.000000  0.856887  0.818092  1
