# generated using pymatgen
data_Ho16Co4AgHg3
_symmetry_space_group_name_H-M   'P 1'
_cell_length_a   9.43909024
_cell_length_b   9.42885153
_cell_length_c   9.43909000
_cell_angle_alpha   59.96407334
_cell_angle_beta   60.00000082
_cell_angle_gamma   59.96407712
_symmetry_Int_Tables_number   1
_chemical_formula_structural   Ho16Co4AgHg3
_chemical_formula_sum   'Ho16 Co4 Ag1 Hg3'
_cell_volume   593.70134185
_cell_formula_units_Z   1
loop_
 _symmetry_equiv_pos_site_id
 _symmetry_equiv_pos_as_xyz
  1  'x, y, z'
loop_
 _atom_site_type_symbol
 _atom_site_label
 _atom_site_symmetry_multiplicity
 _atom_site_fract_x
 _atom_site_fract_y
 _atom_site_fract_z
 _atom_site_occupancy
  Ho  Ho0  1  0.936585  0.939858  0.561778  1
  Ho  Ho1  1  0.811840  0.187451  0.188870  1
  Ho  Ho2  1  0.937745  0.562454  0.562058  1
  Ho  Ho3  1  0.937745  0.562454  0.937745  1
  Ho  Ho4  1  0.811348  0.810885  0.188884  1
  Ho  Ho5  1  0.347298  0.348078  0.347298  1
  Ho  Ho6  1  0.561778  0.939858  0.936585  1
  Ho  Ho7  1  0.561778  0.939858  0.561778  1
  Ho  Ho8  1  0.188884  0.810885  0.811348  1
  Ho  Ho9  1  0.188870  0.187451  0.811840  1
  Ho  Ho10  1  0.347298  0.348078  0.957328  1
  Ho  Ho11  1  0.347960  0.956120  0.347960  1
  Ho  Ho12  1  0.811840  0.187451  0.811840  1
  Ho  Ho13  1  0.562058  0.562454  0.937745  1
  Ho  Ho14  1  0.188884  0.810885  0.188884  1
  Ho  Ho15  1  0.957328  0.348078  0.347298  1
  Co  Co16  1  0.576557  0.140434  0.141505  1
  Co  Co17  1  0.141505  0.140434  0.141505  1
  Co  Co18  1  0.141151  0.576550  0.141151  1
  Co  Co19  1  0.141505  0.140434  0.576557  1
  Ag  Ag20  1  0.581622  0.255135  0.581622  1
  Hg  Hg21  1  0.584775  0.581571  0.248880  1
  Hg  Hg22  1  0.248880  0.581571  0.584775  1
  Hg  Hg23  1  0.584775  0.581571  0.584775  1
