# generated using pymatgen
data_Dy7Er(Tc3Ge4)4
_symmetry_space_group_name_H-M   'P 1'
_cell_length_a   6.97398565
_cell_length_b   6.97601962
_cell_length_c   13.03863400
_cell_angle_alpha   90.07876507
_cell_angle_beta   89.71273882
_cell_angle_gamma   90.00537206
_symmetry_Int_Tables_number   1
_chemical_formula_structural   Dy7Er(Tc3Ge4)4
_chemical_formula_sum   'Dy7 Er1 Tc12 Ge16'
_cell_volume   634.32958463
_cell_formula_units_Z   1
loop_
 _symmetry_equiv_pos_site_id
 _symmetry_equiv_pos_as_xyz
  1  'x, y, z'
loop_
 _atom_site_type_symbol
 _atom_site_label
 _atom_site_symmetry_multiplicity
 _atom_site_fract_x
 _atom_site_fract_y
 _atom_site_fract_z
 _atom_site_occupancy
  Dy  Dy0  1  0.339427  0.993232  0.472698  1
  Dy  Dy1  1  0.507754  0.840831  0.722113  1
  Dy  Dy2  1  0.493479  0.161101  0.222310  1
  Dy  Dy3  1  0.840442  0.507995  0.278045  1
  Dy  Dy4  1  0.160644  0.493693  0.777344  1
  Dy  Dy5  1  0.660222  0.007554  0.971877  1
  Dy  Dy6  1  0.992181  0.340479  0.528025  1
  Er  Er7  1  0.007134  0.660110  0.027070  1
  Tc  Tc8  1  0.337003  0.338051  0.000072  1
  Tc  Tc9  1  0.162777  0.837273  0.249354  1
  Tc  Tc10  1  0.836919  0.163732  0.750351  1
  Tc  Tc11  1  0.663074  0.663488  0.499982  1
  Tc  Tc12  1  0.184917  0.981778  0.875294  1
  Tc  Tc13  1  0.520329  0.685290  0.123077  1
  Tc  Tc14  1  0.479526  0.308767  0.622527  1
  Tc  Tc15  1  0.690598  0.522469  0.879719  1
  Tc  Tc16  1  0.313440  0.482002  0.374973  1
  Tc  Tc17  1  0.809037  0.021549  0.370682  1
  Tc  Tc18  1  0.981165  0.184797  0.126014  1
  Tc  Tc19  1  0.020684  0.808136  0.628361  1
  Ge  Ge20  1  0.187258  0.110359  0.683286  1
  Ge  Ge21  1  0.387077  0.688484  0.933241  1
  Ge  Ge22  1  0.611065  0.312014  0.432547  1
  Ge  Ge23  1  0.689842  0.386847  0.067371  1
  Ge  Ge24  1  0.312546  0.610081  0.567003  1
  Ge  Ge25  1  0.811758  0.886220  0.181974  1
  Ge  Ge26  1  0.111856  0.188186  0.316884  1
  Ge  Ge27  1  0.888289  0.811757  0.817844  1
  Ge  Ge28  1  0.276256  0.980271  0.066824  1
  Ge  Ge29  1  0.517620  0.775764  0.315594  1
  Ge  Ge30  1  0.482820  0.228606  0.815902  1
  Ge  Ge31  1  0.771280  0.515905  0.685685  1
  Ge  Ge32  1  0.223653  0.481483  0.182569  1
  Ge  Ge33  1  0.729003  0.015789  0.564605  1
  Ge  Ge34  1  0.982136  0.277217  0.934074  1
  Ge  Ge35  1  0.016789  0.728696  0.434706  1
