# generated using pymatgen
data_YbOs3Pb4O13
_symmetry_space_group_name_H-M   'P 1'
_cell_length_a   7.59003509
_cell_length_b   7.59003412
_cell_length_c   7.59003300
_cell_angle_alpha   58.67339332
_cell_angle_beta   58.67339775
_cell_angle_gamma   58.67340193
_symmetry_Int_Tables_number   1
_chemical_formula_structural   YbOs3Pb4O13
_chemical_formula_sum   'Yb1 Os3 Pb4 O13'
_cell_volume   299.80975590
_cell_formula_units_Z   1
loop_
 _symmetry_equiv_pos_site_id
 _symmetry_equiv_pos_as_xyz
  1  'x, y, z'
loop_
 _atom_site_type_symbol
 _atom_site_label
 _atom_site_symmetry_multiplicity
 _atom_site_fract_x
 _atom_site_fract_y
 _atom_site_fract_z
 _atom_site_occupancy
  Yb  Yb0  1  0.502223  0.502223  0.502223  1
  Os  Os1  1  0.000677  0.500854  0.500854  1
  Os  Os2  1  0.500854  0.500854  0.000677  1
  Os  Os3  1  0.500854  0.000677  0.500854  1
  Pb  Pb4  1  0.997935  0.997935  0.997935  1
  Pb  Pb5  1  0.501517  0.004995  0.004995  1
  Pb  Pb6  1  0.004995  0.004995  0.501517  1
  Pb  Pb7  1  0.004995  0.501517  0.004995  1
  O  O8  1  0.878839  0.403775  0.403775  1
  O  O9  1  0.419025  0.800586  0.800586  1
  O  O10  1  0.403775  0.403775  0.878839  1
  O  O11  1  0.800586  0.800586  0.419025  1
  O  O12  1  0.800586  0.419025  0.800586  1
  O  O13  1  0.403775  0.878839  0.403775  1
  O  O14  1  0.133828  0.587433  0.587433  1
  O  O15  1  0.589744  0.193818  0.193818  1
  O  O16  1  0.587433  0.587433  0.133828  1
  O  O17  1  0.193818  0.193818  0.589744  1
  O  O18  1  0.193818  0.589744  0.193818  1
  O  O19  1  0.587433  0.133828  0.587433  1
  O  O20  1  0.118291  0.118291  0.118291  1
