# generated using pymatgen
data_Ca8Zn(Ga4Cu)3
_symmetry_space_group_name_H-M   'P 1'
_cell_length_a   7.32517600
_cell_length_b   8.97327689
_cell_length_c   8.97327700
_cell_angle_alpha   119.99999672
_cell_angle_beta   90.00000000
_cell_angle_gamma   90.00000000
_symmetry_Int_Tables_number   1
_chemical_formula_structural   Ca8Zn(Ga4Cu)3
_chemical_formula_sum   'Ca8 Zn1 Ga12 Cu3'
_cell_volume   510.79995860
_cell_formula_units_Z   1
loop_
 _symmetry_equiv_pos_site_id
 _symmetry_equiv_pos_as_xyz
  1  'x, y, z'
loop_
 _atom_site_type_symbol
 _atom_site_label
 _atom_site_symmetry_multiplicity
 _atom_site_fract_x
 _atom_site_fract_y
 _atom_site_fract_z
 _atom_site_occupancy
  Ca  Ca0  1  0.755153  0.000000  0.000000  1
  Ca  Ca1  1  0.249635  0.000000  0.000000  1
  Ca  Ca2  1  0.750172  0.476443  0.523557  1
  Ca  Ca3  1  0.247191  0.523029  0.476971  1
  Ca  Ca4  1  0.750172  0.047112  0.523557  1
  Ca  Ca5  1  0.247191  0.953942  0.476971  1
  Ca  Ca6  1  0.750172  0.476443  0.952888  1
  Ca  Ca7  1  0.247191  0.523029  0.046058  1
  Zn  Zn8  1  0.562200  0.666667  0.333333  1
  Ga  Ga9  1  0.947775  0.827801  0.172199  1
  Ga  Ga10  1  0.054912  0.170605  0.829395  1
  Ga  Ga11  1  0.947775  0.344400  0.172199  1
  Ga  Ga12  1  0.443522  0.170765  0.829235  1
  Ga  Ga13  1  0.054912  0.658788  0.829395  1
  Ga  Ga14  1  0.551056  0.833031  0.166969  1
  Ga  Ga15  1  0.947775  0.827801  0.655600  1
  Ga  Ga16  1  0.443522  0.658472  0.829235  1
  Ga  Ga17  1  0.054912  0.170605  0.341212  1
  Ga  Ga18  1  0.551056  0.333939  0.166969  1
  Ga  Ga19  1  0.443522  0.170765  0.341528  1
  Ga  Ga20  1  0.551056  0.833031  0.666061  1
  Cu  Cu21  1  0.948607  0.666667  0.333333  1
  Cu  Cu22  1  0.059139  0.333333  0.666667  1
  Cu  Cu23  1  0.441380  0.333333  0.666667  1
