# generated using pymatgen
data_Dy4Er8ZnFe4Bi
_symmetry_space_group_name_H-M   'P 1'
_cell_length_a   8.33926429
_cell_length_b   8.33935972
_cell_length_c   8.33926641
_cell_angle_alpha   110.53941250
_cell_angle_beta   110.98326987
_cell_angle_gamma   106.92057239
_symmetry_Int_Tables_number   1
_chemical_formula_structural   Dy4Er8ZnFe4Bi
_chemical_formula_sum   'Dy4 Er8 Zn1 Fe4 Bi1'
_cell_volume   445.77905758
_cell_formula_units_Z   1
loop_
 _symmetry_equiv_pos_site_id
 _symmetry_equiv_pos_as_xyz
  1  'x, y, z'
loop_
 _atom_site_type_symbol
 _atom_site_label
 _atom_site_symmetry_multiplicity
 _atom_site_fract_x
 _atom_site_fract_y
 _atom_site_fract_z
 _atom_site_occupancy
  Dy  Dy0  1  0.284500  0.185294  0.469803  1
  Dy  Dy1  1  0.715500  0.814706  0.530197  1
  Dy  Dy2  1  0.284509  0.814706  0.099207  1
  Dy  Dy3  1  0.715491  0.185294  0.900793  1
  Er  Er4  1  0.614379  0.310210  0.304166  1
  Er  Er5  1  0.385621  0.689790  0.695834  1
  Er  Er6  1  0.006044  0.310210  0.695832  1
  Er  Er7  1  0.993956  0.689790  0.304168  1
  Er  Er8  1  0.219913  0.427896  0.207983  1
  Er  Er9  1  0.780087  0.572104  0.792017  1
  Er  Er10  1  0.219913  0.011927  0.792013  1
  Er  Er11  1  0.780087  0.988073  0.207987  1
  Zn  Zn12  1  0.000000  0.000000  0.000000  1
  Fe  Fe13  1  0.000008  0.384684  0.384677  1
  Fe  Fe14  1  0.999992  0.615316  0.615323  1
  Fe  Fe15  1  0.392076  0.892083  0.500006  1
  Fe  Fe16  1  0.607924  0.107917  0.499994  1
  Bi  Bi17  1  0.500000  0.500000  0.000000  1
