# generated using pymatgen
data_Tb6Ga4CoNi11
_symmetry_space_group_name_H-M   'P 1'
_cell_length_a   7.71418520
_cell_length_b   7.71418595
_cell_length_c   7.68147862
_cell_angle_alpha   109.32046084
_cell_angle_beta   109.32047516
_cell_angle_gamma   109.94406017
_symmetry_Int_Tables_number   1
_chemical_formula_structural   Tb6Ga4CoNi11
_chemical_formula_sum   'Tb6 Ga4 Co1 Ni11'
_cell_volume   351.13045741
_cell_formula_units_Z   1
loop_
 _symmetry_equiv_pos_site_id
 _symmetry_equiv_pos_as_xyz
  1  'x, y, z'
loop_
 _atom_site_type_symbol
 _atom_site_label
 _atom_site_symmetry_multiplicity
 _atom_site_fract_x
 _atom_site_fract_y
 _atom_site_fract_z
 _atom_site_occupancy
  Tb  Tb0  1  0.706850  0.706850  0.999551  1
  Tb  Tb1  1  0.290659  0.999835  0.290494  1
  Tb  Tb2  1  0.999835  0.290659  0.290494  1
  Tb  Tb3  1  0.292701  0.292701  0.999551  1
  Tb  Tb4  1  0.708547  0.000496  0.709043  1
  Tb  Tb5  1  0.000496  0.708547  0.709043  1
  Ga  Ga6  1  0.003776  0.003776  0.500631  1
  Ga  Ga7  1  0.999653  0.499653  0.999306  1
  Ga  Ga8  1  0.499653  0.999653  0.999306  1
  Ga  Ga9  1  0.496856  0.496856  0.500631  1
  Co  Co10  1  0.340382  0.340382  0.680763  1
  Ni  Ni11  1  0.662008  0.999710  0.337728  1
  Ni  Ni12  1  0.999710  0.662008  0.337728  1
  Ni  Ni13  1  0.661189  0.335954  0.997143  1
  Ni  Ni14  1  0.338019  0.675721  0.337728  1
  Ni  Ni15  1  0.999663  0.337610  0.661413  1
  Ni  Ni16  1  0.335954  0.661189  0.997143  1
  Ni  Ni17  1  0.337610  0.999663  0.661413  1
  Ni  Ni18  1  0.675721  0.338019  0.337728  1
  Ni  Ni19  1  0.665169  0.665169  0.330338  1
  Ni  Ni20  1  0.661749  0.323801  0.661413  1
  Ni  Ni21  1  0.323801  0.661749  0.661413  1
