# generated using pymatgen
data_Nb5Co16Si7W
_symmetry_space_group_name_H-M   'P 1'
_cell_length_a   7.90388003
_cell_length_b   7.89159440
_cell_length_c   7.90388053
_cell_angle_alpha   60.05141007
_cell_angle_beta   59.89718930
_cell_angle_gamma   60.05141155
_symmetry_Int_Tables_number   1
_chemical_formula_structural   Nb5Co16Si7W
_chemical_formula_sum   'Nb5 Co16 Si7 W1'
_cell_volume   348.60082087
_cell_formula_units_Z   1
loop_
 _symmetry_equiv_pos_site_id
 _symmetry_equiv_pos_as_xyz
  1  'x, y, z'
loop_
 _atom_site_type_symbol
 _atom_site_label
 _atom_site_symmetry_multiplicity
 _atom_site_fract_x
 _atom_site_fract_y
 _atom_site_fract_z
 _atom_site_occupancy
  Nb  Nb0  1  0.202825  0.797175  0.798526  1
  Nb  Nb1  1  0.798526  0.201474  0.202825  1
  Nb  Nb2  1  0.798526  0.797175  0.202825  1
  Nb  Nb3  1  0.202825  0.201474  0.798526  1
  Nb  Nb4  1  0.795524  0.204476  0.795524  1
  Co  Co5  1  0.166292  0.164036  0.166292  1
  Co  Co6  1  0.496621  0.833708  0.835964  1
  Co  Co7  1  0.833727  0.498857  0.833727  1
  Co  Co8  1  0.835964  0.833708  0.496621  1
  Co  Co9  1  0.166292  0.503379  0.166292  1
  Co  Co10  1  0.166310  0.166273  0.501143  1
  Co  Co11  1  0.501143  0.166273  0.166310  1
  Co  Co12  1  0.833727  0.833690  0.833727  1
  Co  Co13  1  0.380052  0.384988  0.380052  1
  Co  Co14  1  0.145093  0.619948  0.615012  1
  Co  Co15  1  0.618763  0.143100  0.618763  1
  Co  Co16  1  0.615012  0.619948  0.145093  1
  Co  Co17  1  0.380052  0.854907  0.380052  1
  Co  Co18  1  0.380625  0.381237  0.856900  1
  Co  Co19  1  0.856900  0.381237  0.380625  1
  Co  Co20  1  0.618763  0.619375  0.618763  1
  Si  Si21  1  0.501403  0.498597  0.501403  1
  Si  Si22  1  0.000210  0.499790  0.000210  1
  Si  Si23  1  0.499538  0.998775  0.001225  1
  Si  Si24  1  0.001225  0.500462  0.499538  1
  Si  Si25  1  0.500210  0.999790  0.500210  1
  Si  Si26  1  0.001225  0.998775  0.499538  1
  Si  Si27  1  0.499538  0.500462  0.001225  1
  W  W28  1  0.203087  0.796913  0.203087  1
