# generated using pymatgen
data_Zr5InGaBi2
_symmetry_space_group_name_H-M   'P 1'
_cell_length_a   8.83718789
_cell_length_b   8.83718796
_cell_length_c   5.94234800
_cell_angle_alpha   90.00000000
_cell_angle_beta   90.00000000
_cell_angle_gamma   119.66391411
_symmetry_Int_Tables_number   1
_chemical_formula_structural   Zr5InGaBi2
_chemical_formula_sum   'Zr10 In2 Ga2 Bi4'
_cell_volume   403.25312990
_cell_formula_units_Z   2
loop_
 _symmetry_equiv_pos_site_id
 _symmetry_equiv_pos_as_xyz
  1  'x, y, z'
loop_
 _atom_site_type_symbol
 _atom_site_label
 _atom_site_symmetry_multiplicity
 _atom_site_fract_x
 _atom_site_fract_y
 _atom_site_fract_z
 _atom_site_occupancy
  Zr  Zr0  1  0.729107  0.004766  0.250000  1
  Zr  Zr1  1  0.004766  0.729107  0.250000  1
  Zr  Zr2  1  0.270778  0.270778  0.250000  1
  Zr  Zr3  1  0.257854  0.000055  0.750000  1
  Zr  Zr4  1  0.000055  0.257854  0.750000  1
  Zr  Zr5  1  0.741340  0.741340  0.750000  1
  Zr  Zr6  1  0.331867  0.667243  0.495296  1
  Zr  Zr7  1  0.667243  0.331867  0.495296  1
  Zr  Zr8  1  0.667243  0.331867  0.004704  1
  Zr  Zr9  1  0.331867  0.667243  0.004704  1
  In  In10  1  0.382144  0.000808  0.250000  1
  In  In11  1  0.000808  0.382144  0.250000  1
  Ga  Ga12  1  0.000971  0.000971  0.484323  1
  Ga  Ga13  1  0.000971  0.000971  0.015677  1
  Bi  Bi14  1  0.616826  0.616826  0.250000  1
  Bi  Bi15  1  0.604908  0.999967  0.750000  1
  Bi  Bi16  1  0.999967  0.604908  0.750000  1
  Bi  Bi17  1  0.391283  0.391283  0.750000  1
