# generated using pymatgen
data_Pr2PtPbAu
_symmetry_space_group_name_H-M   'P 1'
_cell_length_a   8.32562800
_cell_length_b   8.30822400
_cell_length_c   3.76523400
_cell_angle_alpha   90.00000000
_cell_angle_beta   90.00000000
_cell_angle_gamma   90.00000000
_symmetry_Int_Tables_number   1
_chemical_formula_structural   Pr2PtPbAu
_chemical_formula_sum   'Pr4 Pt2 Pb2 Au2'
_cell_volume   260.44568766
_cell_formula_units_Z   2
loop_
 _symmetry_equiv_pos_site_id
 _symmetry_equiv_pos_as_xyz
  1  'x, y, z'
loop_
 _atom_site_type_symbol
 _atom_site_label
 _atom_site_symmetry_multiplicity
 _atom_site_fract_x
 _atom_site_fract_y
 _atom_site_fract_z
 _atom_site_occupancy
  Pr  Pr0  1  0.318246  0.830595  0.500000  1
  Pr  Pr1  1  0.654280  0.173198  0.500000  1
  Pr  Pr2  1  0.845720  0.673198  0.500000  1
  Pr  Pr3  1  0.181754  0.330595  0.500000  1
  Pt  Pt4  1  0.375697  0.121792  0.000000  1
  Pt  Pt5  1  0.124303  0.621792  0.000000  1
  Pb  Pb6  1  0.496665  0.502311  0.000000  1
  Pb  Pb7  1  0.003335  0.002311  0.000000  1
  Au  Au8  1  0.876367  0.372105  0.000000  1
  Au  Au9  1  0.623633  0.872105  0.000000  1
