# generated using pymatgen
data_Na20TaNb(GaP6)2
_symmetry_space_group_name_H-M   'P 1'
_cell_length_a   7.34819704
_cell_length_b   8.14332985
_cell_length_c   15.45262909
_cell_angle_alpha   59.08980916
_cell_angle_beta   90.01076407
_cell_angle_gamma   90.01102924
_symmetry_Int_Tables_number   1
_chemical_formula_structural   Na20TaNb(GaP6)2
_chemical_formula_sum   'Na20 Ta1 Nb1 Ga2 P12'
_cell_volume   793.33952208
_cell_formula_units_Z   1
loop_
 _symmetry_equiv_pos_site_id
 _symmetry_equiv_pos_as_xyz
  1  'x, y, z'
loop_
 _atom_site_type_symbol
 _atom_site_label
 _atom_site_symmetry_multiplicity
 _atom_site_fract_x
 _atom_site_fract_y
 _atom_site_fract_z
 _atom_site_occupancy
  Na  Na0  1  0.738321  0.941493  0.246242  1
  Na  Na1  1  0.261664  0.941498  0.746202  1
  Na  Na2  1  0.771876  0.055575  0.760263  1
  Na  Na3  1  0.228027  0.055611  0.260421  1
  Na  Na4  1  0.266449  0.246146  0.418737  1
  Na  Na5  1  0.733553  0.246315  0.918650  1
  Na  Na6  1  0.218671  0.752344  0.579138  1
  Na  Na7  1  0.781545  0.752408  0.079159  1
  Na  Na8  1  0.088337  0.345441  0.582983  1
  Na  Na9  1  0.911625  0.345309  0.082991  1
  Na  Na10  1  0.405851  0.656248  0.418612  1
  Na  Na11  1  0.594154  0.656209  0.918677  1
  Na  Na12  1  0.596403  0.335425  0.242980  1
  Na  Na13  1  0.403570  0.335327  0.743046  1
  Na  Na14  1  0.908660  0.663504  0.760236  1
  Na  Na15  1  0.091383  0.663429  0.260266  1
  Na  Na16  1  0.770619  0.422667  0.407867  1
  Na  Na17  1  0.229344  0.422967  0.907728  1
  Na  Na18  1  0.740431  0.579402  0.589032  1
  Na  Na19  1  0.259457  0.579215  0.089038  1
  Ta  Ta20  1  0.383866  0.989403  0.078465  1
  Nb  Nb21  1  0.615929  0.989401  0.578442  1
  Ga  Ga22  1  0.891359  0.012675  0.415173  1
  Ga  Ga23  1  0.108326  0.012651  0.914984  1
  P  P24  1  0.981223  0.316108  0.272833  1
  P  P25  1  0.018745  0.316090  0.772814  1
  P  P26  1  0.520172  0.693685  0.724534  1
  P  P27  1  0.479673  0.694533  0.224030  1
  P  P28  1  0.944547  0.019192  0.573391  1
  P  P29  1  0.056350  0.019107  0.073549  1
  P  P30  1  0.544553  0.979502  0.428738  1
  P  P31  1  0.455658  0.979530  0.929218  1
  P  P32  1  0.003498  0.726518  0.421907  1
  P  P33  1  0.996440  0.726453  0.921926  1
  P  P34  1  0.492042  0.264801  0.578886  1
  P  P35  1  0.507680  0.263815  0.078839  1
