# generated using pymatgen
data_CaTbPr5FeI12
_symmetry_space_group_name_H-M   'P 1'
_cell_length_a   10.11297563
_cell_length_b   10.01634283
_cell_length_c   10.02546494
_cell_angle_alpha   107.02395080
_cell_angle_beta   106.69681390
_cell_angle_gamma   107.18954444
_symmetry_Int_Tables_number   1
_chemical_formula_structural   CaTbPr5FeI12
_chemical_formula_sum   'Ca1 Tb1 Pr5 Fe1 I12'
_cell_volume   846.41918548
_cell_formula_units_Z   1
loop_
 _symmetry_equiv_pos_site_id
 _symmetry_equiv_pos_as_xyz
  1  'x, y, z'
loop_
 _atom_site_type_symbol
 _atom_site_label
 _atom_site_symmetry_multiplicity
 _atom_site_fract_x
 _atom_site_fract_y
 _atom_site_fract_z
 _atom_site_occupancy
  Ca  Ca0  1  0.499307  0.501462  0.500528  1
  Tb  Tb1  1  0.701589  0.973794  0.901270  1
  Pr  Pr2  1  0.094485  0.292805  0.024908  1
  Pr  Pr3  1  0.025047  0.095990  0.292242  1
  Pr  Pr4  1  0.309291  0.025945  0.101051  1
  Pr  Pr5  1  0.901633  0.706105  0.973878  1
  Pr  Pr6  1  0.975524  0.903548  0.707384  1
  Fe  Fe7  1  0.999799  0.999186  0.999676  1
  I  I8  1  0.459859  0.384317  0.157822  1
  I  I9  1  0.158865  0.462066  0.383643  1
  I  I10  1  0.381667  0.158284  0.462009  1
  I  I11  1  0.540267  0.626406  0.844225  1
  I  I12  1  0.839048  0.537248  0.616034  1
  I  I13  1  0.619757  0.848141  0.548260  1
  I  I14  1  0.769196  0.307739  0.924779  1
  I  I15  1  0.925590  0.773023  0.317282  1
  I  I16  1  0.321483  0.927366  0.773796  1
  I  I17  1  0.222556  0.679849  0.072015  1
  I  I18  1  0.073005  0.226397  0.682324  1
  I  I19  1  0.682030  0.070330  0.216873  1
