# generated using pymatgen
data_Dy6Er10Cd4NiIr3
_symmetry_space_group_name_H-M   'P 1'
_cell_length_a   9.54750109
_cell_length_b   9.54750137
_cell_length_c   9.54750143
_cell_angle_alpha   60.24087678
_cell_angle_beta   60.24087418
_cell_angle_gamma   60.24087113
_symmetry_Int_Tables_number   1
_chemical_formula_structural   Dy6Er10Cd4NiIr3
_chemical_formula_sum   'Dy6 Er10 Cd4 Ni1 Ir3'
_cell_volume   618.75097360
_cell_formula_units_Z   1
loop_
 _symmetry_equiv_pos_site_id
 _symmetry_equiv_pos_as_xyz
  1  'x, y, z'
loop_
 _atom_site_type_symbol
 _atom_site_label
 _atom_site_symmetry_multiplicity
 _atom_site_fract_x
 _atom_site_fract_y
 _atom_site_fract_z
 _atom_site_occupancy
  Dy  Dy0  1  0.188681  0.811900  0.811900  1
  Dy  Dy1  1  0.813734  0.187434  0.187434  1
  Dy  Dy2  1  0.811900  0.188681  0.811900  1
  Dy  Dy3  1  0.187434  0.813734  0.187434  1
  Dy  Dy4  1  0.811900  0.811900  0.188681  1
  Dy  Dy5  1  0.187434  0.187434  0.813734  1
  Er  Er6  1  0.598625  0.598625  0.598625  1
  Er  Er7  1  0.598252  0.598252  0.203268  1
  Er  Er8  1  0.598252  0.203268  0.598252  1
  Er  Er9  1  0.203268  0.598252  0.598252  1
  Er  Er10  1  0.061708  0.439543  0.439543  1
  Er  Er11  1  0.437865  0.060522  0.060522  1
  Er  Er12  1  0.439543  0.061708  0.439543  1
  Er  Er13  1  0.060522  0.437865  0.060522  1
  Er  Er14  1  0.439543  0.439543  0.061708  1
  Er  Er15  1  0.060522  0.060522  0.437865  1
  Cd  Cd16  1  0.830467  0.830467  0.830467  1
  Cd  Cd17  1  0.831291  0.831291  0.506663  1
  Cd  Cd18  1  0.831291  0.506663  0.831291  1
  Cd  Cd19  1  0.506663  0.831291  0.831291  1
  Ni  Ni20  1  0.392037  0.392037  0.392037  1
  Ir  Ir21  1  0.392087  0.392087  0.824888  1
  Ir  Ir22  1  0.392087  0.824888  0.392087  1
  Ir  Ir23  1  0.824888  0.392087  0.392087  1
