# generated using pymatgen
data_CaLa3Nd5Rh6
_symmetry_space_group_name_H-M   'P 1'
_cell_length_a   7.69086035
_cell_length_b   7.68914745
_cell_length_c   7.69271197
_cell_angle_alpha   70.46178836
_cell_angle_beta   70.48327935
_cell_angle_gamma   70.36167311
_symmetry_Int_Tables_number   1
_chemical_formula_structural   CaLa3Nd5Rh6
_chemical_formula_sum   'Ca1 La3 Nd5 Rh6'
_cell_volume   390.98859418
_cell_formula_units_Z   1
loop_
 _symmetry_equiv_pos_site_id
 _symmetry_equiv_pos_as_xyz
  1  'x, y, z'
loop_
 _atom_site_type_symbol
 _atom_site_label
 _atom_site_symmetry_multiplicity
 _atom_site_fract_x
 _atom_site_fract_y
 _atom_site_fract_z
 _atom_site_occupancy
  Ca  Ca0  1  0.999434  0.998176  0.000987  1
  La  La1  1  0.799348  0.801748  0.800225  1
  La  La2  1  0.199720  0.198157  0.200326  1
  La  La3  1  0.157456  0.387984  0.669481  1
  Nd  Nd4  1  0.670945  0.155251  0.388351  1
  Nd  Nd5  1  0.389601  0.669686  0.155360  1
  Nd  Nd6  1  0.842191  0.610773  0.330871  1
  Nd  Nd7  1  0.332120  0.843196  0.610667  1
  Nd  Nd8  1  0.610226  0.331880  0.844989  1
  Rh  Rh9  1  0.953546  0.178709  0.576938  1
  Rh  Rh10  1  0.577850  0.952733  0.175906  1
  Rh  Rh11  1  0.177659  0.576264  0.951814  1
  Rh  Rh12  1  0.046864  0.823182  0.422335  1
  Rh  Rh13  1  0.420834  0.048752  0.823446  1
  Rh  Rh14  1  0.822205  0.423509  0.048305  1
