# generated using pymatgen
data_TbDyHoNi9
_symmetry_space_group_name_H-M   'P 1'
_cell_length_a   8.58282485
_cell_length_b   8.58282416
_cell_length_c   8.58282561
_cell_angle_alpha   33.52909498
_cell_angle_beta   33.52910042
_cell_angle_gamma   33.52909889
_symmetry_Int_Tables_number   1
_chemical_formula_structural   TbDyHoNi9
_chemical_formula_sum   'Tb1 Dy1 Ho1 Ni9'
_cell_volume   171.81403205
_cell_formula_units_Z   1
loop_
 _symmetry_equiv_pos_site_id
 _symmetry_equiv_pos_as_xyz
  1  'x, y, z'
loop_
 _atom_site_type_symbol
 _atom_site_label
 _atom_site_symmetry_multiplicity
 _atom_site_fract_x
 _atom_site_fract_y
 _atom_site_fract_z
 _atom_site_occupancy
  Tb  Tb0  1  0.000160  0.000160  0.000160  1
  Dy  Dy1  1  0.860962  0.860962  0.860962  1
  Ho  Ho2  1  0.138963  0.138963  0.138963  1
  Ni  Ni3  1  0.583027  0.583027  0.080724  1
  Ni  Ni4  1  0.333325  0.333325  0.333325  1
  Ni  Ni5  1  0.416841  0.919607  0.416844  1
  Ni  Ni6  1  0.919607  0.416841  0.416844  1
  Ni  Ni7  1  0.499808  0.499808  0.499808  1
  Ni  Ni8  1  0.583028  0.080724  0.583025  1
  Ni  Ni9  1  0.080724  0.583028  0.583025  1
  Ni  Ni10  1  0.666713  0.666713  0.666713  1
  Ni  Ni11  1  0.416843  0.416843  0.919607  1
