# generated using pymatgen
data_La10Zn(HgRu2)3
_symmetry_space_group_name_H-M   'P 1'
_cell_length_a   8.74563945
_cell_length_b   8.70667226
_cell_length_c   8.70667291
_cell_angle_alpha   109.38038707
_cell_angle_beta   109.56190791
_cell_angle_gamma   109.56190266
_symmetry_Int_Tables_number   1
_chemical_formula_structural   La10Zn(HgRu2)3
_chemical_formula_sum   'La10 Zn1 Hg3 Ru6'
_cell_volume   509.78471972
_cell_formula_units_Z   1
loop_
 _symmetry_equiv_pos_site_id
 _symmetry_equiv_pos_as_xyz
  1  'x, y, z'
loop_
 _atom_site_type_symbol
 _atom_site_label
 _atom_site_symmetry_multiplicity
 _atom_site_fract_x
 _atom_site_fract_y
 _atom_site_fract_z
 _atom_site_occupancy
  La  La0  1  0.779948  0.000000  0.000000  1
  La  La1  1  0.249507  0.309202  0.060491  1
  La  La2  1  0.714546  0.714161  0.211998  1
  La  La3  1  0.189015  0.939509  0.248710  1
  La  La4  1  0.000385  0.497838  0.285840  1
  La  La5  1  0.745198  0.183281  0.430904  1
  La  La6  1  0.502549  0.788004  0.502164  1
  La  La7  1  0.940305  0.751290  0.690798  1
  La  La8  1  0.314295  0.569096  0.752377  1
  La  La9  1  0.561918  0.247623  0.816718  1
  Zn  Zn10  1  0.414617  0.000000  0.000000  1
  Hg  Hg11  1  0.501471  0.409817  0.500871  1
  Hg  Hg12  1  0.091654  0.091054  0.590183  1
  Hg  Hg13  1  0.000600  0.499129  0.908946  1
  Ru  Ru14  1  0.394459  0.765281  0.136879  1
  Ru  Ru15  1  0.629178  0.371598  0.234719  1
  Ru  Ru16  1  0.107709  0.253766  0.356585  1
  Ru  Ru17  1  0.257580  0.863121  0.628403  1
  Ru  Ru18  1  0.853942  0.102818  0.746234  1
  Ru  Ru19  1  0.751125  0.643415  0.897182  1
