# generated using pymatgen
data_La7Pr13Si15Pt
_symmetry_space_group_name_H-M   'P 1'
_cell_length_a   7.95920111
_cell_length_b   7.96613172
_cell_length_c   15.21191600
_cell_angle_alpha   89.89903273
_cell_angle_beta   89.53501025
_cell_angle_gamma   90.06559325
_symmetry_Int_Tables_number   1
_chemical_formula_structural   La7Pr13Si15Pt
_chemical_formula_sum   'La7 Pr13 Si15 Pt1'
_cell_volume   964.46309001
_cell_formula_units_Z   1
loop_
 _symmetry_equiv_pos_site_id
 _symmetry_equiv_pos_as_xyz
  1  'x, y, z'
loop_
 _atom_site_type_symbol
 _atom_site_label
 _atom_site_symmetry_multiplicity
 _atom_site_fract_x
 _atom_site_fract_y
 _atom_site_fract_z
 _atom_site_occupancy
  La  La0  1  0.014835  0.373000  0.548143  1
  La  La1  1  0.628731  0.985416  0.951848  1
  La  La2  1  0.127321  0.512128  0.800773  1
  La  La3  1  0.868972  0.483946  0.298856  1
  La  La4  1  0.507878  0.125382  0.198302  1
  La  La5  1  0.491142  0.874606  0.699369  1
  La  La6  1  0.377166  0.016783  0.453115  1
  Pr  Pr7  1  0.373249  0.481709  0.374979  1
  Pr  Pr8  1  0.867295  0.018519  0.372687  1
  Pr  Pr9  1  0.981947  0.128784  0.124266  1
  Pr  Pr10  1  0.023821  0.872407  0.622365  1
  Pr  Pr11  1  0.629502  0.519752  0.874405  1
  Pr  Pr12  1  0.485946  0.372821  0.625970  1
  Pr  Pr13  1  0.513898  0.627119  0.125517  1
  Pr  Pr14  1  0.125850  0.982383  0.877435  1
  Pr  Pr15  1  0.991634  0.620980  0.053888  1
  Pr  Pr16  1  0.698750  0.694163  0.496421  1
  Pr  Pr17  1  0.811267  0.189857  0.749872  1
  Pr  Pr18  1  0.183939  0.803465  0.258242  1
  Pr  Pr19  1  0.305613  0.308923  0.999695  1
  Si  Si20  1  0.921367  0.289731  0.939946  1
  Si  Si21  1  0.713512  0.079320  0.560555  1
  Si  Si22  1  0.212864  0.421472  0.190629  1
  Si  Si23  1  0.790538  0.578487  0.688872  1
  Si  Si24  1  0.424292  0.211506  0.810439  1
  Si  Si25  1  0.574443  0.788931  0.307970  1
  Si  Si26  1  0.285705  0.921602  0.061395  1
  Si  Si27  1  0.833318  0.804451  0.797200  1
  Si  Si28  1  0.165128  0.199335  0.300298  1
  Si  Si29  1  0.797321  0.834261  0.196948  1
  Si  Si30  1  0.308545  0.668802  0.548149  1
  Si  Si31  1  0.696926  0.334025  0.048471  1
  Si  Si32  1  0.667604  0.302982  0.452210  1
  Si  Si33  1  0.329541  0.695537  0.952608  1
  Si  Si34  1  0.200642  0.168051  0.700632  1
  Pt  Pt35  1  0.069496  0.709365  0.437528  1
