# generated using pymatgen
data_Ca10SnSb5
_symmetry_space_group_name_H-M   'P 1'
_cell_length_a   9.12538700
_cell_length_b   9.15095336
_cell_length_c   6.95738900
_cell_angle_alpha   90.00000000
_cell_angle_beta   90.00000000
_cell_angle_gamma   119.90761966
_symmetry_Int_Tables_number   1
_chemical_formula_structural   Ca10SnSb5
_chemical_formula_sum   'Ca10 Sn1 Sb5'
_cell_volume   503.61432799
_cell_formula_units_Z   1
loop_
 _symmetry_equiv_pos_site_id
 _symmetry_equiv_pos_as_xyz
  1  'x, y, z'
loop_
 _atom_site_type_symbol
 _atom_site_label
 _atom_site_symmetry_multiplicity
 _atom_site_fract_x
 _atom_site_fract_y
 _atom_site_fract_z
 _atom_site_occupancy
  Ca  Ca0  1  0.335099  0.668081  0.001666  1
  Ca  Ca1  1  0.667020  0.331919  0.498334  1
  Ca  Ca2  1  0.667020  0.331919  0.001666  1
  Ca  Ca3  1  0.335099  0.668081  0.498334  1
  Ca  Ca4  1  0.262524  0.000000  0.250000  1
  Ca  Ca5  1  0.260197  0.260362  0.750000  1
  Ca  Ca6  1  0.999834  0.739638  0.750000  1
  Ca  Ca7  1  0.997045  0.261207  0.250000  1
  Ca  Ca8  1  0.735839  0.738793  0.250000  1
  Ca  Ca9  1  0.742334  0.000000  0.750000  1
  Sn  Sn10  1  0.615306  0.000000  0.250000  1
  Sb  Sb11  1  0.614422  0.611941  0.750000  1
  Sb  Sb12  1  0.002482  0.388059  0.750000  1
  Sb  Sb13  1  0.999516  0.618309  0.250000  1
  Sb  Sb14  1  0.381208  0.381691  0.250000  1
  Sb  Sb15  1  0.385055  0.000000  0.750000  1
