# generated using pymatgen
data_Dy7Er9(TmPt4)4
_symmetry_space_group_name_H-M   'P 1'
_cell_length_a   7.44151456
_cell_length_b   7.52115211
_cell_length_c   14.66344600
_cell_angle_alpha   90.00547731
_cell_angle_beta   90.02218990
_cell_angle_gamma   89.96931277
_symmetry_Int_Tables_number   1
_chemical_formula_structural   Dy7Er9(TmPt4)4
_chemical_formula_sum   'Dy7 Er9 Tm4 Pt16'
_cell_volume   820.69475010
_cell_formula_units_Z   1
loop_
 _symmetry_equiv_pos_site_id
 _symmetry_equiv_pos_as_xyz
  1  'x, y, z'
loop_
 _atom_site_type_symbol
 _atom_site_label
 _atom_site_symmetry_multiplicity
 _atom_site_fract_x
 _atom_site_fract_y
 _atom_site_fract_z
 _atom_site_occupancy
  Dy  Dy0  1  0.498584  0.679360  0.093475  1
  Dy  Dy1  1  0.501474  0.320684  0.593191  1
  Dy  Dy2  1  0.001453  0.179365  0.906658  1
  Dy  Dy3  1  0.001020  0.178454  0.592919  1
  Dy  Dy4  1  0.501561  0.320804  0.906666  1
  Dy  Dy5  1  0.498654  0.679510  0.406886  1
  Dy  Dy6  1  0.998575  0.820470  0.093215  1
  Er  Er7  1  0.655878  0.832551  0.622243  1
  Er  Er8  1  0.156057  0.667598  0.877448  1
  Er  Er9  1  0.844055  0.332049  0.377697  1
  Er  Er10  1  0.343937  0.167776  0.122639  1
  Er  Er11  1  0.343473  0.167398  0.377933  1
  Er  Er12  1  0.844171  0.332255  0.122711  1
  Er  Er13  1  0.155362  0.668040  0.622103  1
  Er  Er14  1  0.655976  0.832289  0.877576  1
  Er  Er15  1  0.997823  0.819518  0.406690  1
  Tm  Tm16  1  0.681233  0.989015  0.250340  1
  Tm  Tm17  1  0.181319  0.511151  0.250362  1
  Tm  Tm18  1  0.818870  0.488945  0.749817  1
  Tm  Tm19  1  0.318794  0.011037  0.749944  1
  Pt  Pt20  1  0.818542  0.643749  0.251033  1
  Pt  Pt21  1  0.317200  0.856910  0.250570  1
  Pt  Pt22  1  0.682430  0.143252  0.749590  1
  Pt  Pt23  1  0.182469  0.356952  0.749511  1
  Pt  Pt24  1  0.546816  0.385239  0.250293  1
  Pt  Pt25  1  0.046239  0.114506  0.250488  1
  Pt  Pt26  1  0.953531  0.884906  0.749797  1
  Pt  Pt27  1  0.453519  0.615236  0.749700  1
  Pt  Pt28  1  0.816798  0.533712  0.541654  1
  Pt  Pt29  1  0.316868  0.967085  0.957873  1
  Pt  Pt30  1  0.684822  0.031685  0.457645  1
  Pt  Pt31  1  0.182974  0.467314  0.042248  1
  Pt  Pt32  1  0.182739  0.468624  0.457354  1
  Pt  Pt33  1  0.683097  0.033046  0.042196  1
  Pt  Pt34  1  0.316808  0.966632  0.541630  1
  Pt  Pt35  1  0.816883  0.532878  0.957903  1
