# generated using pymatgen
data_Ho5Fe11Co7MoP12
_symmetry_space_group_name_H-M   'P 1'
_cell_length_a   11.98226529
_cell_length_b   11.98226705
_cell_length_c   3.68851600
_cell_angle_alpha   90.00000000
_cell_angle_beta   90.00000000
_cell_angle_gamma   119.80535726
_symmetry_Int_Tables_number   1
_chemical_formula_structural   Ho5Fe11Co7MoP12
_chemical_formula_sum   'Ho5 Fe11 Co7 Mo1 P12'
_cell_volume   459.52452490
_cell_formula_units_Z   1
loop_
 _symmetry_equiv_pos_site_id
 _symmetry_equiv_pos_as_xyz
  1  'x, y, z'
loop_
 _atom_site_type_symbol
 _atom_site_label
 _atom_site_symmetry_multiplicity
 _atom_site_fract_x
 _atom_site_fract_y
 _atom_site_fract_z
 _atom_site_occupancy
  Ho  Ho0  1  0.665950  0.334443  0.000000  1
  Ho  Ho1  1  0.334443  0.665950  0.000000  1
  Ho  Ho2  1  0.817790  0.817790  0.500000  1
  Ho  Ho3  1  0.185501  0.999220  0.500000  1
  Ho  Ho4  1  0.999220  0.185501  0.500000  1
  Fe  Fe5  1  0.876731  0.358881  0.500000  1
  Fe  Fe6  1  0.645978  0.520693  0.500000  1
  Fe  Fe7  1  0.482377  0.121781  0.500000  1
  Fe  Fe8  1  0.358881  0.876731  0.500000  1
  Fe  Fe9  1  0.520693  0.645978  0.500000  1
  Fe  Fe10  1  0.121781  0.482377  0.500000  1
  Fe  Fe11  1  0.555673  0.999418  0.000000  1
  Fe  Fe12  1  0.999418  0.555673  0.000000  1
  Fe  Fe13  1  0.279838  0.279838  0.500000  1
  Fe  Fe14  1  0.715080  0.001788  0.500000  1
  Fe  Fe15  1  0.001788  0.715080  0.500000  1
  Co  Co16  1  0.800213  0.179978  0.000000  1
  Co  Co17  1  0.823561  0.624565  0.000000  1
  Co  Co18  1  0.374745  0.192427  0.000000  1
  Co  Co19  1  0.179978  0.800213  0.000000  1
  Co  Co20  1  0.624565  0.823561  0.000000  1
  Co  Co21  1  0.192427  0.374745  0.000000  1
  Co  Co22  1  0.998376  0.998376  0.000000  1
  Mo  Mo23  1  0.440618  0.440618  0.000000  1
  P  P24  1  0.685209  0.166620  0.500000  1
  P  P25  1  0.836667  0.521004  0.500000  1
  P  P26  1  0.479314  0.311176  0.500000  1
  P  P27  1  0.166620  0.685209  0.500000  1
  P  P28  1  0.521004  0.836667  0.500000  1
  P  P29  1  0.311176  0.479314  0.500000  1
  P  P30  1  0.180148  0.180148  0.000000  1
  P  P31  1  0.817077  0.001782  0.000000  1
  P  P32  1  0.001782  0.817077  0.000000  1
  P  P33  1  0.637926  0.637926  0.000000  1
  P  P34  1  0.369788  0.997662  0.000000  1
  P  P35  1  0.997662  0.369788  0.000000  1
