# generated using pymatgen
data_Tb3(LuPt2)2
_symmetry_space_group_name_H-M   'P 1'
_cell_length_a   7.46012300
_cell_length_b   7.53346400
_cell_length_c   14.62353400
_cell_angle_alpha   90.00000000
_cell_angle_beta   90.00000000
_cell_angle_gamma   90.00000000
_symmetry_Int_Tables_number   1
_chemical_formula_structural   Tb3(LuPt2)2
_chemical_formula_sum   'Tb12 Lu8 Pt16'
_cell_volume   821.85091779
_cell_formula_units_Z   4
loop_
 _symmetry_equiv_pos_site_id
 _symmetry_equiv_pos_as_xyz
  1  'x, y, z'
loop_
 _atom_site_type_symbol
 _atom_site_label
 _atom_site_symmetry_multiplicity
 _atom_site_fract_x
 _atom_site_fract_y
 _atom_site_fract_z
 _atom_site_occupancy
  Tb  Tb0  1  0.343808  0.167268  0.377726  1
  Tb  Tb1  1  0.843808  0.332732  0.122274  1
  Tb  Tb2  1  0.156192  0.667268  0.622274  1
  Tb  Tb3  1  0.656192  0.832732  0.877726  1
  Tb  Tb4  1  0.997390  0.820090  0.405996  1
  Tb  Tb5  1  0.497390  0.679910  0.094004  1
  Tb  Tb6  1  0.502610  0.320090  0.594004  1
  Tb  Tb7  1  0.002610  0.179910  0.905996  1
  Tb  Tb8  1  0.001021  0.178403  0.593379  1
  Tb  Tb9  1  0.501021  0.321597  0.906621  1
  Tb  Tb10  1  0.498979  0.678403  0.406621  1
  Tb  Tb11  1  0.998979  0.821597  0.093379  1
  Lu  Lu12  1  0.680924  0.989719  0.250003  1
  Lu  Lu13  1  0.180924  0.510281  0.249997  1
  Lu  Lu14  1  0.819076  0.489719  0.749997  1
  Lu  Lu15  1  0.319076  0.010281  0.750003  1
  Lu  Lu16  1  0.656720  0.832194  0.623388  1
  Lu  Lu17  1  0.156720  0.667806  0.876612  1
  Lu  Lu18  1  0.843280  0.332194  0.376612  1
  Lu  Lu19  1  0.343280  0.167806  0.123388  1
  Pt  Pt20  1  0.817240  0.643537  0.251234  1
  Pt  Pt21  1  0.317240  0.856463  0.248766  1
  Pt  Pt22  1  0.682760  0.143537  0.748766  1
  Pt  Pt23  1  0.182760  0.356463  0.751234  1
  Pt  Pt24  1  0.544702  0.385726  0.250001  1
  Pt  Pt25  1  0.044702  0.114274  0.249999  1
  Pt  Pt26  1  0.955298  0.885726  0.749999  1
  Pt  Pt27  1  0.455298  0.614274  0.750001  1
  Pt  Pt28  1  0.813794  0.533869  0.541355  1
  Pt  Pt29  1  0.313794  0.966131  0.958645  1
  Pt  Pt30  1  0.686206  0.033869  0.458645  1
  Pt  Pt31  1  0.186206  0.466131  0.041355  1
  Pt  Pt32  1  0.177880  0.467166  0.455973  1
  Pt  Pt33  1  0.677880  0.032834  0.044027  1
  Pt  Pt34  1  0.322120  0.967166  0.544027  1
  Pt  Pt35  1  0.822120  0.532834  0.955973  1
