# generated using pymatgen
data_Er4Al18Pd5Ru
_symmetry_space_group_name_H-M   'P 1'
_cell_length_a   7.60586514
_cell_length_b   7.60590251
_cell_length_c   9.45655226
_cell_angle_alpha   90.05723600
_cell_angle_beta   90.06034315
_cell_angle_gamma   119.57528865
_symmetry_Int_Tables_number   1
_chemical_formula_structural   Er4Al18Pd5Ru
_chemical_formula_sum   'Er4 Al18 Pd5 Ru1'
_cell_volume   475.77838218
_cell_formula_units_Z   1
loop_
 _symmetry_equiv_pos_site_id
 _symmetry_equiv_pos_as_xyz
  1  'x, y, z'
loop_
 _atom_site_type_symbol
 _atom_site_label
 _atom_site_symmetry_multiplicity
 _atom_site_fract_x
 _atom_site_fract_y
 _atom_site_fract_z
 _atom_site_occupancy
  Er  Er0  1  0.995603  0.668671  0.251020  1
  Er  Er1  1  0.004397  0.331329  0.748980  1
  Er  Er2  1  0.668621  0.995583  0.250995  1
  Er  Er3  1  0.331379  0.004417  0.749005  1
  Al  Al4  1  0.126376  0.126378  0.253996  1
  Al  Al5  1  0.873624  0.873622  0.746004  1
  Al  Al6  1  0.000875  0.334734  0.078233  1
  Al  Al7  1  0.999125  0.665266  0.921767  1
  Al  Al8  1  0.000896  0.670847  0.574355  1
  Al  Al9  1  0.329156  0.999116  0.425648  1
  Al  Al10  1  0.999104  0.329153  0.425645  1
  Al  Al11  1  0.670844  0.000884  0.574352  1
  Al  Al12  1  0.665268  0.999126  0.921766  1
  Al  Al13  1  0.334732  0.000874  0.078234  1
  Al  Al14  1  0.327565  0.327563  0.556880  1
  Al  Al15  1  0.672435  0.672437  0.443120  1
  Al  Al16  1  0.666143  0.666143  0.061151  1
  Al  Al17  1  0.333857  0.333857  0.938849  1
  Al  Al18  1  0.339271  0.547506  0.251275  1
  Al  Al19  1  0.660729  0.452494  0.748725  1
  Al  Al20  1  0.547509  0.339266  0.251280  1
  Al  Al21  1  0.452491  0.660734  0.748720  1
  Pd  Pd22  1  0.672466  0.327545  0.000000  1
  Pd  Pd23  1  0.327534  0.672455  0.000000  1
  Pd  Pd24  1  0.327847  0.672164  0.500002  1
  Pd  Pd25  1  0.672153  0.327836  0.499998  1
  Pd  Pd26  1  0.000000  0.000000  0.000000  1
  Ru  Ru27  1  0.000000  0.000000  0.500000  1
