# generated using pymatgen
data_CeY15(CdCo)4
_symmetry_space_group_name_H-M   'P 1'
_cell_length_a   9.58399781
_cell_length_b   9.58399798
_cell_length_c   9.43079600
_cell_angle_alpha   60.52739173
_cell_angle_beta   60.52739118
_cell_angle_gamma   59.65057749
_symmetry_Int_Tables_number   1
_chemical_formula_structural   CeY15(CdCo)4
_chemical_formula_sum   'Ce1 Y15 Cd4 Co4'
_cell_volume   615.69462964
_cell_formula_units_Z   1
loop_
 _symmetry_equiv_pos_site_id
 _symmetry_equiv_pos_as_xyz
  1  'x, y, z'
loop_
 _atom_site_type_symbol
 _atom_site_label
 _atom_site_symmetry_multiplicity
 _atom_site_fract_x
 _atom_site_fract_y
 _atom_site_fract_z
 _atom_site_occupancy
  Ce  Ce0  1  0.432100  0.432100  0.067900  1
  Y  Y1  1  0.601026  0.601026  0.590482  1
  Y  Y2  1  0.190085  0.807284  0.812442  1
  Y  Y3  1  0.060089  0.060089  0.439911  1
  Y  Y4  1  0.436994  0.055537  0.064007  1
  Y  Y5  1  0.807284  0.190085  0.812442  1
  Y  Y6  1  0.436994  0.055537  0.443462  1
  Y  Y7  1  0.593309  0.216220  0.595235  1
  Y  Y8  1  0.816166  0.816166  0.183834  1
  Y  Y9  1  0.216220  0.593309  0.595235  1
  Y  Y10  1  0.807284  0.190085  0.190190  1
  Y  Y11  1  0.055537  0.436994  0.443462  1
  Y  Y12  1  0.190085  0.807284  0.190190  1
  Y  Y13  1  0.601026  0.601026  0.207468  1
  Y  Y14  1  0.179633  0.179633  0.820367  1
  Y  Y15  1  0.055537  0.436994  0.064007  1
  Cd  Cd16  1  0.830395  0.830395  0.509128  1
  Cd  Cd17  1  0.830395  0.830395  0.830081  1
  Cd  Cd18  1  0.507518  0.835066  0.828707  1
  Cd  Cd19  1  0.835066  0.507518  0.828707  1
  Co  Co20  1  0.402338  0.402338  0.346418  1
  Co  Co21  1  0.825658  0.386924  0.393710  1
  Co  Co22  1  0.386924  0.825658  0.393710  1
  Co  Co23  1  0.402338  0.402338  0.848907  1
