# generated using pymatgen
data_Dy8TaTi10NbSi16
_symmetry_space_group_name_H-M   'P 1'
_cell_length_a   7.05010462
_cell_length_b   7.05010420
_cell_length_c   12.98180108
_cell_angle_alpha   89.96277834
_cell_angle_beta   90.03722036
_cell_angle_gamma   90.10007628
_symmetry_Int_Tables_number   1
_chemical_formula_structural   Dy8TaTi10NbSi16
_chemical_formula_sum   'Dy8 Ta1 Ti10 Nb1 Si16'
_cell_volume   645.24582412
_cell_formula_units_Z   1
loop_
 _symmetry_equiv_pos_site_id
 _symmetry_equiv_pos_as_xyz
  1  'x, y, z'
loop_
 _atom_site_type_symbol
 _atom_site_label
 _atom_site_symmetry_multiplicity
 _atom_site_fract_x
 _atom_site_fract_y
 _atom_site_fract_z
 _atom_site_occupancy
  Dy  Dy0  1  0.997428  0.659099  0.032915  1
  Dy  Dy1  1  0.002263  0.340922  0.533101  1
  Dy  Dy2  1  0.659099  0.997428  0.967085  1
  Dy  Dy3  1  0.159758  0.502174  0.783576  1
  Dy  Dy4  1  0.840411  0.498144  0.283503  1
  Dy  Dy5  1  0.502174  0.159758  0.216424  1
  Dy  Dy6  1  0.498144  0.840411  0.716497  1
  Dy  Dy7  1  0.340922  0.002263  0.466899  1
  Ta  Ta8  1  0.326832  0.326832  0.000000  1
  Ti  Ti9  1  0.348696  0.508250  0.374876  1
  Ti  Ti10  1  0.846579  0.990807  0.376563  1
  Ti  Ti11  1  0.008912  0.153804  0.123432  1
  Ti  Ti12  1  0.990807  0.846579  0.623437  1
  Ti  Ti13  1  0.508250  0.348696  0.625124  1
  Ti  Ti14  1  0.153804  0.008912  0.876568  1
  Ti  Ti15  1  0.826586  0.173391  0.750165  1
  Ti  Ti16  1  0.173391  0.826586  0.249835  1
  Ti  Ti17  1  0.491490  0.651598  0.124666  1
  Ti  Ti18  1  0.651598  0.491490  0.875334  1
  Nb  Nb19  1  0.673252  0.673252  0.500000  1
  Si  Si20  1  0.047967  0.708915  0.434878  1
  Si  Si21  1  0.953293  0.291708  0.935096  1
  Si  Si22  1  0.708915  0.047967  0.565122  1
  Si  Si23  1  0.207524  0.454024  0.185935  1
  Si  Si24  1  0.792345  0.545809  0.686332  1
  Si  Si25  1  0.454024  0.207524  0.814065  1
  Si  Si26  1  0.545809  0.792345  0.313668  1
  Si  Si27  1  0.291708  0.953293  0.064904  1
  Si  Si28  1  0.797742  0.870106  0.184764  1
  Si  Si29  1  0.296827  0.629717  0.565644  1
  Si  Si30  1  0.701911  0.370144  0.065357  1
  Si  Si31  1  0.629717  0.296827  0.434356  1
  Si  Si32  1  0.370144  0.701911  0.934643  1
  Si  Si33  1  0.129743  0.201823  0.315317  1
  Si  Si34  1  0.201823  0.129743  0.684683  1
  Si  Si35  1  0.870106  0.797742  0.815236  1
