# generated using pymatgen
data_Nd4Ga18Ru5Rh
_symmetry_space_group_name_H-M   'P 1'
_cell_length_a   7.58170728
_cell_length_b   7.58167578
_cell_length_c   9.82843041
_cell_angle_alpha   90.08815292
_cell_angle_beta   90.08720551
_cell_angle_gamma   119.54080689
_symmetry_Int_Tables_number   1
_chemical_formula_structural   Nd4Ga18Ru5Rh
_chemical_formula_sum   'Nd4 Ga18 Ru5 Rh1'
_cell_volume   491.51413604
_cell_formula_units_Z   1
loop_
 _symmetry_equiv_pos_site_id
 _symmetry_equiv_pos_as_xyz
  1  'x, y, z'
loop_
 _atom_site_type_symbol
 _atom_site_label
 _atom_site_symmetry_multiplicity
 _atom_site_fract_x
 _atom_site_fract_y
 _atom_site_fract_z
 _atom_site_occupancy
  Nd  Nd0  1  0.997142  0.669264  0.250328  1
  Nd  Nd1  1  0.002858  0.330736  0.749672  1
  Nd  Nd2  1  0.669265  0.997142  0.250330  1
  Nd  Nd3  1  0.330735  0.002858  0.749670  1
  Ga  Ga4  1  0.130110  0.130110  0.250704  1
  Ga  Ga5  1  0.869890  0.869890  0.749296  1
  Ga  Ga6  1  0.006730  0.336447  0.073906  1
  Ga  Ga7  1  0.993270  0.663553  0.926094  1
  Ga  Ga8  1  0.992201  0.664037  0.573470  1
  Ga  Ga9  1  0.335962  0.007799  0.426530  1
  Ga  Ga10  1  0.007799  0.335963  0.426530  1
  Ga  Ga11  1  0.664038  0.992201  0.573470  1
  Ga  Ga12  1  0.663555  0.993270  0.926092  1
  Ga  Ga13  1  0.336445  0.006730  0.073908  1
  Ga  Ga14  1  0.338350  0.338350  0.555838  1
  Ga  Ga15  1  0.661650  0.661650  0.444162  1
  Ga  Ga16  1  0.660195  0.660194  0.056699  1
  Ga  Ga17  1  0.339805  0.339806  0.943301  1
  Ga  Ga18  1  0.336693  0.546944  0.249691  1
  Ga  Ga19  1  0.663307  0.453056  0.750309  1
  Ga  Ga20  1  0.546944  0.336694  0.249690  1
  Ga  Ga21  1  0.453056  0.663306  0.750310  1
  Ru  Ru22  1  0.673371  0.326620  0.999993  1
  Ru  Ru23  1  0.326629  0.673380  0.000007  1
  Ru  Ru24  1  0.326640  0.673359  0.500000  1
  Ru  Ru25  1  0.673360  0.326641  0.500000  1
  Ru  Ru26  1  0.000000  0.000000  0.500000  1
  Rh  Rh27  1  0.000000  0.000000  0.000000  1
