# generated using pymatgen
data_Dy3Co9CuGeB4
_symmetry_space_group_name_H-M   'P 1'
_cell_length_a   5.10326200
_cell_length_b   5.10326204
_cell_length_c   9.58101300
_cell_angle_alpha   90.00000000
_cell_angle_beta   90.00000000
_cell_angle_gamma   120.00252768
_symmetry_Int_Tables_number   1
_chemical_formula_structural   Dy3Co9CuGeB4
_chemical_formula_sum   'Dy3 Co9 Cu1 Ge1 B4'
_cell_volume   216.08605128
_cell_formula_units_Z   1
loop_
 _symmetry_equiv_pos_site_id
 _symmetry_equiv_pos_as_xyz
  1  'x, y, z'
loop_
 _atom_site_type_symbol
 _atom_site_label
 _atom_site_symmetry_multiplicity
 _atom_site_fract_x
 _atom_site_fract_y
 _atom_site_fract_z
 _atom_site_occupancy
  Dy  Dy0  1  0.000000  0.000000  0.659720  1
  Dy  Dy1  1  0.000000  0.000000  0.340280  1
  Dy  Dy2  1  0.000000  0.000000  0.000000  1
  Co  Co3  1  0.499813  0.500187  0.500000  1
  Co  Co4  1  0.000375  0.500186  0.500000  1
  Co  Co5  1  0.500278  0.000551  0.205966  1
  Co  Co6  1  0.500278  0.499722  0.205975  1
  Co  Co7  1  0.999449  0.499722  0.205966  1
  Co  Co8  1  0.500278  0.000551  0.794034  1
  Co  Co9  1  0.500278  0.499722  0.794025  1
  Co  Co10  1  0.999449  0.499722  0.794034  1
  Co  Co11  1  0.499814  0.999625  0.500000  1
  Cu  Cu12  1  0.333323  0.666677  0.000000  1
  Ge  Ge13  1  0.666664  0.333336  0.000000  1
  B  B14  1  0.333333  0.666667  0.651540  1
  B  B15  1  0.666668  0.333332  0.650883  1
  B  B16  1  0.666668  0.333332  0.349117  1
  B  B17  1  0.333333  0.666667  0.348460  1
