# generated using pymatgen
data_Tb2Dy2LuPb4
_symmetry_space_group_name_H-M   'P 1'
_cell_length_a   8.17575000
_cell_length_b   8.26870600
_cell_length_c   15.63920600
_cell_angle_alpha   90.00000000
_cell_angle_beta   90.00000000
_cell_angle_gamma   90.00000000
_symmetry_Int_Tables_number   1
_chemical_formula_structural   Tb2Dy2LuPb4
_chemical_formula_sum   'Tb8 Dy8 Lu4 Pb16'
_cell_volume   1057.25525828
_cell_formula_units_Z   4
loop_
 _symmetry_equiv_pos_site_id
 _symmetry_equiv_pos_as_xyz
  1  'x, y, z'
loop_
 _atom_site_type_symbol
 _atom_site_label
 _atom_site_symmetry_multiplicity
 _atom_site_fract_x
 _atom_site_fract_y
 _atom_site_fract_z
 _atom_site_occupancy
  Tb  Tb0  1  0.534469  0.323049  0.900363  1
  Tb  Tb1  1  0.034469  0.176951  0.599637  1
  Tb  Tb2  1  0.465531  0.676951  0.400363  1
  Tb  Tb3  1  0.965531  0.823049  0.099637  1
  Tb  Tb4  1  0.465531  0.676951  0.099637  1
  Tb  Tb5  1  0.965531  0.823049  0.400363  1
  Tb  Tb6  1  0.534469  0.323049  0.599637  1
  Tb  Tb7  1  0.034469  0.176951  0.900363  1
  Dy  Dy8  1  0.376031  0.841246  0.879025  1
  Dy  Dy9  1  0.876031  0.658754  0.620975  1
  Dy  Dy10  1  0.623969  0.158754  0.379025  1
  Dy  Dy11  1  0.123969  0.341246  0.120975  1
  Dy  Dy12  1  0.623969  0.158754  0.120975  1
  Dy  Dy13  1  0.123969  0.341246  0.379025  1
  Dy  Dy14  1  0.376031  0.841246  0.620975  1
  Dy  Dy15  1  0.876031  0.658754  0.879025  1
  Lu  Lu16  1  0.207888  0.504553  0.750000  1
  Lu  Lu17  1  0.707888  0.995447  0.750000  1
  Lu  Lu18  1  0.792112  0.495447  0.250000  1
  Lu  Lu19  1  0.292112  0.004553  0.250000  1
  Pb  Pb20  1  0.282789  0.033984  0.043461  1
  Pb  Pb21  1  0.782789  0.466016  0.456539  1
  Pb  Pb22  1  0.717211  0.966016  0.543461  1
  Pb  Pb23  1  0.217211  0.533984  0.956539  1
  Pb  Pb24  1  0.717211  0.966016  0.956539  1
  Pb  Pb25  1  0.217211  0.533984  0.543461  1
  Pb  Pb26  1  0.282789  0.033984  0.456539  1
  Pb  Pb27  1  0.782789  0.466016  0.043461  1
  Pb  Pb28  1  0.570495  0.626769  0.750000  1
  Pb  Pb29  1  0.070495  0.873231  0.750000  1
  Pb  Pb30  1  0.429505  0.373231  0.250000  1
  Pb  Pb31  1  0.929505  0.126769  0.250000  1
  Pb  Pb32  1  0.345771  0.153908  0.750000  1
  Pb  Pb33  1  0.845771  0.346092  0.750000  1
  Pb  Pb34  1  0.654229  0.846092  0.250000  1
  Pb  Pb35  1  0.154229  0.653908  0.250000  1
