# generated using pymatgen
data_TmLu(FeRu)2
_symmetry_space_group_name_H-M   'P 1'
_cell_length_a   5.20047061
_cell_length_b   5.20046949
_cell_length_c   5.20046324
_cell_angle_alpha   121.35659902
_cell_angle_beta   118.35019728
_cell_angle_gamma   90.27381488
_symmetry_Int_Tables_number   1
_chemical_formula_structural   TmLu(FeRu)2
_chemical_formula_sum   'Tm1 Lu1 Fe2 Ru2'
_cell_volume   99.58551344
_cell_formula_units_Z   1
loop_
 _symmetry_equiv_pos_site_id
 _symmetry_equiv_pos_as_xyz
  1  'x, y, z'
loop_
 _atom_site_type_symbol
 _atom_site_label
 _atom_site_symmetry_multiplicity
 _atom_site_fract_x
 _atom_site_fract_y
 _atom_site_fract_z
 _atom_site_occupancy
  Tm  Tm0  1  0.375494  0.125494  0.250000  1
  Lu  Lu1  1  0.624523  0.874523  0.750000  1
  Fe  Fe2  1  0.999980  0.499997  0.000017  1
  Fe  Fe3  1  0.999981  0.999963  0.499983  1
  Ru  Ru4  1  0.500034  0.500012  0.000022  1
  Ru  Ru5  1  0.999989  0.500011  0.499978  1
