# generated using pymatgen
data_ErBi4Pt3F28
_symmetry_space_group_name_H-M   'P 1'
_cell_length_a   5.70740737
_cell_length_b   9.26517816
_cell_length_c   12.42034314
_cell_angle_alpha   62.21545549
_cell_angle_beta   89.84378953
_cell_angle_gamma   89.92163605
_symmetry_Int_Tables_number   1
_chemical_formula_structural   ErBi4Pt3F28
_chemical_formula_sum   'Er1 Bi4 Pt3 F28'
_cell_volume   581.06399479
_cell_formula_units_Z   1
loop_
 _symmetry_equiv_pos_site_id
 _symmetry_equiv_pos_as_xyz
  1  'x, y, z'
loop_
 _atom_site_type_symbol
 _atom_site_label
 _atom_site_symmetry_multiplicity
 _atom_site_fract_x
 _atom_site_fract_y
 _atom_site_fract_z
 _atom_site_occupancy
  Er  Er0  1  0.754237  0.279827  0.953984  1
  Bi  Bi1  1  0.765946  0.816127  0.763994  1
  Bi  Bi2  1  0.261186  0.183365  0.739106  1
  Bi  Bi3  1  0.246633  0.192866  0.228178  1
  Bi  Bi4  1  0.735609  0.825800  0.253019  1
  Pt  Pt5  1  0.259535  0.729766  0.541369  1
  Pt  Pt6  1  0.237443  0.728296  0.042088  1
  Pt  Pt7  1  0.743327  0.273509  0.456953  1
  F  F8  1  0.421938  0.704739  0.917301  1
  F  F9  1  0.924605  0.295506  0.581693  1
  F  F10  1  0.546737  0.285782  0.097686  1
  F  F11  1  0.076505  0.707279  0.417638  1
  F  F12  1  0.449641  0.280348  0.536876  1
  F  F13  1  0.940536  0.725968  0.959812  1
  F  F14  1  0.551150  0.723757  0.459246  1
  F  F15  1  0.074924  0.271242  0.051585  1
  F  F16  1  0.781786  0.537781  0.856013  1
  F  F17  1  0.270099  0.492581  0.634871  1
  F  F18  1  0.218983  0.490233  0.140871  1
  F  F19  1  0.733296  0.509422  0.362355  1
  F  F20  1  0.760680  0.013339  0.063552  1
  F  F21  1  0.258489  0.967049  0.452325  1
  F  F22  1  0.244770  0.968940  0.949513  1
  F  F23  1  0.744009  0.034012  0.548841  1
  F  F24  1  0.969330  0.732386  0.626377  1
  F  F25  1  0.450641  0.266491  0.857531  1
  F  F26  1  0.032719  0.270696  0.373979  1
  F  F27  1  0.526139  0.723269  0.129998  1
  F  F28  1  0.060674  0.742782  0.173858  1
  F  F29  1  0.565254  0.255383  0.328945  1
  F  F30  1  0.954609  0.241606  0.822692  1
  F  F31  1  0.440127  0.746726  0.669869  1
  F  F32  1  0.403167  0.968910  0.229349  1
  F  F33  1  0.909290  0.025375  0.270028  1
  F  F34  1  0.592587  0.026545  0.775121  1
  F  F35  1  0.093396  0.962301  0.733383  1
