# generated using pymatgen
data_Er2NpTc3
_symmetry_space_group_name_H-M   'P 1'
_cell_length_a   5.75480500
_cell_length_b   5.75480497
_cell_length_c   8.12823900
_cell_angle_alpha   90.00000000
_cell_angle_beta   90.00000000
_cell_angle_gamma   120.00000592
_symmetry_Int_Tables_number   1
_chemical_formula_structural   Er2NpTc3
_chemical_formula_sum   'Er4 Np2 Tc6'
_cell_volume   233.12470145
_cell_formula_units_Z   2
loop_
 _symmetry_equiv_pos_site_id
 _symmetry_equiv_pos_as_xyz
  1  'x, y, z'
loop_
 _atom_site_type_symbol
 _atom_site_label
 _atom_site_symmetry_multiplicity
 _atom_site_fract_x
 _atom_site_fract_y
 _atom_site_fract_z
 _atom_site_occupancy
  Er  Er0  1  0.333333  0.666667  0.442057  1
  Er  Er1  1  0.666667  0.333333  0.557943  1
  Er  Er2  1  0.666667  0.333333  0.942057  1
  Er  Er3  1  0.333333  0.666667  0.057943  1
  Np  Np4  1  0.000000  0.000000  0.500000  1
  Np  Np5  1  0.000000  0.000000  0.000000  1
  Tc  Tc6  1  0.836506  0.163494  0.250000  1
  Tc  Tc7  1  0.836506  0.673012  0.250000  1
  Tc  Tc8  1  0.326988  0.163494  0.250000  1
  Tc  Tc9  1  0.163494  0.836506  0.750000  1
  Tc  Tc10  1  0.163494  0.326988  0.750000  1
  Tc  Tc11  1  0.673012  0.836506  0.750000  1
