# generated using pymatgen
data_Sm3Ho5Tc3B24Ru
_symmetry_space_group_name_H-M   'P 1'
_cell_length_a   3.69825400
_cell_length_b   9.18158428
_cell_length_c   11.59415501
_cell_angle_alpha   89.91153801
_cell_angle_beta   90.00000000
_cell_angle_gamma   90.00000000
_symmetry_Int_Tables_number   1
_chemical_formula_structural   Sm3Ho5Tc3B24Ru
_chemical_formula_sum   'Sm3 Ho5 Tc3 B24 Ru1'
_cell_volume   393.68869645
_cell_formula_units_Z   1
loop_
 _symmetry_equiv_pos_site_id
 _symmetry_equiv_pos_as_xyz
  1  'x, y, z'
loop_
 _atom_site_type_symbol
 _atom_site_label
 _atom_site_symmetry_multiplicity
 _atom_site_fract_x
 _atom_site_fract_y
 _atom_site_fract_z
 _atom_site_occupancy
  Sm  Sm0  1  0.000000  0.323098  0.413962  1
  Sm  Sm1  1  0.000000  0.675547  0.584590  1
  Sm  Sm2  1  0.000000  0.823020  0.086763  1
  Ho  Ho3  1  0.000000  0.177997  0.914679  1
  Ho  Ho4  1  0.000000  0.942718  0.369638  1
  Ho  Ho5  1  0.000000  0.057955  0.631338  1
  Ho  Ho6  1  0.000000  0.442762  0.129838  1
  Ho  Ho7  1  0.000000  0.557433  0.869096  1
  Tc  Tc8  1  0.000000  0.638886  0.319651  1
  Tc  Tc9  1  0.000000  0.360334  0.681710  1
  Tc  Tc10  1  0.000000  0.138506  0.178088  1
  B  B11  1  0.500000  0.553825  0.431548  1
  B  B12  1  0.500000  0.445472  0.568453  1
  B  B13  1  0.500000  0.054453  0.066796  1
  B  B14  1  0.500000  0.946783  0.931756  1
  B  B15  1  0.500000  0.749060  0.417355  1
  B  B16  1  0.500000  0.250217  0.583379  1
  B  B17  1  0.500000  0.249536  0.080851  1
  B  B18  1  0.500000  0.751487  0.916999  1
  B  B19  1  0.500000  0.791417  0.265948  1
  B  B20  1  0.500000  0.208136  0.735938  1
  B  B21  1  0.500000  0.291220  0.233360  1
  B  B22  1  0.500000  0.709917  0.765979  1
  B  B23  1  0.500000  0.630242  0.185757  1
  B  B24  1  0.500000  0.368706  0.815664  1
  B  B25  1  0.500000  0.129925  0.313305  1
  B  B26  1  0.500000  0.870122  0.686553  1
  B  B27  1  0.500000  0.983170  0.212042  1
  B  B28  1  0.500000  0.017229  0.788536  1
  B  B29  1  0.500000  0.483067  0.286955  1
  B  B30  1  0.500000  0.516100  0.712814  1
  B  B31  1  0.500000  0.599970  0.027293  1
  B  B32  1  0.500000  0.399620  0.971729  1
  B  B33  1  0.500000  0.099008  0.472994  1
  B  B34  1  0.500000  0.900937  0.528084  1
  Ru  Ru35  1  0.000000  0.862122  0.820561  1
