# generated using pymatgen
data_YEr4Np5O20
_symmetry_space_group_name_H-M   'P 1'
_cell_length_a   6.42237636
_cell_length_b   7.64502586
_cell_length_c   8.47804705
_cell_angle_alpha   102.89539445
_cell_angle_beta   96.69342987
_cell_angle_gamma   107.38075926
_symmetry_Int_Tables_number   1
_chemical_formula_structural   YEr4Np5O20
_chemical_formula_sum   'Y1 Er4 Np5 O20'
_cell_volume   379.65484046
_cell_formula_units_Z   1
loop_
 _symmetry_equiv_pos_site_id
 _symmetry_equiv_pos_as_xyz
  1  'x, y, z'
loop_
 _atom_site_type_symbol
 _atom_site_label
 _atom_site_symmetry_multiplicity
 _atom_site_fract_x
 _atom_site_fract_y
 _atom_site_fract_z
 _atom_site_occupancy
  Y  Y0  1  0.003015  0.002493  0.002058  1
  Er  Er1  1  0.798399  0.599345  0.599249  1
  Er  Er2  1  0.604635  0.200868  0.200905  1
  Er  Er3  1  0.998190  0.498589  0.001015  1
  Er  Er4  1  0.797917  0.099189  0.598584  1
  Np  Np5  1  0.193564  0.395803  0.396964  1
  Np  Np6  1  0.601139  0.700904  0.199598  1
  Np  Np7  1  0.399217  0.299389  0.802038  1
  Np  Np8  1  0.199766  0.900368  0.397390  1
  Np  Np9  1  0.399633  0.801474  0.800874  1
  O  O10  1  0.863978  0.330696  0.453552  1
  O  O11  1  0.641883  0.916979  0.055650  1
  O  O12  1  0.427115  0.518642  0.650936  1
  O  O13  1  0.950247  0.773348  0.153998  1
  O  O14  1  0.853292  0.823547  0.445826  1
  O  O15  1  0.727870  0.369959  0.754380  1
  O  O16  1  0.250034  0.121672  0.256728  1
  O  O17  1  0.643033  0.432847  0.057887  1
  O  O18  1  0.963155  0.281393  0.153684  1
  O  O19  1  0.435046  0.021302  0.644804  1
  O  O20  1  0.546255  0.967312  0.351526  1
  O  O21  1  0.069098  0.725168  0.842904  1
  O  O22  1  0.728185  0.870272  0.751761  1
  O  O23  1  0.253908  0.631158  0.250515  1
  O  O24  1  0.364187  0.579077  0.954350  1
  O  O25  1  0.068961  0.230890  0.842648  1
  O  O26  1  0.535191  0.478637  0.353009  1
  O  O27  1  0.156208  0.169954  0.542596  1
  O  O28  1  0.368003  0.078243  0.943194  1
  O  O29  1  0.158873  0.680483  0.541377  1
