# generated using pymatgen
data_Li3Sc4Co9(P3Rh2)4
_symmetry_space_group_name_H-M   'P 1'
_cell_length_a   3.67255500
_cell_length_b   10.49315403
_cell_length_c   12.25693231
_cell_angle_alpha   89.99956320
_cell_angle_beta   90.00000000
_cell_angle_gamma   90.00000000
_symmetry_Int_Tables_number   1
_chemical_formula_structural   Li3Sc4Co9(P3Rh2)4
_chemical_formula_sum   'Li3 Sc4 Co9 P12 Rh8'
_cell_volume   472.34154305
_cell_formula_units_Z   1
loop_
 _symmetry_equiv_pos_site_id
 _symmetry_equiv_pos_as_xyz
  1  'x, y, z'
loop_
 _atom_site_type_symbol
 _atom_site_label
 _atom_site_symmetry_multiplicity
 _atom_site_fract_x
 _atom_site_fract_y
 _atom_site_fract_z
 _atom_site_occupancy
  Li  Li0  1  0.250000  0.707577  0.991347  1
  Li  Li1  1  0.750000  0.293892  0.012087  1
  Li  Li2  1  0.750000  0.207581  0.510297  1
  Sc  Sc3  1  0.250000  0.574781  0.708349  1
  Sc  Sc4  1  0.250000  0.916739  0.213597  1
  Sc  Sc5  1  0.750000  0.422595  0.291014  1
  Sc  Sc6  1  0.750000  0.078697  0.786967  1
  Co  Co7  1  0.750000  0.724392  0.324463  1
  Co  Co8  1  0.250000  0.883221  0.694348  1
  Co  Co9  1  0.250000  0.622878  0.200225  1
  Co  Co10  1  0.750000  0.113425  0.303489  1
  Co  Co11  1  0.750000  0.381594  0.806474  1
  Co  Co12  1  0.250000  0.463778  0.937074  1
  Co  Co13  1  0.250000  0.037122  0.432402  1
  Co  Co14  1  0.750000  0.540393  0.068501  1
  Co  Co15  1  0.750000  0.961762  0.564229  1
  P  P16  1  0.250000  0.434568  0.117343  1
  P  P17  1  0.250000  0.069850  0.612536  1
  P  P18  1  0.750000  0.567753  0.886544  1
  P  P19  1  0.750000  0.923940  0.385280  1
  P  P20  1  0.250000  0.271316  0.862271  1
  P  P21  1  0.250000  0.228897  0.362464  1
  P  P22  1  0.750000  0.731358  0.145663  1
  P  P23  1  0.750000  0.770546  0.634007  1
  P  P24  1  0.250000  0.601927  0.379420  1
  P  P25  1  0.250000  0.903052  0.880274  1
  P  P26  1  0.750000  0.404058  0.618664  1
  P  P27  1  0.750000  0.094474  0.118770  1
  Rh  Rh28  1  0.250000  0.792321  0.484121  1
  Rh  Rh29  1  0.250000  0.405967  0.472712  1
  Rh  Rh30  1  0.250000  0.096778  0.973818  1
  Rh  Rh31  1  0.750000  0.596373  0.522418  1
  Rh  Rh32  1  0.750000  0.900838  0.026239  1
  Rh  Rh33  1  0.250000  0.225587  0.175204  1
  Rh  Rh34  1  0.250000  0.276376  0.675250  1
  Rh  Rh35  1  0.750000  0.773594  0.822139  1
