# generated using pymatgen
data_Sr4Sn16Ir5Pt3
_symmetry_space_group_name_H-M   'P 1'
_cell_length_a   4.58615200
_cell_length_b   7.31281871
_cell_length_c   18.95171340
_cell_angle_alpha   89.88525803
_cell_angle_beta   90.00000000
_cell_angle_gamma   90.00000000
_symmetry_Int_Tables_number   1
_chemical_formula_structural   Sr4Sn16Ir5Pt3
_chemical_formula_sum   'Sr4 Sn16 Ir5 Pt3'
_cell_volume   635.59556852
_cell_formula_units_Z   1
loop_
 _symmetry_equiv_pos_site_id
 _symmetry_equiv_pos_as_xyz
  1  'x, y, z'
loop_
 _atom_site_type_symbol
 _atom_site_label
 _atom_site_symmetry_multiplicity
 _atom_site_fract_x
 _atom_site_fract_y
 _atom_site_fract_z
 _atom_site_occupancy
  Sr  Sr0  1  0.250000  0.993339  0.857285  1
  Sr  Sr1  1  0.250000  0.504368  0.357781  1
  Sr  Sr2  1  0.750000  0.005756  0.143064  1
  Sr  Sr3  1  0.750000  0.494362  0.641151  1
  Sn  Sn4  1  0.250000  0.305118  0.185292  1
  Sn  Sn5  1  0.250000  0.194807  0.684417  1
  Sn  Sn6  1  0.750000  0.695652  0.814376  1
  Sn  Sn7  1  0.750000  0.804152  0.317898  1
  Sn  Sn8  1  0.250000  0.721705  0.195708  1
  Sn  Sn9  1  0.250000  0.777523  0.693948  1
  Sn  Sn10  1  0.750000  0.278229  0.804718  1
  Sn  Sn11  1  0.750000  0.221381  0.306152  1
  Sn  Sn12  1  0.250000  0.862065  0.032778  1
  Sn  Sn13  1  0.250000  0.640977  0.531495  1
  Sn  Sn14  1  0.750000  0.137878  0.967307  1
  Sn  Sn15  1  0.750000  0.368029  0.467619  1
  Sn  Sn16  1  0.250000  0.520080  0.929748  1
  Sn  Sn17  1  0.250000  0.976403  0.430283  1
  Sn  Sn18  1  0.750000  0.480215  0.070504  1
  Sn  Sn19  1  0.750000  0.015806  0.568698  1
  Ir  Ir20  1  0.750000  0.756009  0.464528  1
  Ir  Ir21  1  0.250000  0.016686  0.285987  1
  Ir  Ir22  1  0.250000  0.483688  0.786852  1
  Ir  Ir23  1  0.750000  0.984035  0.713421  1
  Ir  Ir24  1  0.750000  0.517070  0.213956  1
  Pt  Pt25  1  0.250000  0.255373  0.035175  1
  Pt  Pt26  1  0.250000  0.244453  0.534867  1
  Pt  Pt27  1  0.750000  0.744842  0.964991  1
