# generated using pymatgen
data_Yb10In2Cu3Ru
_symmetry_space_group_name_H-M   'P 1'
_cell_length_a   8.96499067
_cell_length_b   8.96498922
_cell_length_c   8.94135044
_cell_angle_alpha   128.30613365
_cell_angle_beta   128.30613284
_cell_angle_gamma   76.32247580
_symmetry_Int_Tables_number   1
_chemical_formula_structural   Yb10In2Cu3Ru
_chemical_formula_sum   'Yb10 In2 Cu3 Ru1'
_cell_volume   429.57682900
_cell_formula_units_Z   1
loop_
 _symmetry_equiv_pos_site_id
 _symmetry_equiv_pos_as_xyz
  1  'x, y, z'
loop_
 _atom_site_type_symbol
 _atom_site_label
 _atom_site_symmetry_multiplicity
 _atom_site_fract_x
 _atom_site_fract_y
 _atom_site_fract_z
 _atom_site_occupancy
  Yb  Yb0  1  0.493126  0.501250  0.994375  1
  Yb  Yb1  1  0.001250  0.993126  0.994375  1
  Yb  Yb2  1  0.531602  0.031602  0.836765  1
  Yb  Yb3  1  0.187492  0.687492  0.142206  1
  Yb  Yb4  1  0.032658  0.205027  0.509407  1
  Yb  Yb5  1  0.705027  0.532658  0.509407  1
  Yb  Yb6  1  0.454714  0.954714  0.142206  1
  Yb  Yb7  1  0.805163  0.305163  0.836765  1
  Yb  Yb8  1  0.976749  0.804380  0.509407  1
  Yb  Yb9  1  0.304380  0.476749  0.509407  1
  In  In10  1  0.253690  0.253690  0.007381  1
  In  In11  1  0.753690  0.753690  0.007381  1
  Cu  Cu12  1  0.883405  0.383405  0.266810  1
  Cu  Cu13  1  0.613964  0.884244  0.498208  1
  Cu  Cu14  1  0.384244  0.113964  0.498208  1
  Ru  Ru15  1  0.118847  0.618847  0.737694  1
