# generated using pymatgen
data_Zr2TaFe(BRu2)2
_symmetry_space_group_name_H-M   'P 1'
_cell_length_a   9.38054600
_cell_length_b   9.38054600
_cell_length_c   3.10694400
_cell_angle_alpha   90.00000000
_cell_angle_beta   90.00000000
_cell_angle_gamma   90.00000000
_symmetry_Int_Tables_number   1
_chemical_formula_structural   Zr2TaFe(BRu2)2
_chemical_formula_sum   'Zr4 Ta2 Fe2 B4 Ru8'
_cell_volume   273.39442890
_cell_formula_units_Z   2
loop_
 _symmetry_equiv_pos_site_id
 _symmetry_equiv_pos_as_xyz
  1  'x, y, z'
loop_
 _atom_site_type_symbol
 _atom_site_label
 _atom_site_symmetry_multiplicity
 _atom_site_fract_x
 _atom_site_fract_y
 _atom_site_fract_z
 _atom_site_occupancy
  Zr  Zr0  1  0.826901  0.673099  0.000000  1
  Zr  Zr1  1  0.173099  0.326901  0.000000  1
  Zr  Zr2  1  0.326901  0.826901  0.000000  1
  Zr  Zr3  1  0.673099  0.173099  0.000000  1
  Ta  Ta4  1  0.500000  0.500000  0.000000  1
  Ta  Ta5  1  0.000000  0.000000  0.000000  1
  Fe  Fe6  1  0.500000  0.000000  0.500000  1
  Fe  Fe7  1  0.000000  0.500000  0.500000  1
  B  B8  1  0.613890  0.886110  0.000000  1
  B  B9  1  0.386110  0.113890  0.000000  1
  B  B10  1  0.113890  0.613890  0.000000  1
  B  B11  1  0.886110  0.386110  0.000000  1
  Ru  Ru12  1  0.566520  0.722945  0.500000  1
  Ru  Ru13  1  0.433480  0.277055  0.500000  1
  Ru  Ru14  1  0.066520  0.777055  0.500000  1
  Ru  Ru15  1  0.933480  0.222945  0.500000  1
  Ru  Ru16  1  0.277055  0.566520  0.500000  1
  Ru  Ru17  1  0.722945  0.433480  0.500000  1
  Ru  Ru18  1  0.222945  0.066520  0.500000  1
  Ru  Ru19  1  0.777055  0.933480  0.500000  1
