# generated using pymatgen
data_CeTm6Pa(ReB6)4
_symmetry_space_group_name_H-M   'P 1'
_cell_length_a   3.67467500
_cell_length_b   9.12163938
_cell_length_c   11.49189427
_cell_angle_alpha   90.20297771
_cell_angle_beta   90.00000000
_cell_angle_gamma   90.00000000
_symmetry_Int_Tables_number   1
_chemical_formula_structural   CeTm6Pa(ReB6)4
_chemical_formula_sum   'Ce1 Tm6 Pa1 Re4 B24'
_cell_volume   385.19507855
_cell_formula_units_Z   1
loop_
 _symmetry_equiv_pos_site_id
 _symmetry_equiv_pos_as_xyz
  1  'x, y, z'
loop_
 _atom_site_type_symbol
 _atom_site_label
 _atom_site_symmetry_multiplicity
 _atom_site_fract_x
 _atom_site_fract_y
 _atom_site_fract_z
 _atom_site_occupancy
  Ce  Ce0  1  0.000000  0.320204  0.413183  1
  Tm  Tm1  1  0.000000  0.824053  0.085849  1
  Tm  Tm2  1  0.000000  0.176306  0.914790  1
  Tm  Tm3  1  0.000000  0.944953  0.371793  1
  Tm  Tm4  1  0.000000  0.056168  0.627820  1
  Tm  Tm5  1  0.000000  0.443142  0.127556  1
  Tm  Tm6  1  0.000000  0.556575  0.873510  1
  Pa  Pa7  1  0.000000  0.678399  0.586235  1
  Re  Re8  1  0.000000  0.638199  0.322939  1
  Re  Re9  1  0.000000  0.364317  0.678578  1
  Re  Re10  1  0.000000  0.138480  0.178827  1
  Re  Re11  1  0.000000  0.859390  0.818897  1
  B  B12  1  0.500000  0.554768  0.432359  1
  B  B13  1  0.500000  0.446920  0.568631  1
  B  B14  1  0.500000  0.052635  0.065933  1
  B  B15  1  0.500000  0.946576  0.933127  1
  B  B16  1  0.500000  0.750075  0.418893  1
  B  B17  1  0.500000  0.250273  0.582300  1
  B  B18  1  0.500000  0.248717  0.079588  1
  B  B19  1  0.500000  0.751266  0.920238  1
  B  B20  1  0.500000  0.792880  0.264851  1
  B  B21  1  0.500000  0.207525  0.735203  1
  B  B22  1  0.500000  0.291334  0.232658  1
  B  B23  1  0.500000  0.707854  0.766479  1
  B  B24  1  0.500000  0.631405  0.184708  1
  B  B25  1  0.500000  0.368795  0.815848  1
  B  B26  1  0.500000  0.130278  0.313170  1
  B  B27  1  0.500000  0.868700  0.685752  1
  B  B28  1  0.500000  0.981263  0.211582  1
  B  B29  1  0.500000  0.018302  0.788093  1
  B  B30  1  0.500000  0.483277  0.286055  1
  B  B31  1  0.500000  0.517921  0.713721  1
  B  B32  1  0.500000  0.603033  0.029078  1
  B  B33  1  0.500000  0.397221  0.971457  1
  B  B34  1  0.500000  0.105801  0.470664  1
  B  B35  1  0.500000  0.892995  0.529635  1
