# generated using pymatgen
data_La4NdGd3(TeO6)4
_symmetry_space_group_name_H-M   'P 1'
_cell_length_a   5.50919818
_cell_length_b   9.42762759
_cell_length_c   10.32366218
_cell_angle_alpha   90.04953775
_cell_angle_beta   90.07505721
_cell_angle_gamma   90.06892318
_symmetry_Int_Tables_number   1
_chemical_formula_structural   La4NdGd3(TeO6)4
_chemical_formula_sum   'La4 Nd1 Gd3 Te4 O24'
_cell_volume   536.19622104
_cell_formula_units_Z   1
loop_
 _symmetry_equiv_pos_site_id
 _symmetry_equiv_pos_as_xyz
  1  'x, y, z'
loop_
 _atom_site_type_symbol
 _atom_site_label
 _atom_site_symmetry_multiplicity
 _atom_site_fract_x
 _atom_site_fract_y
 _atom_site_fract_z
 _atom_site_occupancy
  La  La0  1  0.530297  0.218610  0.357198  1
  La  La1  1  0.030969  0.280308  0.642849  1
  La  La2  1  0.470535  0.719217  0.142468  1
  La  La3  1  0.968919  0.780754  0.858426  1
  Nd  Nd4  1  0.975554  0.894305  0.456333  1
  Gd  Gd5  1  0.522168  0.104048  0.955672  1
  Gd  Gd6  1  0.022386  0.396740  0.043960  1
  Gd  Gd7  1  0.480463  0.600773  0.544731  1
  Te  Te8  1  0.462193  0.992636  0.643024  1
  Te  Te9  1  0.965474  0.506767  0.358378  1
  Te  Te10  1  0.535965  0.491449  0.858830  1
  Te  Te11  1  0.036647  0.009347  0.139436  1
  O  O12  1  0.305420  0.141926  0.168638  1
  O  O13  1  0.805318  0.359439  0.830561  1
  O  O14  1  0.699955  0.642750  0.331600  1
  O  O15  1  0.191224  0.862478  0.674180  1
  O  O16  1  0.724620  0.106723  0.563972  1
  O  O17  1  0.224093  0.388979  0.435443  1
  O  O18  1  0.276086  0.607854  0.936901  1
  O  O19  1  0.775765  0.892124  0.062643  1
  O  O20  1  0.673973  0.633606  0.744424  1
  O  O21  1  0.176419  0.866684  0.252331  1
  O  O22  1  0.328291  0.136142  0.756944  1
  O  O23  1  0.824059  0.366847  0.243088  1
  O  O24  1  0.664438  0.948842  0.790849  1
  O  O25  1  0.166545  0.550817  0.209964  1
  O  O26  1  0.335495  0.448425  0.709485  1
  O  O27  1  0.835290  0.053448  0.287226  1
  O  O28  1  0.257530  0.080635  0.506940  1
  O  O29  1  0.756809  0.421366  0.494386  1
  O  O30  1  0.743401  0.576783  0.995767  1
  O  O31  1  0.243572  0.924096  0.003054  1
  O  O32  1  0.098860  0.652925  0.471963  1
  O  O33  1  0.581572  0.841497  0.530393  1
  O  O34  1  0.905601  0.158474  0.028447  1
  O  O35  1  0.404089  0.342186  0.969495  1
