# generated using pymatgen
data_Si4OsPt3
_symmetry_space_group_name_H-M   'P 1'
_cell_length_a   3.58712900
_cell_length_b   5.51314937
_cell_length_c   6.11192434
_cell_angle_alpha   89.55476941
_cell_angle_beta   90.00000000
_cell_angle_gamma   90.00000000
_symmetry_Int_Tables_number   1
_chemical_formula_structural   Si4OsPt3
_chemical_formula_sum   'Si4 Os1 Pt3'
_cell_volume   120.86807679
_cell_formula_units_Z   1
loop_
 _symmetry_equiv_pos_site_id
 _symmetry_equiv_pos_as_xyz
  1  'x, y, z'
loop_
 _atom_site_type_symbol
 _atom_site_label
 _atom_site_symmetry_multiplicity
 _atom_site_fract_x
 _atom_site_fract_y
 _atom_site_fract_z
 _atom_site_occupancy
  Si  Si0  1  0.250000  0.669045  0.068937  1
  Si  Si1  1  0.750000  0.330072  0.914924  1
  Si  Si2  1  0.250000  0.184893  0.425071  1
  Si  Si3  1  0.750000  0.802625  0.590646  1
  Os  Os4  1  0.250000  0.500751  0.697434  1
  Pt  Pt5  1  0.750000  0.505006  0.300826  1
  Pt  Pt6  1  0.250000  0.001349  0.800584  1
  Pt  Pt7  1  0.750000  0.006259  0.201577  1
