# generated using pymatgen
data_Ho4MnTcOs6
_symmetry_space_group_name_H-M   'P 1'
_cell_length_a   5.30469255
_cell_length_b   5.30469309
_cell_length_c   8.75692605
_cell_angle_alpha   89.98899326
_cell_angle_beta   90.01100594
_cell_angle_gamma   119.11973581
_symmetry_Int_Tables_number   1
_chemical_formula_structural   Ho4MnTcOs6
_chemical_formula_sum   'Ho4 Mn1 Tc1 Os6'
_cell_volume   215.27177385
_cell_formula_units_Z   1
loop_
 _symmetry_equiv_pos_site_id
 _symmetry_equiv_pos_as_xyz
  1  'x, y, z'
loop_
 _atom_site_type_symbol
 _atom_site_label
 _atom_site_symmetry_multiplicity
 _atom_site_fract_x
 _atom_site_fract_y
 _atom_site_fract_z
 _atom_site_occupancy
  Ho  Ho0  1  0.332595  0.667405  0.433395  1
  Ho  Ho1  1  0.666258  0.333742  0.568991  1
  Ho  Ho2  1  0.665778  0.334222  0.934274  1
  Ho  Ho3  1  0.331763  0.668237  0.063490  1
  Mn  Mn4  1  0.000344  0.999656  0.501268  1
  Tc  Tc5  1  0.830366  0.169634  0.251410  1
  Os  Os6  1  0.998609  0.001391  0.998714  1
  Os  Os7  1  0.828936  0.658477  0.253724  1
  Os  Os8  1  0.341523  0.171064  0.253724  1
  Os  Os9  1  0.173101  0.826899  0.747397  1
  Os  Os10  1  0.169536  0.338808  0.746807  1
  Os  Os11  1  0.661192  0.830464  0.746807  1
