# generated using pymatgen
data_UNb13As5P4
_symmetry_space_group_name_H-M   'P 1'
_cell_length_a   11.35743200
_cell_length_b   11.37819812
_cell_length_c   3.52202000
_cell_angle_alpha   90.00000000
_cell_angle_beta   90.00000000
_cell_angle_gamma   119.93964517
_symmetry_Int_Tables_number   1
_chemical_formula_structural   UNb13As5P4
_chemical_formula_sum   'U1 Nb13 As5 P4'
_cell_volume   394.40271193
_cell_formula_units_Z   1
loop_
 _symmetry_equiv_pos_site_id
 _symmetry_equiv_pos_as_xyz
  1  'x, y, z'
loop_
 _atom_site_type_symbol
 _atom_site_label
 _atom_site_symmetry_multiplicity
 _atom_site_fract_x
 _atom_site_fract_y
 _atom_site_fract_z
 _atom_site_occupancy
  U  U0  1  0.670750  0.341498  0.000000  1
  Nb  Nb1  1  0.241575  0.483150  0.500000  1
  Nb  Nb2  1  0.241486  0.758660  0.500000  1
  Nb  Nb3  1  0.521535  0.043071  0.500000  1
  Nb  Nb4  1  0.526959  0.480802  0.500000  1
  Nb  Nb5  1  0.953842  0.480802  0.500000  1
  Nb  Nb6  1  0.994147  0.292992  0.000000  1
  Nb  Nb7  1  0.712269  0.697092  0.000000  1
  Nb  Nb8  1  0.707460  0.005323  0.000000  1
  Nb  Nb9  1  0.984823  0.697092  0.000000  1
  Nb  Nb10  1  0.298845  0.292992  0.000000  1
  Nb  Nb11  1  0.999967  0.999934  0.000000  1
  Nb  Nb12  1  0.517173  0.758660  0.500000  1
  Nb  Nb13  1  0.297863  0.005323  0.000000  1
  As  As14  1  0.419921  0.210458  0.500000  1
  As  As15  1  0.801722  0.899251  0.500000  1
  As  As16  1  0.097528  0.899251  0.500000  1
  As  As17  1  0.099023  0.198045  0.500000  1
  As  As18  1  0.790536  0.210458  0.500000  1
  P  P19  1  0.137018  0.569179  0.000000  1
  P  P20  1  0.432159  0.569179  0.000000  1
  P  P21  1  0.430220  0.860442  0.000000  1
  P  P22  1  0.789842  0.579683  0.500000  1
