# generated using pymatgen
data_YLu2Be2Co9B4
_symmetry_space_group_name_H-M   'P 1'
_cell_length_a   4.98950400
_cell_length_b   4.98964498
_cell_length_c   9.33266400
_cell_angle_alpha   89.99987426
_cell_angle_beta   90.00024000
_cell_angle_gamma   119.99906538
_symmetry_Int_Tables_number   1
_chemical_formula_structural   YLu2Be2Co9B4
_chemical_formula_sum   'Y1 Lu2 Be2 Co9 B4'
_cell_volume   201.21825247
_cell_formula_units_Z   1
loop_
 _symmetry_equiv_pos_site_id
 _symmetry_equiv_pos_as_xyz
  1  'x, y, z'
loop_
 _atom_site_type_symbol
 _atom_site_label
 _atom_site_symmetry_multiplicity
 _atom_site_fract_x
 _atom_site_fract_y
 _atom_site_fract_z
 _atom_site_occupancy
  Y  Y0  1  0.999993  0.000000  0.999954  1
  Lu  Lu1  1  0.999993  0.000000  0.338681  1
  Lu  Lu2  1  0.000012  0.000000  0.661387  1
  Be  Be3  1  0.333315  0.666648  0.999971  1
  Be  Be4  1  0.666666  0.333352  0.999971  1
  Co  Co5  1  0.499995  0.000000  0.500003  1
  Co  Co6  1  0.499992  0.500001  0.500014  1
  Co  Co7  1  0.999991  0.499999  0.500014  1
  Co  Co8  1  0.499991  0.000000  0.190987  1
  Co  Co9  1  0.499993  0.500000  0.191011  1
  Co  Co10  1  0.999993  0.500000  0.191011  1
  Co  Co11  1  0.499998  0.000000  0.809002  1
  Co  Co12  1  0.499997  0.500002  0.808978  1
  Co  Co13  1  0.999995  0.499998  0.808978  1
  B  B14  1  0.333329  0.666675  0.342590  1
  B  B15  1  0.666654  0.333325  0.342590  1
  B  B16  1  0.666653  0.333315  0.657427  1
  B  B17  1  0.333339  0.666685  0.657427  1
