# generated using pymatgen
data_Nd13Th3(CdIr)4
_symmetry_space_group_name_H-M   'P 1'
_cell_length_a   10.00068908
_cell_length_b   10.00009664
_cell_length_c   10.00009700
_cell_angle_alpha   60.00000212
_cell_angle_beta   60.00196175
_cell_angle_gamma   60.00196355
_symmetry_Int_Tables_number   1
_chemical_formula_structural   Nd13Th3(CdIr)4
_chemical_formula_sum   'Nd13 Th3 Cd4 Ir4'
_cell_volume   707.19018944
_cell_formula_units_Z   1
loop_
 _symmetry_equiv_pos_site_id
 _symmetry_equiv_pos_as_xyz
  1  'x, y, z'
loop_
 _atom_site_type_symbol
 _atom_site_label
 _atom_site_symmetry_multiplicity
 _atom_site_fract_x
 _atom_site_fract_y
 _atom_site_fract_z
 _atom_site_occupancy
  Nd  Nd0  1  0.953840  0.348720  0.348720  1
  Nd  Nd1  1  0.809575  0.191119  0.191119  1
  Nd  Nd2  1  0.191250  0.809428  0.809428  1
  Nd  Nd3  1  0.191250  0.809428  0.189894  1
  Nd  Nd4  1  0.809575  0.191119  0.808188  1
  Nd  Nd5  1  0.191250  0.189894  0.809428  1
  Nd  Nd6  1  0.809575  0.808188  0.191119  1
  Nd  Nd7  1  0.937326  0.563167  0.563167  1
  Nd  Nd8  1  0.562312  0.937471  0.937471  1
  Nd  Nd9  1  0.562312  0.937471  0.562746  1
  Nd  Nd10  1  0.937326  0.563167  0.936340  1
  Nd  Nd11  1  0.562312  0.562746  0.937471  1
  Nd  Nd12  1  0.937326  0.936340  0.563167  1
  Th  Th13  1  0.344114  0.346037  0.346037  1
  Th  Th14  1  0.344114  0.346037  0.963812  1
  Th  Th15  1  0.344114  0.963812  0.346037  1
  Cd  Cd16  1  0.579168  0.579858  0.579858  1
  Cd  Cd17  1  0.579168  0.579858  0.261115  1
  Cd  Cd18  1  0.579168  0.261115  0.579858  1
  Cd  Cd19  1  0.259296  0.580234  0.580234  1
  Ir  Ir20  1  0.150003  0.140584  0.140584  1
  Ir  Ir21  1  0.150003  0.140584  0.568828  1
  Ir  Ir22  1  0.150003  0.568828  0.140584  1
  Ir  Ir23  1  0.565617  0.144794  0.144794  1
