# generated using pymatgen
data_Er4Ga18RuPt3Rh2
_symmetry_space_group_name_H-M   'P 1'
_cell_length_a   7.60372796
_cell_length_b   7.60372598
_cell_length_c   9.47605959
_cell_angle_alpha   89.94176564
_cell_angle_beta   89.94175902
_cell_angle_gamma   119.78053914
_symmetry_Int_Tables_number   1
_chemical_formula_structural   Er4Ga18RuPt3Rh2
_chemical_formula_sum   'Er4 Ga18 Ru1 Pt3 Rh2'
_cell_volume   475.51773949
_cell_formula_units_Z   1
loop_
 _symmetry_equiv_pos_site_id
 _symmetry_equiv_pos_as_xyz
  1  'x, y, z'
loop_
 _atom_site_type_symbol
 _atom_site_label
 _atom_site_symmetry_multiplicity
 _atom_site_fract_x
 _atom_site_fract_y
 _atom_site_fract_z
 _atom_site_occupancy
  Er  Er0  1  0.997103  0.668549  0.250478  1
  Er  Er1  1  0.003006  0.331778  0.749840  1
  Er  Er2  1  0.668222  0.996994  0.250160  1
  Er  Er3  1  0.331451  0.002897  0.749522  1
  Ga  Ga4  1  0.123265  0.124533  0.250394  1
  Ga  Ga5  1  0.875467  0.876735  0.749606  1
  Ga  Ga6  1  0.998899  0.330632  0.082185  1
  Ga  Ga7  1  0.001008  0.669899  0.917186  1
  Ga  Ga8  1  0.996312  0.664221  0.580410  1
  Ga  Ga9  1  0.335779  0.003688  0.419590  1
  Ga  Ga10  1  0.993490  0.330548  0.419946  1
  Ga  Ga11  1  0.669452  0.006510  0.580054  1
  Ga  Ga12  1  0.669368  0.001101  0.917815  1
  Ga  Ga13  1  0.330101  0.998992  0.082814  1
  Ga  Ga14  1  0.331964  0.327123  0.566322  1
  Ga  Ga15  1  0.672877  0.668036  0.433678  1
  Ga  Ga16  1  0.672228  0.672410  0.069266  1
  Ga  Ga17  1  0.327590  0.327772  0.930734  1
  Ga  Ga18  1  0.339321  0.542627  0.250472  1
  Ga  Ga19  1  0.660054  0.453190  0.745941  1
  Ga  Ga20  1  0.546810  0.339946  0.254059  1
  Ga  Ga21  1  0.457373  0.660679  0.749528  1
  Ru  Ru22  1  0.671697  0.328303  0.500000  1
  Pt  Pt23  1  0.671091  0.328909  0.000000  1
  Pt  Pt24  1  0.328361  0.671639  0.000000  1
  Pt  Pt25  1  0.327663  0.672337  0.500000  1
  Rh  Rh26  1  0.000085  0.999915  0.000000  1
  Rh  Rh27  1  0.999964  0.000036  0.500000  1
