# generated using pymatgen
data_La23In4Ir7
_symmetry_space_group_name_H-M   'P 1'
_cell_length_a   10.23051800
_cell_length_b   10.23051895
_cell_length_c   23.12602400
_cell_angle_alpha   90.00000000
_cell_angle_beta   90.00000000
_cell_angle_gamma   120.00000340
_symmetry_Int_Tables_number   1
_chemical_formula_structural   La23In4Ir7
_chemical_formula_sum   'La46 In8 Ir14'
_cell_volume   2096.17181291
_cell_formula_units_Z   2
loop_
 _symmetry_equiv_pos_site_id
 _symmetry_equiv_pos_as_xyz
  1  'x, y, z'
loop_
 _atom_site_type_symbol
 _atom_site_label
 _atom_site_symmetry_multiplicity
 _atom_site_fract_x
 _atom_site_fract_y
 _atom_site_fract_z
 _atom_site_occupancy
  La  La0  1  0.205445  0.410891  0.719562  1
  La  La1  1  0.205445  0.794555  0.719562  1
  La  La2  1  0.794555  0.589109  0.219562  1
  La  La3  1  0.589109  0.794555  0.719562  1
  La  La4  1  0.794555  0.205445  0.219562  1
  La  La5  1  0.410891  0.205445  0.219562  1
  La  La6  1  0.794083  0.588167  0.946976  1
  La  La7  1  0.794083  0.205917  0.946976  1
  La  La8  1  0.205917  0.411833  0.446976  1
  La  La9  1  0.411833  0.205917  0.946976  1
  La  La10  1  0.205917  0.794083  0.446976  1
  La  La11  1  0.588167  0.794083  0.446976  1
  La  La12  1  0.208100  0.416200  0.989782  1
  La  La13  1  0.208100  0.791900  0.989782  1
  La  La14  1  0.791900  0.583800  0.489782  1
  La  La15  1  0.583800  0.791900  0.989782  1
  La  La16  1  0.791900  0.208100  0.489782  1
  La  La17  1  0.416200  0.208100  0.489782  1
  La  La18  1  0.871918  0.743837  0.634633  1
  La  La19  1  0.871918  0.128082  0.634633  1
  La  La20  1  0.128082  0.256163  0.134633  1
  La  La21  1  0.256163  0.128082  0.634633  1
  La  La22  1  0.128082  0.871918  0.134633  1
  La  La23  1  0.743837  0.871918  0.134633  1
  La  La24  1  0.460919  0.921838  0.855388  1
  La  La25  1  0.460919  0.539081  0.855388  1
  La  La26  1  0.539081  0.078162  0.355388  1
  La  La27  1  0.078162  0.539081  0.855388  1
  La  La28  1  0.539081  0.460919  0.355388  1
  La  La29  1  0.921838  0.460919  0.355388  1
  La  La30  1  0.000000  0.000000  0.999200  1
  La  La31  1  0.000000  0.000000  0.499200  1
  La  La32  1  0.459205  0.918410  0.585516  1
  La  La33  1  0.459205  0.540795  0.585516  1
  La  La34  1  0.540795  0.081590  0.085516  1
  La  La35  1  0.081590  0.540795  0.585516  1
  La  La36  1  0.540795  0.459205  0.085516  1
  La  La37  1  0.918410  0.459205  0.085516  1
  La  La38  1  0.796352  0.592705  0.781998  1
  La  La39  1  0.796352  0.203648  0.781998  1
  La  La40  1  0.203648  0.407295  0.281998  1
  La  La41  1  0.407295  0.203648  0.781998  1
  La  La42  1  0.203648  0.796352  0.281998  1
  La  La43  1  0.592705  0.796352  0.281998  1
  La  La44  1  0.666667  0.333333  0.648673  1
  La  La45  1  0.333333  0.666667  0.148673  1
  In  In46  1  0.000000  0.000000  0.749157  1
  In  In47  1  0.000000  0.000000  0.249157  1
  In  In48  1  0.106621  0.213242  0.863145  1
  In  In49  1  0.106621  0.893379  0.863145  1
  In  In50  1  0.893379  0.786758  0.363145  1
  In  In51  1  0.786758  0.893379  0.863145  1
  In  In52  1  0.893379  0.106621  0.363145  1
  In  In53  1  0.213242  0.106621  0.363145  1
  Ir  Ir54  1  0.519707  0.039414  0.710648  1
  Ir  Ir55  1  0.519707  0.480293  0.710648  1
  Ir  Ir56  1  0.480293  0.960586  0.210648  1
  Ir  Ir57  1  0.960586  0.480293  0.710648  1
  Ir  Ir58  1  0.480293  0.519707  0.210648  1
  Ir  Ir59  1  0.039414  0.519707  0.210648  1
  Ir  Ir60  1  0.666667  0.333333  0.865864  1
  Ir  Ir61  1  0.333333  0.666667  0.365864  1
  Ir  Ir62  1  0.144002  0.288004  0.563628  1
  Ir  Ir63  1  0.144002  0.855998  0.563628  1
  Ir  Ir64  1  0.855998  0.711996  0.063628  1
  Ir  Ir65  1  0.711996  0.855998  0.563628  1
  Ir  Ir66  1  0.855998  0.144002  0.063628  1
  Ir  Ir67  1  0.288004  0.144002  0.063628  1
