# generated using pymatgen
data_Sr4Li2(CdAs2)3
_symmetry_space_group_name_H-M   'P 1'
_cell_length_a   10.31656805
_cell_length_b   10.31656838
_cell_length_c   16.47727700
_cell_angle_alpha   90.00000000
_cell_angle_beta   90.00000000
_cell_angle_gamma   154.43931344
_symmetry_Int_Tables_number   1
_chemical_formula_structural   Sr4Li2(CdAs2)3
_chemical_formula_sum   'Sr8 Li4 Cd6 As12'
_cell_volume   756.66455567
_cell_formula_units_Z   2
loop_
 _symmetry_equiv_pos_site_id
 _symmetry_equiv_pos_as_xyz
  1  'x, y, z'
loop_
 _atom_site_type_symbol
 _atom_site_label
 _atom_site_symmetry_multiplicity
 _atom_site_fract_x
 _atom_site_fract_y
 _atom_site_fract_z
 _atom_site_occupancy
  Sr  Sr0  1  0.984779  0.015221  0.378071  1
  Sr  Sr1  1  0.015221  0.984779  0.621929  1
  Sr  Sr2  1  0.984779  0.015221  0.121929  1
  Sr  Sr3  1  0.015221  0.984779  0.878071  1
  Sr  Sr4  1  0.827031  0.172969  0.929256  1
  Sr  Sr5  1  0.172969  0.827031  0.070744  1
  Sr  Sr6  1  0.827031  0.172969  0.570744  1
  Sr  Sr7  1  0.172969  0.827031  0.429256  1
  Li  Li8  1  0.849750  0.150250  0.250000  1
  Li  Li9  1  0.150250  0.849750  0.750000  1
  Li  Li10  1  0.563440  0.436560  0.250000  1
  Li  Li11  1  0.436560  0.563440  0.750000  1
  Cd  Cd12  1  0.351855  0.648145  0.382004  1
  Cd  Cd13  1  0.648145  0.351855  0.617996  1
  Cd  Cd14  1  0.351855  0.648145  0.117996  1
  Cd  Cd15  1  0.648145  0.351855  0.882004  1
  Cd  Cd16  1  0.701688  0.298312  0.250000  1
  Cd  Cd17  1  0.298312  0.701688  0.750000  1
  As  As18  1  0.776759  0.223241  0.388132  1
  As  As19  1  0.223241  0.776759  0.611868  1
  As  As20  1  0.776759  0.223241  0.111868  1
  As  As21  1  0.223241  0.776759  0.888132  1
  As  As22  1  0.560981  0.439019  0.479325  1
  As  As23  1  0.439019  0.560981  0.520675  1
  As  As24  1  0.560981  0.439019  0.020675  1
  As  As25  1  0.439019  0.560981  0.979325  1
  As  As26  1  0.434574  0.565426  0.250000  1
  As  As27  1  0.565426  0.434574  0.750000  1
  As  As28  1  0.115428  0.884572  0.250000  1
  As  As29  1  0.884572  0.115428  0.750000  1
