# generated using pymatgen
data_Li6Tb3Er3(TeO6)4
_symmetry_space_group_name_H-M   'P 1'
_cell_length_a   10.71878384
_cell_length_b   10.71878281
_cell_length_c   10.71997702
_cell_angle_alpha   109.47072871
_cell_angle_beta   109.47070732
_cell_angle_gamma   109.46771516
_symmetry_Int_Tables_number   1
_chemical_formula_structural   Li6Tb3Er3(TeO6)4
_chemical_formula_sum   'Li12 Tb6 Er6 Te8 O48'
_cell_volume   948.17198921
_cell_formula_units_Z   2
loop_
 _symmetry_equiv_pos_site_id
 _symmetry_equiv_pos_as_xyz
  1  'x, y, z'
loop_
 _atom_site_type_symbol
 _atom_site_label
 _atom_site_symmetry_multiplicity
 _atom_site_fract_x
 _atom_site_fract_y
 _atom_site_fract_z
 _atom_site_occupancy
  Li  Li0  1  0.875555  0.749894  0.125720  1
  Li  Li1  1  0.250165  0.875827  0.125721  1
  Li  Li2  1  0.875379  0.125380  0.250000  1
  Li  Li3  1  0.374620  0.624620  0.250001  1
  Li  Li4  1  0.624174  0.249835  0.374278  1
  Li  Li5  1  0.750104  0.624445  0.374279  1
  Li  Li6  1  0.250111  0.374442  0.624271  1
  Li  Li7  1  0.374162  0.749830  0.624273  1
  Li  Li8  1  0.125383  0.875382  0.750000  1
  Li  Li9  1  0.624618  0.374618  0.750001  1
  Li  Li10  1  0.125558  0.249890  0.875728  1
  Li  Li11  1  0.750169  0.125838  0.875728  1
  Tb  Tb12  1  0.749673  0.874861  0.624407  1
  Tb  Tb13  1  0.874736  0.249548  0.624409  1
  Tb  Tb14  1  0.374999  0.124999  0.750000  1
  Tb  Tb15  1  0.874999  0.625000  0.750000  1
  Tb  Tb16  1  0.250453  0.625265  0.875592  1
  Tb  Tb17  1  0.625139  0.750327  0.875592  1
  Er  Er18  1  0.750478  0.375263  0.125608  1
  Er  Er19  1  0.375131  0.250346  0.125609  1
  Er  Er20  1  0.625000  0.875000  0.250000  1
  Er  Er21  1  0.125001  0.375001  0.250001  1
  Er  Er22  1  0.124738  0.749522  0.374391  1
  Er  Er23  1  0.249654  0.124869  0.374392  1
  Te  Te24  1  0.001428  0.001601  0.001586  1
  Te  Te25  1  0.500706  0.001553  0.002043  1
  Te  Te26  1  0.501336  0.500489  0.002043  1
  Te  Te27  1  0.000158  0.499985  0.001586  1
  Te  Te28  1  0.999510  0.998664  0.497956  1
  Te  Te29  1  0.000015  0.499841  0.498413  1
  Te  Te30  1  0.498447  0.999293  0.497957  1
  Te  Te31  1  0.498399  0.498573  0.498414  1
  O  O32  1  0.122237  0.201530  0.029337  1
  O  O33  1  0.907100  0.327807  0.029337  1
  O  O34  1  0.408153  0.880728  0.081451  1
  O  O35  1  0.673298  0.700723  0.081452  1
  O  O36  1  0.672310  0.973111  0.095227  1
  O  O37  1  0.422915  0.622114  0.095227  1
  O  O38  1  0.201430  0.029349  0.122441  1
  O  O39  1  0.921012  0.593093  0.122442  1
  O  O40  1  0.579614  0.202139  0.173097  1
  O  O41  1  0.593484  0.470959  0.173098  1
  O  O42  1  0.029207  0.122368  0.201570  1
  O  O43  1  0.172361  0.579203  0.201571  1
  O  O44  1  0.920798  0.327638  0.298429  1
  O  O45  1  0.377631  0.470792  0.298429  1
  O  O46  1  0.297862  0.920386  0.326903  1
  O  O47  1  0.029041  0.906517  0.326903  1
  O  O48  1  0.470650  0.298569  0.377558  1
  O  O49  1  0.906909  0.578990  0.377559  1
  O  O50  1  0.526888  0.827689  0.404772  1
  O  O51  1  0.877885  0.077085  0.404774  1
  O  O52  1  0.619272  0.091847  0.418547  1
  O  O53  1  0.799277  0.826702  0.418549  1
  O  O54  1  0.298470  0.377763  0.470663  1
  O  O55  1  0.172192  0.592899  0.470663  1
  O  O56  1  0.698436  0.619103  0.525800  1
  O  O57  1  0.827364  0.406695  0.525800  1
  O  O58  1  0.199237  0.171521  0.577070  1
  O  O59  1  0.377836  0.905549  0.577071  1
  O  O60  1  0.119276  0.918447  0.590966  1
  O  O61  1  0.471691  0.172519  0.590967  1
  O  O62  1  0.525803  0.698546  0.618943  1
  O  O63  1  0.093142  0.420399  0.618945  1
  O  O64  1  0.697794  0.078980  0.671715  1
  O  O65  1  0.973921  0.092735  0.671716  1
  O  O66  1  0.079386  0.672463  0.698376  1
  O  O67  1  0.618992  0.525914  0.698377  1
  O  O68  1  0.974087  0.881010  0.801623  1
  O  O69  1  0.827536  0.420615  0.801625  1
  O  O70  1  0.407266  0.526079  0.828285  1
  O  O71  1  0.421020  0.802205  0.828286  1
  O  O72  1  0.079603  0.406860  0.881056  1
  O  O73  1  0.801455  0.974198  0.881056  1
  O  O74  1  0.581552  0.380725  0.909034  1
  O  O75  1  0.327482  0.028310  0.909034  1
  O  O76  1  0.328478  0.300764  0.922930  1
  O  O77  1  0.594452  0.122165  0.922930  1
  O  O78  1  0.093306  0.672636  0.974200  1
  O  O79  1  0.880896  0.801564  0.974201  1
