# generated using pymatgen
data_Y3Lu(ScPt)4
_symmetry_space_group_name_H-M   'P 1'
_cell_length_a   4.62664700
_cell_length_b   6.99200443
_cell_length_c   8.38186426
_cell_angle_alpha   89.84156893
_cell_angle_beta   90.00000000
_cell_angle_gamma   90.00000000
_symmetry_Int_Tables_number   1
_chemical_formula_structural   Y3Lu(ScPt)4
_chemical_formula_sum   'Y3 Lu1 Sc4 Pt4'
_cell_volume   271.14838593
_cell_formula_units_Z   1
loop_
 _symmetry_equiv_pos_site_id
 _symmetry_equiv_pos_as_xyz
  1  'x, y, z'
loop_
 _atom_site_type_symbol
 _atom_site_label
 _atom_site_symmetry_multiplicity
 _atom_site_fract_x
 _atom_site_fract_y
 _atom_site_fract_z
 _atom_site_occupancy
  Y  Y0  1  0.250000  0.518565  0.177286  1
  Y  Y1  1  0.750000  0.481568  0.824450  1
  Y  Y2  1  0.750000  0.981509  0.675354  1
  Lu  Lu3  1  0.250000  0.019854  0.325578  1
  Sc  Sc4  1  0.250000  0.642070  0.570750  1
  Sc  Sc5  1  0.750000  0.357558  0.427519  1
  Sc  Sc6  1  0.750000  0.859180  0.074332  1
  Sc  Sc7  1  0.250000  0.140855  0.929413  1
  Pt  Pt8  1  0.250000  0.757415  0.898934  1
  Pt  Pt9  1  0.750000  0.240399  0.102268  1
  Pt  Pt10  1  0.750000  0.745098  0.397464  1
  Pt  Pt11  1  0.250000  0.255928  0.596654  1
