# generated using pymatgen
data_EuEr3(Ni5Sn)4
_symmetry_space_group_name_H-M   'P 1'
_cell_length_a   4.86777100
_cell_length_b   4.86777095
_cell_length_c   19.63481900
_cell_angle_alpha   90.00000000
_cell_angle_beta   90.00000000
_cell_angle_gamma   120.00000713
_symmetry_Int_Tables_number   1
_chemical_formula_structural   EuEr3(Ni5Sn)4
_chemical_formula_sum   'Eu1 Er3 Ni20 Sn4'
_cell_volume   402.91902681
_cell_formula_units_Z   1
loop_
 _symmetry_equiv_pos_site_id
 _symmetry_equiv_pos_as_xyz
  1  'x, y, z'
loop_
 _atom_site_type_symbol
 _atom_site_label
 _atom_site_symmetry_multiplicity
 _atom_site_fract_x
 _atom_site_fract_y
 _atom_site_fract_z
 _atom_site_occupancy
  Eu  Eu0  1  0.000000  0.000000  0.000000  1
  Er  Er1  1  0.333333  0.666667  0.250022  1
  Er  Er2  1  0.666667  0.333333  0.749978  1
  Er  Er3  1  0.000000  0.000000  0.500000  1
  Ni  Ni4  1  0.000000  0.000000  0.250992  1
  Ni  Ni5  1  0.000000  0.000000  0.749008  1
  Ni  Ni6  1  0.333333  0.666667  0.748740  1
  Ni  Ni7  1  0.666667  0.333333  0.251260  1
  Ni  Ni8  1  0.333333  0.666667  0.955085  1
  Ni  Ni9  1  0.666667  0.333333  0.044915  1
  Ni  Ni10  1  0.666667  0.333333  0.457894  1
  Ni  Ni11  1  0.333333  0.666667  0.542106  1
  Ni  Ni12  1  0.834149  0.165851  0.353609  1
  Ni  Ni13  1  0.834149  0.668298  0.353609  1
  Ni  Ni14  1  0.331702  0.165851  0.353609  1
  Ni  Ni15  1  0.165851  0.834149  0.646391  1
  Ni  Ni16  1  0.165851  0.331702  0.646391  1
  Ni  Ni17  1  0.668298  0.834149  0.646391  1
  Ni  Ni18  1  0.166236  0.833764  0.851415  1
  Ni  Ni19  1  0.166236  0.332471  0.851415  1
  Ni  Ni20  1  0.667529  0.833764  0.851415  1
  Ni  Ni21  1  0.833764  0.166236  0.148585  1
  Ni  Ni22  1  0.833764  0.667529  0.148585  1
  Ni  Ni23  1  0.332471  0.166236  0.148585  1
  Sn  Sn24  1  0.333333  0.666667  0.413186  1
  Sn  Sn25  1  0.666667  0.333333  0.586814  1
  Sn  Sn26  1  0.666667  0.333333  0.913206  1
  Sn  Sn27  1  0.333333  0.666667  0.086794  1
