# generated using pymatgen
data_Y2Er6Tc(B8Os)3
_symmetry_space_group_name_H-M   'P 1'
_cell_length_a   3.64584700
_cell_length_b   9.12120866
_cell_length_c   11.50748400
_cell_angle_alpha   89.94729233
_cell_angle_beta   90.00000000
_cell_angle_gamma   90.00000000
_symmetry_Int_Tables_number   1
_chemical_formula_structural   Y2Er6Tc(B8Os)3
_chemical_formula_sum   'Y2 Er6 Tc1 B24 Os3'
_cell_volume   382.67582442
_cell_formula_units_Z   1
loop_
 _symmetry_equiv_pos_site_id
 _symmetry_equiv_pos_as_xyz
  1  'x, y, z'
loop_
 _atom_site_type_symbol
 _atom_site_label
 _atom_site_symmetry_multiplicity
 _atom_site_fract_x
 _atom_site_fract_y
 _atom_site_fract_z
 _atom_site_occupancy
  Y  Y0  1  0.000000  0.323647  0.412917  1
  Y  Y1  1  0.000000  0.677460  0.583758  1
  Er  Er2  1  0.000000  0.820173  0.088102  1
  Er  Er3  1  0.000000  0.177769  0.914845  1
  Er  Er4  1  0.000000  0.942869  0.372414  1
  Er  Er5  1  0.000000  0.056714  0.627608  1
  Er  Er6  1  0.000000  0.444712  0.127900  1
  Er  Er7  1  0.000000  0.556487  0.872509  1
  Tc  Tc8  1  0.000000  0.638259  0.320601  1
  B  B9  1  0.500000  0.553219  0.432765  1
  B  B10  1  0.500000  0.446243  0.567538  1
  B  B11  1  0.500000  0.053484  0.066788  1
  B  B12  1  0.500000  0.946503  0.933453  1
  B  B13  1  0.500000  0.748629  0.419083  1
  B  B14  1  0.500000  0.251513  0.580799  1
  B  B15  1  0.500000  0.248518  0.080013  1
  B  B16  1  0.500000  0.751578  0.919950  1
  B  B17  1  0.500000  0.791903  0.265920  1
  B  B18  1  0.500000  0.208421  0.734010  1
  B  B19  1  0.500000  0.291137  0.232746  1
  B  B20  1  0.500000  0.709220  0.766698  1
  B  B21  1  0.500000  0.631713  0.185326  1
  B  B22  1  0.500000  0.368135  0.815095  1
  B  B23  1  0.500000  0.131128  0.313897  1
  B  B24  1  0.500000  0.869124  0.685657  1
  B  B25  1  0.500000  0.982509  0.212665  1
  B  B26  1  0.500000  0.017439  0.787654  1
  B  B27  1  0.500000  0.482651  0.286753  1
  B  B28  1  0.500000  0.516602  0.713315  1
  B  B29  1  0.500000  0.607037  0.029243  1
  B  B30  1  0.500000  0.392755  0.970147  1
  B  B31  1  0.500000  0.106550  0.470584  1
  B  B32  1  0.500000  0.894486  0.529757  1
  Os  Os33  1  0.000000  0.361328  0.679998  1
  Os  Os34  1  0.000000  0.137169  0.177638  1
  Os  Os35  1  0.000000  0.862921  0.821857  1
