# generated using pymatgen
data_NaS4IO14
_symmetry_space_group_name_H-M   'P 1'
_cell_length_a   5.80099720
_cell_length_b   6.90278946
_cell_length_c   9.09025333
_cell_angle_alpha   107.26715531
_cell_angle_beta   91.22782054
_cell_angle_gamma   104.44264126
_symmetry_Int_Tables_number   1
_chemical_formula_structural   NaS4IO14
_chemical_formula_sum   'Na1 S4 I1 O14'
_cell_volume   334.81337492
_cell_formula_units_Z   1
loop_
 _symmetry_equiv_pos_site_id
 _symmetry_equiv_pos_as_xyz
  1  'x, y, z'
loop_
 _atom_site_type_symbol
 _atom_site_label
 _atom_site_symmetry_multiplicity
 _atom_site_fract_x
 _atom_site_fract_y
 _atom_site_fract_z
 _atom_site_occupancy
  Na  Na0  1  0.500000  0.000000  0.000000  1
  S  S1  1  0.944467  0.737292  0.764111  1
  S  S2  1  0.055533  0.262708  0.235889  1
  S  S3  1  0.664359  0.313965  0.757123  1
  S  S4  1  0.335641  0.686035  0.242877  1
  I  I5  1  0.500000  0.500000  0.500000  1
  O  O6  1  0.872477  0.660184  0.588624  1
  O  O7  1  0.127523  0.339816  0.411376  1
  O  O8  1  0.472186  0.409338  0.708692  1
  O  O9  1  0.527814  0.590662  0.291308  1
  O  O10  1  0.198726  0.825253  0.790079  1
  O  O11  1  0.801274  0.174747  0.209921  1
  O  O12  1  0.789842  0.852103  0.849658  1
  O  O13  1  0.210158  0.147897  0.150342  1
  O  O14  1  0.610278  0.276601  0.900950  1
  O  O15  1  0.389722  0.723399  0.099050  1
  O  O16  1  0.909395  0.518458  0.808490  1
  O  O17  1  0.090605  0.481542  0.191510  1
  O  O18  1  0.722202  0.157731  0.631800  1
  O  O19  1  0.277798  0.842269  0.368200  1
