# generated using pymatgen
data_Lu10Ga3Sn2Ru
_symmetry_space_group_name_H-M   'P 1'
_cell_length_a   8.57248050
_cell_length_b   8.57248002
_cell_length_c   8.65069500
_cell_angle_alpha   125.98382292
_cell_angle_beta   125.98382060
_cell_angle_gamma   79.29016766
_symmetry_Int_Tables_number   1
_chemical_formula_structural   Lu10Ga3Sn2Ru
_chemical_formula_sum   'Lu10 Ga3 Sn2 Ru1'
_cell_volume   403.73224435
_cell_formula_units_Z   1
loop_
 _symmetry_equiv_pos_site_id
 _symmetry_equiv_pos_as_xyz
  1  'x, y, z'
loop_
 _atom_site_type_symbol
 _atom_site_label
 _atom_site_symmetry_multiplicity
 _atom_site_fract_x
 _atom_site_fract_y
 _atom_site_fract_z
 _atom_site_occupancy
  Lu  Lu0  1  0.006474  0.001865  0.008338  1
  Lu  Lu1  1  0.498135  0.493526  0.991662  1
  Lu  Lu2  1  0.788528  0.300922  0.806117  1
  Lu  Lu3  1  0.199078  0.711472  0.193883  1
  Lu  Lu4  1  0.482412  0.994807  0.193883  1
  Lu  Lu5  1  0.310042  0.460367  0.500000  1
  Lu  Lu6  1  0.039633  0.189958  0.500000  1
  Lu  Lu7  1  0.505193  0.017588  0.806117  1
  Lu  Lu8  1  0.697229  0.519725  0.500000  1
  Lu  Lu9  1  0.980275  0.802771  0.500000  1
  Ga  Ga10  1  0.133751  0.638635  0.772386  1
  Ga  Ga11  1  0.861365  0.366249  0.227614  1
  Ga  Ga12  1  0.633252  0.866748  0.500000  1
  Sn  Sn13  1  0.243740  0.256260  0.000000  1
  Sn  Sn14  1  0.743740  0.756260  0.000000  1
  Ru  Ru15  1  0.377155  0.122845  0.500000  1
