# generated using pymatgen
data_PrHo2Er17Bi12
_symmetry_space_group_name_H-M   'P 1'
_cell_length_a   8.24454127
_cell_length_b   9.48889000
_cell_length_c   12.00584100
_cell_angle_alpha   90.00000000
_cell_angle_beta   90.04253815
_cell_angle_gamma   90.00000000
_symmetry_Int_Tables_number   1
_chemical_formula_structural   PrHo2Er17Bi12
_chemical_formula_sum   'Pr1 Ho2 Er17 Bi12'
_cell_volume   939.23523439
_cell_formula_units_Z   1
loop_
 _symmetry_equiv_pos_site_id
 _symmetry_equiv_pos_as_xyz
  1  'x, y, z'
loop_
 _atom_site_type_symbol
 _atom_site_label
 _atom_site_symmetry_multiplicity
 _atom_site_fract_x
 _atom_site_fract_y
 _atom_site_fract_z
 _atom_site_occupancy
  Pr  Pr0  1  0.684683  0.750000  0.780227  1
  Ho  Ho1  1  0.813243  0.250000  0.282165  1
  Ho  Ho2  1  0.186026  0.750000  0.718132  1
  Er  Er3  1  0.353007  0.750000  0.218033  1
  Er  Er4  1  0.853392  0.750000  0.282464  1
  Er  Er5  1  0.646760  0.250000  0.783100  1
  Er  Er6  1  0.147681  0.250000  0.716372  1
  Er  Er7  1  0.691928  0.565128  0.060079  1
  Er  Er8  1  0.192493  0.935103  0.440140  1
  Er  Er9  1  0.308558  0.065290  0.940606  1
  Er  Er10  1  0.807932  0.434751  0.559077  1
  Er  Er11  1  0.308558  0.434710  0.940606  1
  Er  Er12  1  0.807932  0.065249  0.559077  1
  Er  Er13  1  0.691928  0.934872  0.060079  1
  Er  Er14  1  0.192493  0.564897  0.440140  1
  Er  Er15  1  0.476000  0.250000  0.487831  1
  Er  Er16  1  0.976914  0.250000  0.012621  1
  Er  Er17  1  0.523431  0.750000  0.511177  1
  Er  Er18  1  0.023532  0.750000  0.989404  1
  Er  Er19  1  0.313084  0.250000  0.217309  1
  Bi  Bi20  1  0.401296  0.750000  0.961582  1
  Bi  Bi21  1  0.907857  0.750000  0.539610  1
  Bi  Bi22  1  0.594446  0.250000  0.042335  1
  Bi  Bi23  1  0.094677  0.250000  0.457698  1
  Bi  Bi24  1  0.565787  0.995626  0.325993  1
  Bi  Bi25  1  0.066478  0.504280  0.174424  1
  Bi  Bi26  1  0.430896  0.492838  0.672604  1
  Bi  Bi27  1  0.937911  0.007882  0.827045  1
  Bi  Bi28  1  0.430896  0.007162  0.672604  1
  Bi  Bi29  1  0.937911  0.492118  0.827045  1
  Bi  Bi30  1  0.565787  0.504374  0.325993  1
  Bi  Bi31  1  0.066478  0.995720  0.174424  1
