# generated using pymatgen
data_Zr9In11Co7Hg3
_symmetry_space_group_name_H-M   'P 1'
_cell_length_a   9.42650900
_cell_length_b   9.43355513
_cell_length_c   9.45084000
_cell_angle_alpha   120.06062969
_cell_angle_beta   90.00000000
_cell_angle_gamma   119.97529858
_symmetry_Int_Tables_number   1
_chemical_formula_structural   Zr9In11Co7Hg3
_chemical_formula_sum   'Zr9 In11 Co7 Hg3'
_cell_volume   593.94391002
_cell_formula_units_Z   1
loop_
 _symmetry_equiv_pos_site_id
 _symmetry_equiv_pos_as_xyz
  1  'x, y, z'
loop_
 _atom_site_type_symbol
 _atom_site_label
 _atom_site_symmetry_multiplicity
 _atom_site_fract_x
 _atom_site_fract_y
 _atom_site_fract_z
 _atom_site_occupancy
  Zr  Zr0  1  0.002872  0.000000  0.000000  1
  Zr  Zr1  1  0.378350  0.758885  0.136236  1
  Zr  Zr2  1  0.619465  0.241115  0.377351  1
  Zr  Zr3  1  0.136134  0.758086  0.379043  1
  Zr  Zr4  1  0.620703  0.757143  0.378572  1
  Zr  Zr5  1  0.378048  0.241914  0.620957  1
  Zr  Zr6  1  0.863559  0.242857  0.621428  1
  Zr  Zr7  1  0.378350  0.758885  0.622649  1
  Zr  Zr8  1  0.619465  0.241115  0.863763  1
  In  In9  1  0.658447  0.000000  0.000000  1
  In  In10  1  0.999773  0.340764  0.000056  1
  In  In11  1  0.340913  0.339165  0.999762  1
  In  In12  1  0.001748  0.660837  0.000238  1
  In  In13  1  0.659010  0.659238  0.999944  1
  In  In14  1  0.999457  0.000000  0.340190  1
  In  In15  1  0.999773  0.340764  0.340708  1
  In  In16  1  0.340913  0.339165  0.339403  1
  In  In17  1  0.999457  0.000000  0.659812  1
  In  In18  1  0.001748  0.660837  0.660599  1
  In  In19  1  0.659010  0.659238  0.659294  1
  Co  Co20  1  0.280457  0.000000  0.284436  1
  Co  Co21  1  0.719055  0.000000  0.280385  1
  Co  Co22  1  0.279816  0.558762  0.279381  1
  Co  Co23  1  0.500332  0.000000  0.500000  1
  Co  Co24  1  0.280457  0.000000  0.715564  1
  Co  Co25  1  0.719055  0.000000  0.719615  1
  Co  Co26  1  0.721053  0.441238  0.720619  1
  Hg  Hg27  1  0.341902  0.000000  0.000000  1
  Hg  Hg28  1  0.750722  0.500761  0.250381  1
  Hg  Hg29  1  0.249960  0.499239  0.749619  1
