# generated using pymatgen
data_La4Al2GaRhI2
_symmetry_space_group_name_H-M   'P 1'
_cell_length_a   4.36866100
_cell_length_b   4.36865903
_cell_length_c   17.77163500
_cell_angle_alpha   90.00000000
_cell_angle_beta   90.00000000
_cell_angle_gamma   119.99999219
_symmetry_Int_Tables_number   1
_chemical_formula_structural   La4Al2GaRhI2
_chemical_formula_sum   'La4 Al2 Ga1 Rh1 I2'
_cell_volume   293.73422110
_cell_formula_units_Z   1
loop_
 _symmetry_equiv_pos_site_id
 _symmetry_equiv_pos_as_xyz
  1  'x, y, z'
loop_
 _atom_site_type_symbol
 _atom_site_label
 _atom_site_symmetry_multiplicity
 _atom_site_fract_x
 _atom_site_fract_y
 _atom_site_fract_z
 _atom_site_occupancy
  La  La0  1  0.000000  0.000000  0.109813  1
  La  La1  1  0.000000  0.000000  0.895106  1
  La  La2  1  0.000000  0.000000  0.618277  1
  La  La3  1  0.000000  0.000000  0.380175  1
  Al  Al4  1  0.666667  0.333333  0.493142  1
  Al  Al5  1  0.666667  0.333333  0.004548  1
  Ga  Ga6  1  0.333333  0.666667  0.506759  1
  Rh  Rh7  1  0.333333  0.666667  0.994293  1
  I  I8  1  0.333333  0.666667  0.249544  1
  I  I9  1  0.666667  0.333333  0.748346  1
