# generated using pymatgen
data_LiVB4Ru5
_symmetry_space_group_name_H-M   'P 1'
_cell_length_a   2.92423200
_cell_length_b   8.13038503
_cell_length_c   9.85176500
_cell_angle_alpha   91.87820998
_cell_angle_beta   90.00000000
_cell_angle_gamma   90.00000000
_symmetry_Int_Tables_number   1
_chemical_formula_structural   LiVB4Ru5
_chemical_formula_sum   'Li2 V2 B8 Ru10'
_cell_volume   234.10117616
_cell_formula_units_Z   2
loop_
 _symmetry_equiv_pos_site_id
 _symmetry_equiv_pos_as_xyz
  1  'x, y, z'
loop_
 _atom_site_type_symbol
 _atom_site_label
 _atom_site_symmetry_multiplicity
 _atom_site_fract_x
 _atom_site_fract_y
 _atom_site_fract_z
 _atom_site_occupancy
  Li  Li0  1  0.500000  0.149721  0.674504  1
  Li  Li1  1  0.500000  0.850279  0.325496  1
  V  V2  1  0.500000  0.650454  0.814618  1
  V  V3  1  0.500000  0.349546  0.185382  1
  B  B4  1  0.500000  0.859254  0.598287  1
  B  B5  1  0.500000  0.140746  0.401713  1
  B  B6  1  0.500000  0.344372  0.892032  1
  B  B7  1  0.500000  0.655628  0.107968  1
  B  B8  1  0.500000  0.965077  0.907875  1
  B  B9  1  0.500000  0.034923  0.092125  1
  B  B10  1  0.500000  0.453902  0.587439  1
  B  B11  1  0.500000  0.546098  0.412561  1
  Ru  Ru12  1  0.000000  0.396979  0.737964  1
  Ru  Ru13  1  0.000000  0.603021  0.262036  1
  Ru  Ru14  1  0.000000  0.895468  0.762155  1
  Ru  Ru15  1  0.000000  0.104532  0.237845  1
  Ru  Ru16  1  0.000000  0.000000  0.500000  1
  Ru  Ru17  1  0.000000  0.500000  0.000000  1
  Ru  Ru18  1  0.000000  0.656485  0.556161  1
  Ru  Ru19  1  0.000000  0.343515  0.443839  1
  Ru  Ru20  1  0.000000  0.161673  0.958298  1
  Ru  Ru21  1  0.000000  0.838327  0.041702  1
