# generated using pymatgen
data_Y2Ho6Sc12Si15Pb
_symmetry_space_group_name_H-M   'P 1'
_cell_length_a   7.13537899
_cell_length_b   7.42236038
_cell_length_c   14.08015228
_cell_angle_alpha   90.01749413
_cell_angle_beta   89.48096827
_cell_angle_gamma   90.06982748
_symmetry_Int_Tables_number   1
_chemical_formula_structural   Y2Ho6Sc12Si15Pb
_chemical_formula_sum   'Y2 Ho6 Sc12 Si15 Pb1'
_cell_volume   745.67275083
_cell_formula_units_Z   1
loop_
 _symmetry_equiv_pos_site_id
 _symmetry_equiv_pos_as_xyz
  1  'x, y, z'
loop_
 _atom_site_type_symbol
 _atom_site_label
 _atom_site_symmetry_multiplicity
 _atom_site_fract_x
 _atom_site_fract_y
 _atom_site_fract_z
 _atom_site_occupancy
  Y  Y0  1  0.012616  0.176152  0.096698  1
  Y  Y1  1  0.987553  0.824555  0.904179  1
  Ho  Ho2  1  0.488627  0.676404  0.903679  1
  Ho  Ho3  1  0.987499  0.832032  0.598759  1
  Ho  Ho4  1  0.511675  0.323674  0.097274  1
  Ho  Ho5  1  0.005385  0.169018  0.398315  1
  Ho  Ho6  1  0.514548  0.318861  0.398360  1
  Ho  Ho7  1  0.503345  0.686284  0.600421  1
  Sc  Sc8  1  0.161710  0.502313  0.756574  1
  Sc  Sc9  1  0.837625  0.497796  0.249473  1
  Sc  Sc10  1  0.338304  0.002470  0.249450  1
  Sc  Sc11  1  0.663201  0.997528  0.751444  1
  Sc  Sc12  1  0.343248  0.159593  0.631466  1
  Sc  Sc13  1  0.664352  0.825741  0.372510  1
  Sc  Sc14  1  0.163724  0.684131  0.368893  1
  Sc  Sc15  1  0.668878  0.822876  0.124233  1
  Sc  Sc16  1  0.820923  0.323570  0.626695  1
  Sc  Sc17  1  0.330150  0.175782  0.875389  1
  Sc  Sc18  1  0.829980  0.323735  0.875437  1
  Sc  Sc19  1  0.169653  0.676399  0.125157  1
  Si  Si20  1  0.033855  0.119111  0.751206  1
  Si  Si21  1  0.964316  0.885010  0.246922  1
  Si  Si22  1  0.466391  0.615442  0.248556  1
  Si  Si23  1  0.531302  0.385770  0.751833  1
  Si  Si24  1  0.285977  0.869296  0.752199  1
  Si  Si25  1  0.712957  0.126712  0.247538  1
  Si  Si26  1  0.213142  0.372888  0.249479  1
  Si  Si27  1  0.788952  0.627892  0.751115  1
  Si  Si28  1  0.826157  0.539638  0.458127  1
  Si  Si29  1  0.338170  0.964210  0.459999  1
  Si  Si30  1  0.842321  0.534527  0.039479  1
  Si  Si31  1  0.661781  0.037458  0.538036  1
  Si  Si32  1  0.157110  0.464767  0.961736  1
  Si  Si33  1  0.655582  0.035396  0.960691  1
  Si  Si34  1  0.343621  0.964966  0.039749  1
  Pb  Pb35  1  0.175369  0.458003  0.538931  1
