# generated using pymatgen
data_Y2Tm4Co17P12Os
_symmetry_space_group_name_H-M   'P 1'
_cell_length_a   3.67979900
_cell_length_b   10.45832900
_cell_length_c   12.16492900
_cell_angle_alpha   90.00000000
_cell_angle_beta   90.00000000
_cell_angle_gamma   90.00000000
_symmetry_Int_Tables_number   1
_chemical_formula_structural   Y2Tm4Co17P12Os
_chemical_formula_sum   'Y2 Tm4 Co17 P12 Os1'
_cell_volume   468.16180127
_cell_formula_units_Z   1
loop_
 _symmetry_equiv_pos_site_id
 _symmetry_equiv_pos_as_xyz
  1  'x, y, z'
loop_
 _atom_site_type_symbol
 _atom_site_label
 _atom_site_symmetry_multiplicity
 _atom_site_fract_x
 _atom_site_fract_y
 _atom_site_fract_z
 _atom_site_occupancy
  Y  Y0  1  0.000000  0.500000  0.524851  1
  Y  Y1  1  0.500000  0.000000  0.478158  1
  Tm  Tm2  1  0.500000  0.818017  0.206999  1
  Tm  Tm3  1  0.500000  0.181983  0.206999  1
  Tm  Tm4  1  0.000000  0.682593  0.794197  1
  Tm  Tm5  1  0.000000  0.317407  0.794197  1
  Co  Co6  1  0.000000  0.000000  0.840368  1
  Co  Co7  1  0.500000  0.500000  0.704687  1
  Co  Co8  1  0.000000  0.000000  0.294421  1
  Co  Co9  1  0.000000  0.500000  0.988017  1
  Co  Co10  1  0.500000  0.000000  0.014522  1
  Co  Co11  1  0.500000  0.332583  0.990841  1
  Co  Co12  1  0.500000  0.667417  0.990841  1
  Co  Co13  1  0.000000  0.167007  0.006009  1
  Co  Co14  1  0.000000  0.832993  0.006009  1
  Co  Co15  1  0.500000  0.297201  0.429870  1
  Co  Co16  1  0.500000  0.702799  0.429870  1
  Co  Co17  1  0.000000  0.203149  0.569080  1
  Co  Co18  1  0.000000  0.796851  0.569080  1
  Co  Co19  1  0.500000  0.878436  0.709966  1
  Co  Co20  1  0.500000  0.121564  0.709966  1
  Co  Co21  1  0.000000  0.621028  0.290278  1
  Co  Co22  1  0.000000  0.378972  0.290278  1
  P  P23  1  0.500000  0.500000  0.880766  1
  P  P24  1  0.000000  0.000000  0.117431  1
  P  P25  1  0.500000  0.500000  0.350592  1
  P  P26  1  0.000000  0.000000  0.655927  1
  P  P27  1  0.500000  0.311151  0.617475  1
  P  P28  1  0.500000  0.688849  0.617475  1
  P  P29  1  0.000000  0.187878  0.382986  1
  P  P30  1  0.000000  0.812122  0.382986  1
  P  P31  1  0.500000  0.848584  0.891567  1
  P  P32  1  0.500000  0.151416  0.891567  1
  P  P33  1  0.000000  0.656369  0.106615  1
  P  P34  1  0.000000  0.343631  0.106615  1
  Os  Os35  1  0.500000  0.500000  0.158492  1
