# generated using pymatgen
data_Tm2MgCdPt2
_symmetry_space_group_name_H-M   'P 1'
_cell_length_a   4.06949500
_cell_length_b   7.11606400
_cell_length_c   8.77437900
_cell_angle_alpha   90.00000000
_cell_angle_beta   90.00000000
_cell_angle_gamma   90.00000000
_symmetry_Int_Tables_number   1
_chemical_formula_structural   Tm2MgCdPt2
_chemical_formula_sum   'Tm4 Mg2 Cd2 Pt4'
_cell_volume   254.09537136
_cell_formula_units_Z   2
loop_
 _symmetry_equiv_pos_site_id
 _symmetry_equiv_pos_as_xyz
  1  'x, y, z'
loop_
 _atom_site_type_symbol
 _atom_site_label
 _atom_site_symmetry_multiplicity
 _atom_site_fract_x
 _atom_site_fract_y
 _atom_site_fract_z
 _atom_site_occupancy
  Tm  Tm0  1  0.250000  0.042217  0.325145  1
  Tm  Tm1  1  0.250000  0.542217  0.174855  1
  Tm  Tm2  1  0.750000  0.958160  0.675337  1
  Tm  Tm3  1  0.750000  0.458160  0.824663  1
  Mg  Mg4  1  0.250000  0.132540  0.942185  1
  Mg  Mg5  1  0.250000  0.632540  0.557815  1
  Cd  Cd6  1  0.750000  0.861079  0.063013  1
  Cd  Cd7  1  0.750000  0.361079  0.436987  1
  Pt  Pt8  1  0.250000  0.242778  0.641504  1
  Pt  Pt9  1  0.250000  0.742778  0.858496  1
  Pt  Pt10  1  0.750000  0.763226  0.379624  1
  Pt  Pt11  1  0.750000  0.263226  0.120376  1
