# generated using pymatgen
data_HoTa5MnB4Ru9
_symmetry_space_group_name_H-M   'P 1'
_cell_length_a   9.42024112
_cell_length_b   9.42024131
_cell_length_c   3.05984900
_cell_angle_alpha   90.00000000
_cell_angle_beta   90.00000000
_cell_angle_gamma   90.41811653
_symmetry_Int_Tables_number   1
_chemical_formula_structural   HoTa5MnB4Ru9
_chemical_formula_sum   'Ho1 Ta5 Mn1 B4 Ru9'
_cell_volume   271.52666059
_cell_formula_units_Z   1
loop_
 _symmetry_equiv_pos_site_id
 _symmetry_equiv_pos_as_xyz
  1  'x, y, z'
loop_
 _atom_site_type_symbol
 _atom_site_label
 _atom_site_symmetry_multiplicity
 _atom_site_fract_x
 _atom_site_fract_y
 _atom_site_fract_z
 _atom_site_occupancy
  Ho  Ho0  1  0.822928  0.677072  0.000000  1
  Ta  Ta1  1  0.179565  0.320435  0.000000  1
  Ta  Ta2  1  0.330941  0.831954  0.000000  1
  Ta  Ta3  1  0.668046  0.169059  0.000000  1
  Ta  Ta4  1  0.501073  0.500518  0.000000  1
  Ta  Ta5  1  0.999482  0.998927  0.000000  1
  Mn  Mn6  1  0.496332  0.003668  0.500000  1
  B  B7  1  0.610144  0.889856  0.000000  1
  B  B8  1  0.386374  0.113626  0.000000  1
  B  B9  1  0.124420  0.620889  0.000000  1
  B  B10  1  0.879111  0.375580  0.000000  1
  Ru  Ru11  1  0.556493  0.727454  0.500000  1
  Ru  Ru12  1  0.428916  0.279762  0.500000  1
  Ru  Ru13  1  0.083082  0.783952  0.500000  1
  Ru  Ru14  1  0.930459  0.215026  0.500000  1
  Ru  Ru15  1  0.284974  0.569541  0.500000  1
  Ru  Ru16  1  0.716048  0.416918  0.500000  1
  Ru  Ru17  1  0.220238  0.071084  0.500000  1
  Ru  Ru18  1  0.772546  0.943507  0.500000  1
  Ru  Ru19  1  0.008828  0.491172  0.500000  1
