# generated using pymatgen
data_La8PtRh5
_symmetry_space_group_name_H-M   'P 1'
_cell_length_a   7.83697377
_cell_length_b   7.83697430
_cell_length_c   7.83697417
_cell_angle_alpha   109.31781966
_cell_angle_beta   109.77846049
_cell_angle_gamma   109.31782128
_symmetry_Int_Tables_number   1
_chemical_formula_structural   La8PtRh5
_chemical_formula_sum   'La8 Pt1 Rh5'
_cell_volume   370.52196443
_cell_formula_units_Z   1
loop_
 _symmetry_equiv_pos_site_id
 _symmetry_equiv_pos_as_xyz
  1  'x, y, z'
loop_
 _atom_site_type_symbol
 _atom_site_label
 _atom_site_symmetry_multiplicity
 _atom_site_fract_x
 _atom_site_fract_y
 _atom_site_fract_z
 _atom_site_occupancy
  La  La0  1  0.113020  0.502701  0.998099  1
  La  La1  1  0.499391  0.999811  0.609312  1
  La  La2  1  0.390688  0.390080  0.390499  1
  La  La3  1  0.000419  0.109920  0.500609  1
  La  La4  1  0.889681  0.885079  0.886980  1
  La  La5  1  0.001901  0.614921  0.504603  1
  La  La6  1  0.609501  0.500189  0.999581  1
  La  La7  1  0.495397  0.997299  0.110319  1
  Pt  Pt8  1  0.875000  0.250000  0.125000  1
  Rh  Rh9  1  0.124928  0.874459  0.249586  1
  Rh  Rh10  1  0.375127  0.625541  0.750469  1
  Rh  Rh11  1  0.249531  0.124658  0.875072  1
  Rh  Rh12  1  0.750414  0.375342  0.624873  1
  Rh  Rh13  1  0.625000  0.750000  0.375000  1
