# generated using pymatgen
data_Ca3PtAu
_symmetry_space_group_name_H-M   'P 1'
_cell_length_a   7.78011943
_cell_length_b   7.78136094
_cell_length_c   7.80852264
_cell_angle_alpha   69.82232199
_cell_angle_beta   70.07167388
_cell_angle_gamma   70.21845573
_symmetry_Int_Tables_number   1
_chemical_formula_structural   Ca3PtAu
_chemical_formula_sum   'Ca9 Pt3 Au3'
_cell_volume   403.86711838
_cell_formula_units_Z   3
loop_
 _symmetry_equiv_pos_site_id
 _symmetry_equiv_pos_as_xyz
  1  'x, y, z'
loop_
 _atom_site_type_symbol
 _atom_site_label
 _atom_site_symmetry_multiplicity
 _atom_site_fract_x
 _atom_site_fract_y
 _atom_site_fract_z
 _atom_site_occupancy
  Ca  Ca0  1  0.006822  0.998280  0.990921  1
  Ca  Ca1  1  0.395722  0.664781  0.138609  1
  Ca  Ca2  1  0.199461  0.204904  0.197891  1
  Ca  Ca3  1  0.856463  0.591249  0.336560  1
  Ca  Ca4  1  0.662824  0.154030  0.412817  1
  Ca  Ca5  1  0.331099  0.850217  0.611895  1
  Ca  Ca6  1  0.158427  0.391512  0.669399  1
  Ca  Ca7  1  0.801681  0.808399  0.801417  1
  Ca  Ca8  1  0.597413  0.331790  0.836369  1
  Pt  Pt9  1  0.952597  0.166511  0.585533  1
  Pt  Pt10  1  0.411868  0.045118  0.841651  1
  Pt  Pt11  1  0.156941  0.589976  0.952843  1
  Au  Au12  1  0.831897  0.412261  0.046008  1
  Au  Au13  1  0.588526  0.950449  0.168680  1
  Au  Au14  1  0.048260  0.840522  0.409407  1
