# generated using pymatgen
data_Yb2Cu18Si7Sn
_symmetry_space_group_name_H-M   'P 1'
_cell_length_a   8.22619941
_cell_length_b   8.22619913
_cell_length_c   8.28165332
_cell_angle_alpha   120.85949914
_cell_angle_beta   120.85949971
_cell_angle_gamma   88.75132371
_symmetry_Int_Tables_number   1
_chemical_formula_structural   Yb2Cu18Si7Sn
_chemical_formula_sum   'Yb2 Cu18 Si7 Sn1'
_cell_volume   390.20384616
_cell_formula_units_Z   1
loop_
 _symmetry_equiv_pos_site_id
 _symmetry_equiv_pos_as_xyz
  1  'x, y, z'
loop_
 _atom_site_type_symbol
 _atom_site_label
 _atom_site_symmetry_multiplicity
 _atom_site_fract_x
 _atom_site_fract_y
 _atom_site_fract_z
 _atom_site_occupancy
  Yb  Yb0  1  0.259351  0.249950  0.002180  1
  Yb  Yb1  1  0.749950  0.759351  0.002180  1
  Cu  Cu2  1  0.932285  0.193381  0.140122  1
  Cu  Cu3  1  0.200772  0.060957  0.267027  1
  Cu  Cu4  1  0.795333  0.928178  0.729881  1
  Cu  Cu5  1  0.428178  0.295333  0.729881  1
  Cu  Cu6  1  0.069016  0.800774  0.865683  1
  Cu  Cu7  1  0.806719  0.045840  0.481973  1
  Cu  Cu8  1  0.545840  0.306719  0.481973  1
  Cu  Cu9  1  0.188468  0.949201  0.507359  1
  Cu  Cu10  1  0.449201  0.688468  0.507359  1
  Cu  Cu11  1  0.941998  0.441998  0.723961  1
  Cu  Cu12  1  0.687500  0.187500  0.244551  1
  Cu  Cu13  1  0.078303  0.578303  0.288656  1
  Cu  Cu14  1  0.693381  0.432285  0.140122  1
  Cu  Cu15  1  0.560957  0.700772  0.267027  1
  Cu  Cu16  1  0.490977  0.990977  0.493314  1
  Cu  Cu17  1  0.001322  0.501322  0.497140  1
  Cu  Cu18  1  0.312643  0.812643  0.757293  1
  Cu  Cu19  1  0.300774  0.569016  0.865683  1
  Si  Si20  1  0.555098  0.055098  0.848334  1
  Si  Si21  1  0.056903  0.207117  0.494694  1
  Si  Si22  1  0.294410  0.442376  0.506065  1
  Si  Si23  1  0.942376  0.794410  0.506065  1
  Si  Si24  1  0.442052  0.942052  0.152203  1
  Si  Si25  1  0.198259  0.698259  0.142582  1
  Si  Si26  1  0.707117  0.556903  0.494694  1
  Sn  Sn27  1  0.810815  0.310815  0.861999  1
