# generated using pymatgen
data_Ho3Mg3SnHg2
_symmetry_space_group_name_H-M   'P 1'
_cell_length_a   7.60677800
_cell_length_b   7.60677851
_cell_length_c   4.41092800
_cell_angle_alpha   90.00000000
_cell_angle_beta   90.00000000
_cell_angle_gamma   120.00000648
_symmetry_Int_Tables_number   1
_chemical_formula_structural   Ho3Mg3SnHg2
_chemical_formula_sum   'Ho3 Mg3 Sn1 Hg2'
_cell_volume   221.03552772
_cell_formula_units_Z   1
loop_
 _symmetry_equiv_pos_site_id
 _symmetry_equiv_pos_as_xyz
  1  'x, y, z'
loop_
 _atom_site_type_symbol
 _atom_site_label
 _atom_site_symmetry_multiplicity
 _atom_site_fract_x
 _atom_site_fract_y
 _atom_site_fract_z
 _atom_site_occupancy
  Ho  Ho0  1  0.416658  0.991454  0.000000  1
  Ho  Ho1  1  0.008546  0.425202  0.000000  1
  Ho  Ho2  1  0.574797  0.583343  0.000000  1
  Mg  Mg3  1  0.751462  0.993218  0.500000  1
  Mg  Mg4  1  0.241756  0.248538  0.500000  1
  Mg  Mg5  1  0.006782  0.758245  0.500000  1
  Sn  Sn6  1  0.666667  0.333333  0.500000  1
  Hg  Hg7  1  0.000000  0.000000  0.000000  1
  Hg  Hg8  1  0.333333  0.666667  0.500000  1
