# generated using pymatgen
data_Ce3Er(SiTc)4
_symmetry_space_group_name_H-M   'P 1'
_cell_length_a   4.51426000
_cell_length_b   7.17310169
_cell_length_c   6.86761343
_cell_angle_alpha   88.57295893
_cell_angle_beta   90.00000000
_cell_angle_gamma   90.00000000
_symmetry_Int_Tables_number   1
_chemical_formula_structural   Ce3Er(SiTc)4
_chemical_formula_sum   'Ce3 Er1 Si4 Tc4'
_cell_volume   222.31290803
_cell_formula_units_Z   1
loop_
 _symmetry_equiv_pos_site_id
 _symmetry_equiv_pos_as_xyz
  1  'x, y, z'
loop_
 _atom_site_type_symbol
 _atom_site_label
 _atom_site_symmetry_multiplicity
 _atom_site_fract_x
 _atom_site_fract_y
 _atom_site_fract_z
 _atom_site_occupancy
  Ce  Ce0  1  0.250000  0.973899  0.821052  1
  Ce  Ce1  1  0.750000  0.030135  0.178470  1
  Ce  Ce2  1  0.250000  0.472438  0.688902  1
  Er  Er3  1  0.750000  0.523824  0.316966  1
  Si  Si4  1  0.250000  0.312901  0.118643  1
  Si  Si5  1  0.750000  0.692577  0.889298  1
  Si  Si6  1  0.250000  0.803592  0.388093  1
  Si  Si7  1  0.750000  0.193114  0.607616  1
  Tc  Tc8  1  0.750000  0.853446  0.553692  1
  Tc  Tc9  1  0.250000  0.149731  0.444458  1
  Tc  Tc10  1  0.750000  0.343449  0.939732  1
  Tc  Tc11  1  0.250000  0.650895  0.053079  1
