# generated using pymatgen
data_RbAlGaAu3
_symmetry_space_group_name_H-M   'P 1'
_cell_length_a   5.61752700
_cell_length_b   7.20305400
_cell_length_c   13.58746700
_cell_angle_alpha   90.00000000
_cell_angle_beta   90.00000000
_cell_angle_gamma   90.00000000
_symmetry_Int_Tables_number   1
_chemical_formula_structural   RbAlGaAu3
_chemical_formula_sum   'Rb4 Al4 Ga4 Au12'
_cell_volume   549.79443728
_cell_formula_units_Z   4
loop_
 _symmetry_equiv_pos_site_id
 _symmetry_equiv_pos_as_xyz
  1  'x, y, z'
loop_
 _atom_site_type_symbol
 _atom_site_label
 _atom_site_symmetry_multiplicity
 _atom_site_fract_x
 _atom_site_fract_y
 _atom_site_fract_z
 _atom_site_occupancy
  Rb  Rb0  1  0.249359  0.101641  0.073281  1
  Rb  Rb1  1  0.250641  0.398359  0.573281  1
  Rb  Rb2  1  0.749359  0.898359  0.926719  1
  Rb  Rb3  1  0.750641  0.601641  0.426719  1
  Al  Al4  1  0.999516  0.899218  0.656634  1
  Al  Al5  1  0.500484  0.600782  0.156634  1
  Al  Al6  1  0.499516  0.100782  0.343366  1
  Al  Al7  1  0.000484  0.399218  0.843366  1
  Ga  Ga8  1  0.002518  0.104883  0.344894  1
  Ga  Ga9  1  0.497482  0.395117  0.844894  1
  Ga  Ga10  1  0.502518  0.895117  0.655106  1
  Ga  Ga11  1  0.997482  0.604883  0.155106  1
  Au  Au12  1  0.243458  0.111121  0.785707  1
  Au  Au13  1  0.256542  0.388879  0.285707  1
  Au  Au14  1  0.743458  0.888879  0.214293  1
  Au  Au15  1  0.756542  0.611121  0.714293  1
  Au  Au16  1  0.243227  0.697990  0.789037  1
  Au  Au17  1  0.256773  0.802010  0.289037  1
  Au  Au18  1  0.743227  0.302010  0.210963  1
  Au  Au19  1  0.756773  0.197990  0.710963  1
  Au  Au20  1  0.253695  0.580142  0.994553  1
  Au  Au21  1  0.246305  0.919858  0.494553  1
  Au  Au22  1  0.753695  0.419858  0.005447  1
  Au  Au23  1  0.746305  0.080142  0.505447  1
