# generated using pymatgen
data_Ir(S2Cl3)2
_symmetry_space_group_name_H-M   'P 1'
_cell_length_a   7.07088578
_cell_length_b   7.13270717
_cell_length_c   7.72975533
_cell_angle_alpha   65.64082712
_cell_angle_beta   63.03600464
_cell_angle_gamma   61.06365494
_symmetry_Int_Tables_number   1
_chemical_formula_structural   Ir(S2Cl3)2
_chemical_formula_sum   'Ir1 S4 Cl6'
_cell_volume   294.62642864
_cell_formula_units_Z   1
loop_
 _symmetry_equiv_pos_site_id
 _symmetry_equiv_pos_as_xyz
  1  'x, y, z'
loop_
 _atom_site_type_symbol
 _atom_site_label
 _atom_site_symmetry_multiplicity
 _atom_site_fract_x
 _atom_site_fract_y
 _atom_site_fract_z
 _atom_site_occupancy
  Ir  Ir0  1  0.000000  0.000000  0.000000  1
  S  S1  1  0.559673  0.667164  0.320587  1
  S  S2  1  0.268044  0.600983  0.497617  1
  S  S3  1  0.731956  0.399017  0.502383  1
  S  S4  1  0.440329  0.332835  0.679414  1
  Cl  Cl5  1  0.039286  0.629703  0.172149  1
  Cl  Cl6  1  0.148824  0.021739  0.204620  1
  Cl  Cl7  1  0.636025  0.125384  0.218034  1
  Cl  Cl8  1  0.363974  0.874616  0.781967  1
  Cl  Cl9  1  0.851176  0.978260  0.795381  1
  Cl  Cl10  1  0.960715  0.370298  0.827850  1
