# generated using pymatgen
data_Hf18Re4AsPW4
_symmetry_space_group_name_H-M   'P 1'
_cell_length_a   8.66286206
_cell_length_b   8.68185007
_cell_length_c   8.58649200
_cell_angle_alpha   90.00000000
_cell_angle_beta   90.00000000
_cell_angle_gamma   120.07169755
_symmetry_Int_Tables_number   1
_chemical_formula_structural   Hf18Re4AsPW4
_chemical_formula_sum   'Hf18 Re4 As1 P1 W4'
_cell_volume   558.86365001
_cell_formula_units_Z   1
loop_
 _symmetry_equiv_pos_site_id
 _symmetry_equiv_pos_as_xyz
  1  'x, y, z'
loop_
 _atom_site_type_symbol
 _atom_site_label
 _atom_site_symmetry_multiplicity
 _atom_site_fract_x
 _atom_site_fract_y
 _atom_site_fract_z
 _atom_site_occupancy
  Hf  Hf0  1  0.194243  0.805838  0.454497  1
  Hf  Hf1  1  0.194244  0.388387  0.454478  1
  Hf  Hf2  1  0.611994  0.805999  0.454586  1
  Hf  Hf3  1  0.803072  0.196547  0.551784  1
  Hf  Hf4  1  0.803046  0.606494  0.551801  1
  Hf  Hf5  1  0.393129  0.196565  0.550868  1
  Hf  Hf6  1  0.803072  0.196547  0.948216  1
  Hf  Hf7  1  0.803046  0.606494  0.948199  1
  Hf  Hf8  1  0.393129  0.196565  0.949132  1
  Hf  Hf9  1  0.194243  0.805838  0.045503  1
  Hf  Hf10  1  0.194244  0.388387  0.045522  1
  Hf  Hf11  1  0.611994  0.805999  0.045414  1
  Hf  Hf12  1  0.539253  0.459260  0.250000  1
  Hf  Hf13  1  0.539260  0.080008  0.250000  1
  Hf  Hf14  1  0.920778  0.460397  0.250000  1
  Hf  Hf15  1  0.459222  0.540260  0.750000  1
  Hf  Hf16  1  0.459244  0.918983  0.750000  1
  Hf  Hf17  1  0.080897  0.540455  0.750000  1
  Re  Re18  1  0.221870  0.110929  0.250000  1
  Re  Re19  1  0.110644  0.890018  0.750000  1
  Re  Re20  1  0.110633  0.220622  0.750000  1
  Re  Re21  1  0.778938  0.889471  0.750000  1
  As  As22  1  0.332613  0.666321  0.250000  1
  P  P23  1  0.666137  0.333100  0.750000  1
  W  W24  1  0.889543  0.110333  0.250000  1
  W  W25  1  0.889543  0.779196  0.250000  1
  W  W26  1  0.000985  0.000494  0.500698  1
  W  W27  1  0.000985  0.000494  0.999302  1
