# generated using pymatgen
data_Sm3Gd(NCl3)2
_symmetry_space_group_name_H-M   'P 1'
_cell_length_a   6.20128100
_cell_length_b   6.80112856
_cell_length_c   13.26125091
_cell_angle_alpha   89.90101952
_cell_angle_beta   90.00000000
_cell_angle_gamma   90.00000000
_symmetry_Int_Tables_number   1
_chemical_formula_structural   Sm3Gd(NCl3)2
_chemical_formula_sum   'Sm6 Gd2 N4 Cl12'
_cell_volume   559.30182867
_cell_formula_units_Z   2
loop_
 _symmetry_equiv_pos_site_id
 _symmetry_equiv_pos_as_xyz
  1  'x, y, z'
loop_
 _atom_site_type_symbol
 _atom_site_label
 _atom_site_symmetry_multiplicity
 _atom_site_fract_x
 _atom_site_fract_y
 _atom_site_fract_z
 _atom_site_occupancy
  Sm  Sm0  1  0.992948  0.326809  0.407381  1
  Sm  Sm1  1  0.492948  0.173191  0.092619  1
  Sm  Sm2  1  0.507175  0.325620  0.591927  1
  Sm  Sm3  1  0.007175  0.174380  0.908073  1
  Sm  Sm4  1  0.006869  0.674802  0.591432  1
  Sm  Sm5  1  0.506869  0.825198  0.908568  1
  Gd  Gd6  1  0.492300  0.670091  0.408378  1
  Gd  Gd7  1  0.992300  0.829909  0.091622  1
  N  N8  1  0.748477  0.510991  0.499151  1
  N  N9  1  0.248477  0.989009  0.000849  1
  N  N10  1  0.251486  0.491814  0.499199  1
  N  N11  1  0.751486  0.008186  0.000801  1
  Cl  Cl12  1  0.110043  0.133965  0.220130  1
  Cl  Cl13  1  0.610043  0.366035  0.279870  1
  Cl  Cl14  1  0.389300  0.134431  0.779751  1
  Cl  Cl15  1  0.889300  0.365569  0.720249  1
  Cl  Cl16  1  0.750604  0.502137  0.000363  1
  Cl  Cl17  1  0.250604  0.997863  0.499637  1
  Cl  Cl18  1  0.249845  0.498076  0.000149  1
  Cl  Cl19  1  0.749845  0.001924  0.499851  1
  Cl  Cl20  1  0.111683  0.635506  0.278853  1
  Cl  Cl21  1  0.611683  0.864494  0.221147  1
  Cl  Cl22  1  0.389268  0.634475  0.720569  1
  Cl  Cl23  1  0.889268  0.865525  0.779431  1
