# generated using pymatgen
data_Ac2AgP3
_symmetry_space_group_name_H-M   'P 1'
_cell_length_a   8.00212900
_cell_length_b   4.44919600
_cell_length_c   17.07042900
_cell_angle_alpha   90.00000000
_cell_angle_beta   90.00000000
_cell_angle_gamma   90.00000000
_symmetry_Int_Tables_number   1
_chemical_formula_structural   Ac2AgP3
_chemical_formula_sum   'Ac8 Ag4 P12'
_cell_volume   607.75917228
_cell_formula_units_Z   4
loop_
 _symmetry_equiv_pos_site_id
 _symmetry_equiv_pos_as_xyz
  1  'x, y, z'
loop_
 _atom_site_type_symbol
 _atom_site_label
 _atom_site_symmetry_multiplicity
 _atom_site_fract_x
 _atom_site_fract_y
 _atom_site_fract_z
 _atom_site_occupancy
  Ac  Ac0  1  0.259361  0.750000  0.016673  1
  Ac  Ac1  1  0.897465  0.750000  0.205298  1
  Ac  Ac2  1  0.397464  0.750000  0.294702  1
  Ac  Ac3  1  0.759360  0.750000  0.483327  1
  Ac  Ac4  1  0.240639  0.249999  0.516673  1
  Ac  Ac5  1  0.602535  0.249999  0.705298  1
  Ac  Ac6  1  0.102535  0.249999  0.794702  1
  Ac  Ac7  1  0.740640  0.249999  0.983327  1
  Ag  Ag8  1  0.510529  0.249999  0.152056  1
  Ag  Ag9  1  0.010528  0.249999  0.347944  1
  Ag  Ag10  1  0.989471  0.750000  0.652056  1
  Ag  Ag11  1  0.489471  0.750000  0.847944  1
  P  P12  1  0.604096  0.750000  0.091414  1
  P  P13  1  0.035545  0.249999  0.097147  1
  P  P14  1  0.193493  0.249999  0.203908  1
  P  P15  1  0.693492  0.249999  0.296092  1
  P  P16  1  0.535545  0.249999  0.402853  1
  P  P17  1  0.104096  0.750000  0.408586  1
  P  P18  1  0.895904  0.249999  0.591414  1
  P  P19  1  0.464454  0.750000  0.597147  1
  P  P20  1  0.306507  0.750000  0.703907  1
  P  P21  1  0.806507  0.750000  0.796092  1
  P  P22  1  0.964454  0.750000  0.902853  1
  P  P23  1  0.395903  0.249999  0.908586  1
