# generated using pymatgen
data_Ca5Yb(PuBi3)2
_symmetry_space_group_name_H-M   'P 1'
_cell_length_a   8.26712502
_cell_length_b   8.42521074
_cell_length_c   8.42578100
_cell_angle_alpha   109.84248818
_cell_angle_beta   109.08927552
_cell_angle_gamma   109.09034021
_symmetry_Int_Tables_number   1
_chemical_formula_structural   Ca5Yb(PuBi3)2
_chemical_formula_sum   'Ca5 Yb1 Pu2 Bi6'
_cell_volume   453.92677383
_cell_formula_units_Z   1
loop_
 _symmetry_equiv_pos_site_id
 _symmetry_equiv_pos_as_xyz
  1  'x, y, z'
loop_
 _atom_site_type_symbol
 _atom_site_label
 _atom_site_symmetry_multiplicity
 _atom_site_fract_x
 _atom_site_fract_y
 _atom_site_fract_z
 _atom_site_occupancy
  Ca  Ca0  1  0.499553  0.999533  0.644596  1
  Ca  Ca1  1  0.354738  0.354378  0.354907  1
  Ca  Ca2  1  0.500711  0.000356  0.146013  1
  Ca  Ca3  1  0.999982  0.645447  0.500319  1
  Ca  Ca4  1  0.854912  0.855396  0.855087  1
  Yb  Yb5  1  0.000394  0.146238  0.500764  1
  Pu  Pu6  1  0.148457  0.498837  0.998463  1
  Pu  Pu7  1  0.644944  0.499946  0.000225  1
  Bi  Bi8  1  0.374128  0.622248  0.752467  1
  Bi  Bi9  1  0.875295  0.254193  0.123210  1
  Bi  Bi10  1  0.622481  0.748050  0.370390  1
  Bi  Bi11  1  0.120569  0.868580  0.246036  1
  Bi  Bi12  1  0.251499  0.129731  0.876598  1
  Bi  Bi13  1  0.752337  0.377066  0.630924  1
