# generated using pymatgen
data_MnNbNi10(BO5)4
_symmetry_space_group_name_H-M   'P 1'
_cell_length_a   6.13723694
_cell_length_b   6.13723725
_cell_length_c   21.92623910
_cell_angle_alpha   80.14932736
_cell_angle_beta   80.14932720
_cell_angle_gamma   60.84314229
_symmetry_Int_Tables_number   1
_chemical_formula_structural   MnNbNi10(BO5)4
_chemical_formula_sum   'Mn2 Nb2 Ni20 B8 O40'
_cell_volume   706.88406682
_cell_formula_units_Z   2
loop_
 _symmetry_equiv_pos_site_id
 _symmetry_equiv_pos_as_xyz
  1  'x, y, z'
loop_
 _atom_site_type_symbol
 _atom_site_label
 _atom_site_symmetry_multiplicity
 _atom_site_fract_x
 _atom_site_fract_y
 _atom_site_fract_z
 _atom_site_occupancy
  Mn  Mn0  1  0.500000  0.000000  0.500000  1
  Mn  Mn1  1  0.000000  0.500000  0.000000  1
  Nb  Nb2  1  0.722323  0.277677  0.750000  1
  Nb  Nb3  1  0.277677  0.722323  0.250000  1
  Ni  Ni4  1  0.575617  0.206489  0.609394  1
  Ni  Ni5  1  0.424383  0.793511  0.390606  1
  Ni  Ni6  1  0.793511  0.424383  0.890606  1
  Ni  Ni7  1  0.206489  0.575617  0.109394  1
  Ni  Ni8  1  0.680147  0.816834  0.749822  1
  Ni  Ni9  1  0.319853  0.183166  0.250178  1
  Ni  Ni10  1  0.183166  0.319853  0.750178  1
  Ni  Ni11  1  0.816834  0.680147  0.249822  1
  Ni  Ni12  1  0.795674  0.917787  0.892891  1
  Ni  Ni13  1  0.204326  0.082213  0.107109  1
  Ni  Ni14  1  0.082213  0.204326  0.607109  1
  Ni  Ni15  1  0.917787  0.795674  0.392891  1
  Ni  Ni16  1  0.491301  0.754359  0.998913  1
  Ni  Ni17  1  0.508699  0.245641  0.001087  1
  Ni  Ni18  1  0.245641  0.508699  0.501087  1
  Ni  Ni19  1  0.754359  0.491301  0.498913  1
  Ni  Ni20  1  0.193224  0.806776  0.750000  1
  Ni  Ni21  1  0.806776  0.193224  0.250000  1
  Ni  Ni22  1  0.000000  0.000000  0.500000  1
  Ni  Ni23  1  0.000000  0.000000  0.000000  1
  B  B24  1  0.302903  0.932068  0.867887  1
  B  B25  1  0.697097  0.067932  0.132113  1
  B  B26  1  0.067932  0.697097  0.632113  1
  B  B27  1  0.932068  0.302903  0.367887  1
  B  B28  1  0.569659  0.691437  0.631076  1
  B  B29  1  0.430341  0.308563  0.368924  1
  B  B30  1  0.308563  0.430341  0.868924  1
  B  B31  1  0.691437  0.569659  0.131076  1
  O  O32  1  0.466818  0.932617  0.603138  1
  O  O33  1  0.533182  0.067383  0.396862  1
  O  O34  1  0.067383  0.533182  0.896862  1
  O  O35  1  0.932617  0.466818  0.103138  1
  O  O36  1  0.514192  0.804908  0.899806  1
  O  O37  1  0.485808  0.195092  0.100194  1
  O  O38  1  0.195092  0.485808  0.600194  1
  O  O39  1  0.804908  0.514192  0.399806  1
  O  O40  1  0.832817  0.961810  0.800141  1
  O  O41  1  0.167183  0.038190  0.199859  1
  O  O42  1  0.038190  0.167183  0.699859  1
  O  O43  1  0.961810  0.832817  0.300141  1
  O  O44  1  0.935226  0.966362  0.100321  1
  O  O45  1  0.064774  0.033638  0.899679  1
  O  O46  1  0.033638  0.064774  0.399679  1
  O  O47  1  0.966362  0.935226  0.600321  1
  O  O48  1  0.331572  0.958807  0.802062  1
  O  O49  1  0.668428  0.041193  0.197938  1
  O  O50  1  0.041193  0.668428  0.697938  1
  O  O51  1  0.958807  0.331572  0.302062  1
  O  O52  1  0.545116  0.654441  0.697207  1
  O  O53  1  0.454884  0.345559  0.302793  1
  O  O54  1  0.345559  0.454884  0.802793  1
  O  O55  1  0.654441  0.545116  0.197207  1
  O  O56  1  0.609413  0.239241  0.514705  1
  O  O57  1  0.390587  0.760759  0.485295  1
  O  O58  1  0.760759  0.390587  0.985295  1
  O  O59  1  0.239241  0.609413  0.014705  1
  O  O60  1  0.517659  0.302009  0.901375  1
  O  O61  1  0.482341  0.697991  0.098625  1
  O  O62  1  0.697991  0.482341  0.598625  1
  O  O63  1  0.302009  0.517659  0.401375  1
  O  O64  1  0.536437  0.183890  0.703416  1
  O  O65  1  0.463563  0.816110  0.296584  1
  O  O66  1  0.816110  0.463563  0.796584  1
  O  O67  1  0.183890  0.536437  0.203416  1
  O  O68  1  0.760857  0.867916  0.986196  1
  O  O69  1  0.239143  0.132084  0.013804  1
  O  O70  1  0.132084  0.239143  0.513804  1
  O  O71  1  0.867916  0.760857  0.486196  1
