# generated using pymatgen
data_LuHf(Co5P3)2
_symmetry_space_group_name_H-M   'P 1'
_cell_length_a   3.60588500
_cell_length_b   10.17478700
_cell_length_c   11.63742900
_cell_angle_alpha   90.00000000
_cell_angle_beta   90.00000000
_cell_angle_gamma   90.00000000
_symmetry_Int_Tables_number   1
_chemical_formula_structural   LuHf(Co5P3)2
_chemical_formula_sum   'Lu2 Hf2 Co20 P12'
_cell_volume   426.96693390
_cell_formula_units_Z   2
loop_
 _symmetry_equiv_pos_site_id
 _symmetry_equiv_pos_as_xyz
  1  'x, y, z'
loop_
 _atom_site_type_symbol
 _atom_site_label
 _atom_site_symmetry_multiplicity
 _atom_site_fract_x
 _atom_site_fract_y
 _atom_site_fract_z
 _atom_site_occupancy
  Lu  Lu0  1  0.750000  0.417876  0.296823  1
  Lu  Lu1  1  0.750000  0.082124  0.796823  1
  Hf  Hf2  1  0.250000  0.581290  0.701399  1
  Hf  Hf3  1  0.250000  0.918710  0.201399  1
  Co  Co4  1  0.250000  0.719975  0.994037  1
  Co  Co5  1  0.250000  0.780025  0.494037  1
  Co  Co6  1  0.750000  0.281299  0.007491  1
  Co  Co7  1  0.750000  0.218701  0.507491  1
  Co  Co8  1  0.250000  0.409791  0.488993  1
  Co  Co9  1  0.250000  0.090209  0.988993  1
  Co  Co10  1  0.750000  0.592751  0.516452  1
  Co  Co11  1  0.750000  0.907249  0.016452  1
  Co  Co12  1  0.250000  0.222370  0.177966  1
  Co  Co13  1  0.250000  0.277630  0.677966  1
  Co  Co14  1  0.750000  0.776124  0.822571  1
  Co  Co15  1  0.750000  0.723876  0.322571  1
  Co  Co16  1  0.250000  0.881476  0.699645  1
  Co  Co17  1  0.250000  0.618524  0.199645  1
  Co  Co18  1  0.750000  0.113618  0.298693  1
  Co  Co19  1  0.750000  0.386382  0.798693  1
  Co  Co20  1  0.250000  0.469318  0.928635  1
  Co  Co21  1  0.250000  0.030682  0.428635  1
  Co  Co22  1  0.750000  0.534766  0.067673  1
  Co  Co23  1  0.750000  0.965234  0.567673  1
  P  P24  1  0.250000  0.419319  0.112057  1
  P  P25  1  0.250000  0.080681  0.612057  1
  P  P26  1  0.750000  0.581524  0.884318  1
  P  P27  1  0.750000  0.918476  0.384318  1
  P  P28  1  0.250000  0.268008  0.871026  1
  P  P29  1  0.250000  0.231992  0.371026  1
  P  P30  1  0.750000  0.733565  0.131522  1
  P  P31  1  0.750000  0.766435  0.631522  1
  P  P32  1  0.250000  0.600300  0.390226  1
  P  P33  1  0.250000  0.899700  0.890226  1
  P  P34  1  0.750000  0.400687  0.610474  1
  P  P35  1  0.750000  0.099313  0.110474  1
