# generated using pymatgen
data_La10CoNiSb4
_symmetry_space_group_name_H-M   'P 1'
_cell_length_a   8.38215600
_cell_length_b   9.20562700
_cell_length_c   12.83622400
_cell_angle_alpha   90.00000000
_cell_angle_beta   90.00000000
_cell_angle_gamma   90.00000000
_symmetry_Int_Tables_number   1
_chemical_formula_structural   La10CoNiSb4
_chemical_formula_sum   'La20 Co2 Ni2 Sb8'
_cell_volume   990.48157294
_cell_formula_units_Z   2
loop_
 _symmetry_equiv_pos_site_id
 _symmetry_equiv_pos_as_xyz
  1  'x, y, z'
loop_
 _atom_site_type_symbol
 _atom_site_label
 _atom_site_symmetry_multiplicity
 _atom_site_fract_x
 _atom_site_fract_y
 _atom_site_fract_z
 _atom_site_occupancy
  La  La0  1  0.149479  0.750000  0.202884  1
  La  La1  1  0.649479  0.250000  0.297116  1
  La  La2  1  0.846171  0.250000  0.795334  1
  La  La3  1  0.346171  0.750000  0.704666  1
  La  La4  1  0.452987  0.750000  0.997720  1
  La  La5  1  0.952987  0.250000  0.502280  1
  La  La6  1  0.552778  0.250000  0.004618  1
  La  La7  1  0.052778  0.750000  0.495382  1
  La  La8  1  0.628494  0.750000  0.301280  1
  La  La9  1  0.128494  0.250000  0.198720  1
  La  La10  1  0.372444  0.250000  0.697288  1
  La  La11  1  0.872444  0.750000  0.802712  1
  La  La12  1  0.816311  0.956666  0.062699  1
  La  La13  1  0.316311  0.043334  0.437301  1
  La  La14  1  0.184023  0.471847  0.938034  1
  La  La15  1  0.684023  0.528153  0.561966  1
  La  La16  1  0.184023  0.028153  0.938034  1
  La  La17  1  0.684023  0.971847  0.561966  1
  La  La18  1  0.816311  0.543334  0.062699  1
  La  La19  1  0.316311  0.456666  0.437301  1
  Co  Co20  1  0.577334  0.250000  0.512351  1
  Co  Co21  1  0.077334  0.750000  0.987649  1
  Ni  Ni22  1  0.424218  0.750000  0.488605  1
  Ni  Ni23  1  0.924218  0.250000  0.011395  1
  Sb  Sb24  1  0.926565  0.994618  0.325912  1
  Sb  Sb25  1  0.426565  0.005382  0.174088  1
  Sb  Sb26  1  0.071147  0.494593  0.673365  1
  Sb  Sb27  1  0.571147  0.505407  0.826635  1
  Sb  Sb28  1  0.071147  0.005407  0.673365  1
  Sb  Sb29  1  0.571147  0.994593  0.826635  1
  Sb  Sb30  1  0.926565  0.505382  0.325912  1
  Sb  Sb31  1  0.426565  0.494618  0.174088  1
