# generated using pymatgen
data_Sr2LiAlSb4
_symmetry_space_group_name_H-M   'P 1'
_cell_length_a   4.43492200
_cell_length_b   4.47802264
_cell_length_c   23.28340710
_cell_angle_alpha   90.08777592
_cell_angle_beta   90.00000000
_cell_angle_gamma   90.00000000
_symmetry_Int_Tables_number   1
_chemical_formula_structural   Sr2LiAlSb4
_chemical_formula_sum   'Sr4 Li2 Al2 Sb8'
_cell_volume   462.40049763
_cell_formula_units_Z   2
loop_
 _symmetry_equiv_pos_site_id
 _symmetry_equiv_pos_as_xyz
  1  'x, y, z'
loop_
 _atom_site_type_symbol
 _atom_site_label
 _atom_site_symmetry_multiplicity
 _atom_site_fract_x
 _atom_site_fract_y
 _atom_site_fract_z
 _atom_site_occupancy
  Sr  Sr0  1  0.250000  0.772043  0.613617  1
  Sr  Sr1  1  0.750000  0.227957  0.386383  1
  Sr  Sr2  1  0.750000  0.273700  0.886519  1
  Sr  Sr3  1  0.250000  0.726300  0.113481  1
  Li  Li4  1  0.250000  0.273687  0.750232  1
  Li  Li5  1  0.750000  0.726313  0.249768  1
  Al  Al6  1  0.750000  0.773969  0.749768  1
  Al  Al7  1  0.250000  0.226031  0.250232  1
  Sb  Sb8  1  0.250000  0.215998  0.002928  1
  Sb  Sb9  1  0.750000  0.784002  0.997072  1
  Sb  Sb10  1  0.750000  0.717165  0.500065  1
  Sb  Sb11  1  0.250000  0.282835  0.499935  1
  Sb  Sb12  1  0.250000  0.726781  0.322952  1
  Sb  Sb13  1  0.750000  0.273219  0.677048  1
  Sb  Sb14  1  0.750000  0.226350  0.177048  1
  Sb  Sb15  1  0.250000  0.773650  0.822952  1
