# generated using pymatgen
data_CaPrOsC2
_symmetry_space_group_name_H-M   'P 1'
_cell_length_a   5.26847100
_cell_length_b   6.49891800
_cell_length_c   10.59916500
_cell_angle_alpha   90.00000000
_cell_angle_beta   90.00000000
_cell_angle_gamma   90.00000000
_symmetry_Int_Tables_number   1
_chemical_formula_structural   CaPrOsC2
_chemical_formula_sum   'Ca4 Pr4 Os4 C8'
_cell_volume   362.90863689
_cell_formula_units_Z   4
loop_
 _symmetry_equiv_pos_site_id
 _symmetry_equiv_pos_as_xyz
  1  'x, y, z'
loop_
 _atom_site_type_symbol
 _atom_site_label
 _atom_site_symmetry_multiplicity
 _atom_site_fract_x
 _atom_site_fract_y
 _atom_site_fract_z
 _atom_site_occupancy
  Ca  Ca0  1  0.250000  0.532387  0.225676  1
  Ca  Ca1  1  0.750000  0.467613  0.774324  1
  Ca  Ca2  1  0.750000  0.967613  0.725676  1
  Ca  Ca3  1  0.250000  0.032387  0.274324  1
  Pr  Pr4  1  0.250000  0.700322  0.552905  1
  Pr  Pr5  1  0.750000  0.299678  0.447095  1
  Pr  Pr6  1  0.750000  0.799678  0.052905  1
  Pr  Pr7  1  0.250000  0.200322  0.947095  1
  Os  Os8  1  0.250000  0.729391  0.851822  1
  Os  Os9  1  0.750000  0.270609  0.148178  1
  Os  Os10  1  0.750000  0.770609  0.351822  1
  Os  Os11  1  0.250000  0.229391  0.648178  1
  C  C12  1  0.250000  0.471207  0.754839  1
  C  C13  1  0.750000  0.528793  0.245161  1
  C  C14  1  0.750000  0.028793  0.254839  1
  C  C15  1  0.250000  0.971207  0.745161  1
  C  C16  1  0.250000  0.796239  0.025807  1
  C  C17  1  0.750000  0.203761  0.974193  1
  C  C18  1  0.750000  0.703761  0.525807  1
  C  C19  1  0.250000  0.296239  0.474193  1
