# generated using pymatgen
data_Nd4Ga24CoPd
_symmetry_space_group_name_H-M   'P 1'
_cell_length_a   6.12393300
_cell_length_b   6.12393300
_cell_length_c   15.49522600
_cell_angle_alpha   90.00000000
_cell_angle_beta   90.00000000
_cell_angle_gamma   90.00000000
_symmetry_Int_Tables_number   1
_chemical_formula_structural   Nd4Ga24CoPd
_chemical_formula_sum   'Nd4 Ga24 Co1 Pd1'
_cell_volume   581.11057132
_cell_formula_units_Z   1
loop_
 _symmetry_equiv_pos_site_id
 _symmetry_equiv_pos_as_xyz
  1  'x, y, z'
loop_
 _atom_site_type_symbol
 _atom_site_label
 _atom_site_symmetry_multiplicity
 _atom_site_fract_x
 _atom_site_fract_y
 _atom_site_fract_z
 _atom_site_occupancy
  Nd  Nd0  1  0.750000  0.250000  0.245062  1
  Nd  Nd1  1  0.250000  0.750000  0.240009  1
  Nd  Nd2  1  0.250000  0.750000  0.759991  1
  Nd  Nd3  1  0.750000  0.250000  0.754938  1
  Ga  Ga4  1  0.250000  0.250000  0.185604  1
  Ga  Ga5  1  0.750000  0.750000  0.185604  1
  Ga  Ga6  1  0.750000  0.750000  0.814396  1
  Ga  Ga7  1  0.250000  0.250000  0.814396  1
  Ga  Ga8  1  0.250000  0.250000  0.344950  1
  Ga  Ga9  1  0.750000  0.750000  0.344950  1
  Ga  Ga10  1  0.750000  0.750000  0.655050  1
  Ga  Ga11  1  0.250000  0.250000  0.655050  1
  Ga  Ga12  1  0.509840  0.009840  0.914657  1
  Ga  Ga13  1  0.990265  0.009735  0.915019  1
  Ga  Ga14  1  0.509735  0.490265  0.915019  1
  Ga  Ga15  1  0.990160  0.490160  0.914657  1
  Ga  Ga16  1  0.509735  0.009735  0.084981  1
  Ga  Ga17  1  0.990160  0.009840  0.085343  1
  Ga  Ga18  1  0.509840  0.490160  0.085343  1
  Ga  Ga19  1  0.990265  0.490265  0.084981  1
  Ga  Ga20  1  0.581133  0.081133  0.432079  1
  Ga  Ga21  1  0.083498  0.916502  0.430413  1
  Ga  Ga22  1  0.416502  0.583498  0.430413  1
  Ga  Ga23  1  0.918867  0.418867  0.432079  1
  Ga  Ga24  1  0.416502  0.916502  0.569587  1
  Ga  Ga25  1  0.918867  0.081133  0.567921  1
  Ga  Ga26  1  0.581133  0.418867  0.567921  1
  Ga  Ga27  1  0.083498  0.583498  0.569587  1
  Co  Co28  1  0.750000  0.250000  0.000000  1
  Pd  Pd29  1  0.250000  0.750000  0.000000  1
