# generated using pymatgen
data_Ho8Lu10Sc2Si15Ge
_symmetry_space_group_name_H-M   'P 1'
_cell_length_a   7.25386902
_cell_length_b   7.54065124
_cell_length_c   14.28538656
_cell_angle_alpha   90.21478072
_cell_angle_beta   89.78349372
_cell_angle_gamma   90.18935582
_symmetry_Int_Tables_number   1
_chemical_formula_structural   Ho8Lu10Sc2Si15Ge
_chemical_formula_sum   'Ho8 Lu10 Sc2 Si15 Ge1'
_cell_volume   781.37957927
_cell_formula_units_Z   1
loop_
 _symmetry_equiv_pos_site_id
 _symmetry_equiv_pos_as_xyz
  1  'x, y, z'
loop_
 _atom_site_type_symbol
 _atom_site_label
 _atom_site_symmetry_multiplicity
 _atom_site_fract_x
 _atom_site_fract_y
 _atom_site_fract_z
 _atom_site_occupancy
  Ho  Ho0  1  0.013053  0.176936  0.095691  1
  Ho  Ho1  1  0.987174  0.823549  0.904375  1
  Ho  Ho2  1  0.487631  0.677556  0.903811  1
  Ho  Ho3  1  0.986784  0.823080  0.597507  1
  Ho  Ho4  1  0.512888  0.322846  0.096412  1
  Ho  Ho5  1  0.011392  0.176699  0.402010  1
  Ho  Ho6  1  0.513047  0.321632  0.401824  1
  Ho  Ho7  1  0.490283  0.678360  0.597555  1
  Lu  Lu8  1  0.163242  0.507218  0.751887  1
  Lu  Lu9  1  0.836562  0.492726  0.249396  1
  Lu  Lu10  1  0.335590  0.007340  0.248855  1
  Lu  Lu11  1  0.664774  0.992703  0.751157  1
  Lu  Lu12  1  0.334352  0.175370  0.625509  1
  Lu  Lu13  1  0.666720  0.822796  0.374926  1
  Lu  Lu14  1  0.165605  0.677772  0.375913  1
  Lu  Lu15  1  0.667866  0.821481  0.121715  1
  Lu  Lu16  1  0.831960  0.323275  0.623933  1
  Lu  Lu17  1  0.332146  0.178092  0.878205  1
  Sc  Sc18  1  0.831803  0.322597  0.875663  1
  Sc  Sc19  1  0.168171  0.677613  0.124365  1
  Si  Si20  1  0.035227  0.113686  0.752203  1
  Si  Si21  1  0.964766  0.887229  0.247577  1
  Si  Si22  1  0.460292  0.609881  0.246513  1
  Si  Si23  1  0.538931  0.390666  0.753499  1
  Si  Si24  1  0.282999  0.870931  0.751380  1
  Si  Si25  1  0.717351  0.128491  0.248446  1
  Si  Si26  1  0.215739  0.372623  0.248266  1
  Si  Si27  1  0.784531  0.627735  0.751737  1
  Si  Si28  1  0.829553  0.534383  0.460005  1
  Si  Si29  1  0.337885  0.967208  0.460774  1
  Si  Si30  1  0.845320  0.530774  0.037272  1
  Si  Si31  1  0.662346  0.032949  0.539091  1
  Si  Si32  1  0.154920  0.469332  0.962918  1
  Si  Si33  1  0.666096  0.038053  0.960137  1
  Si  Si34  1  0.333908  0.962213  0.039957  1
  Ge  Ge35  1  0.169092  0.464203  0.539518  1
