# generated using pymatgen
data_Cs3Rh2Br9
_symmetry_space_group_name_H-M   'P 1'
_cell_length_a   7.73555200
_cell_length_b   7.73555289
_cell_length_c   19.50221600
_cell_angle_alpha   90.00000000
_cell_angle_beta   90.00000000
_cell_angle_gamma   120.00000473
_symmetry_Int_Tables_number   1
_chemical_formula_structural   Cs3Rh2Br9
_chemical_formula_sum   'Cs6 Rh4 Br18'
_cell_volume   1010.64176886
_cell_formula_units_Z   2
loop_
 _symmetry_equiv_pos_site_id
 _symmetry_equiv_pos_as_xyz
  1  'x, y, z'
loop_
 _atom_site_type_symbol
 _atom_site_label
 _atom_site_symmetry_multiplicity
 _atom_site_fract_x
 _atom_site_fract_y
 _atom_site_fract_z
 _atom_site_occupancy
  Cs  Cs0  1  0.333333  0.666667  0.429984  1
  Cs  Cs1  1  0.666667  0.333333  0.929984  1
  Cs  Cs2  1  0.000000  0.000000  0.250000  1
  Cs  Cs3  1  0.333333  0.666667  0.070016  1
  Cs  Cs4  1  0.000000  0.000000  0.750000  1
  Cs  Cs5  1  0.666667  0.333333  0.570016  1
  Rh  Rh6  1  0.666667  0.333333  0.165766  1
  Rh  Rh7  1  0.333333  0.666667  0.834234  1
  Rh  Rh8  1  0.333333  0.666667  0.665766  1
  Rh  Rh9  1  0.666667  0.333333  0.334234  1
  Br  Br10  1  0.819232  0.638462  0.093142  1
  Br  Br11  1  0.519900  0.480100  0.250000  1
  Br  Br12  1  0.519900  0.039799  0.250000  1
  Br  Br13  1  0.039799  0.519900  0.750000  1
  Br  Br14  1  0.638462  0.819232  0.593142  1
  Br  Br15  1  0.180768  0.819232  0.593142  1
  Br  Br16  1  0.960201  0.480100  0.250000  1
  Br  Br17  1  0.361538  0.180768  0.093142  1
  Br  Br18  1  0.819232  0.180768  0.406858  1
  Br  Br19  1  0.180768  0.361538  0.906858  1
  Br  Br20  1  0.480100  0.519900  0.750000  1
  Br  Br21  1  0.180768  0.361538  0.593142  1
  Br  Br22  1  0.480100  0.960201  0.750000  1
  Br  Br23  1  0.361538  0.180768  0.406858  1
  Br  Br24  1  0.819232  0.180768  0.093142  1
  Br  Br25  1  0.819232  0.638462  0.406858  1
  Br  Br26  1  0.180768  0.819232  0.906858  1
  Br  Br27  1  0.638462  0.819232  0.906858  1
