# generated using pymatgen
data_Tb3HoAl4Pt3Rh
_symmetry_space_group_name_H-M   'P 1'
_cell_length_a   4.41713500
_cell_length_b   6.83289513
_cell_length_c   7.82558830
_cell_angle_alpha   89.96704996
_cell_angle_beta   90.00000000
_cell_angle_gamma   90.00000000
_symmetry_Int_Tables_number   1
_chemical_formula_structural   Tb3HoAl4Pt3Rh
_chemical_formula_sum   'Tb3 Ho1 Al4 Pt3 Rh1'
_cell_volume   236.19046014
_cell_formula_units_Z   1
loop_
 _symmetry_equiv_pos_site_id
 _symmetry_equiv_pos_as_xyz
  1  'x, y, z'
loop_
 _atom_site_type_symbol
 _atom_site_label
 _atom_site_symmetry_multiplicity
 _atom_site_fract_x
 _atom_site_fract_y
 _atom_site_fract_z
 _atom_site_occupancy
  Tb  Tb0  1  0.250000  0.532548  0.179482  1
  Tb  Tb1  1  0.750000  0.466562  0.818593  1
  Tb  Tb2  1  0.250000  0.035095  0.323504  1
  Ho  Ho3  1  0.750000  0.969885  0.679286  1
  Al  Al4  1  0.250000  0.637612  0.561827  1
  Al  Al5  1  0.750000  0.358563  0.440387  1
  Al  Al6  1  0.750000  0.857994  0.060481  1
  Al  Al7  1  0.250000  0.142423  0.937959  1
  Pt  Pt8  1  0.250000  0.772198  0.878947  1
  Pt  Pt9  1  0.750000  0.230049  0.121034  1
  Pt  Pt10  1  0.750000  0.731362  0.379617  1
  Rh  Rh11  1  0.250000  0.265706  0.618883  1
