# generated using pymatgen
data_Tb8Dy7Er5Sn16
_symmetry_space_group_name_H-M   'P 1'
_cell_length_a   8.03003917
_cell_length_b   8.17839307
_cell_length_c   15.46450546
_cell_angle_alpha   90.01474205
_cell_angle_beta   89.97633559
_cell_angle_gamma   90.00007856
_symmetry_Int_Tables_number   1
_chemical_formula_structural   Tb8Dy7Er5Sn16
_chemical_formula_sum   'Tb8 Dy7 Er5 Sn16'
_cell_volume   1015.59751191
_cell_formula_units_Z   1
loop_
 _symmetry_equiv_pos_site_id
 _symmetry_equiv_pos_as_xyz
  1  'x, y, z'
loop_
 _atom_site_type_symbol
 _atom_site_label
 _atom_site_symmetry_multiplicity
 _atom_site_fract_x
 _atom_site_fract_y
 _atom_site_fract_z
 _atom_site_occupancy
  Tb  Tb0  1  0.518868  0.321026  0.903015  1
  Tb  Tb1  1  0.018956  0.179187  0.597186  1
  Tb  Tb2  1  0.481143  0.679251  0.403022  1
  Tb  Tb3  1  0.981264  0.820298  0.096485  1
  Tb  Tb4  1  0.480879  0.679549  0.096943  1
  Tb  Tb5  1  0.981228  0.820483  0.403103  1
  Tb  Tb6  1  0.519110  0.320788  0.597142  1
  Tb  Tb7  1  0.018815  0.179473  0.903120  1
  Dy  Dy8  1  0.365996  0.837611  0.877758  1
  Dy  Dy9  1  0.865851  0.662542  0.622689  1
  Dy  Dy10  1  0.634034  0.162797  0.377563  1
  Dy  Dy11  1  0.134129  0.337202  0.122593  1
  Dy  Dy12  1  0.634332  0.162735  0.121912  1
  Dy  Dy13  1  0.134140  0.337078  0.377516  1
  Dy  Dy14  1  0.365859  0.837149  0.622859  1
  Er  Er15  1  0.865682  0.662310  0.876835  1
  Er  Er16  1  0.197093  0.503339  0.750194  1
  Er  Er17  1  0.697405  0.996720  0.750318  1
  Er  Er18  1  0.802684  0.496966  0.249647  1
  Er  Er19  1  0.302658  0.003149  0.249964  1
  Sn  Sn20  1  0.294779  0.037737  0.041993  1
  Sn  Sn21  1  0.794636  0.462654  0.458129  1
  Sn  Sn22  1  0.705391  0.962249  0.542149  1
  Sn  Sn23  1  0.203724  0.538446  0.957970  1
  Sn  Sn24  1  0.706173  0.960951  0.957927  1
  Sn  Sn25  1  0.205616  0.537862  0.542035  1
  Sn  Sn26  1  0.294682  0.037500  0.458095  1
  Sn  Sn27  1  0.794741  0.462917  0.041197  1
  Sn  Sn28  1  0.562987  0.618534  0.750357  1
  Sn  Sn29  1  0.062773  0.880915  0.750119  1
  Sn  Sn30  1  0.436717  0.381573  0.249907  1
  Sn  Sn31  1  0.936597  0.118192  0.249947  1
  Sn  Sn32  1  0.328718  0.148689  0.750255  1
  Sn  Sn33  1  0.828772  0.351758  0.750166  1
  Sn  Sn34  1  0.671817  0.851899  0.249940  1
  Sn  Sn35  1  0.171749  0.648471  0.249948  1
