# generated using pymatgen
data_Yb4Cu3SiBr2
_symmetry_space_group_name_H-M   'P 1'
_cell_length_a   4.04010000
_cell_length_b   4.04009980
_cell_length_c   16.56342500
_cell_angle_alpha   90.00000000
_cell_angle_beta   90.00000000
_cell_angle_gamma   120.00000166
_symmetry_Int_Tables_number   1
_chemical_formula_structural   Yb4Cu3SiBr2
_chemical_formula_sum   'Yb4 Cu3 Si1 Br2'
_cell_volume   234.13426585
_cell_formula_units_Z   1
loop_
 _symmetry_equiv_pos_site_id
 _symmetry_equiv_pos_as_xyz
  1  'x, y, z'
loop_
 _atom_site_type_symbol
 _atom_site_label
 _atom_site_symmetry_multiplicity
 _atom_site_fract_x
 _atom_site_fract_y
 _atom_site_fract_z
 _atom_site_occupancy
  Yb  Yb0  1  0.000000  0.000000  0.108288  1
  Yb  Yb1  1  0.000000  0.000000  0.891726  1
  Yb  Yb2  1  0.000000  0.000000  0.615801  1
  Yb  Yb3  1  0.000000  0.000000  0.385986  1
  Cu  Cu4  1  0.666667  0.333333  0.498012  1
  Cu  Cu5  1  0.666667  0.333333  0.001160  1
  Cu  Cu6  1  0.333333  0.666667  0.998322  1
  Si  Si7  1  0.333333  0.666667  0.502292  1
  Br  Br8  1  0.333333  0.666667  0.252622  1
  Br  Br9  1  0.666667  0.333333  0.745791  1
