# generated using pymatgen
data_Cs3RbZr6NiBr18
_symmetry_space_group_name_H-M   'P 1'
_cell_length_a   10.88063581
_cell_length_b   11.25680970
_cell_length_c   11.34129444
_cell_angle_alpha   118.47239021
_cell_angle_beta   100.66268691
_cell_angle_gamma   104.27916339
_symmetry_Int_Tables_number   1
_chemical_formula_structural   Cs3RbZr6NiBr18
_chemical_formula_sum   'Cs3 Rb1 Zr6 Ni1 Br18'
_cell_volume   1106.17862751
_cell_formula_units_Z   1
loop_
 _symmetry_equiv_pos_site_id
 _symmetry_equiv_pos_as_xyz
  1  'x, y, z'
loop_
 _atom_site_type_symbol
 _atom_site_label
 _atom_site_symmetry_multiplicity
 _atom_site_fract_x
 _atom_site_fract_y
 _atom_site_fract_z
 _atom_site_occupancy
  Cs  Cs0  1  0.336129  0.461692  0.769472  1
  Cs  Cs1  1  0.699199  0.228966  0.564526  1
  Cs  Cs2  1  0.301160  0.770262  0.433538  1
  Rb  Rb3  1  0.657609  0.536355  0.228740  1
  Zr  Zr4  1  0.151987  0.055317  0.231576  1
  Zr  Zr5  1  0.846921  0.942689  0.767204  1
  Zr  Zr6  1  0.858803  0.124825  0.128917  1
  Zr  Zr7  1  0.139864  0.876109  0.870118  1
  Zr  Zr8  1  0.147433  0.239194  0.044003  1
  Zr  Zr9  1  0.853164  0.761475  0.957892  1
  Ni  Ni10  1  0.999924  0.001021  0.000231  1
  Br  Br11  1  0.009668  0.394923  0.188385  1
  Br  Br12  1  0.990733  0.605675  0.811123  1
  Br  Br13  1  0.322688  0.321735  0.301464  1
  Br  Br14  1  0.676442  0.676310  0.700048  1
  Br  Br15  1  0.323461  0.505382  0.101988  1
  Br  Br16  1  0.685077  0.496996  0.910009  1
  Br  Br17  1  0.004920  0.803064  0.205946  1
  Br  Br18  1  0.995255  0.197731  0.795512  1
  Br  Br19  1  0.709094  0.267268  0.270306  1
  Br  Br20  1  0.292188  0.741398  0.728333  1
  Br  Br21  1  0.311779  0.125946  0.910637  1
  Br  Br22  1  0.687591  0.875656  0.089912  1
  Br  Br23  1  0.014931  0.198108  0.392830  1
  Br  Br24  1  0.983361  0.800861  0.606014  1
  Br  Br25  1  0.316543  0.930426  0.110762  1
  Br  Br26  1  0.682377  0.068229  0.886269  1
  Br  Br27  1  0.329837  0.121290  0.488054  1
  Br  Br28  1  0.671859  0.871097  0.506191  1
