# generated using pymatgen
data_DyLuAl20Os3Rh
_symmetry_space_group_name_H-M   'P 1'
_cell_length_a   6.85958024
_cell_length_b   6.84817323
_cell_length_c   9.14263741
_cell_angle_alpha   90.17738318
_cell_angle_beta   90.28206173
_cell_angle_gamma   96.57048642
_symmetry_Int_Tables_number   1
_chemical_formula_structural   DyLuAl20Os3Rh
_chemical_formula_sum   'Dy1 Lu1 Al20 Os3 Rh1'
_cell_volume   426.65185704
_cell_formula_units_Z   1
loop_
 _symmetry_equiv_pos_site_id
 _symmetry_equiv_pos_as_xyz
  1  'x, y, z'
loop_
 _atom_site_type_symbol
 _atom_site_label
 _atom_site_symmetry_multiplicity
 _atom_site_fract_x
 _atom_site_fract_y
 _atom_site_fract_z
 _atom_site_occupancy
  Dy  Dy0  1  0.871455  0.131218  0.749405  1
  Lu  Lu1  1  0.129713  0.866939  0.251111  1
  Al  Al2  1  0.517437  0.780356  0.747876  1
  Al  Al3  1  0.783050  0.518331  0.249347  1
  Al  Al4  1  0.481496  0.219057  0.252021  1
  Al  Al5  1  0.217468  0.482667  0.750603  1
  Al  Al6  1  0.624175  0.378802  0.952101  1
  Al  Al7  1  0.375476  0.621805  0.048591  1
  Al  Al8  1  0.623620  0.376988  0.545961  1
  Al  Al9  1  0.375954  0.623459  0.453375  1
  Al  Al10  1  0.416234  0.148170  0.749820  1
  Al  Al11  1  0.147635  0.416425  0.250358  1
  Al  Al12  1  0.581838  0.851153  0.250032  1
  Al  Al13  1  0.853048  0.585355  0.749599  1
  Al  Al14  1  0.845293  0.153842  0.398600  1
  Al  Al15  1  0.155164  0.845536  0.600835  1
  Al  Al16  1  0.846291  0.155365  0.103011  1
  Al  Al17  1  0.154510  0.844165  0.897560  1
  Al  Al18  1  0.775781  0.775437  0.001070  1
  Al  Al19  1  0.777423  0.777060  0.498635  1
  Al  Al20  1  0.224446  0.224346  0.000243  1
  Al  Al21  1  0.222622  0.222804  0.500133  1
  Os  Os22  1  0.000180  0.500459  0.000608  1
  Os  Os23  1  0.499528  0.999856  0.499410  1
  Os  Os24  1  0.000119  0.500374  0.499363  1
  Rh  Rh25  1  0.500043  0.000027  0.000335  1
