# generated using pymatgen
data_Ti10Ga3Si2As
_symmetry_space_group_name_H-M   'P 1'
_cell_length_a   4.97652304
_cell_length_b   7.55575989
_cell_length_c   7.56799452
_cell_angle_alpha   83.78404958
_cell_angle_beta   70.80481377
_cell_angle_gamma   70.77250828
_symmetry_Int_Tables_number   1
_chemical_formula_structural   Ti10Ga3Si2As
_chemical_formula_sum   'Ti10 Ga3 Si2 As1'
_cell_volume   253.75539361
_cell_formula_units_Z   1
loop_
 _symmetry_equiv_pos_site_id
 _symmetry_equiv_pos_as_xyz
  1  'x, y, z'
loop_
 _atom_site_type_symbol
 _atom_site_label
 _atom_site_symmetry_multiplicity
 _atom_site_fract_x
 _atom_site_fract_y
 _atom_site_fract_z
 _atom_site_occupancy
  Ti  Ti0  1  0.248665  0.500831  0.500000  1
  Ti  Ti1  1  0.750503  0.500831  0.500000  1
  Ti  Ti2  1  0.078168  0.137264  0.706401  1
  Ti  Ti3  1  0.919724  0.865539  0.295011  1
  Ti  Ti4  1  0.784700  0.290705  0.139895  1
  Ti  Ti5  1  0.424594  0.290705  0.860105  1
  Ti  Ti6  1  0.216309  0.705601  0.861780  1
  Ti  Ti7  1  0.578090  0.705601  0.138220  1
  Ti  Ti8  1  0.714736  0.865539  0.704989  1
  Ti  Ti9  1  0.284569  0.137264  0.293599  1
  Ga  Ga10  1  0.164086  0.499187  0.172640  1
  Ga  Ga11  1  0.836727  0.499187  0.827360  1
  Ga  Ga12  1  0.336343  0.827314  0.500000  1
  Si  Si13  1  0.250489  0.999023  0.000000  1
  Si  Si14  1  0.750489  0.999023  0.000000  1
  As  As15  1  0.661809  0.176382  0.500000  1
