# generated using pymatgen
data_Li3Th8Si12Ni
_symmetry_space_group_name_H-M   'P 1'
_cell_length_a   8.22383200
_cell_length_b   8.22383163
_cell_length_c   8.45036600
_cell_angle_alpha   90.00000000
_cell_angle_beta   90.00000000
_cell_angle_gamma   120.00000149
_symmetry_Int_Tables_number   1
_chemical_formula_structural   Li3Th8Si12Ni
_chemical_formula_sum   'Li3 Th8 Si12 Ni1'
_cell_volume   494.94231411
_cell_formula_units_Z   1
loop_
 _symmetry_equiv_pos_site_id
 _symmetry_equiv_pos_as_xyz
  1  'x, y, z'
loop_
 _atom_site_type_symbol
 _atom_site_label
 _atom_site_symmetry_multiplicity
 _atom_site_fract_x
 _atom_site_fract_y
 _atom_site_fract_z
 _atom_site_occupancy
  Li  Li0  1  0.333333  0.666667  0.498439  1
  Li  Li1  1  0.666667  0.333333  0.502916  1
  Li  Li2  1  0.666667  0.333333  0.997957  1
  Th  Th3  1  0.000000  0.000000  0.248786  1
  Th  Th4  1  0.000000  0.000000  0.751204  1
  Th  Th5  1  0.497969  0.502031  0.248465  1
  Th  Th6  1  0.497969  0.995938  0.248465  1
  Th  Th7  1  0.004062  0.502031  0.248465  1
  Th  Th8  1  0.497149  0.502851  0.751615  1
  Th  Th9  1  0.497149  0.994297  0.751615  1
  Th  Th10  1  0.005703  0.502851  0.751615  1
  Si  Si11  1  0.167310  0.832690  0.499812  1
  Si  Si12  1  0.167310  0.334619  0.499812  1
  Si  Si13  1  0.665381  0.832690  0.499812  1
  Si  Si14  1  0.832883  0.167117  0.500074  1
  Si  Si15  1  0.832883  0.665765  0.500074  1
  Si  Si16  1  0.334235  0.167117  0.500074  1
  Si  Si17  1  0.833057  0.166943  0.999820  1
  Si  Si18  1  0.833057  0.666116  0.999820  1
  Si  Si19  1  0.333884  0.166943  0.999820  1
  Si  Si20  1  0.170521  0.829479  0.000347  1
  Si  Si21  1  0.170521  0.341043  0.000347  1
  Si  Si22  1  0.658957  0.829479  0.000347  1
  Ni  Ni23  1  0.333333  0.666667  0.000309  1
