# generated using pymatgen
data_HfNbInC
_symmetry_space_group_name_H-M   'P 1'
_cell_length_a   3.23646300
_cell_length_b   3.23646273
_cell_length_c   14.82823300
_cell_angle_alpha   90.00000000
_cell_angle_beta   90.00000000
_cell_angle_gamma   120.00003341
_symmetry_Int_Tables_number   1
_chemical_formula_structural   HfNbInC
_chemical_formula_sum   'Hf2 Nb2 In2 C2'
_cell_volume   134.51203524
_cell_formula_units_Z   2
loop_
 _symmetry_equiv_pos_site_id
 _symmetry_equiv_pos_as_xyz
  1  'x, y, z'
loop_
 _atom_site_type_symbol
 _atom_site_label
 _atom_site_symmetry_multiplicity
 _atom_site_fract_x
 _atom_site_fract_y
 _atom_site_fract_z
 _atom_site_occupancy
  Hf  Hf0  1  0.666667  0.333333  0.917186  1
  Hf  Hf1  1  0.333333  0.666667  0.417186  1
  Nb  Nb2  1  0.333333  0.666667  0.084257  1
  Nb  Nb3  1  0.666667  0.333333  0.584257  1
  In  In4  1  0.333333  0.666667  0.746440  1
  In  In5  1  0.666667  0.333333  0.246440  1
  C  C6  1  0.000000  0.000000  0.002117  1
  C  C7  1  0.000000  0.000000  0.502117  1
