# generated using pymatgen
data_Ta3Ga2Ir3Pt
_symmetry_space_group_name_H-M   'P 1'
_cell_length_a   7.55666600
_cell_length_b   7.51724810
_cell_length_c   2.91034700
_cell_angle_alpha   90.00000000
_cell_angle_beta   90.00000000
_cell_angle_gamma   120.17361105
_symmetry_Int_Tables_number   1
_chemical_formula_structural   Ta3Ga2Ir3Pt
_chemical_formula_sum   'Ta3 Ga2 Ir3 Pt1'
_cell_volume   142.92298911
_cell_formula_units_Z   1
loop_
 _symmetry_equiv_pos_site_id
 _symmetry_equiv_pos_as_xyz
  1  'x, y, z'
loop_
 _atom_site_type_symbol
 _atom_site_label
 _atom_site_symmetry_multiplicity
 _atom_site_fract_x
 _atom_site_fract_y
 _atom_site_fract_z
 _atom_site_occupancy
  Ta  Ta0  1  0.377798  0.000000  0.500001  1
  Ta  Ta1  1  0.982166  0.352425  0.500001  1
  Ta  Ta2  1  0.629742  0.647576  0.500001  1
  Ga  Ga3  1  0.295874  0.295592  0.000000  1
  Ga  Ga4  1  0.000284  0.704409  0.000000  1
  Ir  Ir5  1  0.666081  0.349835  0.000000  1
  Ir  Ir6  1  0.316247  0.650166  0.000000  1
  Ir  Ir7  1  0.025625  0.000000  0.500001  1
  Pt  Pt8  1  0.706183  0.000000  0.000000  1
