# generated using pymatgen
data_La2Nd2C2Br5
_symmetry_space_group_name_H-M   'P 1'
_cell_length_a   4.00660651
_cell_length_b   8.40850923
_cell_length_c   10.06180494
_cell_angle_alpha   105.22701760
_cell_angle_beta   78.51567293
_cell_angle_gamma   90.00000525
_symmetry_Int_Tables_number   1
_chemical_formula_structural   La2Nd2C2Br5
_chemical_formula_sum   'La2 Nd2 C2 Br5'
_cell_volume   320.03860599
_cell_formula_units_Z   1
loop_
 _symmetry_equiv_pos_site_id
 _symmetry_equiv_pos_as_xyz
  1  'x, y, z'
loop_
 _atom_site_type_symbol
 _atom_site_label
 _atom_site_symmetry_multiplicity
 _atom_site_fract_x
 _atom_site_fract_y
 _atom_site_fract_z
 _atom_site_occupancy
  La  La0  1  0.003322  0.201258  0.993355  1
  La  La1  1  0.003627  0.794333  0.992745  1
  Nd  Nd2  1  0.659663  0.892154  0.680674  1
  Nd  Nd3  1  0.347344  0.103154  0.305312  1
  C  C4  1  0.466607  0.022539  0.066787  1
  C  C5  1  0.540430  0.972947  0.919140  1
  Br  Br6  1  0.166422  0.628397  0.667155  1
  Br  Br7  1  0.840338  0.366637  0.319323  1
  Br  Br8  1  0.502821  0.498293  0.994358  1
  Br  Br9  1  0.171642  0.152791  0.656714  1
  Br  Br10  1  0.835382  0.842793  0.329236  1
