# generated using pymatgen
data_Hf16Mn2(CoPt)3
_symmetry_space_group_name_H-M   'P 1'
_cell_length_a   8.60469729
_cell_length_b   8.60438778
_cell_length_c   8.60497855
_cell_angle_alpha   59.90653525
_cell_angle_beta   59.85582172
_cell_angle_gamma   59.85394200
_symmetry_Int_Tables_number   1
_chemical_formula_structural   Hf16Mn2(CoPt)3
_chemical_formula_sum   'Hf16 Mn2 Co3 Pt3'
_cell_volume   449.18775758
_cell_formula_units_Z   1
loop_
 _symmetry_equiv_pos_site_id
 _symmetry_equiv_pos_as_xyz
  1  'x, y, z'
loop_
 _atom_site_type_symbol
 _atom_site_label
 _atom_site_symmetry_multiplicity
 _atom_site_fract_x
 _atom_site_fract_y
 _atom_site_fract_z
 _atom_site_occupancy
  Hf  Hf0  1  0.063935  0.644712  0.644712  1
  Hf  Hf1  1  0.645432  0.066131  0.642746  1
  Hf  Hf2  1  0.645443  0.642776  0.066066  1
  Hf  Hf3  1  0.643220  0.642128  0.642125  1
  Hf  Hf4  1  0.806106  0.806265  0.194460  1
  Hf  Hf5  1  0.194774  0.193010  0.802475  1
  Hf  Hf6  1  0.806097  0.194462  0.806274  1
  Hf  Hf7  1  0.194791  0.802437  0.193023  1
  Hf  Hf8  1  0.195689  0.807585  0.807599  1
  Hf  Hf9  1  0.800393  0.195524  0.195529  1
  Hf  Hf10  1  0.437633  0.439506  0.071937  1
  Hf  Hf11  1  0.062665  0.062914  0.437440  1
  Hf  Hf12  1  0.437632  0.071916  0.439536  1
  Hf  Hf13  1  0.062668  0.437424  0.062938  1
  Hf  Hf14  1  0.074197  0.436948  0.436958  1
  Hf  Hf15  1  0.438227  0.059301  0.059323  1
  Mn  Mn16  1  0.416572  0.415606  0.415600  1
  Mn  Mn17  1  0.432602  0.856325  0.856235  1
  Co  Co18  1  0.854709  0.429682  0.855931  1
  Co  Co19  1  0.854692  0.855949  0.429712  1
  Co  Co20  1  0.856227  0.858959  0.858915  1
  Pt  Pt21  1  0.753771  0.412826  0.412818  1
  Pt  Pt22  1  0.411267  0.754072  0.413542  1
  Pt  Pt23  1  0.411257  0.413544  0.754104  1
