# generated using pymatgen
data_TmHf2Sc(Al3Ir)6
_symmetry_space_group_name_H-M   'P 1'
_cell_length_a   7.49425945
_cell_length_b   7.49074914
_cell_length_c   9.30278000
_cell_angle_alpha   90.00000000
_cell_angle_beta   90.00000000
_cell_angle_gamma   119.75683246
_symmetry_Int_Tables_number   1
_chemical_formula_structural   TmHf2Sc(Al3Ir)6
_chemical_formula_sum   'Tm1 Hf2 Sc1 Al18 Ir6'
_cell_volume   453.37368863
_cell_formula_units_Z   1
loop_
 _symmetry_equiv_pos_site_id
 _symmetry_equiv_pos_as_xyz
  1  'x, y, z'
loop_
 _atom_site_type_symbol
 _atom_site_label
 _atom_site_symmetry_multiplicity
 _atom_site_fract_x
 _atom_site_fract_y
 _atom_site_fract_z
 _atom_site_occupancy
  Tm  Tm0  1  0.327790  0.004737  0.750000  1
  Hf  Hf1  1  0.005394  0.329143  0.750000  1
  Hf  Hf2  1  0.671382  0.994775  0.250000  1
  Sc  Sc3  1  0.995176  0.672715  0.250000  1
  Al  Al4  1  0.122665  0.124648  0.250000  1
  Al  Al5  1  0.872323  0.874959  0.750000  1
  Al  Al6  1  0.997590  0.334960  0.078860  1
  Al  Al7  1  0.999696  0.663062  0.924833  1
  Al  Al8  1  0.999696  0.663062  0.575167  1
  Al  Al9  1  0.334844  0.997775  0.418950  1
  Al  Al10  1  0.997590  0.334960  0.421140  1
  Al  Al11  1  0.667211  0.001646  0.575751  1
  Al  Al12  1  0.667211  0.001646  0.924249  1
  Al  Al13  1  0.334844  0.997775  0.081050  1
  Al  Al14  1  0.331661  0.333421  0.556872  1
  Al  Al15  1  0.668805  0.668542  0.439168  1
  Al  Al16  1  0.668805  0.668542  0.060832  1
  Al  Al17  1  0.331661  0.333421  0.943128  1
  Al  Al18  1  0.340617  0.553583  0.250000  1
  Al  Al19  1  0.664950  0.451526  0.750000  1
  Al  Al20  1  0.553225  0.338361  0.250000  1
  Al  Al21  1  0.447393  0.657037  0.750000  1
  Ir  Ir22  1  0.672269  0.326692  0.999979  1
  Ir  Ir23  1  0.327843  0.672631  0.000088  1
  Ir  Ir24  1  0.327843  0.672631  0.499912  1
  Ir  Ir25  1  0.672269  0.326692  0.500021  1
  Ir  Ir26  1  0.999623  0.000527  0.999981  1
  Ir  Ir27  1  0.999623  0.000527  0.500019  1
