# generated using pymatgen
data_Ce2Al9IrPd2
_symmetry_space_group_name_H-M   'P 1'
_cell_length_a   7.67970600
_cell_length_b   7.67970566
_cell_length_c   9.51743200
_cell_angle_alpha   90.00000000
_cell_angle_beta   90.00000000
_cell_angle_gamma   119.33355718
_symmetry_Int_Tables_number   1
_chemical_formula_structural   Ce2Al9IrPd2
_chemical_formula_sum   'Ce4 Al18 Ir2 Pd4'
_cell_volume   489.34719016
_cell_formula_units_Z   2
loop_
 _symmetry_equiv_pos_site_id
 _symmetry_equiv_pos_as_xyz
  1  'x, y, z'
loop_
 _atom_site_type_symbol
 _atom_site_label
 _atom_site_symmetry_multiplicity
 _atom_site_fract_x
 _atom_site_fract_y
 _atom_site_fract_z
 _atom_site_occupancy
  Ce  Ce0  1  0.996061  0.669876  0.250000  1
  Ce  Ce1  1  0.003939  0.330124  0.750000  1
  Ce  Ce2  1  0.669876  0.996061  0.250000  1
  Ce  Ce3  1  0.330124  0.003939  0.750000  1
  Al  Al4  1  0.001703  0.332236  0.076544  1
  Al  Al5  1  0.998297  0.667764  0.923456  1
  Al  Al6  1  0.998297  0.667764  0.576544  1
  Al  Al7  1  0.332236  0.001703  0.423456  1
  Al  Al8  1  0.001703  0.332236  0.423456  1
  Al  Al9  1  0.667764  0.998297  0.576544  1
  Al  Al10  1  0.667764  0.998297  0.923456  1
  Al  Al11  1  0.332236  0.001703  0.076544  1
  Al  Al12  1  0.330977  0.330977  0.551163  1
  Al  Al13  1  0.669023  0.669023  0.448837  1
  Al  Al14  1  0.669023  0.669023  0.051163  1
  Al  Al15  1  0.330977  0.330977  0.948837  1
  Al  Al16  1  0.130658  0.130658  0.250000  1
  Al  Al17  1  0.869342  0.869342  0.750000  1
  Al  Al18  1  0.344684  0.548186  0.250000  1
  Al  Al19  1  0.655316  0.451814  0.750000  1
  Al  Al20  1  0.548186  0.344684  0.250000  1
  Al  Al21  1  0.451814  0.655316  0.750000  1
  Ir  Ir22  1  0.000000  0.000000  0.000000  1
  Ir  Ir23  1  0.000000  0.000000  0.500000  1
  Pd  Pd24  1  0.670941  0.329059  0.000000  1
  Pd  Pd25  1  0.329059  0.670941  0.000000  1
  Pd  Pd26  1  0.329059  0.670941  0.500000  1
  Pd  Pd27  1  0.670941  0.329059  0.500000  1
