# generated using pymatgen
data_SrCdGeO4
_symmetry_space_group_name_H-M   'P 1'
_cell_length_a   5.30423600
_cell_length_b   7.03435700
_cell_length_c   12.10686700
_cell_angle_alpha   90.00000000
_cell_angle_beta   90.00000000
_cell_angle_gamma   90.00000000
_symmetry_Int_Tables_number   1
_chemical_formula_structural   SrCdGeO4
_chemical_formula_sum   'Sr4 Cd4 Ge4 O16'
_cell_volume   451.73008534
_cell_formula_units_Z   4
loop_
 _symmetry_equiv_pos_site_id
 _symmetry_equiv_pos_as_xyz
  1  'x, y, z'
loop_
 _atom_site_type_symbol
 _atom_site_label
 _atom_site_symmetry_multiplicity
 _atom_site_fract_x
 _atom_site_fract_y
 _atom_site_fract_z
 _atom_site_occupancy
  Sr  Sr0  1  0.017105  0.750000  0.721327  1
  Sr  Sr1  1  0.982895  0.250000  0.278673  1
  Sr  Sr2  1  0.517105  0.250000  0.778673  1
  Sr  Sr3  1  0.482895  0.750000  0.221327  1
  Cd  Cd4  1  0.500000  0.500000  0.500000  1
  Cd  Cd5  1  0.000000  0.000000  0.000000  1
  Cd  Cd6  1  0.000000  0.500000  0.000000  1
  Cd  Cd7  1  0.500000  0.000000  0.500000  1
  Ge  Ge8  1  0.421621  0.250000  0.087219  1
  Ge  Ge9  1  0.921621  0.750000  0.412781  1
  Ge  Ge10  1  0.578379  0.750000  0.912781  1
  Ge  Ge11  1  0.078379  0.250000  0.587219  1
  O  O12  1  0.768627  0.750000  0.546799  1
  O  O13  1  0.782653  0.548277  0.346004  1
  O  O14  1  0.717347  0.548277  0.846004  1
  O  O15  1  0.744680  0.250000  0.584943  1
  O  O16  1  0.731373  0.750000  0.046799  1
  O  O17  1  0.282653  0.451723  0.153996  1
  O  O18  1  0.217347  0.451723  0.653996  1
  O  O19  1  0.255320  0.750000  0.415057  1
  O  O20  1  0.782653  0.951723  0.346004  1
  O  O21  1  0.244680  0.750000  0.915057  1
  O  O22  1  0.231373  0.250000  0.453201  1
  O  O23  1  0.717347  0.951723  0.846004  1
  O  O24  1  0.217347  0.048277  0.653996  1
  O  O25  1  0.268627  0.250000  0.953201  1
  O  O26  1  0.282653  0.048277  0.153996  1
  O  O27  1  0.755320  0.250000  0.084943  1
