# generated using pymatgen
data_Tb3Dy3TcIr
_symmetry_space_group_name_H-M   'P 1'
_cell_length_a   6.35030187
_cell_length_b   7.35212700
_cell_length_c   9.22071600
_cell_angle_alpha   90.00000000
_cell_angle_beta   90.16869632
_cell_angle_gamma   90.00000000
_symmetry_Int_Tables_number   1
_chemical_formula_structural   Tb3Dy3TcIr
_chemical_formula_sum   'Tb6 Dy6 Tc2 Ir2'
_cell_volume   430.49700538
_cell_formula_units_Z   2
loop_
 _symmetry_equiv_pos_site_id
 _symmetry_equiv_pos_as_xyz
  1  'x, y, z'
loop_
 _atom_site_type_symbol
 _atom_site_label
 _atom_site_symmetry_multiplicity
 _atom_site_fract_x
 _atom_site_fract_y
 _atom_site_fract_z
 _atom_site_occupancy
  Tb  Tb0  1  0.328276  0.676834  0.066118  1
  Tb  Tb1  1  0.171724  0.176834  0.433882  1
  Tb  Tb2  1  0.871642  0.537991  0.250005  1
  Tb  Tb3  1  0.628358  0.037991  0.249995  1
  Tb  Tb4  1  0.134149  0.460217  0.750216  1
  Tb  Tb5  1  0.365851  0.960217  0.749784  1
  Dy  Dy6  1  0.668308  0.323703  0.561195  1
  Dy  Dy7  1  0.831692  0.823703  0.938805  1
  Dy  Dy8  1  0.667824  0.323795  0.938647  1
  Dy  Dy9  1  0.832176  0.823795  0.561353  1
  Dy  Dy10  1  0.329042  0.676541  0.433896  1
  Dy  Dy11  1  0.170958  0.176541  0.066104  1
  Tc  Tc12  1  0.036597  0.886037  0.250112  1
  Tc  Tc13  1  0.463403  0.386037  0.249888  1
  Ir  Ir14  1  0.953023  0.114881  0.750604  1
  Ir  Ir15  1  0.546977  0.614881  0.749396  1
