# generated using pymatgen
data_TbEr2Th11Rh6
_symmetry_space_group_name_H-M   'P 1'
_cell_length_a   9.95990700
_cell_length_b   9.95368176
_cell_length_c   6.33882011
_cell_angle_alpha   89.98148550
_cell_angle_beta   90.00000000
_cell_angle_gamma   120.02069425
_symmetry_Int_Tables_number   1
_chemical_formula_structural   TbEr2Th11Rh6
_chemical_formula_sum   'Tb1 Er2 Th11 Rh6'
_cell_volume   544.11094521
_cell_formula_units_Z   1
loop_
 _symmetry_equiv_pos_site_id
 _symmetry_equiv_pos_as_xyz
  1  'x, y, z'
loop_
 _atom_site_type_symbol
 _atom_site_label
 _atom_site_symmetry_multiplicity
 _atom_site_fract_x
 _atom_site_fract_y
 _atom_site_fract_z
 _atom_site_occupancy
  Tb  Tb0  1  0.459289  0.918577  0.949852  1
  Er  Er1  1  0.459166  0.540542  0.948611  1
  Er  Er2  1  0.081377  0.540542  0.948611  1
  Th  Th3  1  0.333110  0.666221  0.464920  1
  Th  Th4  1  0.666775  0.333550  0.912407  1
  Th  Th5  1  0.126337  0.873398  0.244967  1
  Th  Th6  1  0.747061  0.873398  0.244967  1
  Th  Th7  1  0.126656  0.253314  0.244729  1
  Th  Th8  1  0.871362  0.129499  0.746908  1
  Th  Th9  1  0.258139  0.129499  0.746908  1
  Th  Th10  1  0.870715  0.741430  0.747121  1
  Th  Th11  1  0.540569  0.459635  0.448520  1
  Th  Th12  1  0.919066  0.459635  0.448520  1
  Th  Th13  1  0.540460  0.080920  0.449099  1
  Rh  Rh14  1  0.813237  0.187029  0.190765  1
  Rh  Rh15  1  0.373791  0.187029  0.190765  1
  Rh  Rh16  1  0.813074  0.626147  0.190643  1
  Rh  Rh17  1  0.184795  0.814519  0.689218  1
  Rh  Rh18  1  0.629723  0.814519  0.689218  1
  Rh  Rh19  1  0.185298  0.370597  0.689816  1
