# generated using pymatgen
data_Ho3Er2(In2Cu)2
_symmetry_space_group_name_H-M   'P 1'
_cell_length_a   3.64391500
_cell_length_b   7.99742100
_cell_length_c   17.84346900
_cell_angle_alpha   90.00000000
_cell_angle_beta   90.00000000
_cell_angle_gamma   90.00000000
_symmetry_Int_Tables_number   1
_chemical_formula_structural   Ho3Er2(In2Cu)2
_chemical_formula_sum   'Ho6 Er4 In8 Cu4'
_cell_volume   519.99298793
_cell_formula_units_Z   2
loop_
 _symmetry_equiv_pos_site_id
 _symmetry_equiv_pos_as_xyz
  1  'x, y, z'
loop_
 _atom_site_type_symbol
 _atom_site_label
 _atom_site_symmetry_multiplicity
 _atom_site_fract_x
 _atom_site_fract_y
 _atom_site_fract_z
 _atom_site_occupancy
  Ho  Ho0  1  0.000000  0.234632  0.217803  1
  Ho  Ho1  1  0.000000  0.765368  0.782197  1
  Ho  Ho2  1  0.000000  0.265368  0.717803  1
  Ho  Ho3  1  0.000000  0.734632  0.282197  1
  Ho  Ho4  1  0.000000  0.000000  0.000000  1
  Ho  Ho5  1  0.000000  0.500000  0.500000  1
  Er  Er6  1  0.000000  0.116441  0.416343  1
  Er  Er7  1  0.000000  0.883559  0.583657  1
  Er  Er8  1  0.000000  0.383559  0.916343  1
  Er  Er9  1  0.000000  0.616441  0.083657  1
  In  In10  1  0.500000  0.415886  0.349090  1
  In  In11  1  0.500000  0.584114  0.650910  1
  In  In12  1  0.500000  0.084114  0.849090  1
  In  In13  1  0.500000  0.915886  0.150910  1
  In  In14  1  0.500000  0.292528  0.066955  1
  In  In15  1  0.500000  0.707472  0.933045  1
  In  In16  1  0.500000  0.207472  0.566955  1
  In  In17  1  0.500000  0.792528  0.433045  1
  Cu  Cu18  1  0.500000  0.024439  0.302662  1
  Cu  Cu19  1  0.500000  0.975561  0.697338  1
  Cu  Cu20  1  0.500000  0.475561  0.802662  1
  Cu  Cu21  1  0.500000  0.524439  0.197338  1
