# generated using pymatgen
data_NdSm5Zn4Pt13
_symmetry_space_group_name_H-M   'P 1'
_cell_length_a   8.35522069
_cell_length_b   8.35522084
_cell_length_c   8.35522116
_cell_angle_alpha   109.49381942
_cell_angle_beta   109.45992333
_cell_angle_gamma   109.45992731
_symmetry_Int_Tables_number   1
_chemical_formula_structural   NdSm5Zn4Pt13
_chemical_formula_sum   'Nd1 Sm5 Zn4 Pt13'
_cell_volume   449.00568180
_cell_formula_units_Z   1
loop_
 _symmetry_equiv_pos_site_id
 _symmetry_equiv_pos_as_xyz
  1  'x, y, z'
loop_
 _atom_site_type_symbol
 _atom_site_label
 _atom_site_symmetry_multiplicity
 _atom_site_fract_x
 _atom_site_fract_y
 _atom_site_fract_z
 _atom_site_occupancy
  Nd  Nd0  1  0.000000  0.699909  0.699909  1
  Sm  Sm1  1  0.698900  0.698988  0.000089  1
  Sm  Sm2  1  0.301100  0.000089  0.301189  1
  Sm  Sm3  1  0.000000  0.300701  0.300701  1
  Sm  Sm4  1  0.301100  0.301189  0.000089  1
  Sm  Sm5  1  0.698900  0.000089  0.698988  1
  Zn  Zn6  1  0.000000  0.000064  0.499880  1
  Zn  Zn7  1  0.000000  0.499880  0.000064  1
  Zn  Zn8  1  0.500184  0.000064  0.000064  1
  Zn  Zn9  1  0.499816  0.499880  0.499880  1
  Pt  Pt10  1  0.330245  0.330277  0.660521  1
  Pt  Pt11  1  0.669755  0.000032  0.330277  1
  Pt  Pt12  1  0.000000  0.669771  0.329480  1
  Pt  Pt13  1  0.669755  0.330277  0.000032  1
  Pt  Pt14  1  0.330245  0.660521  0.330277  1
  Pt  Pt15  1  0.000000  0.329480  0.669771  1
  Pt  Pt16  1  0.330696  0.669639  0.000335  1
  Pt  Pt17  1  0.330696  0.000335  0.669639  1
  Pt  Pt18  1  0.659708  0.329480  0.329480  1
  Pt  Pt19  1  0.669304  0.669639  0.338944  1
  Pt  Pt20  1  0.669304  0.338944  0.669639  1
  Pt  Pt21  1  0.340292  0.669771  0.669771  1
  Pt  Pt22  1  0.000000  0.000983  0.000983  1
