# generated using pymatgen
data_DyNiB4Os3
_symmetry_space_group_name_H-M   'P 1'
_cell_length_a   7.54882210
_cell_length_b   7.25526601
_cell_length_c   4.00785800
_cell_angle_alpha   90.00000000
_cell_angle_beta   90.00000000
_cell_angle_gamma   87.50588162
_symmetry_Int_Tables_number   1
_chemical_formula_structural   DyNiB4Os3
_chemical_formula_sum   'Dy2 Ni2 B8 Os6'
_cell_volume   219.29728367
_cell_formula_units_Z   2
loop_
 _symmetry_equiv_pos_site_id
 _symmetry_equiv_pos_as_xyz
  1  'x, y, z'
loop_
 _atom_site_type_symbol
 _atom_site_label
 _atom_site_symmetry_multiplicity
 _atom_site_fract_x
 _atom_site_fract_y
 _atom_site_fract_z
 _atom_site_occupancy
  Dy  Dy0  1  0.000000  0.000000  0.016964  1
  Dy  Dy1  1  0.500000  0.500000  0.607845  1
  Ni  Ni2  1  0.136208  0.383933  0.878986  1
  Ni  Ni3  1  0.863792  0.616067  0.878986  1
  B  B4  1  0.673491  0.781058  0.106152  1
  B  B5  1  0.326509  0.218942  0.106152  1
  B  B6  1  0.279111  0.836203  0.603324  1
  B  B7  1  0.720889  0.163797  0.603324  1
  B  B8  1  0.843842  0.690972  0.381234  1
  B  B9  1  0.156158  0.309028  0.381234  1
  B  B10  1  0.203382  0.670443  0.880862  1
  B  B11  1  0.796618  0.329557  0.880862  1
  Os  Os12  1  0.879859  0.367692  0.373730  1
  Os  Os13  1  0.120141  0.632308  0.373730  1
  Os  Os14  1  0.346728  0.116026  0.607556  1
  Os  Os15  1  0.653272  0.883974  0.607556  1
  Os  Os16  1  0.603928  0.151199  0.105753  1
  Os  Os17  1  0.396072  0.848801  0.105753  1
