# generated using pymatgen
data_Ga3Rh5
_symmetry_space_group_name_H-M   'P 1'
_cell_length_a   4.19201700
_cell_length_b   5.31299900
_cell_length_c   10.23843700
_cell_angle_alpha   90.00000000
_cell_angle_beta   90.00000000
_cell_angle_gamma   90.00000000
_symmetry_Int_Tables_number   1
_chemical_formula_structural   Ga3Rh5
_chemical_formula_sum   'Ga6 Rh10'
_cell_volume   228.03233358
_cell_formula_units_Z   2
loop_
 _symmetry_equiv_pos_site_id
 _symmetry_equiv_pos_as_xyz
  1  'x, y, z'
loop_
 _atom_site_type_symbol
 _atom_site_label
 _atom_site_symmetry_multiplicity
 _atom_site_fract_x
 _atom_site_fract_y
 _atom_site_fract_z
 _atom_site_occupancy
  Ga  Ga0  1  0.000000  0.853453  0.634838  1
  Ga  Ga1  1  0.000000  0.353453  0.865162  1
  Ga  Ga2  1  0.500000  0.500000  0.500000  1
  Ga  Ga3  1  0.000000  0.146547  0.365162  1
  Ga  Ga4  1  0.500000  0.000000  0.000000  1
  Ga  Ga5  1  0.000000  0.646547  0.134838  1
  Rh  Rh6  1  0.000000  0.834023  0.887214  1
  Rh  Rh7  1  0.000000  0.665977  0.387214  1
  Rh  Rh8  1  0.000000  0.334023  0.612786  1
  Rh  Rh9  1  0.500000  0.859011  0.232090  1
  Rh  Rh10  1  0.500000  0.359011  0.267910  1
  Rh  Rh11  1  0.500000  0.640989  0.732090  1
  Rh  Rh12  1  0.500000  0.140989  0.767910  1
  Rh  Rh13  1  0.500000  0.500000  0.000000  1
  Rh  Rh14  1  0.500000  0.000000  0.500000  1
  Rh  Rh15  1  0.000000  0.165977  0.112786  1
