# generated using pymatgen
data_Tb3YC2Cl3
_symmetry_space_group_name_H-M   'P 1'
_cell_length_a   3.67198600
_cell_length_b   10.56893900
_cell_length_c   19.80939400
_cell_angle_alpha   90.00000000
_cell_angle_beta   90.00000000
_cell_angle_gamma   90.00000000
_symmetry_Int_Tables_number   1
_chemical_formula_structural   Tb3YC2Cl3
_chemical_formula_sum   'Tb12 Y4 C8 Cl12'
_cell_volume   768.78269336
_cell_formula_units_Z   4
loop_
 _symmetry_equiv_pos_site_id
 _symmetry_equiv_pos_as_xyz
  1  'x, y, z'
loop_
 _atom_site_type_symbol
 _atom_site_label
 _atom_site_symmetry_multiplicity
 _atom_site_fract_x
 _atom_site_fract_y
 _atom_site_fract_z
 _atom_site_occupancy
  Tb  Tb0  1  0.250000  0.138507  0.573050  1
  Tb  Tb1  1  0.250000  0.638507  0.926950  1
  Tb  Tb2  1  0.750000  0.861493  0.426950  1
  Tb  Tb3  1  0.750000  0.361493  0.073050  1
  Tb  Tb4  1  0.250000  0.637610  0.755858  1
  Tb  Tb5  1  0.250000  0.137610  0.744142  1
  Tb  Tb6  1  0.750000  0.362390  0.244142  1
  Tb  Tb7  1  0.750000  0.862390  0.255858  1
  Tb  Tb8  1  0.250000  0.100931  0.332217  1
  Tb  Tb9  1  0.250000  0.600931  0.167783  1
  Tb  Tb10  1  0.750000  0.899069  0.667783  1
  Tb  Tb11  1  0.750000  0.399069  0.832217  1
  Y  Y12  1  0.250000  0.124550  0.164518  1
  Y  Y13  1  0.250000  0.624550  0.335482  1
  Y  Y14  1  0.750000  0.875450  0.835482  1
  Y  Y15  1  0.750000  0.375450  0.664518  1
  C  C16  1  0.250000  0.863908  0.347921  1
  C  C17  1  0.250000  0.363908  0.152079  1
  C  C18  1  0.750000  0.136092  0.652079  1
  C  C19  1  0.750000  0.636092  0.847921  1
  C  C20  1  0.250000  0.388098  0.750006  1
  C  C21  1  0.250000  0.888098  0.749994  1
  C  C22  1  0.750000  0.611902  0.249994  1
  C  C23  1  0.750000  0.111902  0.250006  1
  Cl  Cl24  1  0.250000  0.377273  0.952680  1
  Cl  Cl25  1  0.250000  0.877273  0.547320  1
  Cl  Cl26  1  0.750000  0.622727  0.047320  1
  Cl  Cl27  1  0.750000  0.122727  0.452680  1
  Cl  Cl28  1  0.250000  0.887724  0.944376  1
  Cl  Cl29  1  0.250000  0.387724  0.555624  1
  Cl  Cl30  1  0.750000  0.112276  0.055624  1
  Cl  Cl31  1  0.750000  0.612276  0.444376  1
  Cl  Cl32  1  0.250000  0.361308  0.354121  1
  Cl  Cl33  1  0.250000  0.861308  0.145879  1
  Cl  Cl34  1  0.750000  0.638692  0.645879  1
  Cl  Cl35  1  0.750000  0.138692  0.854121  1
