# generated using pymatgen
data_NdErTm14(In3Co)2
_symmetry_space_group_name_H-M   'P 1'
_cell_length_a   10.25159500
_cell_length_b   10.26263630
_cell_length_c   6.96132748
_cell_angle_alpha   89.95577300
_cell_angle_beta   90.00000000
_cell_angle_gamma   119.96440065
_symmetry_Int_Tables_number   1
_chemical_formula_structural   NdErTm14(In3Co)2
_chemical_formula_sum   'Nd1 Er1 Tm14 In6 Co2'
_cell_volume   634.49555285
_cell_formula_units_Z   1
loop_
 _symmetry_equiv_pos_site_id
 _symmetry_equiv_pos_as_xyz
  1  'x, y, z'
loop_
 _atom_site_type_symbol
 _atom_site_label
 _atom_site_symmetry_multiplicity
 _atom_site_fract_x
 _atom_site_fract_y
 _atom_site_fract_z
 _atom_site_occupancy
  Nd  Nd0  1  0.533785  0.067572  0.789169  1
  Er  Er1  1  0.999990  0.999980  0.279544  1
  Tm  Tm2  1  0.930629  0.465543  0.791677  1
  Tm  Tm3  1  0.534915  0.465543  0.791677  1
  Tm  Tm4  1  0.463779  0.927560  0.291050  1
  Tm  Tm5  1  0.070472  0.535487  0.292260  1
  Tm  Tm6  1  0.465016  0.535487  0.292260  1
  Tm  Tm7  1  0.821262  0.642526  0.497773  1
  Tm  Tm8  1  0.356558  0.179546  0.495908  1
  Tm  Tm9  1  0.822989  0.179546  0.495908  1
  Tm  Tm10  1  0.179058  0.358117  0.998604  1
  Tm  Tm11  1  0.643130  0.819634  0.999466  1
  Tm  Tm12  1  0.176504  0.819634  0.999466  1
  Tm  Tm13  1  0.667573  0.335145  0.183134  1
  Tm  Tm14  1  0.332436  0.664874  0.683098  1
  Tm  Tm15  1  0.000094  0.000188  0.779045  1
  In  In16  1  0.836539  0.673078  0.039023  1
  In  In17  1  0.323877  0.163173  0.041512  1
  In  In18  1  0.839295  0.163173  0.041512  1
  In  In19  1  0.163151  0.326302  0.541349  1
  In  In20  1  0.674080  0.836999  0.540349  1
  In  In21  1  0.162920  0.836999  0.540349  1
  Co  Co22  1  0.668731  0.337461  0.564336  1
  Co  Co23  1  0.333213  0.666428  0.067438  1
