# generated using pymatgen
data_Ac2YbSi6Pd17Pt3
_symmetry_space_group_name_H-M   'P 1'
_cell_length_a   8.83502468
_cell_length_b   8.83502623
_cell_length_c   8.85511105
_cell_angle_alpha   59.82106897
_cell_angle_beta   59.82106184
_cell_angle_gamma   59.77099736
_symmetry_Int_Tables_number   1
_chemical_formula_structural   Ac2YbSi6Pd17Pt3
_chemical_formula_sum   'Ac2 Yb1 Si6 Pd17 Pt3'
_cell_volume   486.58815286
_cell_formula_units_Z   1
loop_
 _symmetry_equiv_pos_site_id
 _symmetry_equiv_pos_as_xyz
  1  'x, y, z'
loop_
 _atom_site_type_symbol
 _atom_site_label
 _atom_site_symmetry_multiplicity
 _atom_site_fract_x
 _atom_site_fract_y
 _atom_site_fract_z
 _atom_site_occupancy
  Ac  Ac0  1  0.249417  0.249417  0.251758  1
  Ac  Ac1  1  0.749347  0.749347  0.751619  1
  Yb  Yb2  1  0.999954  0.999954  0.000145  1
  Si  Si3  1  0.732840  0.266267  0.265173  1
  Si  Si4  1  0.268288  0.732123  0.733837  1
  Si  Si5  1  0.266267  0.732840  0.265173  1
  Si  Si6  1  0.732123  0.268288  0.733837  1
  Si  Si7  1  0.267277  0.267277  0.732127  1
  Si  Si8  1  0.734294  0.734294  0.266458  1
  Pd  Pd9  1  0.384687  0.840949  0.384760  1
  Pd  Pd10  1  0.615099  0.615099  0.159598  1
  Pd  Pd11  1  0.617472  0.157548  0.612564  1
  Pd  Pd12  1  0.840949  0.384687  0.384760  1
  Pd  Pd13  1  0.157548  0.617472  0.612564  1
  Pd  Pd14  1  0.344145  0.999736  0.000368  1
  Pd  Pd15  1  0.654820  0.000580  0.001409  1
  Pd  Pd16  1  0.999229  0.344295  0.657429  1
  Pd  Pd17  1  0.999419  0.655840  0.345327  1
  Pd  Pd18  1  0.999736  0.344145  0.000368  1
  Pd  Pd19  1  0.655840  0.999419  0.345327  1
  Pd  Pd20  1  0.000580  0.654820  0.001409  1
  Pd  Pd21  1  0.344295  0.999229  0.657429  1
  Pd  Pd22  1  0.999139  0.999139  0.345509  1
  Pd  Pd23  1  0.999824  0.999824  0.656648  1
  Pd  Pd24  1  0.655578  0.343688  0.000601  1
  Pd  Pd25  1  0.343688  0.655578  0.000601  1
  Pt  Pt26  1  0.388583  0.388583  0.388619  1
  Pt  Pt27  1  0.613332  0.613332  0.608427  1
  Pt  Pt28  1  0.386230  0.386230  0.836161  1
