# generated using pymatgen
data_Y5Ni(P2Ru3)6
_symmetry_space_group_name_H-M   'P 1'
_cell_length_a   12.50412400
_cell_length_b   12.50412447
_cell_length_c   3.97683000
_cell_angle_alpha   90.00000000
_cell_angle_beta   90.00000000
_cell_angle_gamma   120.00000405
_symmetry_Int_Tables_number   1
_chemical_formula_structural   Y5Ni(P2Ru3)6
_chemical_formula_sum   'Y5 Ni1 P12 Ru18'
_cell_volume   538.48573164
_cell_formula_units_Z   1
loop_
 _symmetry_equiv_pos_site_id
 _symmetry_equiv_pos_as_xyz
  1  'x, y, z'
loop_
 _atom_site_type_symbol
 _atom_site_label
 _atom_site_symmetry_multiplicity
 _atom_site_fract_x
 _atom_site_fract_y
 _atom_site_fract_z
 _atom_site_occupancy
  Y  Y0  1  0.666667  0.333333  0.000000  1
  Y  Y1  1  0.333333  0.666667  0.000000  1
  Y  Y2  1  0.185873  0.185873  0.500000  1
  Y  Y3  1  0.814127  0.000000  0.500000  1
  Y  Y4  1  0.000000  0.814127  0.500000  1
  Ni  Ni5  1  0.000000  0.000000  0.000000  1
  P  P6  1  0.373504  0.373504  0.000000  1
  P  P7  1  0.626496  0.000000  0.000000  1
  P  P8  1  0.000000  0.626496  0.000000  1
  P  P9  1  0.830319  0.306209  0.500000  1
  P  P10  1  0.693791  0.524112  0.500000  1
  P  P11  1  0.475888  0.169681  0.500000  1
  P  P12  1  0.306209  0.830319  0.500000  1
  P  P13  1  0.524112  0.693791  0.500000  1
  P  P14  1  0.169681  0.475888  0.500000  1
  P  P15  1  0.821308  0.821308  0.000000  1
  P  P16  1  0.178692  0.000000  0.000000  1
  P  P17  1  0.000000  0.178692  0.000000  1
  Ru  Ru18  1  0.815824  0.190512  0.000000  1
  Ru  Ru19  1  0.809488  0.625313  0.000000  1
  Ru  Ru20  1  0.374687  0.184176  0.000000  1
  Ru  Ru21  1  0.190512  0.815824  0.000000  1
  Ru  Ru22  1  0.625313  0.809488  0.000000  1
  Ru  Ru23  1  0.184176  0.374687  0.000000  1
  Ru  Ru24  1  0.556387  0.556387  0.000000  1
  Ru  Ru25  1  0.443613  0.000000  0.000000  1
  Ru  Ru26  1  0.000000  0.443613  0.000000  1
  Ru  Ru27  1  0.634330  0.126121  0.500000  1
  Ru  Ru28  1  0.873879  0.508209  0.500000  1
  Ru  Ru29  1  0.491791  0.365670  0.500000  1
  Ru  Ru30  1  0.126121  0.634330  0.500000  1
  Ru  Ru31  1  0.508209  0.873879  0.500000  1
  Ru  Ru32  1  0.365670  0.491791  0.500000  1
  Ru  Ru33  1  0.720563  0.720563  0.500000  1
  Ru  Ru34  1  0.279437  0.000000  0.500000  1
  Ru  Ru35  1  0.000000  0.279437  0.500000  1
