# generated using pymatgen
data_Yb2TmNbO6
_symmetry_space_group_name_H-M   'P 1'
_cell_length_a   5.78493900
_cell_length_b   5.55044058
_cell_length_c   9.76630894
_cell_angle_alpha   55.16826885
_cell_angle_beta   90.00000000
_cell_angle_gamma   90.00000000
_symmetry_Int_Tables_number   1
_chemical_formula_structural   Yb2TmNbO6
_chemical_formula_sum   'Yb4 Tm2 Nb2 O12'
_cell_volume   257.40176207
_cell_formula_units_Z   2
loop_
 _symmetry_equiv_pos_site_id
 _symmetry_equiv_pos_as_xyz
  1  'x, y, z'
loop_
 _atom_site_type_symbol
 _atom_site_label
 _atom_site_symmetry_multiplicity
 _atom_site_fract_x
 _atom_site_fract_y
 _atom_site_fract_z
 _atom_site_occupancy
  Yb  Yb0  1  0.442669  0.231422  0.751907  1
  Yb  Yb1  1  0.557331  0.768578  0.248093  1
  Yb  Yb2  1  0.942669  0.768578  0.748093  1
  Yb  Yb3  1  0.057331  0.231422  0.251907  1
  Tm  Tm4  1  0.000000  0.000000  0.000000  1
  Tm  Tm5  1  0.500000  0.000000  0.500000  1
  Nb  Nb6  1  0.000000  0.500000  0.500000  1
  Nb  Nb7  1  0.500000  0.500000  0.000000  1
  O  O8  1  0.046886  0.380061  0.736926  1
  O  O9  1  0.953114  0.619939  0.263074  1
  O  O10  1  0.546886  0.619939  0.763074  1
  O  O11  1  0.453114  0.380061  0.236926  1
  O  O12  1  0.685327  0.853288  0.940949  1
  O  O13  1  0.314673  0.146712  0.059051  1
  O  O14  1  0.185327  0.146712  0.559051  1
  O  O15  1  0.814673  0.853288  0.440949  1
  O  O16  1  0.208419  0.746172  0.934034  1
  O  O17  1  0.791581  0.253828  0.065966  1
  O  O18  1  0.708419  0.253828  0.565966  1
  O  O19  1  0.291581  0.746172  0.434034  1
