# generated using pymatgen
data_Er4NbVOs6
_symmetry_space_group_name_H-M   'P 1'
_cell_length_a   5.23969812
_cell_length_b   5.23969840
_cell_length_c   8.95274100
_cell_angle_alpha   90.00000000
_cell_angle_beta   90.00000000
_cell_angle_gamma   116.56470322
_symmetry_Int_Tables_number   1
_chemical_formula_structural   Er4NbVOs6
_chemical_formula_sum   'Er4 Nb1 V1 Os6'
_cell_volume   219.84413762
_cell_formula_units_Z   1
loop_
 _symmetry_equiv_pos_site_id
 _symmetry_equiv_pos_as_xyz
  1  'x, y, z'
loop_
 _atom_site_type_symbol
 _atom_site_label
 _atom_site_symmetry_multiplicity
 _atom_site_fract_x
 _atom_site_fract_y
 _atom_site_fract_z
 _atom_site_occupancy
  Er  Er0  1  0.331326  0.668674  0.432930  1
  Er  Er1  1  0.670310  0.329690  0.560987  1
  Er  Er2  1  0.670310  0.329690  0.939013  1
  Er  Er3  1  0.331326  0.668674  0.067070  1
  Nb  Nb4  1  0.158843  0.841157  0.750000  1
  V  V5  1  0.840662  0.159338  0.250000  1
  Os  Os6  1  0.997300  0.002700  0.493781  1
  Os  Os7  1  0.997300  0.002700  0.006219  1
  Os  Os8  1  0.824248  0.647076  0.250000  1
  Os  Os9  1  0.352924  0.175752  0.250000  1
  Os  Os10  1  0.175277  0.349826  0.750000  1
  Os  Os11  1  0.650174  0.824723  0.750000  1
