# generated using pymatgen
data_Nd3Lu(SeO3)6
_symmetry_space_group_name_H-M   'P 1'
_cell_length_a   7.27197424
_cell_length_b   8.31208783
_cell_length_c   9.23958909
_cell_angle_alpha   70.85335262
_cell_angle_beta   70.07888118
_cell_angle_gamma   66.16074676
_symmetry_Int_Tables_number   1
_chemical_formula_structural   Nd3Lu(SeO3)6
_chemical_formula_sum   'Nd3 Lu1 Se6 O18'
_cell_volume   468.36960574
_cell_formula_units_Z   1
loop_
 _symmetry_equiv_pos_site_id
 _symmetry_equiv_pos_as_xyz
  1  'x, y, z'
loop_
 _atom_site_type_symbol
 _atom_site_label
 _atom_site_symmetry_multiplicity
 _atom_site_fract_x
 _atom_site_fract_y
 _atom_site_fract_z
 _atom_site_occupancy
  Nd  Nd0  1  0.331019  0.734697  0.589130  1
  Nd  Nd1  1  0.663554  0.273436  0.408934  1
  Nd  Nd2  1  0.741217  0.732996  0.801977  1
  Lu  Lu3  1  0.259077  0.261394  0.198788  1
  Se  Se4  1  0.423197  0.785675  0.196324  1
  Se  Se5  1  0.571267  0.227306  0.805440  1
  Se  Se6  1  0.152022  0.738687  0.972479  1
  Se  Se7  1  0.851878  0.241980  0.039005  1
  Se  Se8  1  0.889055  0.758818  0.413966  1
  Se  Se9  1  0.113181  0.245738  0.574842  1
  O  O10  1  0.645041  0.796672  0.057691  1
  O  O11  1  0.357500  0.211440  0.954826  1
  O  O12  1  0.355728  0.954113  0.297184  1
  O  O13  1  0.630825  0.063593  0.701876  1
  O  O14  1  0.507928  0.604991  0.347420  1
  O  O15  1  0.480737  0.406684  0.655175  1
  O  O16  1  0.177304  0.550951  0.120827  1
  O  O17  1  0.835706  0.420963  0.882446  1
  O  O18  1  0.402756  0.710094  0.854943  1
  O  O19  1  0.595496  0.285922  0.151207  1
  O  O20  1  0.340403  0.248166  0.427357  1
  O  O21  1  0.660755  0.749991  0.557521  1
  O  O22  1  0.976264  0.290973  0.434896  1
  O  O23  1  0.030919  0.707809  0.552472  1
  O  O24  1  0.150401  0.024407  0.656791  1
  O  O25  1  0.846850  0.981615  0.343444  1
  O  O26  1  0.943094  0.297454  0.162600  1
  O  O27  1  0.066825  0.693436  0.840438  1
