# generated using pymatgen
data_Ta6Co4Os2CN
_symmetry_space_group_name_H-M   'P 1'
_cell_length_a   8.08000064
_cell_length_b   8.09039385
_cell_length_c   8.09039489
_cell_angle_alpha   60.09771198
_cell_angle_beta   60.04248698
_cell_angle_gamma   60.04249278
_symmetry_Int_Tables_number   1
_chemical_formula_structural   Ta6Co4Os2CN
_chemical_formula_sum   'Ta12 Co8 Os4 C2 N2'
_cell_volume   374.48505985
_cell_formula_units_Z   2
loop_
 _symmetry_equiv_pos_site_id
 _symmetry_equiv_pos_as_xyz
  1  'x, y, z'
loop_
 _atom_site_type_symbol
 _atom_site_label
 _atom_site_symmetry_multiplicity
 _atom_site_fract_x
 _atom_site_fract_y
 _atom_site_fract_z
 _atom_site_occupancy
  Ta  Ta0  1  0.806141  0.805994  0.193466  1
  Ta  Ta1  1  0.194398  0.193466  0.805994  1
  Ta  Ta2  1  0.806141  0.193466  0.805994  1
  Ta  Ta3  1  0.194398  0.805994  0.193466  1
  Ta  Ta4  1  0.194418  0.805582  0.805582  1
  Ta  Ta5  1  0.806324  0.193676  0.193676  1
  Ta  Ta6  1  0.443859  0.444006  0.056534  1
  Ta  Ta7  1  0.055602  0.056534  0.444006  1
  Ta  Ta8  1  0.443859  0.056534  0.444006  1
  Ta  Ta9  1  0.055602  0.444006  0.056534  1
  Ta  Ta10  1  0.055582  0.444418  0.444418  1
  Ta  Ta11  1  0.443676  0.056324  0.056324  1
  Co  Co12  1  0.741806  0.419205  0.419205  1
  Co  Co13  1  0.419545  0.741955  0.418956  1
  Co  Co14  1  0.419545  0.418956  0.741955  1
  Co  Co15  1  0.419785  0.419205  0.419205  1
  Co  Co16  1  0.508194  0.830795  0.830795  1
  Co  Co17  1  0.830455  0.508045  0.831044  1
  Co  Co18  1  0.830455  0.831044  0.508045  1
  Co  Co19  1  0.830215  0.830795  0.830795  1
  Os  Os20  1  0.125000  0.625000  0.625000  1
  Os  Os21  1  0.625000  0.125000  0.625000  1
  Os  Os22  1  0.625000  0.625000  0.125000  1
  Os  Os23  1  0.625000  0.625000  0.625000  1
  C  C24  1  0.125000  0.625000  0.125000  1
  C  C25  1  0.125000  0.125000  0.625000  1
  N  N26  1  0.625000  0.125000  0.125000  1
  N  N27  1  0.125000  0.125000  0.125000  1
