# generated using pymatgen
data_Dy5Pb3N
_symmetry_space_group_name_H-M   'P 1'
_cell_length_a   9.14643475
_cell_length_b   9.14643543
_cell_length_c   9.14643500
_cell_angle_alpha   126.14553491
_cell_angle_beta   126.14553025
_cell_angle_gamma   79.64907872
_symmetry_Int_Tables_number   1
_chemical_formula_structural   Dy5Pb3N
_chemical_formula_sum   'Dy10 Pb6 N2'
_cell_volume   482.06674174
_cell_formula_units_Z   2
loop_
 _symmetry_equiv_pos_site_id
 _symmetry_equiv_pos_as_xyz
  1  'x, y, z'
loop_
 _atom_site_type_symbol
 _atom_site_label
 _atom_site_symmetry_multiplicity
 _atom_site_fract_x
 _atom_site_fract_y
 _atom_site_fract_z
 _atom_site_occupancy
  Dy  Dy0  1  0.995385  0.201698  0.500000  1
  Dy  Dy1  1  0.798302  0.298302  0.793687  1
  Dy  Dy2  1  0.495385  0.995385  0.793687  1
  Dy  Dy3  1  0.504615  0.004615  0.206313  1
  Dy  Dy4  1  0.004615  0.798302  0.500000  1
  Dy  Dy5  1  0.500000  0.500000  0.000000  1
  Dy  Dy6  1  0.201698  0.701698  0.206313  1
  Dy  Dy7  1  0.701698  0.495385  0.500000  1
  Dy  Dy8  1  0.298302  0.504615  0.500000  1
  Dy  Dy9  1  0.000000  0.000000  0.000000  1
  Pb  Pb10  1  0.849798  0.349798  0.199598  1
  Pb  Pb11  1  0.150202  0.650202  0.800402  1
  Pb  Pb12  1  0.349798  0.150202  0.500000  1
  Pb  Pb13  1  0.750000  0.750000  0.000000  1
  Pb  Pb14  1  0.650202  0.849798  0.500000  1
  Pb  Pb15  1  0.250000  0.250000  0.000000  1
  N  N16  1  0.750000  0.250000  0.500000  1
  N  N17  1  0.250000  0.750000  0.500000  1
