# generated using pymatgen
data_Pu2ThAs3
_symmetry_space_group_name_H-M   'P 1'
_cell_length_a   4.19000300
_cell_length_b   4.19000358
_cell_length_c   10.26446900
_cell_angle_alpha   90.00000000
_cell_angle_beta   90.00000000
_cell_angle_gamma   119.99998751
_symmetry_Int_Tables_number   1
_chemical_formula_structural   Pu2ThAs3
_chemical_formula_sum   'Pu2 Th1 As3'
_cell_volume   156.06154492
_cell_formula_units_Z   1
loop_
 _symmetry_equiv_pos_site_id
 _symmetry_equiv_pos_as_xyz
  1  'x, y, z'
loop_
 _atom_site_type_symbol
 _atom_site_label
 _atom_site_symmetry_multiplicity
 _atom_site_fract_x
 _atom_site_fract_y
 _atom_site_fract_z
 _atom_site_occupancy
  Pu  Pu0  1  0.333333  0.666667  0.662362  1
  Pu  Pu1  1  0.666667  0.333333  0.337638  1
  Th  Th2  1  0.000000  0.000000  0.000000  1
  As  As3  1  0.333333  0.666667  0.171605  1
  As  As4  1  0.666667  0.333333  0.828395  1
  As  As5  1  0.000000  0.000000  0.500000  1
