# generated using pymatgen
data_EuHoTmGa8Ag3
_symmetry_space_group_name_H-M   'P 1'
_cell_length_a   4.36222771
_cell_length_b   8.37323162
_cell_length_c   8.37323147
_cell_angle_alpha   69.89493396
_cell_angle_beta   74.90105533
_cell_angle_gamma   74.90106059
_symmetry_Int_Tables_number   1
_chemical_formula_structural   EuHoTmGa8Ag3
_chemical_formula_sum   'Eu1 Ho1 Tm1 Ga8 Ag3'
_cell_volume   272.31499459
_cell_formula_units_Z   1
loop_
 _symmetry_equiv_pos_site_id
 _symmetry_equiv_pos_as_xyz
  1  'x, y, z'
loop_
 _atom_site_type_symbol
 _atom_site_label
 _atom_site_symmetry_multiplicity
 _atom_site_fract_x
 _atom_site_fract_y
 _atom_site_fract_z
 _atom_site_occupancy
  Eu  Eu0  1  0.499977  0.500023  0.500023  1
  Ho  Ho1  1  0.799756  0.200244  0.200244  1
  Tm  Tm2  1  0.200206  0.799794  0.799794  1
  Ga  Ga3  1  0.354862  0.362655  0.927621  1
  Ga  Ga4  1  0.645150  0.637412  0.072287  1
  Ga  Ga5  1  0.354862  0.927621  0.362655  1
  Ga  Ga6  1  0.645150  0.072287  0.637412  1
  Ga  Ga7  1  0.161156  0.470729  0.206957  1
  Ga  Ga8  1  0.838794  0.529362  0.793050  1
  Ga  Ga9  1  0.161156  0.206957  0.470729  1
  Ga  Ga10  1  0.838794  0.793050  0.529362  1
  Ag  Ag11  1  0.500043  0.999957  0.999957  1
  Ag  Ag12  1  0.000047  0.807623  0.192284  1
  Ag  Ag13  1  0.000047  0.192284  0.807623  1
