# generated using pymatgen
data_LiTm8Sc10Si16Ru
_symmetry_space_group_name_H-M   'P 1'
_cell_length_a   6.91554223
_cell_length_b   7.31287592
_cell_length_c   13.84777700
_cell_angle_alpha   90.00000000
_cell_angle_beta   90.00000000
_cell_angle_gamma   89.98785954
_symmetry_Int_Tables_number   1
_chemical_formula_structural   LiTm8Sc10Si16Ru
_chemical_formula_sum   'Li1 Tm8 Sc10 Si16 Ru1'
_cell_volume   700.31671828
_cell_formula_units_Z   1
loop_
 _symmetry_equiv_pos_site_id
 _symmetry_equiv_pos_as_xyz
  1  'x, y, z'
loop_
 _atom_site_type_symbol
 _atom_site_label
 _atom_site_symmetry_multiplicity
 _atom_site_fract_x
 _atom_site_fract_y
 _atom_site_fract_z
 _atom_site_occupancy
  Li  Li0  1  0.841588  0.493113  0.250000  1
  Tm  Tm1  1  0.010549  0.186194  0.095017  1
  Tm  Tm2  1  0.992511  0.817155  0.901766  1
  Tm  Tm3  1  0.490002  0.674010  0.903752  1
  Tm  Tm4  1  0.992511  0.817155  0.598234  1
  Tm  Tm5  1  0.515137  0.324815  0.095308  1
  Tm  Tm6  1  0.010549  0.186194  0.404983  1
  Tm  Tm7  1  0.515137  0.324815  0.404692  1
  Tm  Tm8  1  0.490002  0.674010  0.596248  1
  Sc  Sc9  1  0.344103  0.003300  0.250000  1
  Sc  Sc10  1  0.656308  0.995234  0.750000  1
  Sc  Sc11  1  0.325287  0.176737  0.627270  1
  Sc  Sc12  1  0.675376  0.820057  0.373742  1
  Sc  Sc13  1  0.167817  0.670334  0.375082  1
  Sc  Sc14  1  0.675376  0.820057  0.126258  1
  Sc  Sc15  1  0.824730  0.329955  0.628619  1
  Sc  Sc16  1  0.325287  0.176737  0.872730  1
  Sc  Sc17  1  0.824730  0.329955  0.871381  1
  Sc  Sc18  1  0.167817  0.670334  0.124918  1
  Si  Si19  1  0.027402  0.110847  0.750000  1
  Si  Si20  1  0.974271  0.898749  0.250000  1
  Si  Si21  1  0.469448  0.610610  0.250000  1
  Si  Si22  1  0.514353  0.398481  0.750000  1
  Si  Si23  1  0.284157  0.858396  0.750000  1
  Si  Si24  1  0.716098  0.124818  0.250000  1
  Si  Si25  1  0.220940  0.370471  0.250000  1
  Si  Si26  1  0.794513  0.631201  0.750000  1
  Si  Si27  1  0.157452  0.465317  0.546237  1
  Si  Si28  1  0.840898  0.538306  0.467588  1
  Si  Si29  1  0.342199  0.965470  0.462423  1
  Si  Si30  1  0.840898  0.538306  0.032412  1
  Si  Si31  1  0.659556  0.033484  0.538625  1
  Si  Si32  1  0.157452  0.465317  0.953763  1
  Si  Si33  1  0.659556  0.033484  0.961375  1
  Si  Si34  1  0.342199  0.965470  0.037577  1
  Ru  Ru35  1  0.153788  0.501111  0.750000  1
