# generated using pymatgen
data_Li2La3(MgGe2)2
_symmetry_space_group_name_H-M   'P 1'
_cell_length_a   4.57552533
_cell_length_b   7.20654454
_cell_length_c   8.56355809
_cell_angle_alpha   113.24954270
_cell_angle_beta   105.49480305
_cell_angle_gamma   90.00000012
_symmetry_Int_Tables_number   1
_chemical_formula_structural   Li2La3(MgGe2)2
_chemical_formula_sum   'Li2 La3 Mg2 Ge4'
_cell_volume   248.23305928
_cell_formula_units_Z   1
loop_
 _symmetry_equiv_pos_site_id
 _symmetry_equiv_pos_as_xyz
  1  'x, y, z'
loop_
 _atom_site_type_symbol
 _atom_site_label
 _atom_site_symmetry_multiplicity
 _atom_site_fract_x
 _atom_site_fract_y
 _atom_site_fract_z
 _atom_site_occupancy
  Li  Li0  1  0.327664  0.634659  0.655328  1
  Li  Li1  1  0.672336  0.365341  0.344672  1
  La  La2  1  0.000000  0.000000  0.000000  1
  La  La3  1  0.123942  0.608060  0.247883  1
  La  La4  1  0.876058  0.391940  0.752117  1
  Mg  Mg5  1  0.671360  0.981272  0.342719  1
  Mg  Mg6  1  0.328640  0.018728  0.657281  1
  Ge  Ge7  1  0.498433  0.684342  0.996867  1
  Ge  Ge8  1  0.501567  0.315658  0.003133  1
  Ge  Ge9  1  0.784894  0.776453  0.569787  1
  Ge  Ge10  1  0.215106  0.223547  0.430213  1
