# generated using pymatgen
data_HoZr3(Al3Rh)6
_symmetry_space_group_name_H-M   'P 1'
_cell_length_a   7.48023309
_cell_length_b   7.47283796
_cell_length_c   9.31584200
_cell_angle_alpha   90.00000000
_cell_angle_beta   90.00000000
_cell_angle_gamma   119.74492363
_symmetry_Int_Tables_number   1
_chemical_formula_structural   HoZr3(Al3Rh)6
_chemical_formula_sum   'Ho1 Zr3 Al18 Rh6'
_cell_volume   452.13069112
_cell_formula_units_Z   1
loop_
 _symmetry_equiv_pos_site_id
 _symmetry_equiv_pos_as_xyz
  1  'x, y, z'
loop_
 _atom_site_type_symbol
 _atom_site_label
 _atom_site_symmetry_multiplicity
 _atom_site_fract_x
 _atom_site_fract_y
 _atom_site_fract_z
 _atom_site_occupancy
  Ho  Ho0  1  0.329605  0.006033  0.750000  1
  Zr  Zr1  1  0.994295  0.671091  0.250000  1
  Zr  Zr2  1  0.006237  0.330143  0.750000  1
  Zr  Zr3  1  0.670347  0.993963  0.250000  1
  Al  Al4  1  0.120641  0.121983  0.250000  1
  Al  Al5  1  0.873628  0.876978  0.750000  1
  Al  Al6  1  0.996829  0.334225  0.076091  1
  Al  Al7  1  0.000505  0.662861  0.926131  1
  Al  Al8  1  0.000505  0.662861  0.573869  1
  Al  Al9  1  0.334599  0.997693  0.420405  1
  Al  Al10  1  0.996829  0.334225  0.423909  1
  Al  Al11  1  0.668334  0.002777  0.574052  1
  Al  Al12  1  0.668334  0.002777  0.925948  1
  Al  Al13  1  0.334599  0.997693  0.079595  1
  Al  Al14  1  0.331228  0.333673  0.555684  1
  Al  Al15  1  0.668648  0.668491  0.440826  1
  Al  Al16  1  0.668648  0.668491  0.059174  1
  Al  Al17  1  0.331228  0.333673  0.944316  1
  Al  Al18  1  0.337503  0.553038  0.250000  1
  Al  Al19  1  0.666603  0.451305  0.750000  1
  Al  Al20  1  0.554886  0.338807  0.250000  1
  Al  Al21  1  0.446143  0.657860  0.750000  1
  Rh  Rh22  1  0.672138  0.327692  0.000934  1
  Rh  Rh23  1  0.328329  0.673219  0.001502  1
  Rh  Rh24  1  0.328329  0.673219  0.498498  1
  Rh  Rh25  1  0.672138  0.327692  0.499066  1
  Rh  Rh26  1  0.999448  0.998770  0.001111  1
  Rh  Rh27  1  0.999448  0.998770  0.498889  1
