# generated using pymatgen
data_Li2Sc6NiOs3
_symmetry_space_group_name_H-M   'P 1'
_cell_length_a   4.57172300
_cell_length_b   6.50551500
_cell_length_c   13.83133700
_cell_angle_alpha   89.99976538
_cell_angle_beta   90.00032862
_cell_angle_gamma   89.99938351
_symmetry_Int_Tables_number   1
_chemical_formula_structural   Li2Sc6NiOs3
_chemical_formula_sum   'Li4 Sc12 Ni2 Os6'
_cell_volume   411.36349985
_cell_formula_units_Z   2
loop_
 _symmetry_equiv_pos_site_id
 _symmetry_equiv_pos_as_xyz
  1  'x, y, z'
loop_
 _atom_site_type_symbol
 _atom_site_label
 _atom_site_symmetry_multiplicity
 _atom_site_fract_x
 _atom_site_fract_y
 _atom_site_fract_z
 _atom_site_occupancy
  Li  Li0  1  0.999996  0.500002  0.994742  1
  Li  Li1  1  0.499964  0.000001  0.163081  1
  Li  Li2  1  0.999979  0.499998  0.336901  1
  Li  Li3  1  0.500004  0.000002  0.505256  1
  Sc  Sc4  1  0.500007  0.246144  0.994433  1
  Sc  Sc5  1  0.500002  0.753857  0.994433  1
  Sc  Sc6  1  0.999987  0.249514  0.165482  1
  Sc  Sc7  1  0.999976  0.750483  0.165483  1
  Sc  Sc8  1  0.499981  0.250460  0.334515  1
  Sc  Sc9  1  0.499991  0.749539  0.334515  1
  Sc  Sc10  1  0.000004  0.253852  0.505561  1
  Sc  Sc11  1  0.000003  0.746149  0.505561  1
  Sc  Sc12  1  0.500014  0.253432  0.670365  1
  Sc  Sc13  1  0.500013  0.746566  0.670365  1
  Sc  Sc14  1  0.000018  0.246552  0.829634  1
  Sc  Sc15  1  0.000018  0.753451  0.829634  1
  Ni  Ni16  1  0.999995  0.499998  0.667840  1
  Ni  Ni17  1  0.500029  0.000003  0.832202  1
  Os  Os18  1  0.000004  0.000000  0.999603  1
  Os  Os19  1  0.499987  0.499999  0.166722  1
  Os  Os20  1  0.999989  0.000000  0.333279  1
  Os  Os21  1  0.500002  0.500000  0.500377  1
  Os  Os22  1  0.000014  0.000000  0.666252  1
  Os  Os23  1  0.500019  0.500000  0.833766  1
