# generated using pymatgen
data_Ho(As2Rh3)2
_symmetry_space_group_name_H-M   'P 1'
_cell_length_a   7.26861300
_cell_length_b   7.26861281
_cell_length_c   3.82916600
_cell_angle_alpha   90.00000000
_cell_angle_beta   90.00000000
_cell_angle_gamma   120.00000542
_symmetry_Int_Tables_number   1
_chemical_formula_structural   Ho(As2Rh3)2
_chemical_formula_sum   'Ho1 As4 Rh6'
_cell_volume   175.20152565
_cell_formula_units_Z   1
loop_
 _symmetry_equiv_pos_site_id
 _symmetry_equiv_pos_as_xyz
  1  'x, y, z'
loop_
 _atom_site_type_symbol
 _atom_site_label
 _atom_site_symmetry_multiplicity
 _atom_site_fract_x
 _atom_site_fract_y
 _atom_site_fract_z
 _atom_site_occupancy
  Ho  Ho0  1  0.000000  0.000000  0.000000  1
  As  As1  1  0.810699  0.621398  0.500000  1
  As  As2  1  0.333333  0.666667  0.000000  1
  As  As3  1  0.378602  0.189301  0.500000  1
  As  As4  1  0.810699  0.189301  0.500000  1
  Rh  Rh5  1  0.533699  0.067397  0.000000  1
  Rh  Rh6  1  0.607115  0.803558  0.500000  1
  Rh  Rh7  1  0.196442  0.392885  0.500000  1
  Rh  Rh8  1  0.533699  0.466301  0.000000  1
  Rh  Rh9  1  0.196442  0.803558  0.500000  1
  Rh  Rh10  1  0.932603  0.466301  0.000000  1
