# generated using pymatgen
data_Er2Zr2Al17GaRh6
_symmetry_space_group_name_H-M   'P 1'
_cell_length_a   7.50538620
_cell_length_b   7.49040263
_cell_length_c   9.36002800
_cell_angle_alpha   90.00000000
_cell_angle_beta   90.00000000
_cell_angle_gamma   119.59107002
_symmetry_Int_Tables_number   1
_chemical_formula_structural   Er2Zr2Al17GaRh6
_chemical_formula_sum   'Er2 Zr2 Al17 Ga1 Rh6'
_cell_volume   457.57348865
_cell_formula_units_Z   1
loop_
 _symmetry_equiv_pos_site_id
 _symmetry_equiv_pos_as_xyz
  1  'x, y, z'
loop_
 _atom_site_type_symbol
 _atom_site_label
 _atom_site_symmetry_multiplicity
 _atom_site_fract_x
 _atom_site_fract_y
 _atom_site_fract_z
 _atom_site_occupancy
  Er  Er0  1  0.672765  0.993544  0.750000  1
  Er  Er1  1  0.329312  0.006348  0.250000  1
  Zr  Zr2  1  0.994285  0.672311  0.750000  1
  Zr  Zr3  1  0.005447  0.328964  0.250000  1
  Al  Al4  1  0.874715  0.876340  0.250000  1
  Al  Al5  1  0.999214  0.337324  0.574663  1
  Al  Al6  1  0.000787  0.662811  0.424606  1
  Al  Al7  1  0.000787  0.662811  0.075394  1
  Al  Al8  1  0.332583  0.998356  0.921567  1
  Al  Al9  1  0.999214  0.337324  0.925337  1
  Al  Al10  1  0.667476  0.001896  0.078487  1
  Al  Al11  1  0.667476  0.001896  0.421513  1
  Al  Al12  1  0.332583  0.998356  0.578433  1
  Al  Al13  1  0.331063  0.333358  0.056571  1
  Al  Al14  1  0.668572  0.666200  0.944761  1
  Al  Al15  1  0.668572  0.666200  0.555239  1
  Al  Al16  1  0.331063  0.333358  0.443429  1
  Al  Al17  1  0.333707  0.549609  0.750000  1
  Al  Al18  1  0.665564  0.450636  0.250000  1
  Al  Al19  1  0.556627  0.343038  0.750000  1
  Al  Al20  1  0.443944  0.656514  0.250000  1
  Ga  Ga21  1  0.127383  0.126511  0.750000  1
  Rh  Rh22  1  0.671599  0.326995  0.499628  1
  Rh  Rh23  1  0.327581  0.672120  0.501007  1
  Rh  Rh24  1  0.327581  0.672120  0.998993  1
  Rh  Rh25  1  0.671599  0.326995  0.000372  1
  Rh  Rh26  1  0.999250  0.999032  0.498190  1
  Rh  Rh27  1  0.999250  0.999032  0.001810  1
