# generated using pymatgen
data_Li8Tb2Dy6Sn7Bi
_symmetry_space_group_name_H-M   'P 1'
_cell_length_a   9.41363700
_cell_length_b   9.41316021
_cell_length_c   7.30441308
_cell_angle_alpha   90.11009908
_cell_angle_beta   89.99644994
_cell_angle_gamma   120.00069822
_symmetry_Int_Tables_number   1
_chemical_formula_structural   Li8Tb2Dy6Sn7Bi
_chemical_formula_sum   'Li8 Tb2 Dy6 Sn7 Bi1'
_cell_volume   560.53761772
_cell_formula_units_Z   1
loop_
 _symmetry_equiv_pos_site_id
 _symmetry_equiv_pos_as_xyz
  1  'x, y, z'
loop_
 _atom_site_type_symbol
 _atom_site_label
 _atom_site_symmetry_multiplicity
 _atom_site_fract_x
 _atom_site_fract_y
 _atom_site_fract_z
 _atom_site_occupancy
  Li  Li0  1  0.166589  0.333318  0.285881  1
  Li  Li1  1  0.167787  0.833546  0.288930  1
  Li  Li2  1  0.665792  0.833633  0.288891  1
  Li  Li3  1  0.833399  0.666698  0.788042  1
  Li  Li4  1  0.829151  0.164698  0.791162  1
  Li  Li5  1  0.335545  0.164646  0.791157  1
  Li  Li6  1  0.335254  0.670635  0.667868  1
  Li  Li7  1  0.666238  0.332416  0.169676  1
  Tb  Tb8  1  0.512733  0.025402  0.493801  1
  Tb  Tb9  1  0.517678  0.490629  0.491162  1
  Dy  Dy10  1  0.972962  0.490658  0.491098  1
  Dy  Dy11  1  0.487261  0.974536  0.994670  1
  Dy  Dy12  1  0.492974  0.514722  0.996573  1
  Dy  Dy13  1  0.021694  0.514701  0.996582  1
  Dy  Dy14  1  0.997220  0.994432  0.497491  1
  Dy  Dy15  1  0.997813  0.995635  0.002445  1
  Sn  Sn16  1  0.166264  0.832598  0.730046  1
  Sn  Sn17  1  0.666423  0.832737  0.730146  1
  Sn  Sn18  1  0.833425  0.666624  0.230294  1
  Sn  Sn19  1  0.833890  0.167361  0.229850  1
  Sn  Sn20  1  0.333418  0.167241  0.229692  1
  Sn  Sn21  1  0.332659  0.665517  0.261442  1
  Sn  Sn22  1  0.667171  0.334121  0.762549  1
  Bi  Bi23  1  0.166660  0.333496  0.732548  1
