# generated using pymatgen
data_YTmCr2Co10As7
_symmetry_space_group_name_H-M   'P 1'
_cell_length_a   3.73751600
_cell_length_b   9.38169943
_cell_length_c   9.41396869
_cell_angle_alpha   119.88195679
_cell_angle_beta   90.00000000
_cell_angle_gamma   90.00000000
_symmetry_Int_Tables_number   1
_chemical_formula_structural   YTmCr2Co10As7
_chemical_formula_sum   'Y1 Tm1 Cr2 Co10 As7'
_cell_volume   286.20901839
_cell_formula_units_Z   1
loop_
 _symmetry_equiv_pos_site_id
 _symmetry_equiv_pos_as_xyz
  1  'x, y, z'
loop_
 _atom_site_type_symbol
 _atom_site_label
 _atom_site_symmetry_multiplicity
 _atom_site_fract_x
 _atom_site_fract_y
 _atom_site_fract_z
 _atom_site_occupancy
  Y  Y0  1  0.500000  0.331754  0.666765  1
  Tm  Tm1  1  0.000000  0.672334  0.338023  1
  Cr  Cr2  1  0.500000  0.774345  0.892693  1
  Cr  Cr3  1  0.500000  0.121055  0.223238  1
  Co  Co4  1  0.000000  0.569013  0.941981  1
  Co  Co5  1  0.000000  0.371370  0.430840  1
  Co  Co6  1  0.000000  0.058071  0.627861  1
  Co  Co7  1  0.500000  0.095166  0.877747  1
  Co  Co8  1  0.000000  0.878987  0.156008  1
  Co  Co9  1  0.000000  0.281814  0.123625  1
  Co  Co10  1  0.000000  0.841718  0.721186  1
  Co  Co11  1  0.500000  0.946764  0.381160  1
  Co  Co12  1  0.500000  0.433674  0.050267  1
  Co  Co13  1  0.500000  0.619021  0.564887  1
  As  As14  1  0.000000  0.002341  0.998336  1
  As  As15  1  0.500000  0.707666  0.118302  1
  As  As16  1  0.500000  0.414244  0.292322  1
  As  As17  1  0.500000  0.886685  0.594946  1
  As  As18  1  0.000000  0.586228  0.701652  1
  As  As19  1  0.000000  0.113860  0.412465  1
  As  As20  1  0.000000  0.293889  0.885697  1
