# generated using pymatgen
data_SmMnCo4As3
_symmetry_space_group_name_H-M   'P 1'
_cell_length_a   3.82162600
_cell_length_b   10.79257100
_cell_length_c   12.32709100
_cell_angle_alpha   90.00000000
_cell_angle_beta   90.00000000
_cell_angle_gamma   90.00000000
_symmetry_Int_Tables_number   1
_chemical_formula_structural   SmMnCo4As3
_chemical_formula_sum   'Sm4 Mn4 Co16 As12'
_cell_volume   508.43296317
_cell_formula_units_Z   4
loop_
 _symmetry_equiv_pos_site_id
 _symmetry_equiv_pos_as_xyz
  1  'x, y, z'
loop_
 _atom_site_type_symbol
 _atom_site_label
 _atom_site_symmetry_multiplicity
 _atom_site_fract_x
 _atom_site_fract_y
 _atom_site_fract_z
 _atom_site_occupancy
  Sm  Sm0  1  0.250000  0.579414  0.702640  1
  Sm  Sm1  1  0.250000  0.920586  0.202640  1
  Sm  Sm2  1  0.750000  0.420586  0.297360  1
  Sm  Sm3  1  0.750000  0.079414  0.797360  1
  Mn  Mn4  1  0.250000  0.700308  0.990864  1
  Mn  Mn5  1  0.250000  0.799692  0.490864  1
  Mn  Mn6  1  0.750000  0.299692  0.009136  1
  Mn  Mn7  1  0.750000  0.200308  0.509136  1
  Co  Co8  1  0.250000  0.405593  0.488007  1
  Co  Co9  1  0.250000  0.094407  0.988007  1
  Co  Co10  1  0.750000  0.594407  0.511993  1
  Co  Co11  1  0.750000  0.905593  0.011993  1
  Co  Co12  1  0.250000  0.217401  0.174952  1
  Co  Co13  1  0.250000  0.282599  0.674952  1
  Co  Co14  1  0.750000  0.782599  0.825048  1
  Co  Co15  1  0.750000  0.717401  0.325048  1
  Co  Co16  1  0.250000  0.881980  0.697998  1
  Co  Co17  1  0.250000  0.618020  0.197998  1
  Co  Co18  1  0.750000  0.118020  0.302002  1
  Co  Co19  1  0.750000  0.381980  0.802002  1
  Co  Co20  1  0.250000  0.466159  0.933050  1
  Co  Co21  1  0.250000  0.033841  0.433050  1
  Co  Co22  1  0.750000  0.533841  0.066950  1
  Co  Co23  1  0.750000  0.966159  0.566950  1
  As  As24  1  0.250000  0.419268  0.115234  1
  As  As25  1  0.250000  0.080732  0.615234  1
  As  As26  1  0.750000  0.580732  0.884766  1
  As  As27  1  0.750000  0.919268  0.384766  1
  As  As28  1  0.250000  0.269320  0.865460  1
  As  As29  1  0.250000  0.230680  0.365460  1
  As  As30  1  0.750000  0.730680  0.134540  1
  As  As31  1  0.750000  0.769320  0.634540  1
  As  As32  1  0.250000  0.599930  0.392392  1
  As  As33  1  0.250000  0.900070  0.892392  1
  As  As34  1  0.750000  0.400070  0.607608  1
  As  As35  1  0.750000  0.099930  0.107608  1
