# generated using pymatgen
data_Lu10Zn3Bi2Au
_symmetry_space_group_name_H-M   'P 1'
_cell_length_a   8.51267663
_cell_length_b   8.51267611
_cell_length_c   8.51895594
_cell_angle_alpha   124.23648932
_cell_angle_beta   124.23648485
_cell_angle_gamma   82.75860031
_symmetry_Int_Tables_number   1
_chemical_formula_structural   Lu10Zn3Bi2Au
_chemical_formula_sum   'Lu10 Zn3 Bi2 Au1'
_cell_volume   405.21079105
_cell_formula_units_Z   1
loop_
 _symmetry_equiv_pos_site_id
 _symmetry_equiv_pos_as_xyz
  1  'x, y, z'
loop_
 _atom_site_type_symbol
 _atom_site_label
 _atom_site_symmetry_multiplicity
 _atom_site_fract_x
 _atom_site_fract_y
 _atom_site_fract_z
 _atom_site_occupancy
  Lu  Lu0  1  0.999973  0.999631  0.999604  1
  Lu  Lu1  1  0.500369  0.500027  0.000396  1
  Lu  Lu2  1  0.793240  0.295754  0.803615  1
  Lu  Lu3  1  0.204246  0.706760  0.196385  1
  Lu  Lu4  1  0.489626  0.992140  0.196385  1
  Lu  Lu5  1  0.295258  0.486478  0.500000  1
  Lu  Lu6  1  0.013522  0.204742  0.500000  1
  Lu  Lu7  1  0.507860  0.010374  0.803615  1
  Lu  Lu8  1  0.706757  0.511297  0.500000  1
  Lu  Lu9  1  0.988703  0.793243  0.500000  1
  Zn  Zn10  1  0.138444  0.639644  0.778088  1
  Zn  Zn11  1  0.860356  0.361556  0.221912  1
  Zn  Zn12  1  0.639143  0.860857  0.500000  1
  Bi  Bi13  1  0.248337  0.251663  0.000000  1
  Bi  Bi14  1  0.748337  0.751663  0.000000  1
  Au  Au15  1  0.365827  0.134173  0.500000  1
