# generated using pymatgen
data_TbDy3Al2FeOs5
_symmetry_space_group_name_H-M   'P 1'
_cell_length_a   5.32378473
_cell_length_b   5.35847826
_cell_length_c   9.27289102
_cell_angle_alpha   73.20595339
_cell_angle_beta   90.81103937
_cell_angle_gamma   120.21581245
_symmetry_Int_Tables_number   1
_chemical_formula_structural   TbDy3Al2FeOs5
_chemical_formula_sum   'Tb1 Dy3 Al2 Fe1 Os5'
_cell_volume   216.06965792
_cell_formula_units_Z   1
loop_
 _symmetry_equiv_pos_site_id
 _symmetry_equiv_pos_as_xyz
  1  'x, y, z'
loop_
 _atom_site_type_symbol
 _atom_site_label
 _atom_site_symmetry_multiplicity
 _atom_site_fract_x
 _atom_site_fract_y
 _atom_site_fract_z
 _atom_site_occupancy
  Tb  Tb0  1  0.880435  0.750476  0.379482  1
  Dy  Dy1  1  0.382062  0.757714  0.866634  1
  Dy  Dy2  1  0.989785  0.995228  0.999330  1
  Dy  Dy3  1  0.500581  0.998464  0.503653  1
  Al  Al4  1  0.673742  0.370977  0.931788  1
  Al  Al5  1  0.941333  0.373863  0.193607  1
  Fe  Fe6  1  0.432070  0.373874  0.684323  1
  Os  Os7  1  0.440126  0.371135  0.185871  1
  Os  Os8  1  0.936595  0.379354  0.688626  1
  Os  Os9  1  0.440126  0.883120  0.185871  1
  Os  Os10  1  0.936595  0.868613  0.688626  1
  Os  Os11  1  0.196550  0.377181  0.442188  1
