# generated using pymatgen
data_Ca7Dy(Si3Pd)4
_symmetry_space_group_name_H-M   'P 1'
_cell_length_a   8.23944800
_cell_length_b   8.23944812
_cell_length_c   8.37520700
_cell_angle_alpha   90.00000000
_cell_angle_beta   90.00000000
_cell_angle_gamma   119.99999148
_symmetry_Int_Tables_number   1
_chemical_formula_structural   Ca7Dy(Si3Pd)4
_chemical_formula_sum   'Ca7 Dy1 Si12 Pd4'
_cell_volume   492.40500616
_cell_formula_units_Z   1
loop_
 _symmetry_equiv_pos_site_id
 _symmetry_equiv_pos_as_xyz
  1  'x, y, z'
loop_
 _atom_site_type_symbol
 _atom_site_label
 _atom_site_symmetry_multiplicity
 _atom_site_fract_x
 _atom_site_fract_y
 _atom_site_fract_z
 _atom_site_occupancy
  Ca  Ca0  1  0.502663  0.005327  0.250000  1
  Ca  Ca1  1  0.497033  0.994066  0.750000  1
  Ca  Ca2  1  0.994673  0.497337  0.250000  1
  Ca  Ca3  1  0.005934  0.502967  0.750000  1
  Ca  Ca4  1  0.502663  0.497337  0.250000  1
  Ca  Ca5  1  0.497033  0.502967  0.750000  1
  Ca  Ca6  1  0.000000  0.000000  0.250000  1
  Dy  Dy7  1  0.000000  0.000000  0.750000  1
  Si  Si8  1  0.164585  0.329171  0.998213  1
  Si  Si9  1  0.835453  0.670906  0.993274  1
  Si  Si10  1  0.670829  0.835415  0.998213  1
  Si  Si11  1  0.835453  0.670906  0.506726  1
  Si  Si12  1  0.329094  0.164547  0.993274  1
  Si  Si13  1  0.164585  0.329171  0.501787  1
  Si  Si14  1  0.164585  0.835415  0.998213  1
  Si  Si15  1  0.329094  0.164547  0.506726  1
  Si  Si16  1  0.835453  0.164547  0.993274  1
  Si  Si17  1  0.670829  0.835415  0.501787  1
  Si  Si18  1  0.835453  0.164547  0.506726  1
  Si  Si19  1  0.164585  0.835415  0.501787  1
  Pd  Pd20  1  0.333333  0.666667  0.006599  1
  Pd  Pd21  1  0.666667  0.333333  0.993644  1
  Pd  Pd22  1  0.666667  0.333333  0.506356  1
  Pd  Pd23  1  0.333333  0.666667  0.493401  1
