# generated using pymatgen
data_Sr8IrRuO12
_symmetry_space_group_name_H-M   'P 1'
_cell_length_a   6.95083767
_cell_length_b   6.95083924
_cell_length_c   6.95083721
_cell_angle_alpha   90.19359483
_cell_angle_beta   90.19360183
_cell_angle_gamma   90.19360188
_symmetry_Int_Tables_number   1
_chemical_formula_structural   Sr8IrRuO12
_chemical_formula_sum   'Sr8 Ir1 Ru1 O12'
_cell_volume   335.81806383
_cell_formula_units_Z   1
loop_
 _symmetry_equiv_pos_site_id
 _symmetry_equiv_pos_as_xyz
  1  'x, y, z'
loop_
 _atom_site_type_symbol
 _atom_site_label
 _atom_site_symmetry_multiplicity
 _atom_site_fract_x
 _atom_site_fract_y
 _atom_site_fract_z
 _atom_site_occupancy
  Sr  Sr0  1  0.880927  0.615685  0.254733  1
  Sr  Sr1  1  0.119073  0.384315  0.745267  1
  Sr  Sr2  1  0.254733  0.880927  0.615685  1
  Sr  Sr3  1  0.615685  0.254733  0.880927  1
  Sr  Sr4  1  0.747982  0.747982  0.747982  1
  Sr  Sr5  1  0.384315  0.745267  0.119073  1
  Sr  Sr6  1  0.252018  0.252018  0.252018  1
  Sr  Sr7  1  0.745267  0.119073  0.384315  1
  Ir  Ir8  1  0.500000  0.500000  0.500000  1
  Ru  Ru9  1  0.000000  0.000000  0.000000  1
  O  O10  1  0.439011  0.577101  0.786871  1
  O  O11  1  0.577101  0.786871  0.439011  1
  O  O12  1  0.945626  0.280585  0.068968  1
  O  O13  1  0.560989  0.422899  0.213129  1
  O  O14  1  0.213129  0.560989  0.422899  1
  O  O15  1  0.054374  0.719415  0.931032  1
  O  O16  1  0.786871  0.439011  0.577101  1
  O  O17  1  0.719415  0.931032  0.054374  1
  O  O18  1  0.068968  0.945626  0.280585  1
  O  O19  1  0.931032  0.054374  0.719415  1
  O  O20  1  0.422899  0.213129  0.560989  1
  O  O21  1  0.280585  0.068968  0.945626  1
