# generated using pymatgen
data_Sr3Eu(WO4)4
_symmetry_space_group_name_H-M   'P 1'
_cell_length_a   5.14897531
_cell_length_b   5.61760637
_cell_length_c   14.12075485
_cell_angle_alpha   67.68355721
_cell_angle_beta   90.08341035
_cell_angle_gamma   90.22793790
_symmetry_Int_Tables_number   1
_chemical_formula_structural   Sr3Eu(WO4)4
_chemical_formula_sum   'Sr3 Eu1 W4 O16'
_cell_volume   377.84670486
_cell_formula_units_Z   1
loop_
 _symmetry_equiv_pos_site_id
 _symmetry_equiv_pos_as_xyz
  1  'x, y, z'
loop_
 _atom_site_type_symbol
 _atom_site_label
 _atom_site_symmetry_multiplicity
 _atom_site_fract_x
 _atom_site_fract_y
 _atom_site_fract_z
 _atom_site_occupancy
  Sr  Sr0  1  0.734180  0.156286  0.342628  1
  Sr  Sr1  1  0.236627  0.845608  0.156525  1
  Sr  Sr2  1  0.265649  0.842914  0.657347  1
  Eu  Eu3  1  0.762871  0.157242  0.841731  1
  W  W4  1  0.248965  0.580997  0.424744  1
  W  W5  1  0.749684  0.421148  0.074596  1
  W  W6  1  0.750155  0.416230  0.577739  1
  W  W7  1  0.251086  0.581654  0.922816  1
  O  O8  1  0.553260  0.732972  0.463347  1
  O  O9  1  0.055329  0.269453  0.038138  1
  O  O10  1  0.445792  0.264884  0.539383  1
  O  O11  1  0.945228  0.739265  0.958409  1
  O  O12  1  0.942624  0.358560  0.454082  1
  O  O13  1  0.443211  0.640179  0.045647  1
  O  O14  1  0.055884  0.638312  0.548391  1
  O  O15  1  0.558391  0.358975  0.950805  1
  O  O16  1  0.122036  0.886494  0.332448  1
  O  O17  1  0.622286  0.115489  0.167420  1
  O  O18  1  0.878279  0.110899  0.671070  1
  O  O19  1  0.385836  0.887087  0.830654  1
  O  O20  1  0.379680  0.478224  0.325530  1
  O  O21  1  0.879348  0.526459  0.173575  1
  O  O22  1  0.618821  0.516777  0.678143  1
  O  O23  1  0.114782  0.473891  0.824832  1
