# generated using pymatgen
data_KRb2GaTe3
_symmetry_space_group_name_H-M   'P 1'
_cell_length_a   14.26505700
_cell_length_b   8.89854706
_cell_length_c   11.65480518
_cell_angle_alpha   52.74465365
_cell_angle_beta   90.00000000
_cell_angle_gamma   90.00000000
_symmetry_Int_Tables_number   1
_chemical_formula_structural   KRb2GaTe3
_chemical_formula_sum   'K4 Rb8 Ga4 Te12'
_cell_volume   1177.55438130
_cell_formula_units_Z   4
loop_
 _symmetry_equiv_pos_site_id
 _symmetry_equiv_pos_as_xyz
  1  'x, y, z'
loop_
 _atom_site_type_symbol
 _atom_site_label
 _atom_site_symmetry_multiplicity
 _atom_site_fract_x
 _atom_site_fract_y
 _atom_site_fract_z
 _atom_site_occupancy
  K  K0  1  0.614111  0.361756  0.476340  1
  K  K1  1  0.114111  0.638244  0.023660  1
  K  K2  1  0.385889  0.638244  0.523660  1
  K  K3  1  0.885889  0.361756  0.976340  1
  Rb  Rb4  1  0.906516  0.337397  0.397753  1
  Rb  Rb5  1  0.406516  0.662603  0.102247  1
  Rb  Rb6  1  0.093484  0.662603  0.602247  1
  Rb  Rb7  1  0.593484  0.337397  0.897753  1
  Rb  Rb8  1  0.189818  0.124387  0.590075  1
  Rb  Rb9  1  0.689818  0.875613  0.909925  1
  Rb  Rb10  1  0.810182  0.875613  0.409925  1
  Rb  Rb11  1  0.310182  0.124387  0.090075  1
  Ga  Ga12  1  0.936569  0.064774  0.837253  1
  Ga  Ga13  1  0.436569  0.935226  0.662747  1
  Ga  Ga14  1  0.063431  0.935226  0.162747  1
  Ga  Ga15  1  0.563431  0.064774  0.337253  1
  Te  Te16  1  0.392766  0.158064  0.375262  1
  Te  Te17  1  0.892766  0.841936  0.124738  1
  Te  Te18  1  0.607234  0.841936  0.624738  1
  Te  Te19  1  0.107234  0.158064  0.875262  1
  Te  Te20  1  0.683069  0.350888  0.190745  1
  Te  Te21  1  0.183069  0.649112  0.309255  1
  Te  Te22  1  0.316931  0.649112  0.809255  1
  Te  Te23  1  0.816931  0.350888  0.690745  1
  Te  Te24  1  0.555127  0.863220  0.240417  1
  Te  Te25  1  0.055127  0.136780  0.259583  1
  Te  Te26  1  0.444873  0.136780  0.759583  1
  Te  Te27  1  0.944873  0.863220  0.740417  1
