# generated using pymatgen
data_Ho2Si14Ir5Os
_symmetry_space_group_name_H-M   'P 1'
_cell_length_a   8.02221393
_cell_length_b   8.02221421
_cell_length_c   8.04442048
_cell_angle_alpha   56.72122619
_cell_angle_beta   56.72122206
_cell_angle_gamma   56.78330554
_symmetry_Int_Tables_number   1
_chemical_formula_structural   Ho2Si14Ir5Os
_chemical_formula_sum   'Ho2 Si14 Ir5 Os1'
_cell_volume   338.53757109
_cell_formula_units_Z   1
loop_
 _symmetry_equiv_pos_site_id
 _symmetry_equiv_pos_as_xyz
  1  'x, y, z'
loop_
 _atom_site_type_symbol
 _atom_site_label
 _atom_site_symmetry_multiplicity
 _atom_site_fract_x
 _atom_site_fract_y
 _atom_site_fract_z
 _atom_site_occupancy
  Ho  Ho0  1  0.000845  0.002798  0.997353  1
  Ho  Ho1  1  0.497202  0.499155  0.502647  1
  Si  Si2  1  0.752637  0.747363  0.750000  1
  Si  Si3  1  0.249335  0.250665  0.250000  1
  Si  Si4  1  0.850484  0.064748  0.672345  1
  Si  Si5  1  0.672160  0.851591  0.064242  1
  Si  Si6  1  0.065108  0.669959  0.850832  1
  Si  Si7  1  0.648409  0.827840  0.435758  1
  Si  Si8  1  0.435252  0.649516  0.827655  1
  Si  Si9  1  0.830041  0.434892  0.649168  1
  Si  Si10  1  0.170810  0.564591  0.354369  1
  Si  Si11  1  0.564752  0.351330  0.171956  1
  Si  Si12  1  0.350263  0.173254  0.564657  1
  Si  Si13  1  0.935409  0.329190  0.145631  1
  Si  Si14  1  0.326746  0.149737  0.935343  1
  Si  Si15  1  0.148670  0.935248  0.328044  1
  Ir  Ir16  1  0.250378  0.928054  0.571128  1
  Ir  Ir17  1  0.571946  0.249622  0.928872  1
  Ir  Ir18  1  0.927327  0.572673  0.250000  1
  Ir  Ir19  1  0.428271  0.750379  0.071540  1
  Ir  Ir20  1  0.749621  0.071729  0.428460  1
  Os  Os21  1  0.074335  0.425665  0.750000  1
