# generated using pymatgen
data_Ga8Au11
_symmetry_space_group_name_H-M   'P 1'
_cell_length_a   7.87878092
_cell_length_b   7.87878131
_cell_length_c   12.30058500
_cell_angle_alpha   97.05715305
_cell_angle_beta   97.05715340
_cell_angle_gamma   90.53653562
_symmetry_Int_Tables_number   1
_chemical_formula_structural   Ga8Au11
_chemical_formula_sum   'Ga16 Au22'
_cell_volume   751.80373366
_cell_formula_units_Z   2
loop_
 _symmetry_equiv_pos_site_id
 _symmetry_equiv_pos_as_xyz
  1  'x, y, z'
loop_
 _atom_site_type_symbol
 _atom_site_label
 _atom_site_symmetry_multiplicity
 _atom_site_fract_x
 _atom_site_fract_y
 _atom_site_fract_z
 _atom_site_occupancy
  Ga  Ga0  1  0.247616  0.873586  0.986948  1
  Ga  Ga1  1  0.256302  0.388037  0.007437  1
  Ga  Ga2  1  0.058804  0.436020  0.244324  1
  Ga  Ga3  1  0.557929  0.442072  0.250000  1
  Ga  Ga4  1  0.066996  0.933004  0.250000  1
  Ga  Ga5  1  0.563980  0.941197  0.255675  1
  Ga  Ga6  1  0.611963  0.743699  0.492563  1
  Ga  Ga7  1  0.126414  0.752384  0.513053  1
  Ga  Ga8  1  0.873585  0.247615  0.486947  1
  Ga  Ga9  1  0.388037  0.256301  0.507437  1
  Ga  Ga10  1  0.436020  0.058803  0.744325  1
  Ga  Ga11  1  0.933004  0.066996  0.750000  1
  Ga  Ga12  1  0.442071  0.557929  0.750000  1
  Ga  Ga13  1  0.941197  0.563980  0.755676  1
  Ga  Ga14  1  0.743699  0.611963  0.992563  1
  Ga  Ga15  1  0.752385  0.126414  0.013053  1
  Au  Au16  1  0.089321  0.653159  0.096995  1
  Au  Au17  1  0.458902  0.143538  0.087681  1
  Au  Au18  1  0.076119  0.143073  0.089589  1
  Au  Au19  1  0.453530  0.660630  0.101809  1
  Au  Au20  1  0.795818  0.685315  0.208252  1
  Au  Au21  1  0.801386  0.198615  0.250000  1
  Au  Au22  1  0.314685  0.204181  0.291748  1
  Au  Au23  1  0.339370  0.546470  0.398191  1
  Au  Au24  1  0.856927  0.923882  0.410412  1
  Au  Au25  1  0.856463  0.541098  0.412319  1
  Au  Au26  1  0.346840  0.910678  0.403005  1
  Au  Au27  1  0.653159  0.089321  0.596995  1
  Au  Au28  1  0.143538  0.458902  0.587681  1
  Au  Au29  1  0.143073  0.076119  0.589588  1
  Au  Au30  1  0.660630  0.453529  0.601809  1
  Au  Au31  1  0.685315  0.795819  0.708251  1
  Au  Au32  1  0.198614  0.801386  0.750000  1
  Au  Au33  1  0.204181  0.314684  0.791749  1
  Au  Au34  1  0.546471  0.339370  0.898191  1
  Au  Au35  1  0.923881  0.856927  0.910412  1
  Au  Au36  1  0.541098  0.856462  0.912319  1
  Au  Au37  1  0.910679  0.346841  0.903004  1
