# generated using pymatgen
data_Tb2Sc3GaSi3
_symmetry_space_group_name_H-M   'P 1'
_cell_length_a   7.15781504
_cell_length_b   7.43052505
_cell_length_c   14.18803120
_cell_angle_alpha   89.99638368
_cell_angle_beta   89.83764999
_cell_angle_gamma   90.13334786
_symmetry_Int_Tables_number   1
_chemical_formula_structural   Tb2Sc3GaSi3
_chemical_formula_sum   'Tb8 Sc12 Ga4 Si12'
_cell_volume   754.60414884
_cell_formula_units_Z   4
loop_
 _symmetry_equiv_pos_site_id
 _symmetry_equiv_pos_as_xyz
  1  'x, y, z'
loop_
 _atom_site_type_symbol
 _atom_site_label
 _atom_site_symmetry_multiplicity
 _atom_site_fract_x
 _atom_site_fract_y
 _atom_site_fract_z
 _atom_site_occupancy
  Tb  Tb0  1  0.013844  0.174094  0.097403  1
  Tb  Tb1  1  0.987743  0.825504  0.901522  1
  Tb  Tb2  1  0.486712  0.676271  0.901245  1
  Tb  Tb3  1  0.987376  0.828205  0.600404  1
  Tb  Tb4  1  0.511111  0.322062  0.097614  1
  Tb  Tb5  1  0.010074  0.173976  0.400443  1
  Tb  Tb6  1  0.511443  0.325123  0.400339  1
  Tb  Tb7  1  0.489917  0.675336  0.600781  1
  Sc  Sc8  1  0.162461  0.500507  0.751461  1
  Sc  Sc9  1  0.836726  0.498642  0.250113  1
  Sc  Sc10  1  0.336334  0.001527  0.248339  1
  Sc  Sc11  1  0.663095  0.999039  0.749974  1
  Sc  Sc12  1  0.333210  0.174939  0.627637  1
  Sc  Sc13  1  0.669558  0.826087  0.373841  1
  Sc  Sc14  1  0.170360  0.674231  0.373066  1
  Sc  Sc15  1  0.668856  0.825932  0.125387  1
  Sc  Sc16  1  0.828617  0.324196  0.626691  1
  Sc  Sc17  1  0.330285  0.175741  0.874716  1
  Sc  Sc18  1  0.829050  0.323049  0.874247  1
  Sc  Sc19  1  0.173416  0.675615  0.124448  1
  Ga  Ga20  1  0.160608  0.461025  0.539894  1
  Ga  Ga21  1  0.840362  0.538382  0.461216  1
  Ga  Ga22  1  0.340636  0.961450  0.461374  1
  Ga  Ga23  1  0.840878  0.538415  0.038782  1
  Si  Si24  1  0.033446  0.118100  0.751158  1
  Si  Si25  1  0.966728  0.882087  0.249253  1
  Si  Si26  1  0.467107  0.616454  0.248509  1
  Si  Si27  1  0.533327  0.383454  0.751135  1
  Si  Si28  1  0.286019  0.873695  0.750997  1
  Si  Si29  1  0.714750  0.126069  0.248717  1
  Si  Si30  1  0.213901  0.373853  0.248886  1
  Si  Si31  1  0.786893  0.626843  0.751395  1
  Si  Si32  1  0.657123  0.036731  0.539372  1
  Si  Si33  1  0.157068  0.463297  0.960629  1
  Si  Si34  1  0.655599  0.036172  0.961106  1
  Si  Si35  1  0.345368  0.963897  0.037904  1
