# generated using pymatgen
data_Dy2Ho3W2C7
_symmetry_space_group_name_H-M   'P 1'
_cell_length_a   8.41729827
_cell_length_b   8.41602056
_cell_length_c   3.41414500
_cell_angle_alpha   90.00000000
_cell_angle_beta   90.00000000
_cell_angle_gamma   122.66804821
_symmetry_Int_Tables_number   1
_chemical_formula_structural   Dy2Ho3W2C7
_chemical_formula_sum   'Dy2 Ho3 W2 C7'
_cell_volume   203.59942123
_cell_formula_units_Z   1
loop_
 _symmetry_equiv_pos_site_id
 _symmetry_equiv_pos_as_xyz
  1  'x, y, z'
loop_
 _atom_site_type_symbol
 _atom_site_label
 _atom_site_symmetry_multiplicity
 _atom_site_fract_x
 _atom_site_fract_y
 _atom_site_fract_z
 _atom_site_occupancy
  Dy  Dy0  1  0.073853  0.330967  0.500000  1
  Dy  Dy1  1  0.926147  0.669033  0.500000  1
  Ho  Ho2  1  0.500000  0.500000  0.000000  1
  Ho  Ho3  1  0.667633  0.925535  0.500000  1
  Ho  Ho4  1  0.332367  0.074465  0.500000  1
  W  W5  1  0.712660  0.287058  0.000000  1
  W  W6  1  0.287340  0.712942  0.000000  1
  C  C7  1  0.624525  0.374756  0.500000  1
  C  C8  1  0.375475  0.625244  0.500000  1
  C  C9  1  0.000000  0.000000  0.000000  1
  C  C10  1  0.168515  0.167194  0.000000  1
  C  C11  1  0.831485  0.832806  0.000000  1
  C  C12  1  0.000000  0.500000  0.000000  1
  C  C13  1  0.500000  0.000000  0.000000  1
