# generated using pymatgen
data_Sr(S8Cl)3
_symmetry_space_group_name_H-M   'P 1'
_cell_length_a   4.53529874
_cell_length_b   14.62542899
_cell_length_c   15.01865220
_cell_angle_alpha   119.97829255
_cell_angle_beta   94.73652065
_cell_angle_gamma   96.53837728
_symmetry_Int_Tables_number   1
_chemical_formula_structural   Sr(S8Cl)3
_chemical_formula_sum   'Sr1 S24 Cl3'
_cell_volume   845.97477730
_cell_formula_units_Z   1
loop_
 _symmetry_equiv_pos_site_id
 _symmetry_equiv_pos_as_xyz
  1  'x, y, z'
loop_
 _atom_site_type_symbol
 _atom_site_label
 _atom_site_symmetry_multiplicity
 _atom_site_fract_x
 _atom_site_fract_y
 _atom_site_fract_z
 _atom_site_occupancy
  Sr  Sr0  1  0.566122  0.999917  0.028192  1
  S  S1  1  0.363863  0.398730  0.995650  1
  S  S2  1  0.571801  0.735175  0.003885  1
  S  S3  1  0.258302  0.521982  0.128999  1
  S  S4  1  0.397310  0.757002  0.134986  1
  S  S5  1  0.568651  0.660141  0.181424  1
  S  S6  1  0.644245  0.376641  0.247876  1
  S  S7  1  0.835751  0.265184  0.268378  1
  S  S8  1  0.906459  0.526445  0.342650  1
  S  S9  1  0.125259  0.865787  0.390205  1
  S  S10  1  0.639543  0.242910  0.377498  1
  S  S11  1  0.368090  0.000174  0.402384  1
  S  S12  1  0.375386  0.810318  0.467905  1
  S  S13  1  0.729568  0.609090  0.477908  1
  S  S14  1  0.258185  0.133988  0.524350  1
  S  S15  1  0.908179  0.339619  0.520757  1
  S  S16  1  0.964338  0.601010  0.596408  1
  S  S17  1  0.263695  0.865076  0.614548  1
  S  S18  1  0.735687  0.477420  0.606434  1
  S  S19  1  0.564053  0.190201  0.657693  1
  S  S20  1  0.567350  0.000140  0.722661  1
  S  S21  1  0.399080  0.135181  0.749679  1
  S  S22  1  0.381514  0.473918  0.816805  1
  S  S23  1  0.269358  0.623595  0.871687  1
  S  S24  1  0.121668  0.390637  0.868963  1
  Cl  Cl25  1  0.090656  0.113944  0.983156  1
  Cl  Cl26  1  0.102793  0.000195  0.149647  1
  Cl  Cl27  1  0.976008  0.885582  0.869275  1
