# generated using pymatgen
data_TiNb(As2Pd)2
_symmetry_space_group_name_H-M   'P 1'
_cell_length_a   5.84223500
_cell_length_b   3.56992800
_cell_length_c   12.95706600
_cell_angle_alpha   90.00000000
_cell_angle_beta   90.00000000
_cell_angle_gamma   90.00000000
_symmetry_Int_Tables_number   1
_chemical_formula_structural   TiNb(As2Pd)2
_chemical_formula_sum   'Ti2 Nb2 As8 Pd4'
_cell_volume   270.23721113
_cell_formula_units_Z   2
loop_
 _symmetry_equiv_pos_site_id
 _symmetry_equiv_pos_as_xyz
  1  'x, y, z'
loop_
 _atom_site_type_symbol
 _atom_site_label
 _atom_site_symmetry_multiplicity
 _atom_site_fract_x
 _atom_site_fract_y
 _atom_site_fract_z
 _atom_site_occupancy
  Ti  Ti0  1  0.979433  0.750001  0.169753  1
  Ti  Ti1  1  0.479432  0.750001  0.330247  1
  Nb  Nb2  1  0.514238  0.249999  0.670069  1
  Nb  Nb3  1  0.014238  0.249999  0.829932  1
  As  As4  1  0.172841  0.249999  0.038796  1
  As  As5  1  0.666784  0.249999  0.208292  1
  As  As6  1  0.166784  0.249999  0.291708  1
  As  As7  1  0.672841  0.249999  0.461204  1
  As  As8  1  0.328883  0.750001  0.533226  1
  As  As9  1  0.839470  0.750001  0.701342  1
  As  As10  1  0.339470  0.750001  0.798659  1
  As  As11  1  0.828883  0.750001  0.966774  1
  Pd  Pd12  1  0.475375  0.750001  0.093155  1
  Pd  Pd13  1  0.975375  0.750001  0.406845  1
  Pd  Pd14  1  0.022978  0.249999  0.590645  1
  Pd  Pd15  1  0.522978  0.249999  0.909356  1
