# generated using pymatgen
data_Ti10Sn6Sb
_symmetry_space_group_name_H-M   'P 1'
_cell_length_a   8.23673200
_cell_length_b   8.23673186
_cell_length_c   5.60050500
_cell_angle_alpha   90.00000000
_cell_angle_beta   90.00000000
_cell_angle_gamma   120.00000054
_symmetry_Int_Tables_number   1
_chemical_formula_structural   Ti10Sn6Sb
_chemical_formula_sum   'Ti10 Sn6 Sb1'
_cell_volume   329.05438490
_cell_formula_units_Z   1
loop_
 _symmetry_equiv_pos_site_id
 _symmetry_equiv_pos_as_xyz
  1  'x, y, z'
loop_
 _atom_site_type_symbol
 _atom_site_label
 _atom_site_symmetry_multiplicity
 _atom_site_fract_x
 _atom_site_fract_y
 _atom_site_fract_z
 _atom_site_occupancy
  Ti  Ti0  1  0.666667  0.333333  0.500000  1
  Ti  Ti1  1  0.333333  0.666667  0.500000  1
  Ti  Ti2  1  0.333333  0.666667  0.000000  1
  Ti  Ti3  1  0.666667  0.333333  0.000000  1
  Ti  Ti4  1  0.731271  0.731271  0.230849  1
  Ti  Ti5  1  0.268729  0.000000  0.230849  1
  Ti  Ti6  1  0.000000  0.268729  0.230849  1
  Ti  Ti7  1  0.268729  0.268729  0.769151  1
  Ti  Ti8  1  0.731271  0.000000  0.769151  1
  Ti  Ti9  1  0.000000  0.731271  0.769151  1
  Sn  Sn10  1  0.388211  0.388211  0.254243  1
  Sn  Sn11  1  0.611789  0.000000  0.254243  1
  Sn  Sn12  1  0.000000  0.611789  0.254243  1
  Sn  Sn13  1  0.611789  0.611789  0.745757  1
  Sn  Sn14  1  0.388211  0.000000  0.745757  1
  Sn  Sn15  1  0.000000  0.388211  0.745757  1
  Sb  Sb16  1  0.000000  0.000000  0.500000  1
