# generated using pymatgen
data_RbTm3Te5
_symmetry_space_group_name_H-M   'P 1'
_cell_length_a   4.35947900
_cell_length_b   13.12906300
_cell_length_c   23.48963600
_cell_angle_alpha   90.00000000
_cell_angle_beta   90.00000000
_cell_angle_gamma   90.00000000
_symmetry_Int_Tables_number   1
_chemical_formula_structural   RbTm3Te5
_chemical_formula_sum   'Rb4 Tm12 Te20'
_cell_volume   1344.44985669
_cell_formula_units_Z   4
loop_
 _symmetry_equiv_pos_site_id
 _symmetry_equiv_pos_as_xyz
  1  'x, y, z'
loop_
 _atom_site_type_symbol
 _atom_site_label
 _atom_site_symmetry_multiplicity
 _atom_site_fract_x
 _atom_site_fract_y
 _atom_site_fract_z
 _atom_site_occupancy
  Rb  Rb0  1  0.250000  0.353330  0.089765  1
  Rb  Rb1  1  0.750000  0.646670  0.910235  1
  Rb  Rb2  1  0.750000  0.853330  0.410235  1
  Rb  Rb3  1  0.250000  0.146670  0.589765  1
  Tm  Tm4  1  0.250000  0.452998  0.697774  1
  Tm  Tm5  1  0.750000  0.547002  0.302226  1
  Tm  Tm6  1  0.750000  0.952998  0.802226  1
  Tm  Tm7  1  0.250000  0.047002  0.197774  1
  Tm  Tm8  1  0.250000  0.797640  0.674731  1
  Tm  Tm9  1  0.750000  0.202360  0.325269  1
  Tm  Tm10  1  0.750000  0.297640  0.825269  1
  Tm  Tm11  1  0.250000  0.702360  0.174731  1
  Tm  Tm12  1  0.250000  0.391836  0.444469  1
  Tm  Tm13  1  0.750000  0.608164  0.555531  1
  Tm  Tm14  1  0.750000  0.891836  0.055531  1
  Tm  Tm15  1  0.250000  0.108164  0.944469  1
  Te  Te16  1  0.250000  0.443369  0.568964  1
  Te  Te17  1  0.750000  0.556631  0.431036  1
  Te  Te18  1  0.750000  0.943369  0.931036  1
  Te  Te19  1  0.250000  0.056631  0.068964  1
  Te  Te20  1  0.250000  0.769940  0.546016  1
  Te  Te21  1  0.750000  0.230060  0.453984  1
  Te  Te22  1  0.750000  0.269940  0.953984  1
  Te  Te23  1  0.250000  0.730060  0.046016  1
  Te  Te24  1  0.250000  0.797277  0.803497  1
  Te  Te25  1  0.750000  0.202723  0.196503  1
  Te  Te26  1  0.750000  0.297277  0.696503  1
  Te  Te27  1  0.250000  0.702723  0.303497  1
  Te  Te28  1  0.250000  0.455706  0.826817  1
  Te  Te29  1  0.750000  0.544294  0.173183  1
  Te  Te30  1  0.750000  0.955706  0.673183  1
  Te  Te31  1  0.250000  0.044294  0.326817  1
  Te  Te32  1  0.250000  0.374983  0.313532  1
  Te  Te33  1  0.750000  0.625017  0.686468  1
  Te  Te34  1  0.750000  0.874983  0.186468  1
  Te  Te35  1  0.250000  0.125017  0.813532  1
