# generated using pymatgen
data_Y6Er2Cd2IrRu
_symmetry_space_group_name_H-M   'P 1'
_cell_length_a   9.63772696
_cell_length_b   9.63772686
_cell_length_c   9.70539300
_cell_angle_alpha   59.76747874
_cell_angle_beta   59.76747910
_cell_angle_gamma   59.56814424
_symmetry_Int_Tables_number   1
_chemical_formula_structural   Y6Er2Cd2IrRu
_chemical_formula_sum   'Y12 Er4 Cd4 Ir2 Ru2'
_cell_volume   633.11776893
_cell_formula_units_Z   2
loop_
 _symmetry_equiv_pos_site_id
 _symmetry_equiv_pos_as_xyz
  1  'x, y, z'
loop_
 _atom_site_type_symbol
 _atom_site_label
 _atom_site_symmetry_multiplicity
 _atom_site_fract_x
 _atom_site_fract_y
 _atom_site_fract_z
 _atom_site_occupancy
  Y  Y0  1  0.811108  0.188516  0.191223  1
  Y  Y1  1  0.188516  0.811108  0.809153  1
  Y  Y2  1  0.188516  0.811108  0.191223  1
  Y  Y3  1  0.811108  0.188516  0.809153  1
  Y  Y4  1  0.188816  0.188816  0.811184  1
  Y  Y5  1  0.808502  0.808502  0.191498  1
  Y  Y6  1  0.938896  0.559129  0.562661  1
  Y  Y7  1  0.559129  0.938896  0.939313  1
  Y  Y8  1  0.559129  0.938896  0.562661  1
  Y  Y9  1  0.938896  0.559129  0.939313  1
  Y  Y10  1  0.560108  0.560108  0.939892  1
  Y  Y11  1  0.939138  0.939138  0.560862  1
  Er  Er12  1  0.347539  0.347539  0.347285  1
  Er  Er13  1  0.347539  0.347539  0.957638  1
  Er  Er14  1  0.346634  0.961709  0.345829  1
  Er  Er15  1  0.961709  0.346634  0.345829  1
  Cd  Cd16  1  0.580266  0.580266  0.580178  1
  Cd  Cd17  1  0.580266  0.580266  0.259290  1
  Cd  Cd18  1  0.580437  0.258424  0.580570  1
  Cd  Cd19  1  0.258424  0.580437  0.580570  1
  Ir  Ir20  1  0.145122  0.574657  0.140111  1
  Ir  Ir21  1  0.574657  0.145122  0.140111  1
  Ru  Ru22  1  0.142773  0.142773  0.138511  1
  Ru  Ru23  1  0.142773  0.142773  0.575943  1
