# generated using pymatgen
data_Tb17Ho2SnIr12
_symmetry_space_group_name_H-M   'P 1'
_cell_length_a   10.91148800
_cell_length_b   10.91148800
_cell_length_c   6.33283300
_cell_angle_alpha   90.00000000
_cell_angle_beta   90.00000000
_cell_angle_gamma   90.00000000
_symmetry_Int_Tables_number   1
_chemical_formula_structural   Tb17Ho2SnIr12
_chemical_formula_sum   'Tb17 Ho2 Sn1 Ir12'
_cell_volume   753.99070906
_cell_formula_units_Z   1
loop_
 _symmetry_equiv_pos_site_id
 _symmetry_equiv_pos_as_xyz
  1  'x, y, z'
loop_
 _atom_site_type_symbol
 _atom_site_label
 _atom_site_symmetry_multiplicity
 _atom_site_fract_x
 _atom_site_fract_y
 _atom_site_fract_z
 _atom_site_occupancy
  Tb  Tb0  1  0.285302  0.085666  0.378985  1
  Tb  Tb1  1  0.291082  0.911422  0.880669  1
  Tb  Tb2  1  0.708918  0.088578  0.880669  1
  Tb  Tb3  1  0.714698  0.914334  0.378985  1
  Tb  Tb4  1  0.588663  0.790517  0.880602  1
  Tb  Tb5  1  0.588761  0.208772  0.377422  1
  Tb  Tb6  1  0.411239  0.791228  0.377422  1
  Tb  Tb7  1  0.411337  0.209483  0.880602  1
  Tb  Tb8  1  0.208772  0.411239  0.622578  1
  Tb  Tb9  1  0.209483  0.588663  0.119398  1
  Tb  Tb10  1  0.790517  0.411337  0.119398  1
  Tb  Tb11  1  0.791228  0.588761  0.622578  1
  Tb  Tb12  1  0.911422  0.708918  0.119331  1
  Tb  Tb13  1  0.914334  0.285302  0.621015  1
  Tb  Tb14  1  0.085666  0.714698  0.621015  1
  Tb  Tb15  1  0.088578  0.291082  0.119331  1
  Tb  Tb16  1  0.000000  0.000000  0.000000  1
  Ho  Ho17  1  0.500000  0.500000  0.000000  1
  Ho  Ho18  1  0.500000  0.500000  0.500000  1
  Sn  Sn19  1  0.000000  0.000000  0.500000  1
  Ir  Ir20  1  0.847162  0.154579  0.249395  1
  Ir  Ir21  1  0.845421  0.847162  0.750605  1
  Ir  Ir22  1  0.154579  0.152838  0.750605  1
  Ir  Ir23  1  0.152838  0.845421  0.249395  1
  Ir  Ir24  1  0.653422  0.347819  0.747139  1
  Ir  Ir25  1  0.652181  0.653422  0.252861  1
  Ir  Ir26  1  0.347819  0.346578  0.252861  1
  Ir  Ir27  1  0.346578  0.652181  0.747139  1
  Ir  Ir28  1  0.500000  0.000000  0.122982  1
  Ir  Ir29  1  0.500000  0.000000  0.619715  1
  Ir  Ir30  1  0.000000  0.500000  0.877018  1
  Ir  Ir31  1  0.000000  0.500000  0.380285  1
