# generated using pymatgen
data_Sr6Li17Si6
_symmetry_space_group_name_H-M   'P 1'
_cell_length_a   9.55220600
_cell_length_b   9.55220555
_cell_length_c   9.55220600
_cell_angle_alpha   120.00000156
_cell_angle_beta   90.00000000
_cell_angle_gamma   120.00000156
_symmetry_Int_Tables_number   1
_chemical_formula_structural   Sr6Li17Si6
_chemical_formula_sum   'Sr6 Li17 Si6'
_cell_volume   616.30543891
_cell_formula_units_Z   1
loop_
 _symmetry_equiv_pos_site_id
 _symmetry_equiv_pos_as_xyz
  1  'x, y, z'
loop_
 _atom_site_type_symbol
 _atom_site_label
 _atom_site_symmetry_multiplicity
 _atom_site_fract_x
 _atom_site_fract_y
 _atom_site_fract_z
 _atom_site_occupancy
  Sr  Sr0  1  0.779353  0.000000  0.220646  1
  Sr  Sr1  1  0.220647  0.441294  0.220647  1
  Sr  Sr2  1  0.220647  0.000000  0.220647  1
  Sr  Sr3  1  0.779353  0.000000  0.779353  1
  Sr  Sr4  1  0.220646  0.000000  0.779353  1
  Sr  Sr5  1  0.779353  0.558707  0.779353  1
  Li  Li6  1  0.366694  0.733387  0.100082  1
  Li  Li7  1  0.829372  0.658743  0.170629  1
  Li  Li8  1  0.511886  0.341258  0.170629  1
  Li  Li9  1  0.829372  0.341258  0.170629  1
  Li  Li10  1  0.100082  0.733387  0.366694  1
  Li  Li11  1  0.633306  0.733387  0.366694  1
  Li  Li12  1  0.633306  0.266612  0.366694  1
  Li  Li13  1  0.829372  0.658743  0.488114  1
  Li  Li14  1  0.500000  0.000000  0.500000  1
  Li  Li15  1  0.170629  0.341258  0.511886  1
  Li  Li16  1  0.366694  0.733387  0.633306  1
  Li  Li17  1  0.366694  0.266612  0.633306  1
  Li  Li18  1  0.899918  0.266612  0.633306  1
  Li  Li19  1  0.170629  0.658743  0.829372  1
  Li  Li20  1  0.488114  0.658743  0.829372  1
  Li  Li21  1  0.170629  0.341258  0.829372  1
  Li  Li22  1  0.633306  0.266612  0.899918  1
  Si  Si23  1  0.500000  0.000000  0.000000  1
  Si  Si24  1  0.000000  0.500000  0.000000  1
  Si  Si25  1  0.500000  0.500000  0.000000  1
  Si  Si26  1  0.000000  0.000000  0.500000  1
  Si  Si27  1  0.000000  0.500000  0.500000  1
  Si  Si28  1  0.500000  0.500000  0.500000  1
