# generated using pymatgen
data_Tb11Nd5Cd4Co3Pd
_symmetry_space_group_name_H-M   'P 1'
_cell_length_a   9.68952431
_cell_length_b   9.67235583
_cell_length_c   9.67235498
_cell_angle_alpha   59.91042375
_cell_angle_beta   60.02130266
_cell_angle_gamma   60.02130441
_symmetry_Int_Tables_number   1
_chemical_formula_structural   Tb11Nd5Cd4Co3Pd
_chemical_formula_sum   'Tb11 Nd5 Cd4 Co3 Pd1'
_cell_volume   640.76187385
_cell_formula_units_Z   1
loop_
 _symmetry_equiv_pos_site_id
 _symmetry_equiv_pos_as_xyz
  1  'x, y, z'
loop_
 _atom_site_type_symbol
 _atom_site_label
 _atom_site_symmetry_multiplicity
 _atom_site_fract_x
 _atom_site_fract_y
 _atom_site_fract_z
 _atom_site_occupancy
  Tb  Tb0  1  0.337375  0.352582  0.352582  1
  Tb  Tb1  1  0.338174  0.354743  0.957297  1
  Tb  Tb2  1  0.338174  0.957297  0.354743  1
  Tb  Tb3  1  0.961811  0.347040  0.347040  1
  Tb  Tb4  1  0.824404  0.186757  0.186757  1
  Tb  Tb5  1  0.185888  0.812505  0.812505  1
  Tb  Tb6  1  0.187509  0.810880  0.187863  1
  Tb  Tb7  1  0.823958  0.185736  0.801113  1
  Tb  Tb8  1  0.187509  0.187863  0.810880  1
  Tb  Tb9  1  0.823958  0.801113  0.185736  1
  Tb  Tb10  1  0.939002  0.559741  0.559741  1
  Nd  Nd11  1  0.555498  0.942249  0.942249  1
  Nd  Nd12  1  0.560835  0.939601  0.560286  1
  Nd  Nd13  1  0.937429  0.559855  0.938450  1
  Nd  Nd14  1  0.560835  0.560286  0.939601  1
  Nd  Nd15  1  0.937429  0.938450  0.559855  1
  Cd  Cd16  1  0.581897  0.578319  0.578319  1
  Cd  Cd17  1  0.579477  0.579062  0.261667  1
  Cd  Cd18  1  0.579477  0.261667  0.579062  1
  Cd  Cd19  1  0.257338  0.580208  0.580208  1
  Co  Co20  1  0.142684  0.141836  0.141836  1
  Co  Co21  1  0.141823  0.145260  0.575446  1
  Co  Co22  1  0.141823  0.575446  0.145260  1
  Pd  Pd23  1  0.575693  0.141503  0.141503  1
