# generated using pymatgen
data_Zr10Zn2InPb5
_symmetry_space_group_name_H-M   'P 1'
_cell_length_a   8.82730600
_cell_length_b   8.83167438
_cell_length_c   5.95666600
_cell_angle_alpha   90.00000000
_cell_angle_beta   90.00000000
_cell_angle_gamma   119.98363923
_symmetry_Int_Tables_number   1
_chemical_formula_structural   Zr10Zn2InPb5
_chemical_formula_sum   'Zr10 Zn2 In1 Pb5'
_cell_volume   402.23206277
_cell_formula_units_Z   1
loop_
 _symmetry_equiv_pos_site_id
 _symmetry_equiv_pos_as_xyz
  1  'x, y, z'
loop_
 _atom_site_type_symbol
 _atom_site_label
 _atom_site_symmetry_multiplicity
 _atom_site_fract_x
 _atom_site_fract_y
 _atom_site_fract_z
 _atom_site_occupancy
  Zr  Zr0  1  0.334316  0.667491  0.001175  1
  Zr  Zr1  1  0.666826  0.332509  0.498825  1
  Zr  Zr2  1  0.666826  0.332509  0.001175  1
  Zr  Zr3  1  0.334316  0.667491  0.498825  1
  Zr  Zr4  1  0.264556  0.000000  0.250000  1
  Zr  Zr5  1  0.262319  0.262978  0.750000  1
  Zr  Zr6  1  0.999341  0.737022  0.750000  1
  Zr  Zr7  1  0.998005  0.262020  0.250000  1
  Zr  Zr8  1  0.735985  0.737980  0.250000  1
  Zr  Zr9  1  0.736983  0.000000  0.750000  1
  Zn  Zn10  1  0.999373  0.000000  0.001119  1
  Zn  Zn11  1  0.999373  0.000000  0.498881  1
  In  In12  1  0.616587  0.000000  0.250000  1
  Pb  Pb13  1  0.615478  0.615581  0.750000  1
  Pb  Pb14  1  0.999897  0.384419  0.750000  1
  Pb  Pb15  1  0.000061  0.615827  0.250000  1
  Pb  Pb16  1  0.384234  0.384173  0.250000  1
  Pb  Pb17  1  0.385527  0.000000  0.750000  1
