# generated using pymatgen
data_Tb16Cd3HgIr4
_symmetry_space_group_name_H-M   'P 1'
_cell_length_a   9.67356319
_cell_length_b   9.67331637
_cell_length_c   9.67331647
_cell_angle_alpha   59.94860074
_cell_angle_beta   59.94915645
_cell_angle_gamma   59.94915889
_symmetry_Int_Tables_number   1
_chemical_formula_structural   Tb16Cd3HgIr4
_chemical_formula_sum   'Tb16 Cd3 Hg1 Ir4'
_cell_volume   639.32157674
_cell_formula_units_Z   1
loop_
 _symmetry_equiv_pos_site_id
 _symmetry_equiv_pos_as_xyz
  1  'x, y, z'
loop_
 _atom_site_type_symbol
 _atom_site_label
 _atom_site_symmetry_multiplicity
 _atom_site_fract_x
 _atom_site_fract_y
 _atom_site_fract_z
 _atom_site_occupancy
  Tb  Tb0  1  0.598880  0.598881  0.598881  1
  Tb  Tb1  1  0.599717  0.599722  0.201763  1
  Tb  Tb2  1  0.599717  0.201763  0.599722  1
  Tb  Tb3  1  0.201789  0.599732  0.599732  1
  Tb  Tb4  1  0.061308  0.438426  0.438426  1
  Tb  Tb5  1  0.438647  0.060996  0.060996  1
  Tb  Tb6  1  0.438422  0.061273  0.438450  1
  Tb  Tb7  1  0.060999  0.438666  0.060987  1
  Tb  Tb8  1  0.438422  0.438450  0.061273  1
  Tb  Tb9  1  0.060999  0.060987  0.438666  1
  Tb  Tb10  1  0.185726  0.812932  0.812932  1
  Tb  Tb11  1  0.813264  0.186845  0.186845  1
  Tb  Tb12  1  0.812936  0.185693  0.812955  1
  Tb  Tb13  1  0.186841  0.813272  0.186831  1
  Tb  Tb14  1  0.812936  0.812955  0.185693  1
  Tb  Tb15  1  0.186841  0.186831  0.813272  1
  Cd  Cd16  1  0.829845  0.829845  0.509417  1
  Cd  Cd17  1  0.829845  0.509417  0.829845  1
  Cd  Cd18  1  0.509395  0.829852  0.829852  1
  Hg  Hg19  1  0.833256  0.833256  0.833256  1
  Ir  Ir20  1  0.391968  0.391970  0.391970  1
  Ir  Ir21  1  0.391920  0.391914  0.824413  1
  Ir  Ir22  1  0.391920  0.824413  0.391914  1
  Ir  Ir23  1  0.824410  0.391911  0.391911  1
