# generated using pymatgen
data_Rb3CoO3
_symmetry_space_group_name_H-M   'P 1'
_cell_length_a   6.93441800
_cell_length_b   7.69468646
_cell_length_c   11.02190774
_cell_angle_alpha   85.05140647
_cell_angle_beta   90.00000000
_cell_angle_gamma   90.00000000
_symmetry_Int_Tables_number   1
_chemical_formula_structural   Rb3CoO3
_chemical_formula_sum   'Rb12 Co4 O12'
_cell_volume   585.91667322
_cell_formula_units_Z   4
loop_
 _symmetry_equiv_pos_site_id
 _symmetry_equiv_pos_as_xyz
  1  'x, y, z'
loop_
 _atom_site_type_symbol
 _atom_site_label
 _atom_site_symmetry_multiplicity
 _atom_site_fract_x
 _atom_site_fract_y
 _atom_site_fract_z
 _atom_site_occupancy
  Rb  Rb0  1  0.321446  0.348030  0.069570  1
  Rb  Rb1  1  0.629956  0.957773  0.156077  1
  Rb  Rb2  1  0.822653  0.365684  0.192753  1
  Rb  Rb3  1  0.322653  0.634316  0.307247  1
  Rb  Rb4  1  0.129956  0.042227  0.343923  1
  Rb  Rb5  1  0.821446  0.651970  0.430430  1
  Rb  Rb6  1  0.178554  0.348030  0.569570  1
  Rb  Rb7  1  0.870044  0.957773  0.656077  1
  Rb  Rb8  1  0.677347  0.365684  0.692753  1
  Rb  Rb9  1  0.177347  0.634316  0.807247  1
  Rb  Rb10  1  0.370044  0.042227  0.843923  1
  Rb  Rb11  1  0.678554  0.651970  0.930430  1
  Co  Co12  1  0.083292  0.841669  0.067583  1
  Co  Co13  1  0.583292  0.158331  0.432417  1
  Co  Co14  1  0.416708  0.841669  0.567583  1
  Co  Co15  1  0.916708  0.158331  0.932417  1
  O  O16  1  0.324840  0.756653  0.039444  1
  O  O17  1  0.048060  0.095441  0.090041  1
  O  O18  1  0.946367  0.713842  0.184572  1
  O  O19  1  0.446367  0.286158  0.315428  1
  O  O20  1  0.548060  0.904559  0.409959  1
  O  O21  1  0.824840  0.243347  0.460556  1
  O  O22  1  0.175160  0.756653  0.539444  1
  O  O23  1  0.451940  0.095441  0.590041  1
  O  O24  1  0.553633  0.713842  0.684572  1
  O  O25  1  0.053633  0.286158  0.815428  1
  O  O26  1  0.951940  0.904559  0.909959  1
  O  O27  1  0.675160  0.243347  0.960556  1
