# generated using pymatgen
data_Mn2Cd2P7N12
_symmetry_space_group_name_H-M   'P 1'
_cell_length_a   7.27072403
_cell_length_b   7.32821323
_cell_length_c   7.27072542
_cell_angle_alpha   109.67152350
_cell_angle_beta   108.74894768
_cell_angle_gamma   109.67152524
_symmetry_Int_Tables_number   1
_chemical_formula_structural   Mn2Cd2P7N12
_chemical_formula_sum   'Mn2 Cd2 P7 N12'
_cell_volume   299.37508075
_cell_formula_units_Z   1
loop_
 _symmetry_equiv_pos_site_id
 _symmetry_equiv_pos_as_xyz
  1  'x, y, z'
loop_
 _atom_site_type_symbol
 _atom_site_label
 _atom_site_symmetry_multiplicity
 _atom_site_fract_x
 _atom_site_fract_y
 _atom_site_fract_z
 _atom_site_occupancy
  Mn  Mn0  1  0.643248  0.000000  0.999471  1
  Mn  Mn1  1  0.999471  0.000000  0.643248  1
  Cd  Cd2  1  0.002526  0.697461  0.002526  1
  Cd  Cd3  1  0.305066  0.302539  0.305066  1
  P  P4  1  0.255111  0.749562  0.505773  1
  P  P5  1  0.756211  0.250438  0.505549  1
  P  P6  1  0.754125  0.500000  0.254125  1
  P  P7  1  0.254125  0.500000  0.754125  1
  P  P8  1  0.505773  0.749562  0.255111  1
  P  P9  1  0.505549  0.250438  0.756211  1
  P  P10  1  0.956241  0.000000  0.956241  1
  N  N11  1  0.720095  0.277340  0.281316  1
  N  N12  1  0.287312  0.719340  0.287312  1
  N  N13  1  0.293297  0.569040  0.573178  1
  N  N14  1  0.573178  0.569040  0.293297  1
  N  N15  1  0.442755  0.722660  0.003975  1
  N  N16  1  0.003975  0.722660  0.442755  1
  N  N17  1  0.567972  0.280660  0.567972  1
  N  N18  1  0.729559  0.000000  0.434700  1
  N  N19  1  0.434700  0.000000  0.729559  1
  N  N20  1  0.724257  0.430960  0.004138  1
  N  N21  1  0.281316  0.277340  0.720095  1
  N  N22  1  0.004138  0.430960  0.724257  1
