# generated using pymatgen
data_PrNdFeCo16
_symmetry_space_group_name_H-M   'P 1'
_cell_length_a   6.33826428
_cell_length_b   6.33826431
_cell_length_c   6.33826513
_cell_angle_alpha   83.13719787
_cell_angle_beta   83.13720163
_cell_angle_gamma   83.13719743
_symmetry_Int_Tables_number   1
_chemical_formula_structural   PrNdFeCo16
_chemical_formula_sum   'Pr1 Nd1 Fe1 Co16'
_cell_volume   249.56128158
_cell_formula_units_Z   1
loop_
 _symmetry_equiv_pos_site_id
 _symmetry_equiv_pos_as_xyz
  1  'x, y, z'
loop_
 _atom_site_type_symbol
 _atom_site_label
 _atom_site_symmetry_multiplicity
 _atom_site_fract_x
 _atom_site_fract_y
 _atom_site_fract_z
 _atom_site_occupancy
  Pr  Pr0  1  0.345861  0.345862  0.345862  1
  Nd  Nd1  1  0.655401  0.655401  0.655401  1
  Fe  Fe2  1  0.095106  0.095106  0.095106  1
  Co  Co3  1  0.342379  0.342379  0.850367  1
  Co  Co4  1  0.850367  0.342379  0.342379  1
  Co  Co5  1  0.342379  0.850367  0.342379  1
  Co  Co6  1  0.658736  0.658736  0.150730  1
  Co  Co7  1  0.150730  0.658736  0.658736  1
  Co  Co8  1  0.658736  0.150730  0.658736  1
  Co  Co9  1  0.715231  0.284255  0.999280  1
  Co  Co10  1  0.999280  0.715231  0.284255  1
  Co  Co11  1  0.284255  0.999280  0.715231  1
  Co  Co12  1  0.999280  0.284255  0.715231  1
  Co  Co13  1  0.715231  0.999280  0.284255  1
  Co  Co14  1  0.284255  0.715231  0.999280  1
  Co  Co15  1  0.998722  0.998722  0.501911  1
  Co  Co16  1  0.501911  0.998722  0.998722  1
  Co  Co17  1  0.998722  0.501911  0.998722  1
  Co  Co18  1  0.903413  0.903413  0.903413  1
