# generated using pymatgen
data_Th10Si2Sn5Bi
_symmetry_space_group_name_H-M   'P 1'
_cell_length_a   9.61143156
_cell_length_b   9.61143199
_cell_length_c   6.54402600
_cell_angle_alpha   90.00000000
_cell_angle_beta   90.00000000
_cell_angle_gamma   120.09671407
_symmetry_Int_Tables_number   1
_chemical_formula_structural   Th10Si2Sn5Bi
_chemical_formula_sum   'Th10 Si2 Sn5 Bi1'
_cell_volume   523.03138893
_cell_formula_units_Z   1
loop_
 _symmetry_equiv_pos_site_id
 _symmetry_equiv_pos_as_xyz
  1  'x, y, z'
loop_
 _atom_site_type_symbol
 _atom_site_label
 _atom_site_symmetry_multiplicity
 _atom_site_fract_x
 _atom_site_fract_y
 _atom_site_fract_z
 _atom_site_occupancy
  Th  Th0  1  0.668988  0.332717  0.001344  1
  Th  Th1  1  0.332717  0.668988  0.001344  1
  Th  Th2  1  0.332717  0.668988  0.498656  1
  Th  Th3  1  0.668988  0.332717  0.498656  1
  Th  Th4  1  0.743731  0.743731  0.750000  1
  Th  Th5  1  0.256144  0.996517  0.750000  1
  Th  Th6  1  0.996517  0.256144  0.750000  1
  Th  Th7  1  0.256885  0.256885  0.250000  1
  Th  Th8  1  0.742069  0.000062  0.250000  1
  Th  Th9  1  0.000062  0.742069  0.250000  1
  Si  Si10  1  0.000444  0.000444  0.999961  1
  Si  Si11  1  0.000444  0.000444  0.500039  1
  Sn  Sn12  1  0.609401  0.999384  0.750000  1
  Sn  Sn13  1  0.999384  0.609401  0.750000  1
  Sn  Sn14  1  0.611338  0.611338  0.250000  1
  Sn  Sn15  1  0.389911  0.000560  0.250000  1
  Sn  Sn16  1  0.000560  0.389911  0.250000  1
  Bi  Bi17  1  0.389698  0.389698  0.750000  1
