# generated using pymatgen
data_Ba2SnSb3Pt2
_symmetry_space_group_name_H-M   'P 1'
_cell_length_a   9.76975149
_cell_length_b   9.76975133
_cell_length_c   4.97556100
_cell_angle_alpha   90.00000000
_cell_angle_beta   90.00000000
_cell_angle_gamma   151.02436464
_symmetry_Int_Tables_number   1
_chemical_formula_structural   Ba2SnSb3Pt2
_chemical_formula_sum   'Ba2 Sn1 Sb3 Pt2'
_cell_volume   230.06310175
_cell_formula_units_Z   1
loop_
 _symmetry_equiv_pos_site_id
 _symmetry_equiv_pos_as_xyz
  1  'x, y, z'
loop_
 _atom_site_type_symbol
 _atom_site_label
 _atom_site_symmetry_multiplicity
 _atom_site_fract_x
 _atom_site_fract_y
 _atom_site_fract_z
 _atom_site_occupancy
  Ba  Ba0  1  0.106488  0.893511  0.250001  1
  Ba  Ba1  1  0.893170  0.106829  0.750000  1
  Sn  Sn2  1  0.748480  0.251518  0.250001  1
  Sb  Sb3  1  0.456072  0.543927  0.250001  1
  Sb  Sb4  1  0.544155  0.455844  0.750000  1
  Sb  Sb5  1  0.251974  0.748024  0.750000  1
  Pt  Pt6  1  0.314258  0.685741  0.250001  1
  Pt  Pt7  1  0.685398  0.314601  0.750000  1
