# generated using pymatgen
data_HoTm(CdSn)3
_symmetry_space_group_name_H-M   'P 1'
_cell_length_a   4.62511600
_cell_length_b   4.74891600
_cell_length_c   8.95190600
_cell_angle_alpha   90.00000000
_cell_angle_beta   90.00000000
_cell_angle_gamma   90.00000000
_symmetry_Int_Tables_number   1
_chemical_formula_structural   HoTm(CdSn)3
_chemical_formula_sum   'Ho1 Tm1 Cd3 Sn3'
_cell_volume   196.62223593
_cell_formula_units_Z   1
loop_
 _symmetry_equiv_pos_site_id
 _symmetry_equiv_pos_as_xyz
  1  'x, y, z'
loop_
 _atom_site_type_symbol
 _atom_site_label
 _atom_site_symmetry_multiplicity
 _atom_site_fract_x
 _atom_site_fract_y
 _atom_site_fract_z
 _atom_site_occupancy
  Ho  Ho0  1  0.000000  0.000000  0.242808  1
  Tm  Tm1  1  0.000000  0.000000  0.757159  1
  Cd  Cd2  1  0.500000  0.500000  0.256027  1
  Cd  Cd3  1  0.500000  0.500000  0.744190  1
  Cd  Cd4  1  0.000000  0.500000  0.500519  1
  Sn  Sn5  1  0.000000  0.500000  0.999271  1
  Sn  Sn6  1  0.500000  0.000000  0.500881  1
  Sn  Sn7  1  0.500000  0.000000  0.999147  1
