# generated using pymatgen
data_Pr6Al24Os3Pt2Rh3
_symmetry_space_group_name_H-M   'P 1'
_cell_length_a   8.94014140
_cell_length_b   8.95380405
_cell_length_c   9.69549527
_cell_angle_alpha   90.08969252
_cell_angle_beta   89.89790122
_cell_angle_gamma   119.83062256
_symmetry_Int_Tables_number   1
_chemical_formula_structural   Pr6Al24Os3Pt2Rh3
_chemical_formula_sum   'Pr6 Al24 Os3 Pt2 Rh3'
_cell_volume   673.27190226
_cell_formula_units_Z   1
loop_
 _symmetry_equiv_pos_site_id
 _symmetry_equiv_pos_as_xyz
  1  'x, y, z'
loop_
 _atom_site_type_symbol
 _atom_site_label
 _atom_site_symmetry_multiplicity
 _atom_site_fract_x
 _atom_site_fract_y
 _atom_site_fract_z
 _atom_site_occupancy
  Pr  Pr0  1  0.190562  0.380015  0.251684  1
  Pr  Pr1  1  0.809438  0.619985  0.748316  1
  Pr  Pr2  1  0.619276  0.811005  0.249075  1
  Pr  Pr3  1  0.380724  0.188995  0.750925  1
  Pr  Pr4  1  0.192580  0.811399  0.250265  1
  Pr  Pr5  1  0.807420  0.188601  0.749735  1
  Al  Al6  1  0.331397  0.662438  0.024187  1
  Al  Al7  1  0.668603  0.337562  0.975813  1
  Al  Al8  1  0.662594  0.330984  0.523767  1
  Al  Al9  1  0.337406  0.669016  0.476233  1
  Al  Al10  1  0.167153  0.326718  0.574441  1
  Al  Al11  1  0.832847  0.673282  0.425559  1
  Al  Al12  1  0.671923  0.837816  0.573351  1
  Al  Al13  1  0.836138  0.673366  0.074218  1
  Al  Al14  1  0.328077  0.162184  0.426649  1
  Al  Al15  1  0.163862  0.326634  0.925782  1
  Al  Al16  1  0.168327  0.841448  0.574880  1
  Al  Al17  1  0.326979  0.167992  0.075256  1
  Al  Al18  1  0.831673  0.158552  0.425120  1
  Al  Al19  1  0.673021  0.832008  0.924744  1
  Al  Al20  1  0.840842  0.167206  0.076361  1
  Al  Al21  1  0.159158  0.832794  0.923639  1
  Al  Al22  1  0.564864  0.129079  0.253356  1
  Al  Al23  1  0.435136  0.870921  0.746644  1
  Al  Al24  1  0.873382  0.436754  0.246941  1
  Al  Al25  1  0.126618  0.563246  0.753059  1
  Al  Al26  1  0.562734  0.438169  0.249851  1
  Al  Al27  1  0.437266  0.561831  0.750149  1
  Al  Al28  1  0.000959  0.001654  0.250164  1
  Al  Al29  1  0.999041  0.998346  0.749836  1
  Os  Os30  1  0.500000  0.000000  0.500000  1
  Os  Os31  1  0.000000  0.000000  0.000000  1
  Os  Os32  1  0.000000  0.000000  0.500000  1
  Pt  Pt33  1  0.500000  0.000000  0.000000  1
  Pt  Pt34  1  0.000000  0.500000  0.500000  1
  Rh  Rh35  1  0.000000  0.500000  0.000000  1
  Rh  Rh36  1  0.500000  0.500000  0.000000  1
  Rh  Rh37  1  0.500000  0.500000  0.500000  1
