# generated using pymatgen
data_Lu3Al3CoSiGe
_symmetry_space_group_name_H-M   'P 1'
_cell_length_a   6.79026600
_cell_length_b   6.79026476
_cell_length_c   4.10180600
_cell_angle_alpha   90.00000000
_cell_angle_beta   90.00000000
_cell_angle_gamma   119.99999630
_symmetry_Int_Tables_number   1
_chemical_formula_structural   Lu3Al3CoSiGe
_chemical_formula_sum   'Lu3 Al3 Co1 Si1 Ge1'
_cell_volume   163.78693644
_cell_formula_units_Z   1
loop_
 _symmetry_equiv_pos_site_id
 _symmetry_equiv_pos_as_xyz
  1  'x, y, z'
loop_
 _atom_site_type_symbol
 _atom_site_label
 _atom_site_symmetry_multiplicity
 _atom_site_fract_x
 _atom_site_fract_y
 _atom_site_fract_z
 _atom_site_occupancy
  Lu  Lu0  1  0.405121  0.002140  0.000000  1
  Lu  Lu1  1  0.997860  0.402983  0.000000  1
  Lu  Lu2  1  0.597018  0.594879  0.000000  1
  Al  Al3  1  0.770994  0.002678  0.500000  1
  Al  Al4  1  0.231684  0.229006  0.500000  1
  Al  Al5  1  0.997322  0.768317  0.500000  1
  Co  Co6  1  0.000000  0.000000  0.000000  1
  Si  Si7  1  0.666667  0.333334  0.500000  1
  Ge  Ge8  1  0.333333  0.666667  0.500000  1
