# generated using pymatgen
data_Ho3PaInNi4Ag
_symmetry_space_group_name_H-M   'P 1'
_cell_length_a   7.34504282
_cell_length_b   7.36115314
_cell_length_c   3.57541300
_cell_angle_alpha   90.00000000
_cell_angle_beta   90.00000000
_cell_angle_gamma   92.21756052
_symmetry_Int_Tables_number   1
_chemical_formula_structural   Ho3PaInNi4Ag
_chemical_formula_sum   'Ho3 Pa1 In1 Ni4 Ag1'
_cell_volume   193.17060345
_cell_formula_units_Z   1
loop_
 _symmetry_equiv_pos_site_id
 _symmetry_equiv_pos_as_xyz
  1  'x, y, z'
loop_
 _atom_site_type_symbol
 _atom_site_label
 _atom_site_symmetry_multiplicity
 _atom_site_fract_x
 _atom_site_fract_y
 _atom_site_fract_z
 _atom_site_occupancy
  Ho  Ho0  1  0.330618  0.819420  0.500000  1
  Ho  Ho1  1  0.176742  0.332206  0.500000  1
  Ho  Ho2  1  0.824253  0.670062  0.500000  1
  Pa  Pa3  1  0.665233  0.176553  0.500000  1
  In  In4  1  0.007287  0.997154  0.000000  1
  Ni  Ni5  1  0.111481  0.614743  0.000000  1
  Ni  Ni6  1  0.863503  0.357391  0.000000  1
  Ni  Ni7  1  0.630880  0.895261  0.000000  1
  Ni  Ni8  1  0.391990  0.129830  0.000000  1
  Ag  Ag9  1  0.498014  0.507381  0.000000  1
