# generated using pymatgen
data_YbEr3VTc3B16
_symmetry_space_group_name_H-M   'P 1'
_cell_length_a   3.55272800
_cell_length_b   5.95486748
_cell_length_c   11.51323013
_cell_angle_alpha   89.83746228
_cell_angle_beta   90.00000000
_cell_angle_gamma   90.00000000
_symmetry_Int_Tables_number   1
_chemical_formula_structural   YbEr3VTc3B16
_chemical_formula_sum   'Yb1 Er3 V1 Tc3 B16'
_cell_volume   243.57319803
_cell_formula_units_Z   1
loop_
 _symmetry_equiv_pos_site_id
 _symmetry_equiv_pos_as_xyz
  1  'x, y, z'
loop_
 _atom_site_type_symbol
 _atom_site_label
 _atom_site_symmetry_multiplicity
 _atom_site_fract_x
 _atom_site_fract_y
 _atom_site_fract_z
 _atom_site_occupancy
  Yb  Yb0  1  0.500000  0.125834  0.850843  1
  Er  Er1  1  0.500000  0.874719  0.147733  1
  Er  Er2  1  0.500000  0.628081  0.653113  1
  Er  Er3  1  0.500000  0.372227  0.347067  1
  V  V4  1  0.500000  0.372579  0.082037  1
  Tc  Tc5  1  0.500000  0.133322  0.584543  1
  Tc  Tc6  1  0.500000  0.867586  0.414861  1
  Tc  Tc7  1  0.500000  0.627344  0.917240  1
  B  B8  1  0.000000  0.285052  0.686296  1
  B  B9  1  0.000000  0.714189  0.314068  1
  B  B10  1  0.000000  0.785656  0.815485  1
  B  B11  1  0.000000  0.212552  0.185032  1
  B  B12  1  0.000000  0.365220  0.531693  1
  B  B13  1  0.000000  0.634941  0.468425  1
  B  B14  1  0.000000  0.864857  0.967913  1
  B  B15  1  0.000000  0.134278  0.033059  1
  B  B16  1  0.000000  0.023085  0.306481  1
  B  B17  1  0.000000  0.976706  0.693148  1
  B  B18  1  0.000000  0.523543  0.192858  1
  B  B19  1  0.000000  0.478292  0.807681  1
  B  B20  1  0.000000  0.113681  0.452037  1
  B  B21  1  0.000000  0.886674  0.547854  1
  B  B22  1  0.000000  0.613961  0.047333  1
  B  B23  1  0.000000  0.385623  0.953203  1
