# generated using pymatgen
data_Pr6NbCr(Co4P3)4
_symmetry_space_group_name_H-M   'P 1'
_cell_length_a   3.77306900
_cell_length_b   10.73425700
_cell_length_c   12.49620500
_cell_angle_alpha   90.00000000
_cell_angle_beta   90.00000000
_cell_angle_gamma   90.00000000
_symmetry_Int_Tables_number   1
_chemical_formula_structural   Pr6NbCr(Co4P3)4
_chemical_formula_sum   'Pr6 Nb1 Cr1 Co16 P12'
_cell_volume   506.10995241
_cell_formula_units_Z   1
loop_
 _symmetry_equiv_pos_site_id
 _symmetry_equiv_pos_as_xyz
  1  'x, y, z'
loop_
 _atom_site_type_symbol
 _atom_site_label
 _atom_site_symmetry_multiplicity
 _atom_site_fract_x
 _atom_site_fract_y
 _atom_site_fract_z
 _atom_site_occupancy
  Pr  Pr0  1  0.000000  0.500000  0.522162  1
  Pr  Pr1  1  0.500000  0.000000  0.473772  1
  Pr  Pr2  1  0.500000  0.817608  0.204855  1
  Pr  Pr3  1  0.500000  0.182392  0.204855  1
  Pr  Pr4  1  0.000000  0.680387  0.794035  1
  Pr  Pr5  1  0.000000  0.319613  0.794035  1
  Nb  Nb6  1  0.000000  0.000000  0.847541  1
  Cr  Cr7  1  0.500000  0.500000  0.156412  1
  Co  Co8  1  0.500000  0.500000  0.704026  1
  Co  Co9  1  0.000000  0.000000  0.296003  1
  Co  Co10  1  0.000000  0.500000  0.989075  1
  Co  Co11  1  0.500000  0.000000  0.013910  1
  Co  Co12  1  0.500000  0.335416  0.996500  1
  Co  Co13  1  0.500000  0.664584  0.996500  1
  Co  Co14  1  0.000000  0.169931  0.009181  1
  Co  Co15  1  0.000000  0.830069  0.009181  1
  Co  Co16  1  0.500000  0.296580  0.430119  1
  Co  Co17  1  0.500000  0.703420  0.430119  1
  Co  Co18  1  0.000000  0.204822  0.567383  1
  Co  Co19  1  0.000000  0.795178  0.567383  1
  Co  Co20  1  0.500000  0.880104  0.705386  1
  Co  Co21  1  0.500000  0.119896  0.705386  1
  Co  Co22  1  0.000000  0.617687  0.290205  1
  Co  Co23  1  0.000000  0.382313  0.290205  1
  P  P24  1  0.500000  0.500000  0.888065  1
  P  P25  1  0.000000  0.000000  0.113809  1
  P  P26  1  0.500000  0.500000  0.340413  1
  P  P27  1  0.000000  0.000000  0.650037  1
  P  P28  1  0.500000  0.306483  0.612558  1
  P  P29  1  0.500000  0.693517  0.612558  1
  P  P30  1  0.000000  0.195280  0.385062  1
  P  P31  1  0.000000  0.804720  0.385062  1
  P  P32  1  0.500000  0.841875  0.899978  1
  P  P33  1  0.500000  0.158125  0.899978  1
  P  P34  1  0.000000  0.648697  0.107125  1
  P  P35  1  0.000000  0.351303  0.107125  1
