# generated using pymatgen
data_Ti12Si11Ge
_symmetry_space_group_name_H-M   'P 1'
_cell_length_a   5.03333540
_cell_length_b   3.62870600
_cell_length_c   19.93280611
_cell_angle_alpha   90.00000000
_cell_angle_beta   97.15425290
_cell_angle_gamma   90.00000000
_symmetry_Int_Tables_number   1
_chemical_formula_structural   Ti12Si11Ge
_chemical_formula_sum   'Ti12 Si11 Ge1'
_cell_volume   361.22819945
_cell_formula_units_Z   1
loop_
 _symmetry_equiv_pos_site_id
 _symmetry_equiv_pos_as_xyz
  1  'x, y, z'
loop_
 _atom_site_type_symbol
 _atom_site_label
 _atom_site_symmetry_multiplicity
 _atom_site_fract_x
 _atom_site_fract_y
 _atom_site_fract_z
 _atom_site_occupancy
  Ti  Ti0  1  0.660373  0.250001  0.060844  1
  Ti  Ti1  1  0.182462  0.750001  0.110669  1
  Ti  Ti2  1  0.491160  0.250001  0.226356  1
  Ti  Ti3  1  0.017410  0.750001  0.275751  1
  Ti  Ti4  1  0.818997  0.250001  0.392264  1
  Ti  Ti5  1  0.343146  0.750001  0.441584  1
  Ti  Ti6  1  0.656764  0.250001  0.558386  1
  Ti  Ti7  1  0.180989  0.750001  0.607686  1
  Ti  Ti8  1  0.982403  0.250001  0.724437  1
  Ti  Ti9  1  0.507443  0.750001  0.773497  1
  Ti  Ti10  1  0.815832  0.250001  0.890927  1
  Ti  Ti11  1  0.346097  0.750001  0.937988  1
  Si  Si12  1  0.683222  0.750001  0.153256  1
  Si  Si13  1  0.988086  0.250001  0.182522  1
  Si  Si14  1  0.556499  0.750001  0.319053  1
  Si  Si15  1  0.279592  0.250001  0.348798  1
  Si  Si16  1  0.846671  0.750001  0.485056  1
  Si  Si17  1  0.153261  0.250001  0.514889  1
  Si  Si18  1  0.720609  0.750001  0.651214  1
  Si  Si19  1  0.443518  0.250001  0.680913  1
  Si  Si20  1  0.009744  0.750001  0.818060  1
  Si  Si21  1  0.315971  0.250001  0.846087  1
  Si  Si22  1  0.838658  0.750001  0.984962  1
  Ge  Ge23  1  0.161095  0.250001  0.014806  1
