# generated using pymatgen
data_ZrZn3(GaRh2)4
_symmetry_space_group_name_H-M   'P 1'
_cell_length_a   6.13300700
_cell_length_b   6.13305500
_cell_length_c   6.12991100
_cell_angle_alpha   90.00000000
_cell_angle_beta   90.00009345
_cell_angle_gamma   90.00000000
_symmetry_Int_Tables_number   1
_chemical_formula_structural   ZrZn3(GaRh2)4
_chemical_formula_sum   'Zr1 Zn3 Ga4 Rh8'
_cell_volume   230.57089683
_cell_formula_units_Z   1
loop_
 _symmetry_equiv_pos_site_id
 _symmetry_equiv_pos_as_xyz
  1  'x, y, z'
loop_
 _atom_site_type_symbol
 _atom_site_label
 _atom_site_symmetry_multiplicity
 _atom_site_fract_x
 _atom_site_fract_y
 _atom_site_fract_z
 _atom_site_occupancy
  Zr  Zr0  1  0.749722  0.250000  0.000019  1
  Zn  Zn1  1  0.250468  0.750001  0.999994  1
  Zn  Zn2  1  0.750490  0.250000  0.499981  1
  Zn  Zn3  1  0.249528  0.750001  0.500017  1
  Ga  Ga4  1  0.250190  0.250000  0.000003  1
  Ga  Ga5  1  0.749614  0.750001  0.000018  1
  Ga  Ga6  1  0.750412  0.750001  0.499973  1
  Ga  Ga7  1  0.249572  0.250000  0.499999  1
  Rh  Rh8  1  0.004260  0.995713  0.254559  1
  Rh  Rh9  1  0.004260  0.504293  0.254559  1
  Rh  Rh10  1  0.495724  0.995765  0.255184  1
  Rh  Rh11  1  0.495724  0.504231  0.255184  1
  Rh  Rh12  1  0.495759  0.995769  0.744816  1
  Rh  Rh13  1  0.495759  0.504235  0.744816  1
  Rh  Rh14  1  0.004260  0.995717  0.745439  1
  Rh  Rh15  1  0.004260  0.504277  0.745439  1
