# generated using pymatgen
data_NaSr(AgTe2)2
_symmetry_space_group_name_H-M   'P 1'
_cell_length_a   11.97861467
_cell_length_b   11.97861474
_cell_length_c   11.97861535
_cell_angle_alpha   158.38290352
_cell_angle_beta   158.38290379
_cell_angle_gamma   30.75820186
_symmetry_Int_Tables_number   1
_chemical_formula_structural   NaSr(AgTe2)2
_chemical_formula_sum   'Na1 Sr1 Ag2 Te4'
_cell_volume   233.11758218
_cell_formula_units_Z   1
loop_
 _symmetry_equiv_pos_site_id
 _symmetry_equiv_pos_as_xyz
  1  'x, y, z'
loop_
 _atom_site_type_symbol
 _atom_site_label
 _atom_site_symmetry_multiplicity
 _atom_site_fract_x
 _atom_site_fract_y
 _atom_site_fract_z
 _atom_site_occupancy
  Na  Na0  1  0.876412  0.876412  0.000000  1
  Sr  Sr1  1  0.118977  0.118977  0.000000  1
  Ag  Ag2  1  0.252707  0.752707  0.500000  1
  Ag  Ag3  1  0.752707  0.252707  0.500000  1
  Te  Te4  1  0.501180  0.001180  0.500000  1
  Te  Te5  1  0.001180  0.501180  0.500000  1
  Te  Te6  1  0.330333  0.330333  0.000000  1
  Te  Te7  1  0.666504  0.666504  0.000000  1
