# generated using pymatgen
data_Pr9Nd3(CCl3)4
_symmetry_space_group_name_H-M   'P 1'
_cell_length_a   9.72360571
_cell_length_b   9.72393457
_cell_length_c   9.72808303
_cell_angle_alpha   109.48506556
_cell_angle_beta   109.48368939
_cell_angle_gamma   109.42693895
_symmetry_Int_Tables_number   1
_chemical_formula_structural   Pr9Nd3(CCl3)4
_chemical_formula_sum   'Pr9 Nd3 C4 Cl12'
_cell_volume   708.22443019
_cell_formula_units_Z   1
loop_
 _symmetry_equiv_pos_site_id
 _symmetry_equiv_pos_as_xyz
  1  'x, y, z'
loop_
 _atom_site_type_symbol
 _atom_site_label
 _atom_site_symmetry_multiplicity
 _atom_site_fract_x
 _atom_site_fract_y
 _atom_site_fract_z
 _atom_site_occupancy
  Pr  Pr0  1  0.466762  0.483460  0.233207  1
  Pr  Pr1  1  0.750243  0.233560  0.266682  1
  Pr  Pr2  1  0.749764  0.016431  0.483266  1
  Pr  Pr3  1  0.233502  0.466836  0.483266  1
  Pr  Pr4  1  0.266447  0.749747  0.233207  1
  Pr  Pr5  1  0.033024  0.266265  0.016521  1
  Pr  Pr6  1  0.016439  0.033121  0.266682  1
  Pr  Pr7  1  0.483497  0.750256  0.016521  1
  Pr  Pr8  1  0.483434  0.233434  0.466869  1
  Nd  Nd9  1  0.017552  0.482277  0.749789  1
  Nd  Nd10  1  0.267483  0.017483  0.034966  1
  Nd  Nd11  1  0.232236  0.267512  0.749789  1
  C  C12  1  0.250037  0.248571  0.248525  1
  C  C13  1  0.498488  0.999955  0.248525  1
  C  C14  1  0.001491  0.251491  0.502982  1
  C  C15  1  0.248498  0.498498  0.996996  1
  Cl  Cl16  1  0.248166  0.755823  0.744716  1
  Cl  Cl17  1  0.511169  0.504754  0.756552  1
  Cl  Cl18  1  0.988812  0.744050  0.992223  1
  Cl  Cl19  1  0.745384  0.251798  0.756552  1
  Cl  Cl20  1  0.996550  0.988892  0.744716  1
  Cl  Cl21  1  0.250112  0.994853  0.507682  1
  Cl  Cl22  1  0.757570  0.512831  0.507682  1
  Cl  Cl23  1  0.503410  0.248172  0.992223  1
  Cl  Cl24  1  0.756506  0.743425  0.249956  1
  Cl  Cl25  1  0.743463  0.993463  0.986925  1
  Cl  Cl26  1  0.993449  0.506531  0.249956  1
  Cl  Cl27  1  0.506511  0.756511  0.513023  1
