# generated using pymatgen
data_Ho2Tm8Si5Sn
_symmetry_space_group_name_H-M   'P 1'
_cell_length_a   8.43425654
_cell_length_b   8.43425518
_cell_length_c   6.28475800
_cell_angle_alpha   90.00000000
_cell_angle_beta   90.00000000
_cell_angle_gamma   120.22265923
_symmetry_Int_Tables_number   1
_chemical_formula_structural   Ho2Tm8Si5Sn
_chemical_formula_sum   'Ho2 Tm8 Si5 Sn1'
_cell_volume   386.30821640
_cell_formula_units_Z   1
loop_
 _symmetry_equiv_pos_site_id
 _symmetry_equiv_pos_as_xyz
  1  'x, y, z'
loop_
 _atom_site_type_symbol
 _atom_site_label
 _atom_site_symmetry_multiplicity
 _atom_site_fract_x
 _atom_site_fract_y
 _atom_site_fract_z
 _atom_site_occupancy
  Ho  Ho0  1  0.765773  0.765773  0.250000  1
  Ho  Ho1  1  0.240480  0.240480  0.750000  1
  Tm  Tm2  1  0.673710  0.331567  0.503003  1
  Tm  Tm3  1  0.331567  0.673710  0.503003  1
  Tm  Tm4  1  0.331567  0.673710  0.996997  1
  Tm  Tm5  1  0.673710  0.331567  0.996997  1
  Tm  Tm6  1  0.240123  0.989328  0.250000  1
  Tm  Tm7  1  0.989328  0.240123  0.250000  1
  Tm  Tm8  1  0.756537  0.998850  0.750000  1
  Tm  Tm9  1  0.998850  0.756537  0.750000  1
  Si  Si10  1  0.604083  0.998764  0.250000  1
  Si  Si11  1  0.998764  0.604083  0.250000  1
  Si  Si12  1  0.605804  0.605804  0.750000  1
  Si  Si13  1  0.393910  0.001211  0.750000  1
  Si  Si14  1  0.001211  0.393910  0.750000  1
  Sn  Sn15  1  0.394585  0.394585  0.250000  1
