# generated using pymatgen
data_Pr2P7Ru11Rh
_symmetry_space_group_name_H-M   'P 1'
_cell_length_a   9.47294834
_cell_length_b   9.51015231
_cell_length_c   3.98047100
_cell_angle_alpha   90.00000000
_cell_angle_beta   90.00000000
_cell_angle_gamma   119.78915244
_symmetry_Int_Tables_number   1
_chemical_formula_structural   Pr2P7Ru11Rh
_chemical_formula_sum   'Pr2 P7 Ru11 Rh1'
_cell_volume   311.21214834
_cell_formula_units_Z   1
loop_
 _symmetry_equiv_pos_site_id
 _symmetry_equiv_pos_as_xyz
  1  'x, y, z'
loop_
 _atom_site_type_symbol
 _atom_site_label
 _atom_site_symmetry_multiplicity
 _atom_site_fract_x
 _atom_site_fract_y
 _atom_site_fract_z
 _atom_site_occupancy
  Pr  Pr0  1  0.668104  0.334257  0.500000  1
  Pr  Pr1  1  0.332052  0.663667  0.000000  1
  P  P2  1  0.603937  0.710666  0.500000  1
  P  P3  1  0.997630  0.999380  0.000000  1
  P  P4  1  0.280840  0.887340  0.500000  1
  P  P5  1  0.111553  0.396164  0.500000  1
  P  P6  1  0.890983  0.580098  0.000000  1
  P  P7  1  0.422034  0.310405  0.000000  1
  P  P8  1  0.695118  0.115517  0.000000  1
  Ru  Ru9  1  0.389117  0.437709  0.500000  1
  Ru  Ru10  1  0.912196  0.122951  0.500000  1
  Ru  Ru11  1  0.208703  0.086973  0.500000  1
  Ru  Ru12  1  0.879170  0.795117  0.500000  1
  Ru  Ru13  1  0.727328  0.891588  0.000000  1
  Ru  Ru14  1  0.109030  0.840126  0.000000  1
  Ru  Ru15  1  0.160846  0.267585  0.000000  1
  Ru  Ru16  1  0.425775  0.064623  0.000000  1
  Ru  Ru17  1  0.938004  0.360870  0.000000  1
  Ru  Ru18  1  0.641809  0.577409  0.000000  1
  Ru  Ru19  1  0.049949  0.610481  0.500000  1
  Rh  Rh20  1  0.555825  0.947074  0.500000  1
