# generated using pymatgen
data_Er8Tm2(InBi)3
_symmetry_space_group_name_H-M   'P 1'
_cell_length_a   6.50356500
_cell_length_b   8.97993624
_cell_length_c   8.98100000
_cell_angle_alpha   119.99608109
_cell_angle_beta   90.00034298
_cell_angle_gamma   89.99932263
_symmetry_Int_Tables_number   1
_chemical_formula_structural   Er8Tm2(InBi)3
_chemical_formula_sum   'Er8 Tm2 In3 Bi3'
_cell_volume   454.25238362
_cell_formula_units_Z   1
loop_
 _symmetry_equiv_pos_site_id
 _symmetry_equiv_pos_as_xyz
  1  'x, y, z'
loop_
 _atom_site_type_symbol
 _atom_site_label
 _atom_site_symmetry_multiplicity
 _atom_site_fract_x
 _atom_site_fract_y
 _atom_site_fract_z
 _atom_site_occupancy
  Er  Er0  1  0.492395  0.333338  0.666656  1
  Er  Er1  1  0.492395  0.666682  0.333344  1
  Er  Er2  1  0.750050  0.236203  0.000000  1
  Er  Er3  1  0.750039  0.763554  0.763652  1
  Er  Er4  1  0.750039  0.999902  0.236348  1
  Er  Er5  1  0.249946  0.762305  0.000000  1
  Er  Er6  1  0.249935  0.237935  0.237842  1
  Er  Er7  1  0.249935  0.000093  0.762158  1
  Tm  Tm8  1  0.007716  0.666671  0.333347  1
  Tm  Tm9  1  0.007716  0.333325  0.666653  1
  In  In10  1  0.249857  0.393647  0.000000  1
  In  In11  1  0.249864  0.606530  0.606507  1
  In  In12  1  0.249864  0.000021  0.393493  1
  Bi  Bi13  1  0.750085  0.603966  0.000000  1
  Bi  Bi14  1  0.750081  0.395854  0.395882  1
  Bi  Bi15  1  0.750081  0.999974  0.604118  1
