# generated using pymatgen
data_La6Mg5Cd18Se
_symmetry_space_group_name_H-M   'P 1'
_cell_length_a   10.12650002
_cell_length_b   10.10052996
_cell_length_c   10.12407171
_cell_angle_alpha   60.52569785
_cell_angle_beta   60.54569594
_cell_angle_gamma   60.68259416
_symmetry_Int_Tables_number   1
_chemical_formula_structural   La6Mg5Cd18Se
_chemical_formula_sum   'La6 Mg5 Cd18 Se1'
_cell_volume   741.89012874
_cell_formula_units_Z   1
loop_
 _symmetry_equiv_pos_site_id
 _symmetry_equiv_pos_as_xyz
  1  'x, y, z'
loop_
 _atom_site_type_symbol
 _atom_site_label
 _atom_site_symmetry_multiplicity
 _atom_site_fract_x
 _atom_site_fract_y
 _atom_site_fract_z
 _atom_site_occupancy
  La  La0  1  0.789085  0.784902  0.213099  1
  La  La1  1  0.211165  0.786391  0.213830  1
  La  La2  1  0.789046  0.213299  0.211468  1
  La  La3  1  0.210915  0.215098  0.786901  1
  La  La4  1  0.788835  0.213609  0.786170  1
  La  La5  1  0.210954  0.786701  0.788532  1
  Mg  Mg6  1  0.000000  0.000000  0.500000  1
  Mg  Mg7  1  0.500000  0.000000  0.500000  1
  Mg  Mg8  1  0.500000  0.500000  0.000000  1
  Mg  Mg9  1  0.500000  0.000000  0.000000  1
  Mg  Mg10  1  0.500000  0.500000  0.500000  1
  Cd  Cd11  1  0.829083  0.832569  0.506922  1
  Cd  Cd12  1  0.828341  0.507344  0.831341  1
  Cd  Cd13  1  0.507188  0.830466  0.830228  1
  Cd  Cd14  1  0.829377  0.833016  0.830211  1
  Cd  Cd15  1  0.170917  0.167431  0.493078  1
  Cd  Cd16  1  0.171659  0.492656  0.168659  1
  Cd  Cd17  1  0.492812  0.169534  0.169772  1
  Cd  Cd18  1  0.170623  0.166984  0.169789  1
  Cd  Cd19  1  0.618058  0.623416  0.137263  1
  Cd  Cd20  1  0.620082  0.137286  0.621649  1
  Cd  Cd21  1  0.137371  0.623730  0.619709  1
  Cd  Cd22  1  0.618456  0.623656  0.622246  1
  Cd  Cd23  1  0.381942  0.376584  0.862737  1
  Cd  Cd24  1  0.379918  0.862714  0.378351  1
  Cd  Cd25  1  0.862629  0.376270  0.380291  1
  Cd  Cd26  1  0.381544  0.376344  0.377754  1
  Cd  Cd27  1  0.000000  0.500000  0.500000  1
  Cd  Cd28  1  0.000000  0.500000  0.000000  1
  Se  Se29  1  0.000000  0.000000  0.000000  1
