# generated using pymatgen
data_Pr9YSe10
_symmetry_space_group_name_H-M   'P 1'
_cell_length_a   7.32670650
_cell_length_b   8.43821685
_cell_length_c   9.57227783
_cell_angle_alpha   103.21105916
_cell_angle_beta   96.72486369
_cell_angle_gamma   106.66625052
_symmetry_Int_Tables_number   1
_chemical_formula_structural   Pr9YSe10
_chemical_formula_sum   'Pr9 Y1 Se10'
_cell_volume   541.24752443
_cell_formula_units_Z   1
loop_
 _symmetry_equiv_pos_site_id
 _symmetry_equiv_pos_as_xyz
  1  'x, y, z'
loop_
 _atom_site_type_symbol
 _atom_site_label
 _atom_site_symmetry_multiplicity
 _atom_site_fract_x
 _atom_site_fract_y
 _atom_site_fract_z
 _atom_site_occupancy
  Pr  Pr0  1  0.800100  0.599512  0.596806  1
  Pr  Pr1  1  0.592929  0.196410  0.198302  1
  Pr  Pr2  1  0.407071  0.803590  0.801698  1
  Pr  Pr3  1  0.599874  0.701477  0.200983  1
  Pr  Pr4  1  0.199900  0.400488  0.403194  1
  Pr  Pr5  1  0.400126  0.298523  0.799017  1
  Pr  Pr6  1  0.000000  0.000000  0.000000  1
  Pr  Pr7  1  0.202046  0.901296  0.400827  1
  Pr  Pr8  1  0.797954  0.098704  0.599173  1
  Y  Y9  1  0.000000  0.500000  0.000000  1
  Se  Se10  1  0.707830  0.645861  0.901569  1
  Se  Se11  1  0.500279  0.250560  0.499905  1
  Se  Se12  1  0.708253  0.159444  0.902933  1
  Se  Se13  1  0.291747  0.840556  0.097067  1
  Se  Se14  1  0.499721  0.749440  0.500095  1
  Se  Se15  1  0.098746  0.452673  0.708056  1
  Se  Se16  1  0.292170  0.354139  0.098431  1
  Se  Se17  1  0.899397  0.050890  0.299837  1
  Se  Se18  1  0.100603  0.949110  0.700163  1
  Se  Se19  1  0.901254  0.547327  0.291944  1
