# generated using pymatgen
data_Ho5ErMn2(Si4Ru)6
_symmetry_space_group_name_H-M   'P 1'
_cell_length_a   10.08663314
_cell_length_b   10.08663269
_cell_length_c   8.07314909
_cell_angle_alpha   90.00524391
_cell_angle_beta   89.99475294
_cell_angle_gamma   132.75166145
_symmetry_Int_Tables_number   1
_chemical_formula_structural   Ho5ErMn2(Si4Ru)6
_chemical_formula_sum   'Ho5 Er1 Mn2 Si24 Ru6'
_cell_volume   603.12954206
_cell_formula_units_Z   1
loop_
 _symmetry_equiv_pos_site_id
 _symmetry_equiv_pos_as_xyz
  1  'x, y, z'
loop_
 _atom_site_type_symbol
 _atom_site_label
 _atom_site_symmetry_multiplicity
 _atom_site_fract_x
 _atom_site_fract_y
 _atom_site_fract_z
 _atom_site_occupancy
  Ho  Ho0  1  0.497769  0.997769  0.250000  1
  Ho  Ho1  1  0.002321  0.502321  0.750000  1
  Ho  Ho2  1  0.502188  0.002188  0.750000  1
  Ho  Ho3  1  0.502408  0.502408  0.502315  1
  Ho  Ho4  1  0.002408  0.002408  0.997685  1
  Er  Er5  1  0.997699  0.497699  0.250000  1
  Mn  Mn6  1  0.624275  0.624272  0.873017  1
  Mn  Mn7  1  0.124272  0.124275  0.626983  1
  Si  Si8  1  0.386667  0.153343  0.006381  1
  Si  Si9  1  0.653343  0.886667  0.493619  1
  Si  Si10  1  0.115708  0.343026  0.513278  1
  Si  Si11  1  0.843026  0.615708  0.986722  1
  Si  Si12  1  0.615676  0.842815  0.986861  1
  Si  Si13  1  0.342815  0.115676  0.513139  1
  Si  Si14  1  0.886748  0.653268  0.493733  1
  Si  Si15  1  0.153268  0.386748  0.006267  1
  Si  Si16  1  0.609486  0.375892  0.230121  1
  Si  Si17  1  0.875892  0.109486  0.269879  1
  Si  Si18  1  0.898180  0.125396  0.728643  1
  Si  Si19  1  0.625396  0.398180  0.771357  1
  Si  Si20  1  0.398116  0.625270  0.771377  1
  Si  Si21  1  0.125270  0.898116  0.728623  1
  Si  Si22  1  0.703536  0.295111  0.000193  1
  Si  Si23  1  0.795111  0.203536  0.499807  1
  Si  Si24  1  0.294990  0.703450  0.000261  1
  Si  Si25  1  0.203450  0.794990  0.499739  1
  Si  Si26  1  0.166355  0.166487  0.339817  1
  Si  Si27  1  0.666487  0.666355  0.160183  1
  Si  Si28  1  0.332292  0.332274  0.826495  1
  Si  Si29  1  0.832274  0.832292  0.673505  1
  Si  Si30  1  0.376150  0.609714  0.230043  1
  Si  Si31  1  0.109714  0.876150  0.269957  1
  Ru  Ru32  1  0.871481  0.871415  0.374150  1
  Ru  Ru33  1  0.371415  0.371481  0.125850  1
  Ru  Ru34  1  0.327993  0.668681  0.502546  1
  Ru  Ru35  1  0.168681  0.827993  0.997454  1
  Ru  Ru36  1  0.668924  0.328217  0.502545  1
  Ru  Ru37  1  0.828217  0.168924  0.997455  1
