# generated using pymatgen
data_Cr20Fe(MoC3)2
_symmetry_space_group_name_H-M   'P 1'
_cell_length_a   7.49380208
_cell_length_b   7.49380162
_cell_length_c   7.49380200
_cell_angle_alpha   59.99999833
_cell_angle_beta   60.00000037
_cell_angle_gamma   59.99999311
_symmetry_Int_Tables_number   1
_chemical_formula_structural   Cr20Fe(MoC3)2
_chemical_formula_sum   'Cr20 Fe1 Mo2 C6'
_cell_volume   297.57168237
_cell_formula_units_Z   1
loop_
 _symmetry_equiv_pos_site_id
 _symmetry_equiv_pos_as_xyz
  1  'x, y, z'
loop_
 _atom_site_type_symbol
 _atom_site_label
 _atom_site_symmetry_multiplicity
 _atom_site_fract_x
 _atom_site_fract_y
 _atom_site_fract_z
 _atom_site_occupancy
  Cr  Cr0  1  0.616378  0.616378  0.150869  1
  Cr  Cr1  1  0.616378  0.150868  0.616378  1
  Cr  Cr2  1  0.150869  0.616378  0.616378  1
  Cr  Cr3  1  0.616378  0.616378  0.616378  1
  Cr  Cr4  1  0.383622  0.383622  0.849131  1
  Cr  Cr5  1  0.383622  0.849131  0.383622  1
  Cr  Cr6  1  0.849131  0.383622  0.383622  1
  Cr  Cr7  1  0.383622  0.383622  0.383622  1
  Cr  Cr8  1  0.000000  0.000000  0.333047  1
  Cr  Cr9  1  0.666953  0.000000  0.333047  1
  Cr  Cr10  1  0.000000  0.666953  0.333047  1
  Cr  Cr11  1  0.666953  0.333047  0.000000  1
  Cr  Cr12  1  0.000000  0.333047  0.000000  1
  Cr  Cr13  1  0.000000  0.333047  0.666953  1
  Cr  Cr14  1  0.333047  0.666953  0.000000  1
  Cr  Cr15  1  0.333047  0.000000  0.666953  1
  Cr  Cr16  1  0.333047  0.000000  0.000000  1
  Cr  Cr17  1  0.000000  0.000000  0.666953  1
  Cr  Cr18  1  0.000000  0.666953  0.000000  1
  Cr  Cr19  1  0.666953  0.000000  0.000000  1
  Fe  Fe20  1  0.000000  0.000000  0.000000  1
  Mo  Mo21  1  0.750000  0.750000  0.750000  1
  Mo  Mo22  1  0.250000  0.250000  0.250000  1
  C  C23  1  0.723833  0.723833  0.276167  1
  C  C24  1  0.276167  0.723833  0.276167  1
  C  C25  1  0.723833  0.276167  0.276167  1
  C  C26  1  0.276167  0.276167  0.723833  1
  C  C27  1  0.723833  0.276167  0.723833  1
  C  C28  1  0.276167  0.723833  0.723833  1
