# generated using pymatgen
data_DyNp3O8
_symmetry_space_group_name_H-M   'P 1'
_cell_length_a   5.37167816
_cell_length_b   5.37196100
_cell_length_c   5.37468016
_cell_angle_alpha   90.00000000
_cell_angle_beta   90.02814046
_cell_angle_gamma   90.00000000
_symmetry_Int_Tables_number   1
_chemical_formula_structural   DyNp3O8
_chemical_formula_sum   'Dy1 Np3 O8'
_cell_volume   155.09414696
_cell_formula_units_Z   1
loop_
 _symmetry_equiv_pos_site_id
 _symmetry_equiv_pos_as_xyz
  1  'x, y, z'
loop_
 _atom_site_type_symbol
 _atom_site_label
 _atom_site_symmetry_multiplicity
 _atom_site_fract_x
 _atom_site_fract_y
 _atom_site_fract_z
 _atom_site_occupancy
  Dy  Dy0  1  0.000000  0.250007  0.250000  1
  Np  Np1  1  0.499999  0.749999  0.250000  1
  Np  Np2  1  0.499999  0.249999  0.750001  1
  Np  Np3  1  0.000000  0.750010  0.750001  1
  O  O4  1  0.253987  0.996232  0.997289  1
  O  O5  1  0.254063  0.503937  0.997296  1
  O  O6  1  0.746013  0.996232  0.502710  1
  O  O7  1  0.745937  0.503937  0.502703  1
  O  O8  1  0.253671  0.503689  0.504589  1
  O  O9  1  0.253599  0.996130  0.504598  1
  O  O10  1  0.746329  0.503689  0.995411  1
  O  O11  1  0.746401  0.996130  0.995402  1
