# generated using pymatgen
data_ThAl3Ag
_symmetry_space_group_name_H-M   'P 1'
_cell_length_a   4.27741360
_cell_length_b   4.27295074
_cell_length_c   6.37585345
_cell_angle_alpha   70.42208577
_cell_angle_beta   70.40080229
_cell_angle_gamma   90.00000683
_symmetry_Int_Tables_number   1
_chemical_formula_structural   ThAl3Ag
_chemical_formula_sum   'Th1 Al3 Ag1'
_cell_volume   102.60143872
_cell_formula_units_Z   1
loop_
 _symmetry_equiv_pos_site_id
 _symmetry_equiv_pos_as_xyz
  1  'x, y, z'
loop_
 _atom_site_type_symbol
 _atom_site_label
 _atom_site_symmetry_multiplicity
 _atom_site_fract_x
 _atom_site_fract_y
 _atom_site_fract_z
 _atom_site_occupancy
  Th  Th0  1  0.000076  0.000076  0.999848  1
  Al  Al1  1  0.249844  0.749844  0.500311  1
  Al  Al2  1  0.611752  0.611752  0.776498  1
  Al  Al3  1  0.388168  0.388168  0.223665  1
  Ag  Ag4  1  0.750161  0.250161  0.499679  1
