# generated using pymatgen
data_Yb3Dy17(Ga2Sn)4
_symmetry_space_group_name_H-M   'P 1'
_cell_length_a   7.93640500
_cell_length_b   7.93640500
_cell_length_c   14.08998500
_cell_angle_alpha   90.00000000
_cell_angle_beta   90.00000000
_cell_angle_gamma   90.00000000
_symmetry_Int_Tables_number   1
_chemical_formula_structural   Yb3Dy17(Ga2Sn)4
_chemical_formula_sum   'Yb3 Dy17 Ga8 Sn4'
_cell_volume   887.47918293
_cell_formula_units_Z   1
loop_
 _symmetry_equiv_pos_site_id
 _symmetry_equiv_pos_as_xyz
  1  'x, y, z'
loop_
 _atom_site_type_symbol
 _atom_site_label
 _atom_site_symmetry_multiplicity
 _atom_site_fract_x
 _atom_site_fract_y
 _atom_site_fract_z
 _atom_site_occupancy
  Yb  Yb0  1  0.000000  0.500000  0.746775  1
  Yb  Yb1  1  0.000000  0.500000  0.248316  1
  Yb  Yb2  1  0.500000  0.000000  0.250291  1
  Dy  Dy3  1  0.831854  0.835283  0.606669  1
  Dy  Dy4  1  0.165861  0.835393  0.106112  1
  Dy  Dy5  1  0.164849  0.832668  0.392589  1
  Dy  Dy6  1  0.835151  0.167332  0.392589  1
  Dy  Dy7  1  0.667332  0.664849  0.392589  1
  Dy  Dy8  1  0.664717  0.331854  0.606669  1
  Dy  Dy9  1  0.335283  0.668146  0.606669  1
  Dy  Dy10  1  0.664607  0.665861  0.106112  1
  Dy  Dy11  1  0.667279  0.337550  0.894400  1
  Dy  Dy12  1  0.837550  0.832721  0.894400  1
  Dy  Dy13  1  0.332668  0.335151  0.392589  1
  Dy  Dy14  1  0.168146  0.164717  0.606669  1
  Dy  Dy15  1  0.834139  0.164607  0.106112  1
  Dy  Dy16  1  0.332721  0.662450  0.894400  1
  Dy  Dy17  1  0.335393  0.334139  0.106112  1
  Dy  Dy18  1  0.162450  0.167279  0.894400  1
  Dy  Dy19  1  0.500000  0.000000  0.756319  1
  Ga  Ga20  1  0.623061  0.377635  0.249519  1
  Ga  Ga21  1  0.129085  0.880557  0.750321  1
  Ga  Ga22  1  0.380557  0.370915  0.750321  1
  Ga  Ga23  1  0.376939  0.622365  0.249519  1
  Ga  Ga24  1  0.877635  0.876939  0.249519  1
  Ga  Ga25  1  0.619443  0.629085  0.750321  1
  Ga  Ga26  1  0.870915  0.119443  0.750321  1
  Ga  Ga27  1  0.122365  0.123061  0.249519  1
  Sn  Sn28  1  0.000000  0.500000  0.500106  1
  Sn  Sn29  1  0.500000  0.000000  0.500809  1
  Sn  Sn30  1  0.500000  0.000000  0.998161  1
  Sn  Sn31  1  0.000000  0.500000  0.000779  1
