# generated using pymatgen
data_Sc3(Al2Ir)2
_symmetry_space_group_name_H-M   'P 1'
_cell_length_a   9.19983700
_cell_length_b   9.12469907
_cell_length_c   8.46235500
_cell_angle_alpha   90.00000000
_cell_angle_beta   90.00000000
_cell_angle_gamma   119.92579955
_symmetry_Int_Tables_number   1
_chemical_formula_structural   Sc3(Al2Ir)2
_chemical_formula_sum   'Sc12 Al16 Ir8'
_cell_volume   615.66545855
_cell_formula_units_Z   4
loop_
 _symmetry_equiv_pos_site_id
 _symmetry_equiv_pos_as_xyz
  1  'x, y, z'
loop_
 _atom_site_type_symbol
 _atom_site_label
 _atom_site_symmetry_multiplicity
 _atom_site_fract_x
 _atom_site_fract_y
 _atom_site_fract_z
 _atom_site_occupancy
  Sc  Sc0  1  0.337004  0.011945  0.061202  1
  Sc  Sc1  1  0.662996  0.988055  0.938798  1
  Sc  Sc2  1  0.999703  0.332815  0.058441  1
  Sc  Sc3  1  0.662996  0.988055  0.561202  1
  Sc  Sc4  1  0.999703  0.332815  0.441559  1
  Sc  Sc5  1  0.000297  0.667185  0.941559  1
  Sc  Sc6  1  0.337004  0.011945  0.438798  1
  Sc  Sc7  1  0.000297  0.667185  0.558441  1
  Sc  Sc8  1  0.667555  0.667307  0.061087  1
  Sc  Sc9  1  0.332445  0.332693  0.938913  1
  Sc  Sc10  1  0.332445  0.332693  0.561087  1
  Sc  Sc11  1  0.667555  0.667307  0.438913  1
  Al  Al12  1  0.339948  0.841138  0.750000  1
  Al  Al13  1  0.653256  0.500325  0.750000  1
  Al  Al14  1  0.660052  0.158862  0.250000  1
  Al  Al15  1  0.346744  0.499675  0.250000  1
  Al  Al16  1  0.828413  0.325083  0.750000  1
  Al  Al17  1  0.171587  0.674917  0.250000  1
  Al  Al18  1  0.337094  0.662634  0.505217  1
  Al  Al19  1  0.662906  0.337366  0.494783  1
  Al  Al20  1  0.662906  0.337366  0.005217  1
  Al  Al21  1  0.337094  0.662634  0.994783  1
  Al  Al22  1  0.174752  0.008691  0.750000  1
  Al  Al23  1  0.825248  0.991309  0.250000  1
  Al  Al24  1  0.005851  0.174012  0.750000  1
  Al  Al25  1  0.994149  0.825988  0.250000  1
  Al  Al26  1  0.829944  0.832947  0.750000  1
  Al  Al27  1  0.170056  0.167053  0.250000  1
  Ir  Ir28  1  0.000000  0.000000  0.500000  1
  Ir  Ir29  1  0.000000  0.000000  0.000000  1
  Ir  Ir30  1  0.148952  0.498528  0.750000  1
  Ir  Ir31  1  0.851048  0.501472  0.250000  1
  Ir  Ir32  1  0.508383  0.674416  0.750000  1
  Ir  Ir33  1  0.497967  0.166738  0.750000  1
  Ir  Ir34  1  0.491617  0.325584  0.250000  1
  Ir  Ir35  1  0.502033  0.833262  0.250000  1
