# generated using pymatgen
data_Yb4PdO6
_symmetry_space_group_name_H-M   'P 1'
_cell_length_a   6.46212314
_cell_length_b   6.46212343
_cell_length_c   6.46212397
_cell_angle_alpha   90.55877696
_cell_angle_beta   90.55877213
_cell_angle_gamma   90.55879097
_symmetry_Int_Tables_number   1
_chemical_formula_structural   Yb4PdO6
_chemical_formula_sum   'Yb8 Pd2 O12'
_cell_volume   269.81332492
_cell_formula_units_Z   2
loop_
 _symmetry_equiv_pos_site_id
 _symmetry_equiv_pos_as_xyz
  1  'x, y, z'
loop_
 _atom_site_type_symbol
 _atom_site_label
 _atom_site_symmetry_multiplicity
 _atom_site_fract_x
 _atom_site_fract_y
 _atom_site_fract_z
 _atom_site_occupancy
  Yb  Yb0  1  0.250000  0.250000  0.250000  1
  Yb  Yb1  1  0.750000  0.750000  0.750000  1
  Yb  Yb2  1  0.750000  0.116956  0.383044  1
  Yb  Yb3  1  0.383044  0.750000  0.116956  1
  Yb  Yb4  1  0.116956  0.383044  0.750000  1
  Yb  Yb5  1  0.250000  0.883044  0.616956  1
  Yb  Yb6  1  0.616956  0.250000  0.883044  1
  Yb  Yb7  1  0.883044  0.616956  0.250000  1
  Pd  Pd8  1  0.000000  0.000000  0.000000  1
  Pd  Pd9  1  0.500000  0.500000  0.500000  1
  O  O10  1  0.572629  0.801435  0.444532  1
  O  O11  1  0.444532  0.572629  0.801435  1
  O  O12  1  0.801435  0.444532  0.572629  1
  O  O13  1  0.927371  0.055468  0.698565  1
  O  O14  1  0.698565  0.927371  0.055468  1
  O  O15  1  0.055468  0.698565  0.927371  1
  O  O16  1  0.427371  0.198565  0.555468  1
  O  O17  1  0.555468  0.427371  0.198565  1
  O  O18  1  0.198565  0.555468  0.427371  1
  O  O19  1  0.072629  0.944532  0.301435  1
  O  O20  1  0.944532  0.301435  0.072629  1
  O  O21  1  0.301435  0.072629  0.944532  1
