# generated using pymatgen
data_Mg3Nb(InRh3)2
_symmetry_space_group_name_H-M   'P 1'
_cell_length_a   4.51303300
_cell_length_b   6.29198000
_cell_length_c   13.48823400
_cell_angle_alpha   90.00000000
_cell_angle_beta   89.99976680
_cell_angle_gamma   90.00000000
_symmetry_Int_Tables_number   1
_chemical_formula_structural   Mg3Nb(InRh3)2
_chemical_formula_sum   'Mg6 Nb2 In4 Rh12'
_cell_volume   383.01072425
_cell_formula_units_Z   2
loop_
 _symmetry_equiv_pos_site_id
 _symmetry_equiv_pos_as_xyz
  1  'x, y, z'
loop_
 _atom_site_type_symbol
 _atom_site_label
 _atom_site_symmetry_multiplicity
 _atom_site_fract_x
 _atom_site_fract_y
 _atom_site_fract_z
 _atom_site_occupancy
  Mg  Mg0  1  0.000001  0.000000  0.001808  1
  Mg  Mg1  1  0.500039  0.500001  0.167606  1
  Mg  Mg2  1  0.000015  0.000000  0.332386  1
  Mg  Mg3  1  0.499993  0.500001  0.498225  1
  Mg  Mg4  1  0.999965  0.000000  0.665672  1
  Mg  Mg5  1  0.499950  0.500001  0.834349  1
  Nb  Nb6  1  0.999929  0.500001  0.664413  1
  Nb  Nb7  1  0.499931  0.000000  0.835617  1
  In  In8  1  0.000014  0.500001  0.000086  1
  In  In9  1  0.500037  0.000000  0.167196  1
  In  In10  1  0.000039  0.500001  0.332769  1
  In  In11  1  0.500012  0.000000  0.499931  1
  Rh  Rh12  1  0.500007  0.242788  0.993382  1
  Rh  Rh13  1  0.500007  0.757212  0.993382  1
  Rh  Rh14  1  0.000067  0.250174  0.165263  1
  Rh  Rh15  1  0.000067  0.749828  0.165263  1
  Rh  Rh16  1  0.500055  0.249813  0.334727  1
  Rh  Rh17  1  0.500055  0.750187  0.334727  1
  Rh  Rh18  1  0.000005  0.257183  0.506572  1
  Rh  Rh19  1  0.000005  0.742817  0.506572  1
  Rh  Rh20  1  0.499951  0.254301  0.671074  1
  Rh  Rh21  1  0.499951  0.745699  0.671074  1
  Rh  Rh22  1  0.999949  0.245720  0.828953  1
  Rh  Rh23  1  0.999949  0.754282  0.828953  1
