# generated using pymatgen
data_Tm7Lu3InPb5
_symmetry_space_group_name_H-M   'P 1'
_cell_length_a   6.54214702
_cell_length_b   8.89179570
_cell_length_c   8.91848396
_cell_angle_alpha   119.99415060
_cell_angle_beta   89.99772151
_cell_angle_gamma   89.98302875
_symmetry_Int_Tables_number   1
_chemical_formula_structural   Tm7Lu3InPb5
_chemical_formula_sum   'Tm7 Lu3 In1 Pb5'
_cell_volume   449.32130177
_cell_formula_units_Z   1
loop_
 _symmetry_equiv_pos_site_id
 _symmetry_equiv_pos_as_xyz
  1  'x, y, z'
loop_
 _atom_site_type_symbol
 _atom_site_label
 _atom_site_symmetry_multiplicity
 _atom_site_fract_x
 _atom_site_fract_y
 _atom_site_fract_z
 _atom_site_occupancy
  Tm  Tm0  1  0.750271  0.236140  0.000544  1
  Tm  Tm1  1  0.750112  0.761350  0.767713  1
  Tm  Tm2  1  0.750048  0.993771  0.232483  1
  Tm  Tm3  1  0.249950  0.765506  0.999380  1
  Tm  Tm4  1  0.249908  0.237072  0.235300  1
  Tm  Tm5  1  0.249915  0.001040  0.764382  1
  Tm  Tm6  1  0.501941  0.337153  0.670833  1
  Lu  Lu7  1  0.502064  0.666268  0.329169  1
  Lu  Lu8  1  0.997911  0.665904  0.328772  1
  Lu  Lu9  1  0.997943  0.337267  0.671405  1
  In  In10  1  0.750274  0.601020  0.000051  1
  Pb  Pb11  1  0.750607  0.393101  0.394034  1
  Pb  Pb12  1  0.750419  0.998363  0.605709  1
  Pb  Pb13  1  0.250064  0.397843  0.000427  1
  Pb  Pb14  1  0.249261  0.606039  0.603126  1
  Pb  Pb15  1  0.249312  0.002165  0.396673  1
