# generated using pymatgen
data_YbY2Al3Si2Ni
_symmetry_space_group_name_H-M   'P 1'
_cell_length_a   6.92053500
_cell_length_b   6.87047091
_cell_length_c   4.20247900
_cell_angle_alpha   90.00000000
_cell_angle_beta   90.00000000
_cell_angle_gamma   120.24133639
_symmetry_Int_Tables_number   1
_chemical_formula_structural   YbY2Al3Si2Ni
_chemical_formula_sum   'Yb1 Y2 Al3 Si2 Ni1'
_cell_volume   172.62395688
_cell_formula_units_Z   1
loop_
 _symmetry_equiv_pos_site_id
 _symmetry_equiv_pos_as_xyz
  1  'x, y, z'
loop_
 _atom_site_type_symbol
 _atom_site_label
 _atom_site_symmetry_multiplicity
 _atom_site_fract_x
 _atom_site_fract_y
 _atom_site_fract_z
 _atom_site_occupancy
  Yb  Yb0  1  0.407908  0.000000  0.000000  1
  Y  Y1  1  0.000136  0.410184  0.000000  1
  Y  Y2  1  0.589951  0.589816  0.000000  1
  Al  Al3  1  0.768408  0.000000  0.500001  1
  Al  Al4  1  0.231471  0.235989  0.500001  1
  Al  Al5  1  0.995484  0.764012  0.500001  1
  Si  Si6  1  0.672858  0.339515  0.500001  1
  Si  Si7  1  0.333343  0.660485  0.500001  1
  Ni  Ni8  1  0.000440  0.000000  0.000000  1
