# generated using pymatgen
data_Tb4Re16Si7Ge
_symmetry_space_group_name_H-M   'P 1'
_cell_length_a   4.14248100
_cell_length_b   7.32421555
_cell_length_c   15.40321229
_cell_angle_alpha   89.98047621
_cell_angle_beta   90.00000000
_cell_angle_gamma   90.00000000
_symmetry_Int_Tables_number   1
_chemical_formula_structural   Tb4Re16Si7Ge
_chemical_formula_sum   'Tb4 Re16 Si7 Ge1'
_cell_volume   467.33996074
_cell_formula_units_Z   1
loop_
 _symmetry_equiv_pos_site_id
 _symmetry_equiv_pos_as_xyz
  1  'x, y, z'
loop_
 _atom_site_type_symbol
 _atom_site_label
 _atom_site_symmetry_multiplicity
 _atom_site_fract_x
 _atom_site_fract_y
 _atom_site_fract_z
 _atom_site_occupancy
  Tb  Tb0  1  0.000000  0.579146  0.118337  1
  Tb  Tb1  1  0.000000  0.419077  0.881638  1
  Tb  Tb2  1  0.500000  0.083588  0.380203  1
  Tb  Tb3  1  0.500000  0.921812  0.620913  1
  Re  Re4  1  0.000000  0.141047  0.051038  1
  Re  Re5  1  0.000000  0.856688  0.948861  1
  Re  Re6  1  0.500000  0.637994  0.447317  1
  Re  Re7  1  0.500000  0.358660  0.551492  1
  Re  Re8  1  0.000000  0.732752  0.320873  1
  Re  Re9  1  0.000000  0.265947  0.679083  1
  Re  Re10  1  0.500000  0.233252  0.177295  1
  Re  Re11  1  0.500000  0.764742  0.822310  1
  Re  Re12  1  0.000000  0.429162  0.417394  1
  Re  Re13  1  0.000000  0.568138  0.582049  1
  Re  Re14  1  0.500000  0.929042  0.081802  1
  Re  Re15  1  0.500000  0.068643  0.918170  1
  Re  Re16  1  0.000000  0.986974  0.205568  1
  Re  Re17  1  0.000000  0.010816  0.794428  1
  Re  Re18  1  0.500000  0.486768  0.292948  1
  Re  Re19  1  0.500000  0.511475  0.706227  1
  Si  Si20  1  0.000000  0.173525  0.524256  1
  Si  Si21  1  0.500000  0.333214  0.022642  1
  Si  Si22  1  0.500000  0.664810  0.977196  1
  Si  Si23  1  0.000000  0.289680  0.272158  1
  Si  Si24  1  0.000000  0.708783  0.727176  1
  Si  Si25  1  0.500000  0.788991  0.226656  1
  Si  Si26  1  0.500000  0.209887  0.773737  1
  Ge  Ge27  1  0.000000  0.845388  0.478234  1
