# generated using pymatgen
data_HoU(PO3)8
_symmetry_space_group_name_H-M   'P 1'
_cell_length_a   8.32323420
_cell_length_b   8.26860502
_cell_length_c   8.68733080
_cell_angle_alpha   117.66602506
_cell_angle_beta   117.69720686
_cell_angle_gamma   90.16288190
_symmetry_Int_Tables_number   1
_chemical_formula_structural   HoU(PO3)8
_chemical_formula_sum   'Ho1 U1 P8 O24'
_cell_volume   450.25088672
_cell_formula_units_Z   1
loop_
 _symmetry_equiv_pos_site_id
 _symmetry_equiv_pos_as_xyz
  1  'x, y, z'
loop_
 _atom_site_type_symbol
 _atom_site_label
 _atom_site_symmetry_multiplicity
 _atom_site_fract_x
 _atom_site_fract_y
 _atom_site_fract_z
 _atom_site_occupancy
  Ho  Ho0  1  0.719839  0.714745  0.932779  1
  U  U1  1  0.279362  0.283494  0.065656  1
  P  P2  1  0.235740  0.767990  0.282845  1
  P  P3  1  0.530465  0.992899  0.266259  1
  P  P4  1  0.763933  0.530273  0.268696  1
  P  P5  1  0.764201  0.233930  0.715786  1
  P  P6  1  0.001456  0.769805  0.722246  1
  P  P7  1  0.996062  0.228024  0.278733  1
  P  P8  1  0.469863  0.006557  0.732513  1
  P  P9  1  0.238126  0.469975  0.731192  1
  O  O10  1  0.719645  0.082482  0.488532  1
  O  O11  1  0.454136  0.153755  0.245796  1
  O  O12  1  0.279022  0.915309  0.509486  1
  O  O13  1  0.087900  0.285454  0.512492  1
  O  O14  1  0.043916  0.751867  0.132589  1
  O  O15  1  0.136155  0.967345  0.853523  1
  O  O16  1  0.130968  0.630664  0.742093  1
  O  O17  1  0.567640  0.858691  0.109534  1
  O  O18  1  0.871014  0.032907  0.149392  1
  O  O19  1  0.541010  0.850933  0.756039  1
  O  O20  1  0.912919  0.714708  0.489606  1
  O  O21  1  0.849928  0.741772  0.758365  1
  O  O22  1  0.957811  0.236585  0.862541  1
  O  O23  1  0.871329  0.371410  0.265533  1
  O  O24  1  0.586556  0.473980  0.263027  1
  O  O25  1  0.608976  0.133551  0.726598  1
  O  O26  1  0.148544  0.267687  0.241683  1
  O  O27  1  0.733453  0.415840  0.730910  1
  O  O28  1  0.392619  0.874823  0.280661  1
  O  O29  1  0.249326  0.427410  0.887729  1
  O  O30  1  0.278847  0.583182  0.266248  1
  O  O31  1  0.744338  0.569052  0.111935  1
  O  O32  1  0.422206  0.146158  0.883294  1
  O  O33  1  0.412694  0.516744  0.735689  1
