# generated using pymatgen
data_Yb6Si24IrRu7
_symmetry_space_group_name_H-M   'P 1'
_cell_length_a   10.14643466
_cell_length_b   10.14643450
_cell_length_c   8.14481313
_cell_angle_alpha   89.99175792
_cell_angle_beta   89.99175880
_cell_angle_gamma   132.66844296
_symmetry_Int_Tables_number   1
_chemical_formula_structural   Yb6Si24IrRu7
_chemical_formula_sum   'Yb6 Si24 Ir1 Ru7'
_cell_volume   616.54601047
_cell_formula_units_Z   1
loop_
 _symmetry_equiv_pos_site_id
 _symmetry_equiv_pos_as_xyz
  1  'x, y, z'
loop_
 _atom_site_type_symbol
 _atom_site_label
 _atom_site_symmetry_multiplicity
 _atom_site_fract_x
 _atom_site_fract_y
 _atom_site_fract_z
 _atom_site_occupancy
  Yb  Yb0  1  0.000192  0.999808  0.000000  1
  Yb  Yb1  1  0.500231  0.499769  0.500000  1
  Yb  Yb2  1  0.002484  0.502697  0.250611  1
  Yb  Yb3  1  0.998269  0.498164  0.749595  1
  Yb  Yb4  1  0.497303  0.997516  0.749389  1
  Yb  Yb5  1  0.501836  0.001731  0.250405  1
  Si  Si6  1  0.704000  0.296000  0.000000  1
  Si  Si7  1  0.294501  0.705499  0.000000  1
  Si  Si8  1  0.794306  0.205694  0.500000  1
  Si  Si9  1  0.205047  0.794953  0.500000  1
  Si  Si10  1  0.333989  0.333305  0.167613  1
  Si  Si11  1  0.666695  0.666011  0.832387  1
  Si  Si12  1  0.166644  0.165911  0.667514  1
  Si  Si13  1  0.834089  0.833356  0.332486  1
  Si  Si14  1  0.847530  0.614165  0.007329  1
  Si  Si15  1  0.157407  0.390086  0.994358  1
  Si  Si16  1  0.652026  0.885059  0.507325  1
  Si  Si17  1  0.114941  0.347974  0.492675  1
  Si  Si18  1  0.347015  0.114114  0.492348  1
  Si  Si19  1  0.885886  0.652985  0.507652  1
  Si  Si20  1  0.385835  0.152470  0.992671  1
  Si  Si21  1  0.609914  0.842593  0.005642  1
  Si  Si22  1  0.890865  0.123587  0.273461  1
  Si  Si23  1  0.107406  0.874720  0.730638  1
  Si  Si24  1  0.607693  0.374678  0.769098  1
  Si  Si25  1  0.625322  0.392307  0.230902  1
  Si  Si26  1  0.392527  0.624979  0.231360  1
  Si  Si27  1  0.375021  0.607473  0.768640  1
  Si  Si28  1  0.876413  0.109135  0.726539  1
  Si  Si29  1  0.125280  0.892594  0.269362  1
  Ir  Ir30  1  0.830610  0.169390  0.000000  1
  Ru  Ru31  1  0.169935  0.830065  0.000000  1
  Ru  Ru32  1  0.669622  0.330378  0.500000  1
  Ru  Ru33  1  0.330119  0.669881  0.500000  1
  Ru  Ru34  1  0.125953  0.126847  0.374487  1
  Ru  Ru35  1  0.873153  0.874047  0.625513  1
  Ru  Ru36  1  0.372887  0.372949  0.874815  1
  Ru  Ru37  1  0.627051  0.627113  0.125185  1
