# generated using pymatgen
data_HoZnCu3Au
_symmetry_space_group_name_H-M   'P 1'
_cell_length_a   5.06486634
_cell_length_b   5.06486657
_cell_length_c   5.06486696
_cell_angle_alpha   60.26260579
_cell_angle_beta   60.26260666
_cell_angle_gamma   60.26260304
_symmetry_Int_Tables_number   1
_chemical_formula_structural   HoZnCu3Au
_chemical_formula_sum   'Ho1 Zn1 Cu3 Au1'
_cell_volume   92.41933473
_cell_formula_units_Z   1
loop_
 _symmetry_equiv_pos_site_id
 _symmetry_equiv_pos_as_xyz
  1  'x, y, z'
loop_
 _atom_site_type_symbol
 _atom_site_label
 _atom_site_symmetry_multiplicity
 _atom_site_fract_x
 _atom_site_fract_y
 _atom_site_fract_z
 _atom_site_occupancy
  Ho  Ho0  1  0.248061  0.248061  0.248061  1
  Zn  Zn1  1  0.627249  0.627249  0.627249  1
  Cu  Cu2  1  0.626600  0.626600  0.122809  1
  Cu  Cu3  1  0.626600  0.122809  0.626600  1
  Cu  Cu4  1  0.122809  0.626600  0.626600  1
  Au  Au5  1  0.998680  0.998680  0.998680  1
