# generated using pymatgen
data_Pa2Co2Os
_symmetry_space_group_name_H-M   'P 1'
_cell_length_a   5.58452500
_cell_length_b   7.61262800
_cell_length_c   8.47558600
_cell_angle_alpha   90.00000000
_cell_angle_beta   90.00000000
_cell_angle_gamma   90.00000000
_symmetry_Int_Tables_number   1
_chemical_formula_structural   Pa2Co2Os
_chemical_formula_sum   'Pa8 Co8 Os4'
_cell_volume   360.32183653
_cell_formula_units_Z   4
loop_
 _symmetry_equiv_pos_site_id
 _symmetry_equiv_pos_as_xyz
  1  'x, y, z'
loop_
 _atom_site_type_symbol
 _atom_site_label
 _atom_site_symmetry_multiplicity
 _atom_site_fract_x
 _atom_site_fract_y
 _atom_site_fract_z
 _atom_site_occupancy
  Pa  Pa0  1  0.755970  0.905302  0.856020  1
  Pa  Pa1  1  0.744030  0.405302  0.643980  1
  Pa  Pa2  1  0.255970  0.094698  0.143980  1
  Pa  Pa3  1  0.244030  0.594698  0.356020  1
  Pa  Pa4  1  0.756291  0.929278  0.397878  1
  Pa  Pa5  1  0.743709  0.429278  0.102122  1
  Pa  Pa6  1  0.256291  0.070722  0.602122  1
  Pa  Pa7  1  0.243709  0.570722  0.897878  1
  Co  Co8  1  0.746331  0.586507  0.361218  1
  Co  Co9  1  0.753669  0.086507  0.138782  1
  Co  Co10  1  0.246331  0.413493  0.638782  1
  Co  Co11  1  0.253669  0.913493  0.861218  1
  Co  Co12  1  0.002917  0.737090  0.618700  1
  Co  Co13  1  0.497083  0.237090  0.881300  1
  Co  Co14  1  0.502917  0.262910  0.381300  1
  Co  Co15  1  0.997083  0.762910  0.118700  1
  Os  Os16  1  0.993226  0.264853  0.379983  1
  Os  Os17  1  0.506774  0.764853  0.120017  1
  Os  Os18  1  0.493226  0.735147  0.620017  1
  Os  Os19  1  0.006774  0.235147  0.879983  1
