# generated using pymatgen
data_K2AlH5
_symmetry_space_group_name_H-M   'P 1'
_cell_length_a   5.89660478
_cell_length_b   3.63634164
_cell_length_c   5.91400777
_cell_angle_alpha   89.37709429
_cell_angle_beta   89.39456066
_cell_angle_gamma   89.56427070
_symmetry_Int_Tables_number   1
_chemical_formula_structural   K2AlH5
_chemical_formula_sum   'K2 Al1 H5'
_cell_volume   126.79043505
_cell_formula_units_Z   1
loop_
 _symmetry_equiv_pos_site_id
 _symmetry_equiv_pos_as_xyz
  1  'x, y, z'
loop_
 _atom_site_type_symbol
 _atom_site_label
 _atom_site_symmetry_multiplicity
 _atom_site_fract_x
 _atom_site_fract_y
 _atom_site_fract_z
 _atom_site_occupancy
  K  K0  1  0.179760  0.092502  0.937252  1
  K  K1  1  0.679339  0.095620  0.436174  1
  Al  Al2  1  0.177872  0.595543  0.437264  1
  H  H3  1  0.178357  0.095013  0.437928  1
  H  H4  1  0.966856  0.589839  0.646118  1
  H  H5  1  0.969853  0.604495  0.229293  1
  H  H6  1  0.386254  0.585445  0.645043  1
  H  H7  1  0.388107  0.599602  0.227791  1
