# generated using pymatgen
data_Pr16MgZn2Co4Hg
_symmetry_space_group_name_H-M   'P 1'
_cell_length_a   9.85297298
_cell_length_b   9.86183626
_cell_length_c   9.85297211
_cell_angle_alpha   59.96895048
_cell_angle_beta   60.11823515
_cell_angle_gamma   59.96894654
_symmetry_Int_Tables_number   1
_chemical_formula_structural   Pr16MgZn2Co4Hg
_chemical_formula_sum   'Pr16 Mg1 Zn2 Co4 Hg1'
_cell_volume   677.26642089
_cell_formula_units_Z   1
loop_
 _symmetry_equiv_pos_site_id
 _symmetry_equiv_pos_as_xyz
  1  'x, y, z'
loop_
 _atom_site_type_symbol
 _atom_site_label
 _atom_site_symmetry_multiplicity
 _atom_site_fract_x
 _atom_site_fract_y
 _atom_site_fract_z
 _atom_site_occupancy
  Pr  Pr0  1  0.290001  0.903261  0.903565  1
  Pr  Pr1  1  0.687990  0.688189  0.308010  1
  Pr  Pr2  1  0.903565  0.903261  0.290001  1
  Pr  Pr3  1  0.310752  0.689053  0.310752  1
  Pr  Pr4  1  0.688905  0.314627  0.306525  1
  Pr  Pr5  1  0.061814  0.438957  0.439170  1
  Pr  Pr6  1  0.441807  0.057408  0.058061  1
  Pr  Pr7  1  0.058061  0.057408  0.441807  1
  Pr  Pr8  1  0.306525  0.314627  0.688905  1
  Pr  Pr9  1  0.439790  0.060568  0.439790  1
  Pr  Pr10  1  0.901724  0.901301  0.901724  1
  Pr  Pr11  1  0.439170  0.438957  0.061814  1
  Pr  Pr12  1  0.308010  0.688189  0.687990  1
  Pr  Pr13  1  0.687889  0.312438  0.687889  1
  Pr  Pr14  1  0.057965  0.441157  0.057965  1
  Pr  Pr15  1  0.903299  0.290469  0.903299  1
  Mg  Mg16  1  0.681897  0.678057  0.681897  1
  Zn  Zn17  1  0.669489  0.666481  0.995916  1
  Zn  Zn18  1  0.995916  0.666481  0.669489  1
  Co  Co19  1  0.108616  0.108817  0.108616  1
  Co  Co20  1  0.107366  0.108483  0.671926  1
  Co  Co21  1  0.671926  0.108483  0.107366  1
  Co  Co22  1  0.108037  0.670886  0.108037  1
  Hg  Hg23  1  0.669486  0.992444  0.669486  1
