# generated using pymatgen
data_NbZn6Fe5Rh12
_symmetry_space_group_name_H-M   'P 1'
_cell_length_a   4.29092000
_cell_length_b   6.06958900
_cell_length_c   12.82920200
_cell_angle_alpha   90.00000000
_cell_angle_beta   90.00011138
_cell_angle_gamma   90.00000000
_symmetry_Int_Tables_number   1
_chemical_formula_structural   NbZn6Fe5Rh12
_chemical_formula_sum   'Nb1 Zn6 Fe5 Rh12'
_cell_volume   334.12528706
_cell_formula_units_Z   1
loop_
 _symmetry_equiv_pos_site_id
 _symmetry_equiv_pos_as_xyz
  1  'x, y, z'
loop_
 _atom_site_type_symbol
 _atom_site_label
 _atom_site_symmetry_multiplicity
 _atom_site_fract_x
 _atom_site_fract_y
 _atom_site_fract_z
 _atom_site_occupancy
  Nb  Nb0  1  0.000000  0.500000  0.000000  1
  Zn  Zn1  1  0.000000  0.000000  0.000000  1
  Zn  Zn2  1  0.499710  0.500000  0.168417  1
  Zn  Zn3  1  0.999694  0.000000  0.336140  1
  Zn  Zn4  1  0.500001  0.500000  0.500000  1
  Zn  Zn5  1  0.000305  0.000000  0.663860  1
  Zn  Zn6  1  0.500289  0.500000  0.831583  1
  Fe  Fe7  1  0.499693  0.000000  0.170831  1
  Fe  Fe8  1  0.999715  0.500000  0.335180  1
  Fe  Fe9  1  0.500001  0.000000  0.500000  1
  Fe  Fe10  1  0.000284  0.500000  0.664819  1
  Fe  Fe11  1  0.500308  0.000000  0.829170  1
  Rh  Rh12  1  0.499999  0.242586  0.000000  1
  Rh  Rh13  1  0.499999  0.757416  0.000000  1
  Rh  Rh14  1  0.999718  0.246237  0.168200  1
  Rh  Rh15  1  0.999718  0.753763  0.168200  1
  Rh  Rh16  1  0.499727  0.249669  0.333481  1
  Rh  Rh17  1  0.499727  0.750329  0.333481  1
  Rh  Rh18  1  0.000000  0.251264  0.500000  1
  Rh  Rh19  1  0.000000  0.748736  0.500000  1
  Rh  Rh20  1  0.500274  0.249669  0.666519  1
  Rh  Rh21  1  0.500274  0.750329  0.666519  1
  Rh  Rh22  1  0.000281  0.246237  0.831800  1
  Rh  Rh23  1  0.000281  0.753763  0.831800  1
