# generated using pymatgen
data_La5Cu5Ni14
_symmetry_space_group_name_H-M   'P 1'
_cell_length_a   5.07359414
_cell_length_b   5.07359346
_cell_length_c   16.68503200
_cell_angle_alpha   81.25481277
_cell_angle_beta   81.25481395
_cell_angle_gamma   60.00000791
_symmetry_Int_Tables_number   1
_chemical_formula_structural   La5Cu5Ni14
_chemical_formula_sum   'La5 Cu5 Ni14'
_cell_volume   366.17689744
_cell_formula_units_Z   1
loop_
 _symmetry_equiv_pos_site_id
 _symmetry_equiv_pos_as_xyz
  1  'x, y, z'
loop_
 _atom_site_type_symbol
 _atom_site_label
 _atom_site_symmetry_multiplicity
 _atom_site_fract_x
 _atom_site_fract_y
 _atom_site_fract_z
 _atom_site_occupancy
  La  La0  1  0.999626  0.999626  0.001122  1
  La  La1  1  0.077217  0.077217  0.768348  1
  La  La2  1  0.921501  0.921501  0.235496  1
  La  La3  1  0.151157  0.151157  0.546526  1
  La  La4  1  0.848695  0.848695  0.453914  1
  Cu  Cu5  1  0.251030  0.251030  0.246910  1
  Cu  Cu6  1  0.749087  0.749087  0.752741  1
  Cu  Cu7  1  0.333299  0.333299  0.000101  1
  Cu  Cu8  1  0.666855  0.666855  0.999437  1
  Cu  Cu9  1  0.415704  0.415704  0.752887  1
  Ni  Ni10  1  0.500240  0.500240  0.499280  1
  Ni  Ni11  1  0.584607  0.584607  0.246179  1
  Ni  Ni12  1  0.124757  0.622688  0.629868  1
  Ni  Ni13  1  0.622688  0.622688  0.629868  1
  Ni  Ni14  1  0.622688  0.124757  0.629868  1
  Ni  Ni15  1  0.873616  0.378581  0.369221  1
  Ni  Ni16  1  0.378581  0.378581  0.369221  1
  Ni  Ni17  1  0.378581  0.873616  0.369221  1
  Ni  Ni18  1  0.041631  0.540708  0.876952  1
  Ni  Ni19  1  0.540708  0.540708  0.876952  1
  Ni  Ni20  1  0.540708  0.041631  0.876952  1
  Ni  Ni21  1  0.957494  0.459764  0.122979  1
  Ni  Ni22  1  0.459764  0.459764  0.122979  1
  Ni  Ni23  1  0.459764  0.957494  0.122979  1
