# generated using pymatgen
data_Pr12Si3BBr12
_symmetry_space_group_name_H-M   'P 1'
_cell_length_a   10.54400149
_cell_length_b   10.44416023
_cell_length_c   10.44416072
_cell_angle_alpha   109.27676566
_cell_angle_beta   109.66498258
_cell_angle_gamma   109.66498628
_symmetry_Int_Tables_number   1
_chemical_formula_structural   Pr12Si3BBr12
_chemical_formula_sum   'Pr12 Si3 B1 Br12'
_cell_volume   883.25581874
_cell_formula_units_Z   1
loop_
 _symmetry_equiv_pos_site_id
 _symmetry_equiv_pos_as_xyz
  1  'x, y, z'
loop_
 _atom_site_type_symbol
 _atom_site_label
 _atom_site_symmetry_multiplicity
 _atom_site_fract_x
 _atom_site_fract_y
 _atom_site_fract_z
 _atom_site_occupancy
  Pr  Pr0  1  0.467860  0.493311  0.226981  1
  Pr  Pr1  1  0.750000  0.239410  0.260590  1
  Pr  Pr2  1  0.750000  0.009695  0.490305  1
  Pr  Pr3  1  0.240305  0.480610  0.490305  1
  Pr  Pr4  1  0.259122  0.733671  0.226981  1
  Pr  Pr5  1  0.032140  0.273019  0.006689  1
  Pr  Pr6  1  0.010590  0.021179  0.260590  1
  Pr  Pr7  1  0.474549  0.733671  0.006689  1
  Pr  Pr8  1  0.489410  0.239410  0.478821  1
  Pr  Pr9  1  0.025451  0.493311  0.766329  1
  Pr  Pr10  1  0.259695  0.009695  0.019390  1
  Pr  Pr11  1  0.240878  0.273019  0.766329  1
  Si  Si12  1  0.250000  0.250340  0.249660  1
  Si  Si13  1  0.499660  0.999320  0.249660  1
  Si  Si14  1  0.000340  0.250340  0.500680  1
  B  B15  1  0.250000  0.500000  0.000000  1
  Br  Br16  1  0.250000  0.754966  0.745034  1
  Br  Br17  1  0.509969  0.505509  0.756559  1
  Br  Br18  1  0.990031  0.743441  0.994491  1
  Br  Br19  1  0.746591  0.251050  0.756559  1
  Br  Br20  1  0.995034  0.990068  0.745034  1
  Br  Br21  1  0.250000  0.996370  0.503630  1
  Br  Br22  1  0.753630  0.507260  0.503630  1
  Br  Br23  1  0.504460  0.251050  0.994491  1
  Br  Br24  1  0.753409  0.743441  0.248950  1
  Br  Br25  1  0.746370  0.996370  0.992740  1
  Br  Br26  1  0.995540  0.505509  0.248950  1
  Br  Br27  1  0.504966  0.754966  0.509932  1
