# generated using pymatgen
data_Tb4SmP12Pd2Ru17
_symmetry_space_group_name_H-M   'P 1'
_cell_length_a   3.98958800
_cell_length_b   12.55543563
_cell_length_c   12.55012305
_cell_angle_alpha   119.41542402
_cell_angle_beta   90.00000000
_cell_angle_gamma   90.00000000
_symmetry_Int_Tables_number   1
_chemical_formula_structural   Tb4SmP12Pd2Ru17
_chemical_formula_sum   'Tb4 Sm1 P12 Pd2 Ru17'
_cell_volume   547.60407727
_cell_formula_units_Z   1
loop_
 _symmetry_equiv_pos_site_id
 _symmetry_equiv_pos_as_xyz
  1  'x, y, z'
loop_
 _atom_site_type_symbol
 _atom_site_label
 _atom_site_symmetry_multiplicity
 _atom_site_fract_x
 _atom_site_fract_y
 _atom_site_fract_z
 _atom_site_occupancy
  Tb  Tb0  1  0.500000  0.181856  0.999227  1
  Tb  Tb1  1  0.500000  0.816671  0.816533  1
  Tb  Tb2  1  0.000000  0.335638  0.663961  1
  Tb  Tb3  1  0.000000  0.663864  0.335796  1
  Sm  Sm4  1  0.500000  0.999204  0.181828  1
  P  P5  1  0.000000  0.001411  0.813155  1
  P  P6  1  0.000000  0.812607  0.000572  1
  P  P7  1  0.000000  0.183824  0.182977  1
  P  P8  1  0.500000  0.306908  0.477137  1
  P  P9  1  0.500000  0.182160  0.699490  1
  P  P10  1  0.500000  0.522631  0.822171  1
  P  P11  1  0.500000  0.822386  0.523062  1
  P  P12  1  0.500000  0.477423  0.306931  1
  P  P13  1  0.500000  0.699300  0.182203  1
  P  P14  1  0.000000  0.999329  0.366290  1
  P  P15  1  0.000000  0.365484  0.999222  1
  P  P16  1  0.000000  0.625516  0.625508  1
  Pd  Pd17  1  0.000000  0.000601  0.553385  1
  Pd  Pd18  1  0.000000  0.552818  0.000544  1
  Ru  Ru19  1  0.000000  0.444864  0.444736  1
  Ru  Ru20  1  0.500000  0.002112  0.713218  1
  Ru  Ru21  1  0.500000  0.712479  0.001583  1
  Ru  Ru22  1  0.500000  0.283309  0.282795  1
  Ru  Ru23  1  0.000000  0.192795  0.377566  1
  Ru  Ru24  1  0.000000  0.186945  0.805401  1
  Ru  Ru25  1  0.000000  0.623479  0.814858  1
  Ru  Ru26  1  0.000000  0.815104  0.623693  1
  Ru  Ru27  1  0.000000  0.376921  0.191738  1
  Ru  Ru28  1  0.000000  0.804364  0.186903  1
  Ru  Ru29  1  0.500000  0.127928  0.493984  1
  Ru  Ru30  1  0.500000  0.370470  0.877979  1
  Ru  Ru31  1  0.500000  0.507861  0.631849  1
  Ru  Ru32  1  0.500000  0.631978  0.508003  1
  Ru  Ru33  1  0.500000  0.493804  0.127908  1
  Ru  Ru34  1  0.500000  0.877937  0.370877  1
  Ru  Ru35  1  0.000000  0.997921  0.996913  1
