# generated using pymatgen
data_Er7Pa(ReB6)4
_symmetry_space_group_name_H-M   'P 1'
_cell_length_a   3.67441500
_cell_length_b   9.13564533
_cell_length_c   11.50172113
_cell_angle_alpha   90.15133744
_cell_angle_beta   90.00000000
_cell_angle_gamma   90.00000000
_symmetry_Int_Tables_number   1
_chemical_formula_structural   Er7Pa(ReB6)4
_chemical_formula_sum   'Er7 Pa1 Re4 B24'
_cell_volume   386.09017924
_cell_formula_units_Z   1
loop_
 _symmetry_equiv_pos_site_id
 _symmetry_equiv_pos_as_xyz
  1  'x, y, z'
loop_
 _atom_site_type_symbol
 _atom_site_label
 _atom_site_symmetry_multiplicity
 _atom_site_fract_x
 _atom_site_fract_y
 _atom_site_fract_z
 _atom_site_occupancy
  Er  Er0  1  0.000000  0.679567  0.586857  1
  Er  Er1  1  0.000000  0.823234  0.085307  1
  Er  Er2  1  0.000000  0.175808  0.913490  1
  Er  Er3  1  0.000000  0.942503  0.371508  1
  Er  Er4  1  0.000000  0.055322  0.629503  1
  Er  Er5  1  0.000000  0.443423  0.127518  1
  Er  Er6  1  0.000000  0.557260  0.870363  1
  Pa  Pa7  1  0.000000  0.323229  0.414110  1
  Re  Re8  1  0.000000  0.635745  0.321863  1
  Re  Re9  1  0.000000  0.362303  0.676515  1
  Re  Re10  1  0.000000  0.140726  0.181417  1
  Re  Re11  1  0.000000  0.861702  0.821202  1
  B  B12  1  0.500000  0.552981  0.432307  1
  B  B13  1  0.500000  0.445992  0.567119  1
  B  B14  1  0.500000  0.053670  0.067038  1
  B  B15  1  0.500000  0.946955  0.933896  1
  B  B16  1  0.500000  0.749175  0.418643  1
  B  B17  1  0.500000  0.250430  0.581459  1
  B  B18  1  0.500000  0.248974  0.080237  1
  B  B19  1  0.500000  0.750759  0.919236  1
  B  B20  1  0.500000  0.791941  0.265535  1
  B  B21  1  0.500000  0.207825  0.735225  1
  B  B22  1  0.500000  0.291875  0.234272  1
  B  B23  1  0.500000  0.707918  0.765618  1
  B  B24  1  0.500000  0.631277  0.184408  1
  B  B25  1  0.500000  0.369686  0.814527  1
  B  B26  1  0.500000  0.131427  0.314860  1
  B  B27  1  0.500000  0.868891  0.685819  1
  B  B28  1  0.500000  0.982220  0.212016  1
  B  B29  1  0.500000  0.017857  0.788395  1
  B  B30  1  0.500000  0.482829  0.287159  1
  B  B31  1  0.500000  0.518163  0.712893  1
  B  B32  1  0.500000  0.601569  0.027728  1
  B  B33  1  0.500000  0.398627  0.971001  1
  B  B34  1  0.500000  0.103194  0.471540  1
  B  B35  1  0.500000  0.894946  0.529415  1
