# generated using pymatgen
data_YbTmU4(Cu3Sb4)2
_symmetry_space_group_name_H-M   'P 1'
_cell_length_a   8.30476968
_cell_length_b   8.32951767
_cell_length_c   8.29797422
_cell_angle_alpha   109.92907313
_cell_angle_beta   109.08029745
_cell_angle_gamma   109.35297160
_symmetry_Int_Tables_number   1
_chemical_formula_structural   YbTmU4(Cu3Sb4)2
_chemical_formula_sum   'Yb1 Tm1 U4 Cu6 Sb8'
_cell_volume   442.13382017
_cell_formula_units_Z   1
loop_
 _symmetry_equiv_pos_site_id
 _symmetry_equiv_pos_as_xyz
  1  'x, y, z'
loop_
 _atom_site_type_symbol
 _atom_site_label
 _atom_site_symmetry_multiplicity
 _atom_site_fract_x
 _atom_site_fract_y
 _atom_site_fract_z
 _atom_site_occupancy
  Yb  Yb0  1  0.624824  0.750092  0.374976  1
  Tm  Tm1  1  0.874924  0.249782  0.125098  1
  U  U2  1  0.247881  0.126223  0.875509  1
  U  U3  1  0.750930  0.373744  0.622753  1
  U  U4  1  0.123580  0.871347  0.249680  1
  U  U5  1  0.375955  0.625838  0.747395  1
  Cu  Cu6  1  0.374814  0.249657  0.625317  1
  Cu  Cu7  1  0.126372  0.751065  0.875851  1
  Cu  Cu8  1  0.249746  0.618232  0.368872  1
  Cu  Cu9  1  0.750797  0.882196  0.131993  1
  Cu  Cu10  1  0.631677  0.381205  0.249354  1
  Cu  Cu11  1  0.867843  0.118722  0.750601  1
  Sb  Sb12  1  0.665780  0.503480  0.999783  1
  Sb  Sb13  1  0.496532  0.998345  0.662236  1
  Sb  Sb14  1  0.002403  0.662223  0.499964  1
  Sb  Sb15  1  0.835947  0.837111  0.840432  1
  Sb  Sb16  1  0.501871  0.004996  0.164674  1
  Sb  Sb17  1  0.159100  0.495538  0.997189  1
  Sb  Sb18  1  0.000532  0.165335  0.503408  1
  Sb  Sb19  1  0.338492  0.334870  0.334917  1
