# generated using pymatgen
data_Dy5Si6Mo3(P3Ir8)2
_symmetry_space_group_name_H-M   'P 1'
_cell_length_a   12.77040400
_cell_length_b   12.77040376
_cell_length_c   3.99693700
_cell_angle_alpha   90.00000000
_cell_angle_beta   90.00000000
_cell_angle_gamma   120.00000063
_symmetry_Int_Tables_number   1
_chemical_formula_structural   Dy5Si6Mo3(P3Ir8)2
_chemical_formula_sum   'Dy5 Si6 Mo3 P6 Ir16'
_cell_volume   564.50422529
_cell_formula_units_Z   1
loop_
 _symmetry_equiv_pos_site_id
 _symmetry_equiv_pos_as_xyz
  1  'x, y, z'
loop_
 _atom_site_type_symbol
 _atom_site_label
 _atom_site_symmetry_multiplicity
 _atom_site_fract_x
 _atom_site_fract_y
 _atom_site_fract_z
 _atom_site_occupancy
  Dy  Dy0  1  0.333333  0.666667  0.500000  1
  Dy  Dy1  1  0.666667  0.333333  0.500000  1
  Dy  Dy2  1  0.000000  0.812078  0.000000  1
  Dy  Dy3  1  0.187922  0.187922  0.000000  1
  Dy  Dy4  1  0.812078  0.000000  0.000000  1
  Si  Si5  1  0.519008  0.684968  0.000000  1
  Si  Si6  1  0.315032  0.834040  0.000000  1
  Si  Si7  1  0.165960  0.480992  0.000000  1
  Si  Si8  1  0.480992  0.165960  0.000000  1
  Si  Si9  1  0.684968  0.519008  0.000000  1
  Si  Si10  1  0.834040  0.315032  0.000000  1
  Mo  Mo11  1  0.000000  0.446184  0.500000  1
  Mo  Mo12  1  0.553816  0.553816  0.500000  1
  Mo  Mo13  1  0.446184  0.000000  0.500000  1
  P  P14  1  0.000000  0.631488  0.500000  1
  P  P15  1  0.368512  0.368512  0.500000  1
  P  P16  1  0.631488  0.000000  0.500000  1
  P  P17  1  0.000000  0.179095  0.500000  1
  P  P18  1  0.820905  0.820905  0.500000  1
  P  P19  1  0.179095  0.000000  0.500000  1
  Ir  Ir20  1  0.513709  0.871644  0.000000  1
  Ir  Ir21  1  0.128356  0.642067  0.000000  1
  Ir  Ir22  1  0.357933  0.486291  0.000000  1
  Ir  Ir23  1  0.486291  0.357933  0.000000  1
  Ir  Ir24  1  0.871644  0.513709  0.000000  1
  Ir  Ir25  1  0.642067  0.128356  0.000000  1
  Ir  Ir26  1  0.000000  0.277409  0.000000  1
  Ir  Ir27  1  0.722591  0.722591  0.000000  1
  Ir  Ir28  1  0.277409  0.000000  0.000000  1
  Ir  Ir29  1  0.628552  0.809043  0.500000  1
  Ir  Ir30  1  0.190957  0.819509  0.500000  1
  Ir  Ir31  1  0.180491  0.371448  0.500000  1
  Ir  Ir32  1  0.371448  0.180491  0.500000  1
  Ir  Ir33  1  0.809043  0.628552  0.500000  1
  Ir  Ir34  1  0.819509  0.190957  0.500000  1
  Ir  Ir35  1  0.000000  0.000000  0.500000  1
