# generated using pymatgen
data_Pr2MnFe2PtO10
_symmetry_space_group_name_H-M   'P 1'
_cell_length_a   5.93998900
_cell_length_b   7.61999100
_cell_length_c   8.89495000
_cell_angle_alpha   90.00000000
_cell_angle_beta   90.00000000
_cell_angle_gamma   90.00000000
_symmetry_Int_Tables_number   1
_chemical_formula_structural   Pr2MnFe2PtO10
_chemical_formula_sum   'Pr4 Mn2 Fe4 Pt2 O20'
_cell_volume   402.60912176
_cell_formula_units_Z   2
loop_
 _symmetry_equiv_pos_site_id
 _symmetry_equiv_pos_as_xyz
  1  'x, y, z'
loop_
 _atom_site_type_symbol
 _atom_site_label
 _atom_site_symmetry_multiplicity
 _atom_site_fract_x
 _atom_site_fract_y
 _atom_site_fract_z
 _atom_site_occupancy
  Pr  Pr0  1  0.002753  0.364555  0.670271  1
  Pr  Pr1  1  0.002753  0.635445  0.329729  1
  Pr  Pr2  1  0.997247  0.864555  0.829729  1
  Pr  Pr3  1  0.997247  0.135445  0.170271  1
  Mn  Mn4  1  0.746465  0.500000  0.000000  1
  Mn  Mn5  1  0.253535  0.000000  0.500000  1
  Fe  Fe6  1  0.496193  0.106306  0.857317  1
  Fe  Fe7  1  0.496193  0.893694  0.142683  1
  Fe  Fe8  1  0.503807  0.606306  0.642683  1
  Fe  Fe9  1  0.503807  0.393694  0.357317  1
  Pt  Pt10  1  0.252180  0.500000  0.000000  1
  Pt  Pt11  1  0.747820  0.000000  0.500000  1
  O  O12  1  0.249549  0.902732  0.294795  1
  O  O13  1  0.249549  0.097268  0.705205  1
  O  O14  1  0.750451  0.402732  0.205205  1
  O  O15  1  0.750451  0.597268  0.794795  1
  O  O16  1  0.753903  0.099893  0.713374  1
  O  O17  1  0.753903  0.900107  0.286626  1
  O  O18  1  0.246097  0.599893  0.786626  1
  O  O19  1  0.246097  0.400107  0.213374  1
  O  O20  1  0.509688  0.343401  0.935642  1
  O  O21  1  0.509688  0.656599  0.064358  1
  O  O22  1  0.490312  0.843401  0.564358  1
  O  O23  1  0.490312  0.156599  0.435642  1
  O  O24  1  0.270415  0.000000  0.000000  1
  O  O25  1  0.729585  0.500000  0.500000  1
  O  O26  1  0.720483  0.000000  0.000000  1
  O  O27  1  0.279517  0.500000  0.500000  1
  O  O28  1  0.012965  0.160081  0.445884  1
  O  O29  1  0.012965  0.839919  0.554116  1
  O  O30  1  0.987035  0.660081  0.054116  1
  O  O31  1  0.987035  0.339919  0.945884  1
