# generated using pymatgen
data_Tm8Ti12Si15Ir
_symmetry_space_group_name_H-M   'P 1'
_cell_length_a   7.01554199
_cell_length_b   7.00903249
_cell_length_c   12.87645900
_cell_angle_alpha   89.97572972
_cell_angle_beta   89.83527999
_cell_angle_gamma   89.93976568
_symmetry_Int_Tables_number   1
_chemical_formula_structural   Tm8Ti12Si15Ir
_chemical_formula_sum   'Tm8 Ti12 Si15 Ir1'
_cell_volume   633.16030263
_cell_formula_units_Z   1
loop_
 _symmetry_equiv_pos_site_id
 _symmetry_equiv_pos_as_xyz
  1  'x, y, z'
loop_
 _atom_site_type_symbol
 _atom_site_label
 _atom_site_symmetry_multiplicity
 _atom_site_fract_x
 _atom_site_fract_y
 _atom_site_fract_z
 _atom_site_occupancy
  Tm  Tm0  1  0.338029  0.001818  0.467202  1
  Tm  Tm1  1  0.499652  0.841099  0.717666  1
  Tm  Tm2  1  0.501038  0.159201  0.216901  1
  Tm  Tm3  1  0.840912  0.497671  0.283295  1
  Tm  Tm4  1  0.157457  0.500407  0.782834  1
  Tm  Tm5  1  0.660600  0.997861  0.967928  1
  Tm  Tm6  1  0.001843  0.339141  0.534753  1
  Tm  Tm7  1  0.999191  0.658957  0.033040  1
  Ti  Ti8  1  0.327404  0.326411  0.001194  1
  Ti  Ti9  1  0.172749  0.827357  0.249843  1
  Ti  Ti10  1  0.831046  0.172221  0.747877  1
  Ti  Ti11  1  0.671735  0.671867  0.499264  1
  Ti  Ti12  1  0.156594  0.010209  0.872930  1
  Ti  Ti13  1  0.492389  0.651801  0.125425  1
  Ti  Ti14  1  0.499424  0.343295  0.626974  1
  Ti  Ti15  1  0.655026  0.496877  0.875589  1
  Ti  Ti16  1  0.348139  0.506368  0.373801  1
  Ti  Ti17  1  0.846533  0.992914  0.374592  1
  Ti  Ti18  1  0.007194  0.151048  0.125916  1
  Ti  Ti19  1  0.993199  0.851761  0.621049  1
  Si  Si20  1  0.368962  0.703082  0.933727  1
  Si  Si21  1  0.631867  0.296198  0.433063  1
  Si  Si22  1  0.704001  0.368346  0.067650  1
  Si  Si23  1  0.299946  0.632067  0.564972  1
  Si  Si24  1  0.795722  0.867600  0.182016  1
  Si  Si25  1  0.131159  0.203390  0.316597  1
  Si  Si26  1  0.867624  0.798107  0.817117  1
  Si  Si27  1  0.292773  0.953791  0.065262  1
  Si  Si28  1  0.545688  0.791995  0.314668  1
  Si  Si29  1  0.459391  0.213133  0.817761  1
  Si  Si30  1  0.788496  0.548947  0.685585  1
  Si  Si31  1  0.207176  0.453839  0.185202  1
  Si  Si32  1  0.704724  0.045063  0.562033  1
  Si  Si33  1  0.953120  0.291713  0.937781  1
  Si  Si34  1  0.046194  0.707144  0.433648  1
  Ir  Ir35  1  0.203003  0.127302  0.684848  1
