# generated using pymatgen
data_Sm6MnCo16MoP12
_symmetry_space_group_name_H-M   'P 1'
_cell_length_a   3.73898400
_cell_length_b   10.61996700
_cell_length_c   12.32968300
_cell_angle_alpha   90.00000000
_cell_angle_beta   90.00000000
_cell_angle_gamma   90.00000000
_symmetry_Int_Tables_number   1
_chemical_formula_structural   Sm6MnCo16MoP12
_chemical_formula_sum   'Sm6 Mn1 Co16 Mo1 P12'
_cell_volume   489.58565553
_cell_formula_units_Z   1
loop_
 _symmetry_equiv_pos_site_id
 _symmetry_equiv_pos_as_xyz
  1  'x, y, z'
loop_
 _atom_site_type_symbol
 _atom_site_label
 _atom_site_symmetry_multiplicity
 _atom_site_fract_x
 _atom_site_fract_y
 _atom_site_fract_z
 _atom_site_occupancy
  Sm  Sm0  1  0.000000  0.500000  0.521940  1
  Sm  Sm1  1  0.500000  0.000000  0.476159  1
  Sm  Sm2  1  0.500000  0.818017  0.204909  1
  Sm  Sm3  1  0.500000  0.181983  0.204909  1
  Sm  Sm4  1  0.000000  0.681436  0.794281  1
  Sm  Sm5  1  0.000000  0.318564  0.794281  1
  Mn  Mn6  1  0.500000  0.500000  0.158068  1
  Co  Co7  1  0.500000  0.500000  0.703516  1
  Co  Co8  1  0.000000  0.000000  0.297325  1
  Co  Co9  1  0.000000  0.500000  0.986960  1
  Co  Co10  1  0.500000  0.000000  0.013271  1
  Co  Co11  1  0.500000  0.333848  0.994821  1
  Co  Co12  1  0.500000  0.666152  0.994821  1
  Co  Co13  1  0.000000  0.168272  0.008720  1
  Co  Co14  1  0.000000  0.831728  0.008720  1
  Co  Co15  1  0.500000  0.296736  0.429834  1
  Co  Co16  1  0.500000  0.703264  0.429834  1
  Co  Co17  1  0.000000  0.204354  0.568590  1
  Co  Co18  1  0.000000  0.795646  0.568590  1
  Co  Co19  1  0.500000  0.879582  0.707882  1
  Co  Co20  1  0.500000  0.120418  0.707882  1
  Co  Co21  1  0.000000  0.619199  0.290045  1
  Co  Co22  1  0.000000  0.380801  0.290045  1
  Mo  Mo23  1  0.000000  0.000000  0.844945  1
  P  P24  1  0.500000  0.500000  0.885184  1
  P  P25  1  0.000000  0.000000  0.116444  1
  P  P26  1  0.500000  0.500000  0.342450  1
  P  P27  1  0.000000  0.000000  0.653269  1
  P  P28  1  0.500000  0.308877  0.614426  1
  P  P29  1  0.500000  0.691123  0.614426  1
  P  P30  1  0.000000  0.191635  0.384633  1
  P  P31  1  0.000000  0.808365  0.384633  1
  P  P32  1  0.500000  0.844571  0.895504  1
  P  P33  1  0.500000  0.155429  0.895504  1
  P  P34  1  0.000000  0.650823  0.106588  1
  P  P35  1  0.000000  0.349177  0.106588  1
