# generated using pymatgen
data_Pr4Y2Al24Os5Pt3
_symmetry_space_group_name_H-M   'P 1'
_cell_length_a   8.89869823
_cell_length_b   8.91680135
_cell_length_c   9.65825863
_cell_angle_alpha   90.03175590
_cell_angle_beta   89.85806847
_cell_angle_gamma   119.65966876
_symmetry_Int_Tables_number   1
_chemical_formula_structural   Pr4Y2Al24Os5Pt3
_chemical_formula_sum   'Pr4 Y2 Al24 Os5 Pt3'
_cell_volume   665.95172770
_cell_formula_units_Z   1
loop_
 _symmetry_equiv_pos_site_id
 _symmetry_equiv_pos_as_xyz
  1  'x, y, z'
loop_
 _atom_site_type_symbol
 _atom_site_label
 _atom_site_symmetry_multiplicity
 _atom_site_fract_x
 _atom_site_fract_y
 _atom_site_fract_z
 _atom_site_occupancy
  Pr  Pr0  1  0.187404  0.379295  0.249713  1
  Pr  Pr1  1  0.812596  0.620705  0.750287  1
  Pr  Pr2  1  0.617977  0.813730  0.251687  1
  Pr  Pr3  1  0.382023  0.186270  0.748313  1
  Y  Y4  1  0.195058  0.808780  0.250812  1
  Y  Y5  1  0.804942  0.191220  0.749188  1
  Al  Al6  1  0.334795  0.671919  0.026144  1
  Al  Al7  1  0.665205  0.328081  0.973856  1
  Al  Al8  1  0.670236  0.330748  0.524818  1
  Al  Al9  1  0.329764  0.669252  0.475182  1
  Al  Al10  1  0.156856  0.325651  0.573963  1
  Al  Al11  1  0.843144  0.674349  0.426037  1
  Al  Al12  1  0.673581  0.842318  0.574924  1
  Al  Al13  1  0.837933  0.675789  0.076965  1
  Al  Al14  1  0.326419  0.157682  0.425076  1
  Al  Al15  1  0.162067  0.324211  0.923035  1
  Al  Al16  1  0.164569  0.834719  0.573265  1
  Al  Al17  1  0.325901  0.157325  0.075328  1
  Al  Al18  1  0.835431  0.165281  0.426735  1
  Al  Al19  1  0.674099  0.842675  0.924672  1
  Al  Al20  1  0.831347  0.159542  0.075113  1
  Al  Al21  1  0.168653  0.840458  0.924887  1
  Al  Al22  1  0.560101  0.125089  0.249666  1
  Al  Al23  1  0.439899  0.874911  0.750334  1
  Al  Al24  1  0.873489  0.438102  0.253105  1
  Al  Al25  1  0.126511  0.561898  0.746895  1
  Al  Al26  1  0.564001  0.435167  0.249596  1
  Al  Al27  1  0.435999  0.564833  0.750404  1
  Al  Al28  1  0.000268  0.000937  0.250191  1
  Al  Al29  1  0.999732  0.999063  0.749809  1
  Os  Os30  1  0.500000  0.000000  0.000000  1
  Os  Os31  1  0.500000  0.000000  0.500000  1
  Os  Os32  1  0.000000  0.500000  0.500000  1
  Os  Os33  1  0.000000  0.000000  0.000000  1
  Os  Os34  1  0.000000  0.000000  0.500000  1
  Pt  Pt35  1  0.000000  0.500000  0.000000  1
  Pt  Pt36  1  0.500000  0.500000  0.000000  1
  Pt  Pt37  1  0.500000  0.500000  0.500000  1
