# generated using pymatgen
data_Ce2Y3Tm11(CdIr)4
_symmetry_space_group_name_H-M   'P 1'
_cell_length_a   9.60780668
_cell_length_b   9.61085580
_cell_length_c   9.62762724
_cell_angle_alpha   59.93523842
_cell_angle_beta   59.85617740
_cell_angle_gamma   59.78682635
_symmetry_Int_Tables_number   1
_chemical_formula_structural   Ce2Y3Tm11(CdIr)4
_chemical_formula_sum   'Ce2 Y3 Tm11 Cd4 Ir4'
_cell_volume   626.61588689
_cell_formula_units_Z   1
loop_
 _symmetry_equiv_pos_site_id
 _symmetry_equiv_pos_as_xyz
  1  'x, y, z'
loop_
 _atom_site_type_symbol
 _atom_site_label
 _atom_site_symmetry_multiplicity
 _atom_site_fract_x
 _atom_site_fract_y
 _atom_site_fract_z
 _atom_site_occupancy
  Ce  Ce0  1  0.346748  0.345667  0.349225  1
  Ce  Ce1  1  0.346284  0.346424  0.958416  1
  Y  Y2  1  0.939136  0.562740  0.935839  1
  Y  Y3  1  0.563246  0.565216  0.934797  1
  Y  Y4  1  0.939628  0.940759  0.559110  1
  Tm  Tm5  1  0.352464  0.948400  0.350274  1
  Tm  Tm6  1  0.948841  0.351667  0.349941  1
  Tm  Tm7  1  0.812348  0.187497  0.189127  1
  Tm  Tm8  1  0.188637  0.812847  0.810828  1
  Tm  Tm9  1  0.188207  0.812486  0.188935  1
  Tm  Tm10  1  0.812471  0.187954  0.810785  1
  Tm  Tm11  1  0.186893  0.185564  0.813679  1
  Tm  Tm12  1  0.812717  0.812987  0.187912  1
  Tm  Tm13  1  0.940219  0.561666  0.559539  1
  Tm  Tm14  1  0.559836  0.941528  0.937493  1
  Tm  Tm15  1  0.562403  0.939695  0.561798  1
  Cd  Cd16  1  0.581185  0.580925  0.579592  1
  Cd  Cd17  1  0.579938  0.580796  0.259567  1
  Cd  Cd18  1  0.579092  0.253918  0.583488  1
  Cd  Cd19  1  0.255539  0.579391  0.581769  1
  Ir  Ir20  1  0.143698  0.141514  0.141894  1
  Ir  Ir21  1  0.142672  0.142914  0.572954  1
  Ir  Ir22  1  0.144150  0.573788  0.142015  1
  Ir  Ir23  1  0.573652  0.143658  0.141025  1
