# generated using pymatgen
data_Pr19Nd(CoTe2)4
_symmetry_space_group_name_H-M   'P 1'
_cell_length_a   8.43312111
_cell_length_b   8.68486900
_cell_length_c   13.15048218
_cell_angle_alpha   90.00000000
_cell_angle_beta   89.98134250
_cell_angle_gamma   90.00000000
_symmetry_Int_Tables_number   1
_chemical_formula_structural   Pr19Nd(CoTe2)4
_chemical_formula_sum   'Pr19 Nd1 Co4 Te8'
_cell_volume   963.14852400
_cell_formula_units_Z   1
loop_
 _symmetry_equiv_pos_site_id
 _symmetry_equiv_pos_as_xyz
  1  'x, y, z'
loop_
 _atom_site_type_symbol
 _atom_site_label
 _atom_site_symmetry_multiplicity
 _atom_site_fract_x
 _atom_site_fract_y
 _atom_site_fract_z
 _atom_site_occupancy
  Pr  Pr0  1  0.155537  0.250000  0.191989  1
  Pr  Pr1  1  0.344051  0.250000  0.692659  1
  Pr  Pr2  1  0.655298  0.750000  0.307808  1
  Pr  Pr3  1  0.366448  0.750000  0.690159  1
  Pr  Pr4  1  0.633560  0.250000  0.309934  1
  Pr  Pr5  1  0.866666  0.250000  0.809994  1
  Pr  Pr6  1  0.133300  0.750000  0.189982  1
  Pr  Pr7  1  0.968881  0.750000  0.497473  1
  Pr  Pr8  1  0.030440  0.250000  0.503101  1
  Pr  Pr9  1  0.469371  0.250000  0.002393  1
  Pr  Pr10  1  0.531715  0.750000  0.997407  1
  Pr  Pr11  1  0.678822  0.029073  0.570800  1
  Pr  Pr12  1  0.320926  0.971062  0.429195  1
  Pr  Pr13  1  0.178813  0.970714  0.928934  1
  Pr  Pr14  1  0.320926  0.528938  0.429195  1
  Pr  Pr15  1  0.821519  0.029233  0.070495  1
  Pr  Pr16  1  0.678822  0.470927  0.570800  1
  Pr  Pr17  1  0.821519  0.470767  0.070495  1
  Pr  Pr18  1  0.178813  0.529286  0.928934  1
  Nd  Nd19  1  0.845001  0.750000  0.808442  1
  Co  Co20  1  0.555275  0.750000  0.511444  1
  Co  Co21  1  0.443973  0.250000  0.488616  1
  Co  Co22  1  0.055956  0.250000  0.988206  1
  Co  Co23  1  0.943978  0.750000  0.010918  1
  Te  Te24  1  0.562599  0.491960  0.821411  1
  Te  Te25  1  0.438463  0.508595  0.178376  1
  Te  Te26  1  0.060611  0.509364  0.678912  1
  Te  Te27  1  0.438463  0.991405  0.178376  1
  Te  Te28  1  0.938521  0.491299  0.321613  1
  Te  Te29  1  0.562599  0.008040  0.821411  1
  Te  Te30  1  0.938521  0.008701  0.321613  1
  Te  Te31  1  0.060611  0.990636  0.678912  1
