# generated using pymatgen
data_HoFe3P3Ru2
_symmetry_space_group_name_H-M   'P 1'
_cell_length_a   3.74834400
_cell_length_b   10.44362300
_cell_length_c   11.95695600
_cell_angle_alpha   90.00000000
_cell_angle_beta   90.00000000
_cell_angle_gamma   90.00000000
_symmetry_Int_Tables_number   1
_chemical_formula_structural   HoFe3P3Ru2
_chemical_formula_sum   'Ho4 Fe12 P12 Ru8'
_cell_volume   468.07048635
_cell_formula_units_Z   4
loop_
 _symmetry_equiv_pos_site_id
 _symmetry_equiv_pos_as_xyz
  1  'x, y, z'
loop_
 _atom_site_type_symbol
 _atom_site_label
 _atom_site_symmetry_multiplicity
 _atom_site_fract_x
 _atom_site_fract_y
 _atom_site_fract_z
 _atom_site_occupancy
  Ho  Ho0  1  0.250000  0.583090  0.709430  1
  Ho  Ho1  1  0.250000  0.916910  0.209430  1
  Ho  Ho2  1  0.750000  0.416910  0.290570  1
  Ho  Ho3  1  0.750000  0.083090  0.790570  1
  Fe  Fe4  1  0.250000  0.224426  0.175982  1
  Fe  Fe5  1  0.250000  0.275574  0.675982  1
  Fe  Fe6  1  0.750000  0.775574  0.824018  1
  Fe  Fe7  1  0.750000  0.724426  0.324018  1
  Fe  Fe8  1  0.250000  0.880541  0.698932  1
  Fe  Fe9  1  0.250000  0.619459  0.198932  1
  Fe  Fe10  1  0.750000  0.119459  0.301068  1
  Fe  Fe11  1  0.750000  0.380541  0.801068  1
  Fe  Fe12  1  0.250000  0.462033  0.934593  1
  Fe  Fe13  1  0.250000  0.037967  0.434593  1
  Fe  Fe14  1  0.750000  0.537967  0.065407  1
  Fe  Fe15  1  0.750000  0.962033  0.565407  1
  P  P16  1  0.250000  0.425238  0.113367  1
  P  P17  1  0.250000  0.074762  0.613367  1
  P  P18  1  0.750000  0.574762  0.886633  1
  P  P19  1  0.750000  0.925238  0.386633  1
  P  P20  1  0.250000  0.272368  0.861724  1
  P  P21  1  0.250000  0.227632  0.361724  1
  P  P22  1  0.750000  0.727632  0.138276  1
  P  P23  1  0.750000  0.772368  0.638276  1
  P  P24  1  0.250000  0.605704  0.384922  1
  P  P25  1  0.250000  0.894296  0.884922  1
  P  P26  1  0.750000  0.394296  0.615078  1
  P  P27  1  0.750000  0.105704  0.115078  1
  Ru  Ru28  1  0.250000  0.702561  0.984252  1
  Ru  Ru29  1  0.250000  0.797439  0.484252  1
  Ru  Ru30  1  0.750000  0.297439  0.015748  1
  Ru  Ru31  1  0.750000  0.202561  0.515748  1
  Ru  Ru32  1  0.250000  0.403154  0.485736  1
  Ru  Ru33  1  0.250000  0.096846  0.985736  1
  Ru  Ru34  1  0.750000  0.596846  0.514264  1
  Ru  Ru35  1  0.750000  0.903154  0.014264  1
