# generated using pymatgen
data_YSc2GaPt2
_symmetry_space_group_name_H-M   'P 1'
_cell_length_a   4.68485802
_cell_length_b   4.68485891
_cell_length_c   6.29792060
_cell_angle_alpha   89.94582367
_cell_angle_beta   90.05417969
_cell_angle_gamma   120.08413678
_symmetry_Int_Tables_number   1
_chemical_formula_structural   YSc2GaPt2
_chemical_formula_sum   'Y1 Sc2 Ga1 Pt2'
_cell_volume   119.60564471
_cell_formula_units_Z   1
loop_
 _symmetry_equiv_pos_site_id
 _symmetry_equiv_pos_as_xyz
  1  'x, y, z'
loop_
 _atom_site_type_symbol
 _atom_site_label
 _atom_site_symmetry_multiplicity
 _atom_site_fract_x
 _atom_site_fract_y
 _atom_site_fract_z
 _atom_site_occupancy
  Y  Y0  1  0.000000  0.000000  0.500000  1
  Sc  Sc1  1  0.666934  0.333066  0.170486  1
  Sc  Sc2  1  0.333066  0.666934  0.829514  1
  Ga  Ga3  1  0.000000  0.000000  0.000000  1
  Pt  Pt4  1  0.334011  0.665989  0.256518  1
  Pt  Pt5  1  0.665989  0.334011  0.743482  1
