# generated using pymatgen
data_Ca4Cu3Si3Ir
_symmetry_space_group_name_H-M   'P 1'
_cell_length_a   10.44893386
_cell_length_b   10.44893471
_cell_length_c   7.91020575
_cell_angle_alpha   72.45502423
_cell_angle_beta   72.45502384
_cell_angle_gamma   31.33925293
_symmetry_Int_Tables_number   1
_chemical_formula_structural   Ca4Cu3Si3Ir
_chemical_formula_sum   'Ca8 Cu6 Si6 Ir2'
_cell_volume   426.59857162
_cell_formula_units_Z   2
loop_
 _symmetry_equiv_pos_site_id
 _symmetry_equiv_pos_as_xyz
  1  'x, y, z'
loop_
 _atom_site_type_symbol
 _atom_site_label
 _atom_site_symmetry_multiplicity
 _atom_site_fract_x
 _atom_site_fract_y
 _atom_site_fract_z
 _atom_site_occupancy
  Ca  Ca0  1  0.943994  0.193845  0.320249  1
  Ca  Ca1  1  0.062464  0.798504  0.666988  1
  Ca  Ca2  1  0.806155  0.056006  0.179751  1
  Ca  Ca3  1  0.451521  0.206923  0.894776  1
  Ca  Ca4  1  0.793077  0.548479  0.605224  1
  Ca  Ca5  1  0.205565  0.454665  0.399298  1
  Ca  Ca6  1  0.201496  0.937536  0.833012  1
  Ca  Ca7  1  0.545335  0.794435  0.100702  1
  Cu  Cu8  1  0.300754  0.573125  0.026144  1
  Cu  Cu9  1  0.426875  0.699246  0.473856  1
  Cu  Cu10  1  0.651490  0.902933  0.299965  1
  Cu  Cu11  1  0.899600  0.654506  0.799674  1
  Cu  Cu12  1  0.345494  0.100400  0.700326  1
  Cu  Cu13  1  0.097067  0.348510  0.200035  1
  Si  Si14  1  0.313444  0.033246  0.446938  1
  Si  Si15  1  0.411350  0.588650  0.250000  1
  Si  Si16  1  0.023501  0.320370  0.944501  1
  Si  Si17  1  0.679630  0.976499  0.555499  1
  Si  Si18  1  0.966754  0.686556  0.053062  1
  Si  Si19  1  0.607365  0.392635  0.750000  1
  Ir  Ir20  1  0.576017  0.308947  0.527979  1
  Ir  Ir21  1  0.691053  0.423983  0.972021  1
