# generated using pymatgen
data_Sr3PI3
_symmetry_space_group_name_H-M   'P 1'
_cell_length_a   11.32113026
_cell_length_b   11.32112964
_cell_length_c   11.32113000
_cell_angle_alpha   109.47122127
_cell_angle_beta   109.47122017
_cell_angle_gamma   109.47121714
_symmetry_Int_Tables_number   1
_chemical_formula_structural   Sr3PI3
_chemical_formula_sum   'Sr12 P4 I12'
_cell_volume   1116.98529474
_cell_formula_units_Z   4
loop_
 _symmetry_equiv_pos_site_id
 _symmetry_equiv_pos_as_xyz
  1  'x, y, z'
loop_
 _atom_site_type_symbol
 _atom_site_label
 _atom_site_symmetry_multiplicity
 _atom_site_fract_x
 _atom_site_fract_y
 _atom_site_fract_z
 _atom_site_occupancy
  Sr  Sr0  1  0.766565  0.533131  0.516565  1
  Sr  Sr1  1  0.983435  0.516565  0.250000  1
  Sr  Sr2  1  0.533131  0.516565  0.766565  1
  Sr  Sr3  1  0.250000  0.766565  0.733435  1
  Sr  Sr4  1  0.516565  0.766565  0.533131  1
  Sr  Sr5  1  0.733435  0.250000  0.766565  1
  Sr  Sr6  1  0.516565  0.250000  0.983435  1
  Sr  Sr7  1  0.733435  0.983435  0.966869  1
  Sr  Sr8  1  0.766565  0.733435  0.250000  1
  Sr  Sr9  1  0.966869  0.733435  0.983435  1
  Sr  Sr10  1  0.250000  0.983435  0.516565  1
  Sr  Sr11  1  0.983435  0.966869  0.733435  1
  P  P12  1  0.750000  0.750000  0.750000  1
  P  P13  1  0.000000  0.750000  0.500000  1
  P  P14  1  0.750000  0.500000  0.000000  1
  P  P15  1  0.500000  0.000000  0.750000  1
  I  I16  1  0.252509  0.750000  0.247491  1
  I  I17  1  0.750000  0.002509  0.497491  1
  I  I18  1  0.002509  0.497491  0.750000  1
  I  I19  1  0.005020  0.252509  0.002509  1
  I  I20  1  0.497491  0.247491  0.494980  1
  I  I21  1  0.002509  0.005020  0.252509  1
  I  I22  1  0.247491  0.494980  0.497491  1
  I  I23  1  0.247491  0.252509  0.750000  1
  I  I24  1  0.497491  0.750000  0.002509  1
  I  I25  1  0.494980  0.497491  0.247491  1
  I  I26  1  0.750000  0.247491  0.252509  1
  I  I27  1  0.252509  0.002509  0.005020  1
