# generated using pymatgen
data_Nd5Ho3Si12(IrRh)2
_symmetry_space_group_name_H-M   'P 1'
_cell_length_a   8.23194900
_cell_length_b   8.23194792
_cell_length_c   8.17989000
_cell_angle_alpha   90.00000000
_cell_angle_beta   90.00000000
_cell_angle_gamma   120.00000032
_symmetry_Int_Tables_number   1
_chemical_formula_structural   Nd5Ho3Si12(IrRh)2
_chemical_formula_sum   'Nd5 Ho3 Si12 Ir2 Rh2'
_cell_volume   480.04657912
_cell_formula_units_Z   1
loop_
 _symmetry_equiv_pos_site_id
 _symmetry_equiv_pos_as_xyz
  1  'x, y, z'
loop_
 _atom_site_type_symbol
 _atom_site_label
 _atom_site_symmetry_multiplicity
 _atom_site_fract_x
 _atom_site_fract_y
 _atom_site_fract_z
 _atom_site_occupancy
  Nd  Nd0  1  0.000000  0.000000  0.248886  1
  Nd  Nd1  1  0.000000  0.000000  0.750990  1
  Nd  Nd2  1  0.505037  0.494963  0.250323  1
  Nd  Nd3  1  0.505037  0.010074  0.250323  1
  Nd  Nd4  1  0.989926  0.494963  0.250323  1
  Ho  Ho5  1  0.491800  0.508200  0.749710  1
  Ho  Ho6  1  0.491800  0.983600  0.749710  1
  Ho  Ho7  1  0.016400  0.508200  0.749710  1
  Si  Si8  1  0.166820  0.833180  0.506577  1
  Si  Si9  1  0.166820  0.333640  0.506577  1
  Si  Si10  1  0.666360  0.833180  0.506577  1
  Si  Si11  1  0.831718  0.168282  0.505003  1
  Si  Si12  1  0.831718  0.663437  0.505003  1
  Si  Si13  1  0.336563  0.168282  0.505003  1
  Si  Si14  1  0.831585  0.168415  0.996160  1
  Si  Si15  1  0.831585  0.663171  0.996160  1
  Si  Si16  1  0.336829  0.168415  0.996160  1
  Si  Si17  1  0.166781  0.833219  0.992897  1
  Si  Si18  1  0.166781  0.333562  0.992897  1
  Si  Si19  1  0.666438  0.833219  0.992897  1
  Ir  Ir20  1  0.333333  0.666667  0.491579  1
  Ir  Ir21  1  0.666667  0.333333  0.542267  1
  Rh  Rh22  1  0.666667  0.333333  0.952376  1
  Rh  Rh23  1  0.333333  0.666667  0.011890  1
