# generated using pymatgen
data_Er4MnPt11
_symmetry_space_group_name_H-M   'P 1'
_cell_length_a   4.16696500
_cell_length_b   5.77981043
_cell_length_c   11.54920485
_cell_angle_alpha   87.99777569
_cell_angle_beta   90.00000000
_cell_angle_gamma   90.00000000
_symmetry_Int_Tables_number   1
_chemical_formula_structural   Er4MnPt11
_chemical_formula_sum   'Er4 Mn1 Pt11'
_cell_volume   277.98432125
_cell_formula_units_Z   1
loop_
 _symmetry_equiv_pos_site_id
 _symmetry_equiv_pos_as_xyz
  1  'x, y, z'
loop_
 _atom_site_type_symbol
 _atom_site_label
 _atom_site_symmetry_multiplicity
 _atom_site_fract_x
 _atom_site_fract_y
 _atom_site_fract_z
 _atom_site_occupancy
  Er  Er0  1  0.500000  0.755101  0.373111  1
  Er  Er1  1  0.500000  0.722646  0.866531  1
  Er  Er2  1  0.500000  0.277354  0.133469  1
  Er  Er3  1  0.500000  0.244899  0.626889  1
  Mn  Mn4  1  0.000000  0.000000  0.000000  1
  Pt  Pt5  1  0.000000  0.012306  0.244652  1
  Pt  Pt6  1  0.000000  0.987694  0.755348  1
  Pt  Pt7  1  0.000000  0.500000  0.000000  1
  Pt  Pt8  1  0.000000  0.500000  0.500000  1
  Pt  Pt9  1  0.000000  0.513764  0.249335  1
  Pt  Pt10  1  0.000000  0.486236  0.750665  1
  Pt  Pt11  1  0.500000  0.251244  0.377480  1
  Pt  Pt12  1  0.500000  0.224314  0.885163  1
  Pt  Pt13  1  0.500000  0.775686  0.114837  1
  Pt  Pt14  1  0.500000  0.748756  0.622520  1
  Pt  Pt15  1  0.000000  0.000000  0.500000  1
