# generated using pymatgen
data_YbTm3(Ga8Pt3)3
_symmetry_space_group_name_H-M   'P 1'
_cell_length_a   7.49390196
_cell_length_b   7.57133756
_cell_length_c   13.38220767
_cell_angle_alpha   84.70232182
_cell_angle_beta   79.32779797
_cell_angle_gamma   60.28817404
_symmetry_Int_Tables_number   1
_chemical_formula_structural   YbTm3(Ga8Pt3)3
_chemical_formula_sum   'Yb1 Tm3 Ga24 Pt9'
_cell_volume   648.05954245
_cell_formula_units_Z   1
loop_
 _symmetry_equiv_pos_site_id
 _symmetry_equiv_pos_as_xyz
  1  'x, y, z'
loop_
 _atom_site_type_symbol
 _atom_site_label
 _atom_site_symmetry_multiplicity
 _atom_site_fract_x
 _atom_site_fract_y
 _atom_site_fract_z
 _atom_site_occupancy
  Yb  Yb0  1  0.395609  0.168112  0.808982  1
  Tm  Tm1  1  0.604063  0.832510  0.190606  1
  Tm  Tm2  1  0.732162  0.498835  0.810050  1
  Tm  Tm3  1  0.267331  0.500994  0.189847  1
  Ga  Ga4  1  0.685096  0.834556  0.938504  1
  Ga  Ga5  1  0.314390  0.166027  0.062188  1
  Ga  Ga6  1  0.146206  0.832377  0.559719  1
  Ga  Ga7  1  0.854000  0.167703  0.439685  1
  Ga  Ga8  1  0.479148  0.166456  0.556690  1
  Ga  Ga9  1  0.521154  0.833396  0.442940  1
  Ga  Ga10  1  0.221916  0.164976  0.322190  1
  Ga  Ga11  1  0.778530  0.835790  0.676101  1
  Ga  Ga12  1  0.437431  0.503046  0.674874  1
  Ga  Ga13  1  0.563228  0.496115  0.323299  1
  Ga  Ga14  1  0.108125  0.162613  0.674146  1
  Ga  Ga15  1  0.893203  0.837290  0.323994  1
  Ga  Ga16  1  0.359657  0.496216  0.938861  1
  Ga  Ga17  1  0.638893  0.504104  0.062801  1
  Ga  Ga18  1  0.019942  0.170259  0.944749  1
  Ga  Ga19  1  0.978867  0.829001  0.057835  1
  Ga  Ga20  1  0.186712  0.499284  0.442328  1
  Ga  Ga21  1  0.813438  0.500966  0.557132  1
  Ga  Ga22  1  0.734607  0.163966  0.182369  1
  Ga  Ga23  1  0.267130  0.832787  0.818169  1
  Ga  Ga24  1  0.058765  0.631320  0.817424  1
  Ga  Ga25  1  0.938414  0.370012  0.183181  1
  Ga  Ga26  1  0.857041  0.042660  0.817075  1
  Ga  Ga27  1  0.144477  0.958371  0.183447  1
  Pt  Pt28  1  0.117107  0.494594  0.639247  1
  Pt  Pt29  1  0.883257  0.506063  0.359874  1
  Pt  Pt30  1  0.660621  0.169306  0.000562  1
  Pt  Pt31  1  0.338474  0.830817  0.001447  1
  Pt  Pt32  1  0.540237  0.167243  0.359986  1
  Pt  Pt33  1  0.459401  0.832849  0.639571  1
  Pt  Pt34  1  0.779866  0.173099  0.636914  1
  Pt  Pt35  1  0.221994  0.826297  0.362001  1
  Pt  Pt36  1  0.999513  0.499990  0.001211  1
