# generated using pymatgen
data_Dy2YLu3FeBi2
_symmetry_space_group_name_H-M   'P 1'
_cell_length_a   8.22703400
_cell_length_b   8.21615751
_cell_length_c   4.16644000
_cell_angle_alpha   90.00000000
_cell_angle_beta   90.00000000
_cell_angle_gamma   120.04380845
_symmetry_Int_Tables_number   1
_chemical_formula_structural   Dy2YLu3FeBi2
_chemical_formula_sum   'Dy2 Y1 Lu3 Fe1 Bi2'
_cell_volume   243.79002203
_cell_formula_units_Z   1
loop_
 _symmetry_equiv_pos_site_id
 _symmetry_equiv_pos_as_xyz
  1  'x, y, z'
loop_
 _atom_site_type_symbol
 _atom_site_label
 _atom_site_symmetry_multiplicity
 _atom_site_fract_x
 _atom_site_fract_y
 _atom_site_fract_z
 _atom_site_occupancy
  Dy  Dy0  1  0.000085  0.609882  0.000000  1
  Dy  Dy1  1  0.390203  0.390118  0.000000  1
  Y  Y2  1  0.609608  0.000000  0.000000  1
  Lu  Lu3  1  0.227831  0.000000  0.500000  1
  Lu  Lu4  1  0.000103  0.227993  0.500000  1
  Lu  Lu5  1  0.772110  0.772007  0.500000  1
  Fe  Fe6  1  0.000105  0.000000  0.000000  1
  Bi  Bi7  1  0.333372  0.666791  0.500000  1
  Bi  Bi8  1  0.666582  0.333209  0.500000  1
