# generated using pymatgen
data_Dy3TlCd3InAg
_symmetry_space_group_name_H-M   'P 1'
_cell_length_a   7.57873300
_cell_length_b   7.57873248
_cell_length_c   4.48356100
_cell_angle_alpha   90.00000000
_cell_angle_beta   90.00000000
_cell_angle_gamma   119.99999788
_symmetry_Int_Tables_number   1
_chemical_formula_structural   Dy3TlCd3InAg
_chemical_formula_sum   'Dy3 Tl1 Cd3 In1 Ag1'
_cell_volume   223.02159033
_cell_formula_units_Z   1
loop_
 _symmetry_equiv_pos_site_id
 _symmetry_equiv_pos_as_xyz
  1  'x, y, z'
loop_
 _atom_site_type_symbol
 _atom_site_label
 _atom_site_symmetry_multiplicity
 _atom_site_fract_x
 _atom_site_fract_y
 _atom_site_fract_z
 _atom_site_occupancy
  Dy  Dy0  1  0.412536  0.413241  0.500000  1
  Dy  Dy1  1  0.586759  0.999295  0.500000  1
  Dy  Dy2  1  0.000705  0.587464  0.500000  1
  Tl  Tl3  1  0.333333  0.666667  0.000000  1
  Cd  Cd4  1  0.760154  0.755376  0.000000  1
  Cd  Cd5  1  0.244624  0.004778  0.000000  1
  Cd  Cd6  1  0.995222  0.239846  0.000000  1
  In  In7  1  0.666667  0.333333  0.000000  1
  Ag  Ag8  1  0.000000  0.000000  0.500000  1
