# generated using pymatgen
data_Dy5Ti2Cr(P3Ir4)4
_symmetry_space_group_name_H-M   'P 1'
_cell_length_a   12.69357000
_cell_length_b   12.75190130
_cell_length_c   3.94770700
_cell_angle_alpha   90.00000000
_cell_angle_beta   90.00000000
_cell_angle_gamma   119.84879765
_symmetry_Int_Tables_number   1
_chemical_formula_structural   Dy5Ti2Cr(P3Ir4)4
_chemical_formula_sum   'Dy5 Ti2 Cr1 P12 Ir16'
_cell_volume   554.23500480
_cell_formula_units_Z   1
loop_
 _symmetry_equiv_pos_site_id
 _symmetry_equiv_pos_as_xyz
  1  'x, y, z'
loop_
 _atom_site_type_symbol
 _atom_site_label
 _atom_site_symmetry_multiplicity
 _atom_site_fract_x
 _atom_site_fract_y
 _atom_site_fract_z
 _atom_site_occupancy
  Dy  Dy0  1  0.333093  0.665417  0.500000  1
  Dy  Dy1  1  0.667677  0.334583  0.500000  1
  Dy  Dy2  1  0.999326  0.811274  0.000000  1
  Dy  Dy3  1  0.188052  0.188726  0.000000  1
  Dy  Dy4  1  0.809592  0.000000  0.000000  1
  Ti  Ti5  1  0.000149  0.446720  0.500000  1
  Ti  Ti6  1  0.553429  0.553280  0.500000  1
  Cr  Cr7  1  0.455365  0.000000  0.500000  1
  P  P8  1  0.001853  0.640429  0.500000  1
  P  P9  1  0.361424  0.359571  0.500000  1
  P  P10  1  0.633315  0.000000  0.500000  1
  P  P11  1  0.516107  0.684674  0.000000  1
  P  P12  1  0.315396  0.832392  0.000000  1
  P  P13  1  0.166522  0.482380  0.000000  1
  P  P14  1  0.483004  0.167608  0.000000  1
  P  P15  1  0.684142  0.517620  0.000000  1
  P  P16  1  0.831433  0.315326  0.000000  1
  P  P17  1  0.999203  0.176085  0.500000  1
  P  P18  1  0.823118  0.823915  0.500000  1
  P  P19  1  0.178884  0.000000  0.500000  1
  Ir  Ir20  1  0.508064  0.867966  0.000000  1
  Ir  Ir21  1  0.132177  0.642657  0.000000  1
  Ir  Ir22  1  0.357460  0.491534  0.000000  1
  Ir  Ir23  1  0.489521  0.357343  0.000000  1
  Ir  Ir24  1  0.865927  0.508466  0.000000  1
  Ir  Ir25  1  0.640100  0.132034  0.000000  1
  Ir  Ir26  1  0.998931  0.281513  0.000000  1
  Ir  Ir27  1  0.717418  0.718487  0.000000  1
  Ir  Ir28  1  0.285517  0.000000  0.000000  1
  Ir  Ir29  1  0.624524  0.805409  0.500000  1
  Ir  Ir30  1  0.199135  0.823367  0.500000  1
  Ir  Ir31  1  0.178304  0.372707  0.500000  1
  Ir  Ir32  1  0.375767  0.176633  0.500000  1
  Ir  Ir33  1  0.805598  0.627293  0.500000  1
  Ir  Ir34  1  0.819115  0.194591  0.500000  1
  Ir  Ir35  1  0.001357  0.000000  0.500000  1
