# generated using pymatgen
data_LiEu2(SnP)6
_symmetry_space_group_name_H-M   'P 1'
_cell_length_a   6.97892906
_cell_length_b   6.97892956
_cell_length_c   9.13085544
_cell_angle_alpha   82.63386362
_cell_angle_beta   82.63386000
_cell_angle_gamma   119.95200973
_symmetry_Int_Tables_number   1
_chemical_formula_structural   LiEu2(SnP)6
_chemical_formula_sum   'Li1 Eu2 Sn6 P6'
_cell_volume   372.46292101
_cell_formula_units_Z   1
loop_
 _symmetry_equiv_pos_site_id
 _symmetry_equiv_pos_as_xyz
  1  'x, y, z'
loop_
 _atom_site_type_symbol
 _atom_site_label
 _atom_site_symmetry_multiplicity
 _atom_site_fract_x
 _atom_site_fract_y
 _atom_site_fract_z
 _atom_site_occupancy
  Li  Li0  1  0.000000  0.000000  0.000000  1
  Eu  Eu1  1  0.666439  0.333561  0.000000  1
  Eu  Eu2  1  0.333561  0.666439  0.000000  1
  Sn  Sn3  1  0.543927  0.880095  0.359136  1
  Sn  Sn4  1  0.215834  0.215834  0.360293  1
  Sn  Sn5  1  0.880095  0.543927  0.359136  1
  Sn  Sn6  1  0.456073  0.119905  0.640864  1
  Sn  Sn7  1  0.119905  0.456073  0.640864  1
  Sn  Sn8  1  0.784166  0.784166  0.639707  1
  P  P9  1  0.398341  0.398341  0.792738  1
  P  P10  1  0.068872  0.740017  0.793262  1
  P  P11  1  0.740017  0.068872  0.793262  1
  P  P12  1  0.601659  0.601659  0.207262  1
  P  P13  1  0.259983  0.931128  0.206738  1
  P  P14  1  0.931128  0.259983  0.206738  1
