# generated using pymatgen
data_Er10Bi5P2Pb
_symmetry_space_group_name_H-M   'P 1'
_cell_length_a   9.14561461
_cell_length_b   9.15500347
_cell_length_c   6.64445100
_cell_angle_alpha   90.00000000
_cell_angle_beta   90.00000000
_cell_angle_gamma   120.03396264
_symmetry_Int_Tables_number   1
_chemical_formula_structural   Er10Bi5P2Pb
_chemical_formula_sum   'Er10 Bi5 P2 Pb1'
_cell_volume   481.62876164
_cell_formula_units_Z   1
loop_
 _symmetry_equiv_pos_site_id
 _symmetry_equiv_pos_as_xyz
  1  'x, y, z'
loop_
 _atom_site_type_symbol
 _atom_site_label
 _atom_site_symmetry_multiplicity
 _atom_site_fract_x
 _atom_site_fract_y
 _atom_site_fract_z
 _atom_site_occupancy
  Er  Er0  1  0.763943  0.763970  0.250000  1
  Er  Er1  1  0.236057  0.000027  0.250000  1
  Er  Er2  1  0.000000  0.236813  0.250000  1
  Er  Er3  1  0.234867  0.237598  0.750000  1
  Er  Er4  1  0.765133  0.002732  0.750000  1
  Er  Er5  1  0.000000  0.763089  0.750000  1
  Er  Er6  1  0.668055  0.333454  0.500943  1
  Er  Er7  1  0.331945  0.665399  0.500943  1
  Er  Er8  1  0.331945  0.665399  0.999057  1
  Er  Er9  1  0.668055  0.333454  0.999057  1
  Bi  Bi10  1  0.400494  0.400026  0.250000  1
  Bi  Bi11  1  0.599506  0.999532  0.250000  1
  Bi  Bi12  1  0.000000  0.598402  0.250000  1
  Bi  Bi13  1  0.600473  0.600246  0.750000  1
  Bi  Bi14  1  0.399527  0.999773  0.750000  1
  P  P15  1  0.000000  0.999479  0.499835  1
  P  P16  1  0.000000  0.999479  0.000165  1
  Pb  Pb17  1  0.000000  0.401131  0.750000  1
