# generated using pymatgen
data_La4Cd2InAu10
_symmetry_space_group_name_H-M   'P 1'
_cell_length_a   8.88284021
_cell_length_b   8.87947764
_cell_length_c   10.48389049
_cell_angle_alpha   89.95752728
_cell_angle_beta   90.11794935
_cell_angle_gamma   108.93573399
_symmetry_Int_Tables_number   1
_chemical_formula_structural   La4Cd2InAu10
_chemical_formula_sum   'La8 Cd4 In2 Au20'
_cell_volume   782.16488289
_cell_formula_units_Z   2
loop_
 _symmetry_equiv_pos_site_id
 _symmetry_equiv_pos_as_xyz
  1  'x, y, z'
loop_
 _atom_site_type_symbol
 _atom_site_label
 _atom_site_symmetry_multiplicity
 _atom_site_fract_x
 _atom_site_fract_y
 _atom_site_fract_z
 _atom_site_occupancy
  La  La0  1  0.702950  0.297430  0.000900  1
  La  La1  1  0.202840  0.797857  0.499651  1
  La  La2  1  0.800633  0.801138  0.294921  1
  La  La3  1  0.300121  0.298894  0.202573  1
  La  La4  1  0.797217  0.202022  0.499555  1
  La  La5  1  0.296880  0.702910  0.000511  1
  La  La6  1  0.699998  0.701461  0.798088  1
  La  La7  1  0.199917  0.198918  0.704645  1
  Cd  Cd8  1  0.516265  0.016363  0.249779  1
  Cd  Cd9  1  0.983462  0.483349  0.750222  1
  Cd  Cd10  1  0.000433  0.000843  0.999464  1
  Cd  Cd11  1  0.016888  0.516689  0.249825  1
  In  In12  1  0.485497  0.985436  0.749935  1
  In  In13  1  0.500462  0.500141  0.500878  1
  Au  Au14  1  0.158768  0.430533  0.477983  1
  Au  Au15  1  0.903716  0.903151  0.593451  1
  Au  Au16  1  0.570552  0.842377  0.522866  1
  Au  Au17  1  0.887210  0.166103  0.207982  1
  Au  Au18  1  0.387874  0.666807  0.290791  1
  Au  Au19  1  0.666784  0.388927  0.290872  1
  Au  Au20  1  0.403927  0.404080  0.905751  1
  Au  Au21  1  0.930918  0.658431  0.021040  1
  Au  Au22  1  0.332915  0.607925  0.709279  1
  Au  Au23  1  0.342737  0.069893  0.978079  1
  Au  Au24  1  0.595966  0.596077  0.094513  1
  Au  Au25  1  0.658329  0.929600  0.023822  1
  Au  Au26  1  0.096101  0.096627  0.405855  1
  Au  Au27  1  0.611708  0.333249  0.709144  1
  Au  Au28  1  0.109863  0.833000  0.791884  1
  Au  Au29  1  0.068902  0.342131  0.978139  1
  Au  Au30  1  0.841885  0.569129  0.522285  1
  Au  Au31  1  0.166334  0.887127  0.208441  1
  Au  Au32  1  0.428674  0.158272  0.475064  1
  Au  Au33  1  0.833275  0.113112  0.791813  1
