# generated using pymatgen
data_NaHo(IO3)4
_symmetry_space_group_name_H-M   'P 1'
_cell_length_a   5.20920600
_cell_length_b   7.32503265
_cell_length_c   16.10123422
_cell_angle_alpha   78.69535443
_cell_angle_beta   90.00000000
_cell_angle_gamma   90.00000000
_symmetry_Int_Tables_number   1
_chemical_formula_structural   NaHo(IO3)4
_chemical_formula_sum   'Na2 Ho2 I8 O24'
_cell_volume   602.46470336
_cell_formula_units_Z   2
loop_
 _symmetry_equiv_pos_site_id
 _symmetry_equiv_pos_as_xyz
  1  'x, y, z'
loop_
 _atom_site_type_symbol
 _atom_site_label
 _atom_site_symmetry_multiplicity
 _atom_site_fract_x
 _atom_site_fract_y
 _atom_site_fract_z
 _atom_site_occupancy
  Na  Na0  1  0.500000  0.500000  0.000000  1
  Na  Na1  1  0.000000  0.500000  0.500000  1
  Ho  Ho2  1  0.500000  0.000000  0.000000  1
  Ho  Ho3  1  0.000000  0.000000  0.500000  1
  I  I4  1  0.904875  0.664019  0.165733  1
  I  I5  1  0.404875  0.335981  0.334267  1
  I  I6  1  0.095125  0.335981  0.834267  1
  I  I7  1  0.595125  0.664019  0.665733  1
  I  I8  1  0.993072  0.185343  0.139441  1
  I  I9  1  0.493072  0.814657  0.360559  1
  I  I10  1  0.006928  0.814657  0.860559  1
  I  I11  1  0.506928  0.185343  0.639441  1
  O  O12  1  0.681419  0.741455  0.075293  1
  O  O13  1  0.181419  0.258545  0.424707  1
  O  O14  1  0.318581  0.258545  0.924707  1
  O  O15  1  0.818581  0.741455  0.575293  1
  O  O16  1  0.797548  0.828207  0.231110  1
  O  O17  1  0.297548  0.171793  0.268890  1
  O  O18  1  0.202452  0.171793  0.768890  1
  O  O19  1  0.702452  0.828207  0.731110  1
  O  O20  1  0.733522  0.447402  0.209390  1
  O  O21  1  0.233522  0.552598  0.290610  1
  O  O22  1  0.266478  0.552598  0.790610  1
  O  O23  1  0.766478  0.447402  0.709390  1
  O  O24  1  0.741553  0.197734  0.056206  1
  O  O25  1  0.241553  0.802266  0.443794  1
  O  O26  1  0.258447  0.802266  0.943794  1
  O  O27  1  0.758447  0.197734  0.556206  1
  O  O28  1  0.200822  0.010334  0.103313  1
  O  O29  1  0.700822  0.989666  0.396687  1
  O  O30  1  0.799178  0.989666  0.896687  1
  O  O31  1  0.299178  0.010334  0.603313  1
  O  O32  1  0.155490  0.400250  0.094013  1
  O  O33  1  0.655490  0.599750  0.405987  1
  O  O34  1  0.844510  0.599750  0.905987  1
  O  O35  1  0.344510  0.400250  0.594013  1
