# generated using pymatgen
data_NaSiBiO4
_symmetry_space_group_name_H-M   'P 1'
_cell_length_a   5.18618500
_cell_length_b   6.90954600
_cell_length_c   11.25391100
_cell_angle_alpha   90.00000000
_cell_angle_beta   90.00000000
_cell_angle_gamma   90.00000000
_symmetry_Int_Tables_number   1
_chemical_formula_structural   NaSiBiO4
_chemical_formula_sum   'Na4 Si4 Bi4 O16'
_cell_volume   403.27471549
_cell_formula_units_Z   4
loop_
 _symmetry_equiv_pos_site_id
 _symmetry_equiv_pos_as_xyz
  1  'x, y, z'
loop_
 _atom_site_type_symbol
 _atom_site_label
 _atom_site_symmetry_multiplicity
 _atom_site_fract_x
 _atom_site_fract_y
 _atom_site_fract_z
 _atom_site_occupancy
  Na  Na0  1  0.500000  0.500000  0.000000  1
  Na  Na1  1  0.500000  0.000000  0.000000  1
  Na  Na2  1  0.000000  0.000000  0.500000  1
  Na  Na3  1  0.000000  0.500000  0.500000  1
  Si  Si4  1  0.570822  0.750000  0.402335  1
  Si  Si5  1  0.929178  0.750000  0.902335  1
  Si  Si6  1  0.429178  0.250000  0.597665  1
  Si  Si7  1  0.070822  0.250000  0.097665  1
  Bi  Bi8  1  0.512282  0.250000  0.279955  1
  Bi  Bi9  1  0.487718  0.750000  0.720045  1
  Bi  Bi10  1  0.987718  0.250000  0.779955  1
  Bi  Bi11  1  0.012282  0.750000  0.220045  1
  O  O12  1  0.757349  0.250000  0.100253  1
  O  O13  1  0.242651  0.750000  0.899747  1
  O  O14  1  0.742651  0.250000  0.600253  1
  O  O15  1  0.257349  0.750000  0.399747  1
  O  O16  1  0.806855  0.750000  0.037073  1
  O  O17  1  0.193145  0.250000  0.962927  1
  O  O18  1  0.693145  0.750000  0.537073  1
  O  O19  1  0.306855  0.250000  0.462927  1
  O  O20  1  0.706882  0.565088  0.327525  1
  O  O21  1  0.293118  0.065088  0.672475  1
  O  O22  1  0.793118  0.565088  0.827525  1
  O  O23  1  0.206882  0.065088  0.172475  1
  O  O24  1  0.206882  0.434912  0.172475  1
  O  O25  1  0.793118  0.934912  0.827525  1
  O  O26  1  0.293118  0.434912  0.672475  1
  O  O27  1  0.706882  0.934912  0.327525  1
