# generated using pymatgen
data_Y3In3AgHgRu
_symmetry_space_group_name_H-M   'P 1'
_cell_length_a   7.80554200
_cell_length_b   7.80554266
_cell_length_c   4.01246200
_cell_angle_alpha   90.00000000
_cell_angle_beta   90.00000000
_cell_angle_gamma   119.99998873
_symmetry_Int_Tables_number   1
_chemical_formula_structural   Y3In3AgHgRu
_chemical_formula_sum   'Y3 In3 Ag1 Hg1 Ru1'
_cell_volume   211.71312368
_cell_formula_units_Z   1
loop_
 _symmetry_equiv_pos_site_id
 _symmetry_equiv_pos_as_xyz
  1  'x, y, z'
loop_
 _atom_site_type_symbol
 _atom_site_label
 _atom_site_symmetry_multiplicity
 _atom_site_fract_x
 _atom_site_fract_y
 _atom_site_fract_z
 _atom_site_occupancy
  Y  Y0  1  0.397055  0.969559  0.500000  1
  Y  Y1  1  0.030441  0.427497  0.500000  1
  Y  Y2  1  0.572503  0.602945  0.500000  1
  In  In3  1  0.735291  0.988957  0.000000  1
  In  In4  1  0.011043  0.746334  0.000000  1
  In  In5  1  0.253666  0.264709  0.000000  1
  Ag  Ag6  1  0.000000  0.000000  0.500000  1
  Hg  Hg7  1  0.666667  0.333333  0.000000  1
  Ru  Ru8  1  0.333333  0.666667  0.000000  1
