# generated using pymatgen
data_Cs6Rb2SnAs4
_symmetry_space_group_name_H-M   'P 1'
_cell_length_a   11.86120934
_cell_length_b   11.86120905
_cell_length_c   11.86121000
_cell_angle_alpha   60.00000293
_cell_angle_beta   60.00000375
_cell_angle_gamma   60.00000329
_symmetry_Int_Tables_number   1
_chemical_formula_structural   Cs6Rb2SnAs4
_chemical_formula_sum   'Cs12 Rb4 Sn2 As8'
_cell_volume   1179.97270490
_cell_formula_units_Z   2
loop_
 _symmetry_equiv_pos_site_id
 _symmetry_equiv_pos_as_xyz
  1  'x, y, z'
loop_
 _atom_site_type_symbol
 _atom_site_label
 _atom_site_symmetry_multiplicity
 _atom_site_fract_x
 _atom_site_fract_y
 _atom_site_fract_z
 _atom_site_occupancy
  Cs  Cs0  1  0.024171  0.024171  0.475829  1
  Cs  Cs1  1  0.774171  0.225829  0.225829  1
  Cs  Cs2  1  0.225829  0.774171  0.774171  1
  Cs  Cs3  1  0.774171  0.774171  0.225829  1
  Cs  Cs4  1  0.774171  0.225829  0.774171  1
  Cs  Cs5  1  0.225829  0.774171  0.225829  1
  Cs  Cs6  1  0.475829  0.024171  0.475829  1
  Cs  Cs7  1  0.475829  0.024171  0.024171  1
  Cs  Cs8  1  0.024171  0.475829  0.475829  1
  Cs  Cs9  1  0.024171  0.475829  0.024171  1
  Cs  Cs10  1  0.225829  0.225829  0.774171  1
  Cs  Cs11  1  0.475829  0.475829  0.024171  1
  Rb  Rb12  1  0.625000  0.125000  0.625000  1
  Rb  Rb13  1  0.625000  0.625000  0.125000  1
  Rb  Rb14  1  0.125000  0.625000  0.625000  1
  Rb  Rb15  1  0.625000  0.625000  0.625000  1
  Sn  Sn16  1  0.750000  0.750000  0.750000  1
  Sn  Sn17  1  0.500000  0.500000  0.500000  1
  As  As18  1  0.404559  0.786323  0.404559  1
  As  As19  1  0.845441  0.845441  0.463677  1
  As  As20  1  0.463677  0.845441  0.845441  1
  As  As21  1  0.845441  0.845441  0.845441  1
  As  As22  1  0.786323  0.404559  0.404559  1
  As  As23  1  0.404559  0.404559  0.404559  1
  As  As24  1  0.404559  0.404559  0.786323  1
  As  As25  1  0.845441  0.463677  0.845441  1
