# generated using pymatgen
data_Y2Ho10Tc3Pt
_symmetry_space_group_name_H-M   'P 1'
_cell_length_a   6.28595524
_cell_length_b   7.40064975
_cell_length_c   9.14352300
_cell_angle_alpha   90.00000000
_cell_angle_beta   90.00000000
_cell_angle_gamma   90.01026805
_symmetry_Int_Tables_number   1
_chemical_formula_structural   Y2Ho10Tc3Pt
_chemical_formula_sum   'Y2 Ho10 Tc3 Pt1'
_cell_volume   425.35808258
_cell_formula_units_Z   1
loop_
 _symmetry_equiv_pos_site_id
 _symmetry_equiv_pos_as_xyz
  1  'x, y, z'
loop_
 _atom_site_type_symbol
 _atom_site_label
 _atom_site_symmetry_multiplicity
 _atom_site_fract_x
 _atom_site_fract_y
 _atom_site_fract_z
 _atom_site_occupancy
  Y  Y0  1  0.127698  0.456137  0.750000  1
  Y  Y1  1  0.371689  0.965326  0.750000  1
  Ho  Ho2  1  0.329591  0.676134  0.067208  1
  Ho  Ho3  1  0.164636  0.177544  0.435959  1
  Ho  Ho4  1  0.667562  0.318445  0.558634  1
  Ho  Ho5  1  0.837560  0.827153  0.940294  1
  Ho  Ho6  1  0.667562  0.318445  0.941366  1
  Ho  Ho7  1  0.837560  0.827153  0.559706  1
  Ho  Ho8  1  0.329591  0.676134  0.432792  1
  Ho  Ho9  1  0.164636  0.177544  0.064041  1
  Ho  Ho10  1  0.873053  0.542950  0.250000  1
  Ho  Ho11  1  0.622990  0.038621  0.250000  1
  Tc  Tc12  1  0.038069  0.885834  0.250000  1
  Tc  Tc13  1  0.464303  0.386989  0.250000  1
  Tc  Tc14  1  0.955393  0.113146  0.750000  1
  Pt  Pt15  1  0.548109  0.612443  0.750000  1
