# generated using pymatgen
data_Dy6Sc2Co16Si5P7
_symmetry_space_group_name_H-M   'P 1'
_cell_length_a   3.75950200
_cell_length_b   10.76544517
_cell_length_c   12.39791856
_cell_angle_alpha   90.07320768
_cell_angle_beta   90.00000000
_cell_angle_gamma   90.00000000
_symmetry_Int_Tables_number   1
_chemical_formula_structural   Dy6Sc2Co16Si5P7
_chemical_formula_sum   'Dy6 Sc2 Co16 Si5 P7'
_cell_volume   501.77698577
_cell_formula_units_Z   1
loop_
 _symmetry_equiv_pos_site_id
 _symmetry_equiv_pos_as_xyz
  1  'x, y, z'
loop_
 _atom_site_type_symbol
 _atom_site_label
 _atom_site_symmetry_multiplicity
 _atom_site_fract_x
 _atom_site_fract_y
 _atom_site_fract_z
 _atom_site_occupancy
  Dy  Dy0  1  0.000000  0.503370  0.531434  1
  Dy  Dy1  1  0.500000  0.000246  0.468857  1
  Dy  Dy2  1  0.500000  0.820317  0.208296  1
  Dy  Dy3  1  0.500000  0.179455  0.207136  1
  Dy  Dy4  1  0.000000  0.680161  0.792535  1
  Dy  Dy5  1  0.000000  0.320847  0.793795  1
  Sc  Sc6  1  0.500000  0.500065  0.152603  1
  Sc  Sc7  1  0.000000  0.999405  0.848253  1
  Co  Co8  1  0.500000  0.503896  0.700216  1
  Co  Co9  1  0.000000  0.999969  0.300802  1
  Co  Co10  1  0.000000  0.500287  0.990939  1
  Co  Co11  1  0.500000  0.999656  0.010022  1
  Co  Co12  1  0.500000  0.329195  0.997040  1
  Co  Co13  1  0.500000  0.670849  0.997674  1
  Co  Co14  1  0.000000  0.170454  0.003569  1
  Co  Co15  1  0.000000  0.829105  0.003698  1
  Co  Co16  1  0.500000  0.293766  0.429150  1
  Co  Co17  1  0.500000  0.706784  0.433646  1
  Co  Co18  1  0.000000  0.200102  0.563159  1
  Co  Co19  1  0.000000  0.794341  0.565808  1
  Co  Co20  1  0.500000  0.876608  0.704346  1
  Co  Co21  1  0.500000  0.118726  0.705988  1
  Co  Co22  1  0.000000  0.623029  0.296249  1
  Co  Co23  1  0.000000  0.378838  0.295321  1
  Si  Si24  1  0.500000  0.500356  0.886626  1
  Si  Si25  1  0.000000  0.999770  0.114053  1
  Si  Si26  1  0.500000  0.500360  0.357338  1
  Si  Si27  1  0.000000  0.999374  0.643195  1
  Si  Si28  1  0.500000  0.305109  0.614016  1
  P  P29  1  0.500000  0.695088  0.615238  1
  P  P30  1  0.000000  0.194622  0.383415  1
  P  P31  1  0.000000  0.806438  0.384520  1
  P  P32  1  0.500000  0.838200  0.894641  1
  P  P33  1  0.500000  0.160950  0.894451  1
  P  P34  1  0.000000  0.661509  0.106304  1
  P  P35  1  0.000000  0.338752  0.105665  1
