# generated using pymatgen
data_Hf4Al5V2Pd
_symmetry_space_group_name_H-M   'P 1'
_cell_length_a   5.26969400
_cell_length_b   5.26452688
_cell_length_c   8.57521000
_cell_angle_alpha   90.00000000
_cell_angle_beta   90.00000000
_cell_angle_gamma   120.03246042
_symmetry_Int_Tables_number   1
_chemical_formula_structural   Hf4Al5V2Pd
_chemical_formula_sum   'Hf4 Al5 V2 Pd1'
_cell_volume   205.95768111
_cell_formula_units_Z   1
loop_
 _symmetry_equiv_pos_site_id
 _symmetry_equiv_pos_as_xyz
  1  'x, y, z'
loop_
 _atom_site_type_symbol
 _atom_site_label
 _atom_site_symmetry_multiplicity
 _atom_site_fract_x
 _atom_site_fract_y
 _atom_site_fract_z
 _atom_site_occupancy
  Hf  Hf0  1  0.334605  0.669211  0.425279  1
  Hf  Hf1  1  0.662834  0.325667  0.946437  1
  Hf  Hf2  1  0.662834  0.325667  0.553563  1
  Hf  Hf3  1  0.334605  0.669211  0.074721  1
  Al  Al4  1  0.652770  0.816976  0.750000  1
  Al  Al5  1  0.008823  0.017645  0.000356  1
  Al  Al6  1  0.008823  0.017645  0.499644  1
  Al  Al7  1  0.832473  0.664945  0.250000  1
  Al  Al8  1  0.164204  0.816976  0.750000  1
  V  V9  1  0.815409  0.170985  0.250000  1
  V  V10  1  0.355576  0.170985  0.250000  1
  Pd  Pd11  1  0.167043  0.334087  0.750000  1
