# generated using pymatgen
data_Tb14Nd2MgHg3Pt4
_symmetry_space_group_name_H-M   'P 1'
_cell_length_a   9.74424887
_cell_length_b   9.77115371
_cell_length_c   9.74566500
_cell_angle_alpha   60.08624986
_cell_angle_beta   59.99518903
_cell_angle_gamma   59.91074037
_symmetry_Int_Tables_number   1
_chemical_formula_structural   Tb14Nd2MgHg3Pt4
_chemical_formula_sum   'Tb14 Nd2 Mg1 Hg3 Pt4'
_cell_volume   656.08934443
_cell_formula_units_Z   1
loop_
 _symmetry_equiv_pos_site_id
 _symmetry_equiv_pos_as_xyz
  1  'x, y, z'
loop_
 _atom_site_type_symbol
 _atom_site_label
 _atom_site_symmetry_multiplicity
 _atom_site_fract_x
 _atom_site_fract_y
 _atom_site_fract_z
 _atom_site_occupancy
  Tb  Tb0  1  0.351485  0.350330  0.349219  1
  Tb  Tb1  1  0.351485  0.350330  0.948967  1
  Tb  Tb2  1  0.353413  0.944955  0.350817  1
  Tb  Tb3  1  0.937295  0.353984  0.354362  1
  Tb  Tb4  1  0.808161  0.191954  0.192049  1
  Tb  Tb5  1  0.187478  0.812259  0.810703  1
  Tb  Tb6  1  0.187478  0.812259  0.189560  1
  Tb  Tb7  1  0.808161  0.191954  0.807835  1
  Tb  Tb8  1  0.187274  0.191012  0.810857  1
  Tb  Tb9  1  0.807859  0.809217  0.191461  1
  Tb  Tb10  1  0.936487  0.562050  0.563002  1
  Tb  Tb11  1  0.560148  0.939753  0.936995  1
  Tb  Tb12  1  0.560148  0.939753  0.563103  1
  Tb  Tb13  1  0.936487  0.562050  0.938460  1
  Nd  Nd14  1  0.565113  0.567430  0.933728  1
  Nd  Nd15  1  0.934676  0.931247  0.567038  1
  Mg  Mg16  1  0.283813  0.570692  0.572748  1
  Hg  Hg17  1  0.583265  0.587898  0.583879  1
  Hg  Hg18  1  0.583265  0.587898  0.244957  1
  Hg  Hg19  1  0.579955  0.242222  0.588912  1
  Pt  Pt20  1  0.142805  0.144382  0.142597  1
  Pt  Pt21  1  0.142805  0.144382  0.570216  1
  Pt  Pt22  1  0.138592  0.571560  0.144924  1
  Pt  Pt23  1  0.572353  0.140425  0.143611  1
