# generated using pymatgen
data_Er6CdHg9
_symmetry_space_group_name_H-M   'P 1'
_cell_length_a   6.37605104
_cell_length_b   6.37605009
_cell_length_c   10.09268700
_cell_angle_alpha   90.00000000
_cell_angle_beta   90.00000000
_cell_angle_gamma   106.90719469
_symmetry_Int_Tables_number   1
_chemical_formula_structural   Er6CdHg9
_chemical_formula_sum   'Er6 Cd1 Hg9'
_cell_volume   392.57358128
_cell_formula_units_Z   1
loop_
 _symmetry_equiv_pos_site_id
 _symmetry_equiv_pos_as_xyz
  1  'x, y, z'
loop_
 _atom_site_type_symbol
 _atom_site_label
 _atom_site_symmetry_multiplicity
 _atom_site_fract_x
 _atom_site_fract_y
 _atom_site_fract_z
 _atom_site_occupancy
  Er  Er0  1  0.548026  0.548026  0.250000  1
  Er  Er1  1  0.445380  0.445380  0.750000  1
  Er  Er2  1  0.221284  0.778442  0.502194  1
  Er  Er3  1  0.221284  0.778442  0.997806  1
  Er  Er4  1  0.778442  0.221284  0.502194  1
  Er  Er5  1  0.778442  0.221284  0.997806  1
  Cd  Cd6  1  0.979971  0.979971  0.250000  1
  Hg  Hg7  1  0.032720  0.032720  0.750000  1
  Hg  Hg8  1  0.279374  0.279374  0.025883  1
  Hg  Hg9  1  0.716896  0.716896  0.977602  1
  Hg  Hg10  1  0.279374  0.279374  0.474117  1
  Hg  Hg11  1  0.716896  0.716896  0.522398  1
  Hg  Hg12  1  0.486448  0.025738  0.250000  1
  Hg  Hg13  1  0.967548  0.522176  0.750000  1
  Hg  Hg14  1  0.522176  0.967548  0.750000  1
  Hg  Hg15  1  0.025738  0.486448  0.250000  1
