# generated using pymatgen
data_Tm2Pa(Ga2Co3)3
_symmetry_space_group_name_H-M   'P 1'
_cell_length_a   4.15653500
_cell_length_b   8.57141605
_cell_length_c   8.57141700
_cell_angle_alpha   60.00139642
_cell_angle_beta   90.00000000
_cell_angle_gamma   90.00000000
_symmetry_Int_Tables_number   1
_chemical_formula_structural   Tm2Pa(Ga2Co3)3
_chemical_formula_sum   'Tm2 Pa1 Ga6 Co9'
_cell_volume   264.46815459
_cell_formula_units_Z   1
loop_
 _symmetry_equiv_pos_site_id
 _symmetry_equiv_pos_as_xyz
  1  'x, y, z'
loop_
 _atom_site_type_symbol
 _atom_site_label
 _atom_site_symmetry_multiplicity
 _atom_site_fract_x
 _atom_site_fract_y
 _atom_site_fract_z
 _atom_site_occupancy
  Tm  Tm0  1  0.500000  0.333333  0.333446  1
  Tm  Tm1  1  0.500000  0.666554  0.666667  1
  Pa  Pa2  1  0.000000  0.000134  0.999866  1
  Ga  Ga3  1  0.000000  0.494674  0.505326  1
  Ga  Ga4  1  0.000000  0.505162  0.000031  1
  Ga  Ga5  1  0.000000  0.999969  0.494838  1
  Ga  Ga6  1  0.500000  0.720735  0.279265  1
  Ga  Ga7  1  0.500000  0.279283  0.999926  1
  Ga  Ga8  1  0.500000  0.000074  0.720717  1
  Co  Co9  1  0.000000  0.174679  0.174764  1
  Co  Co10  1  0.000000  0.174683  0.650428  1
  Co  Co11  1  0.000000  0.650518  0.174789  1
  Co  Co12  1  0.000000  0.825236  0.825321  1
  Co  Co13  1  0.000000  0.349572  0.825317  1
  Co  Co14  1  0.000000  0.825211  0.349482  1
  Co  Co15  1  0.500000  0.302075  0.697925  1
  Co  Co16  1  0.500000  0.698003  0.999995  1
  Co  Co17  1  0.500000  0.000005  0.301997  1
