# generated using pymatgen
data_Tm19Mg(IrPd)6
_symmetry_space_group_name_H-M   'P 1'
_cell_length_a   10.95053535
_cell_length_b   10.94742134
_cell_length_c   6.26899500
_cell_angle_alpha   89.98577997
_cell_angle_beta   89.97159942
_cell_angle_gamma   89.99947481
_symmetry_Int_Tables_number   1
_chemical_formula_structural   Tm19Mg(IrPd)6
_chemical_formula_sum   'Tm19 Mg1 Ir6 Pd6'
_cell_volume   751.52778432
_cell_formula_units_Z   1
loop_
 _symmetry_equiv_pos_site_id
 _symmetry_equiv_pos_as_xyz
  1  'x, y, z'
loop_
 _atom_site_type_symbol
 _atom_site_label
 _atom_site_symmetry_multiplicity
 _atom_site_fract_x
 _atom_site_fract_y
 _atom_site_fract_z
 _atom_site_occupancy
  Tm  Tm0  1  0.292155  0.087249  0.374051  1
  Tm  Tm1  1  0.297147  0.906895  0.874634  1
  Tm  Tm2  1  0.701453  0.087161  0.872562  1
  Tm  Tm3  1  0.706792  0.918855  0.371859  1
  Tm  Tm4  1  0.582137  0.792304  0.871647  1
  Tm  Tm5  1  0.576852  0.208010  0.371478  1
  Tm  Tm6  1  0.413186  0.794094  0.379378  1
  Tm  Tm7  1  0.408226  0.206189  0.881051  1
  Tm  Tm8  1  0.209983  0.419691  0.622287  1
  Tm  Tm9  1  0.210160  0.585984  0.121039  1
  Tm  Tm10  1  0.797118  0.411220  0.126000  1
  Tm  Tm11  1  0.796874  0.584061  0.626771  1
  Tm  Tm12  1  0.914610  0.702739  0.126603  1
  Tm  Tm13  1  0.920406  0.292010  0.627139  1
  Tm  Tm14  1  0.088940  0.706948  0.627347  1
  Tm  Tm15  1  0.094947  0.298169  0.126435  1
  Tm  Tm16  1  0.999544  0.000315  0.999937  1
  Tm  Tm17  1  0.496053  0.498192  0.999833  1
  Tm  Tm18  1  0.496126  0.501670  0.499864  1
  Mg  Mg19  1  0.999829  0.999286  0.500051  1
  Ir  Ir20  1  0.346892  0.344647  0.253701  1
  Ir  Ir21  1  0.345988  0.654274  0.746781  1
  Ir  Ir22  1  0.500074  0.999387  0.120850  1
  Ir  Ir23  1  0.500109  0.000371  0.620110  1
  Ir  Ir24  1  0.998872  0.500024  0.879114  1
  Ir  Ir25  1  0.998908  0.499841  0.379817  1
  Pd  Pd26  1  0.847424  0.154397  0.248811  1
  Pd  Pd27  1  0.844995  0.848082  0.751788  1
  Pd  Pd28  1  0.153254  0.150868  0.750935  1
  Pd  Pd29  1  0.150445  0.846292  0.248615  1
  Pd  Pd30  1  0.655722  0.346049  0.746633  1
  Pd  Pd31  1  0.654779  0.654728  0.252877  1
