# generated using pymatgen
data_PrNdSiRhI2
_symmetry_space_group_name_H-M   'P 1'
_cell_length_a   4.25678400
_cell_length_b   4.25678479
_cell_length_c   12.20106500
_cell_angle_alpha   90.00000000
_cell_angle_beta   90.00000000
_cell_angle_gamma   119.99999382
_symmetry_Int_Tables_number   1
_chemical_formula_structural   PrNdSiRhI2
_chemical_formula_sum   'Pr1 Nd1 Si1 Rh1 I2'
_cell_volume   191.46601909
_cell_formula_units_Z   1
loop_
 _symmetry_equiv_pos_site_id
 _symmetry_equiv_pos_as_xyz
  1  'x, y, z'
loop_
 _atom_site_type_symbol
 _atom_site_label
 _atom_site_symmetry_multiplicity
 _atom_site_fract_x
 _atom_site_fract_y
 _atom_site_fract_z
 _atom_site_occupancy
  Pr  Pr0  1  0.000000  0.000000  0.838476  1
  Nd  Nd1  1  0.000000  0.000000  0.159337  1
  Si  Si2  1  0.666667  0.333333  0.994206  1
  Rh  Rh3  1  0.333333  0.666667  0.007520  1
  I  I4  1  0.333333  0.666667  0.661725  1
  I  I5  1  0.666667  0.333333  0.338735  1
