# generated using pymatgen
data_Yb7LuSb6
_symmetry_space_group_name_H-M   'P 1'
_cell_length_a   8.14406453
_cell_length_b   8.14406436
_cell_length_c   8.07501900
_cell_angle_alpha   109.29957148
_cell_angle_beta   109.29957108
_cell_angle_gamma   109.64232382
_symmetry_Int_Tables_number   1
_chemical_formula_structural   Yb7LuSb6
_chemical_formula_sum   'Yb7 Lu1 Sb6'
_cell_volume   413.16134477
_cell_formula_units_Z   1
loop_
 _symmetry_equiv_pos_site_id
 _symmetry_equiv_pos_as_xyz
  1  'x, y, z'
loop_
 _atom_site_type_symbol
 _atom_site_label
 _atom_site_symmetry_multiplicity
 _atom_site_fract_x
 _atom_site_fract_y
 _atom_site_fract_z
 _atom_site_occupancy
  Yb  Yb0  1  0.650337  0.651211  0.651684  1
  Yb  Yb1  1  0.004246  0.355208  0.500838  1
  Yb  Yb2  1  0.350962  0.495754  0.996592  1
  Yb  Yb3  1  0.000875  0.849663  0.501347  1
  Yb  Yb4  1  0.848789  0.499125  0.000472  1
  Yb  Yb5  1  0.500000  0.000000  0.850469  1
  Yb  Yb6  1  0.144792  0.149038  0.145630  1
  Lu  Lu7  1  0.500000  0.000000  0.352275  1
  Sb  Sb8  1  0.867566  0.124688  0.740965  1
  Sb  Sb9  1  0.375312  0.242878  0.616277  1
  Sb  Sb10  1  0.132263  0.756378  0.886231  1
  Sb  Sb11  1  0.743622  0.875884  0.129853  1
  Sb  Sb12  1  0.257122  0.632434  0.373399  1
  Sb  Sb13  1  0.624116  0.367737  0.253969  1
