# generated using pymatgen
data_PrNd3I10
_symmetry_space_group_name_H-M   'P 1'
_cell_length_a   4.34164800
_cell_length_b   9.39320274
_cell_length_c   14.95997410
_cell_angle_alpha   85.25449201
_cell_angle_beta   90.00000000
_cell_angle_gamma   90.00000000
_symmetry_Int_Tables_number   1
_chemical_formula_structural   PrNd3I10
_chemical_formula_sum   'Pr1 Nd3 I10'
_cell_volume   608.00594368
_cell_formula_units_Z   1
loop_
 _symmetry_equiv_pos_site_id
 _symmetry_equiv_pos_as_xyz
  1  'x, y, z'
loop_
 _atom_site_type_symbol
 _atom_site_label
 _atom_site_symmetry_multiplicity
 _atom_site_fract_x
 _atom_site_fract_y
 _atom_site_fract_z
 _atom_site_occupancy
  Pr  Pr0  1  0.250000  0.413831  0.657547  1
  Nd  Nd1  1  0.750000  0.102609  0.848822  1
  Nd  Nd2  1  0.250000  0.897334  0.151216  1
  Nd  Nd3  1  0.750000  0.586070  0.342422  1
  I  I4  1  0.750000  0.634645  0.715068  1
  I  I5  1  0.250000  0.366288  0.285158  1
  I  I6  1  0.750000  0.133035  0.071219  1
  I  I7  1  0.250000  0.866954  0.928795  1
  I  I8  1  0.250000  0.680632  0.484943  1
  I  I9  1  0.750000  0.319259  0.514402  1
  I  I10  1  0.250000  0.065177  0.691965  1
  I  I11  1  0.750000  0.934287  0.308101  1
  I  I12  1  0.250000  0.347363  0.875124  1
  I  I13  1  0.750000  0.652515  0.125219  1
