# generated using pymatgen
data_Sr2Cd21Cu
_symmetry_space_group_name_H-M   'P 1'
_cell_length_a   9.38990344
_cell_length_b   9.39231756
_cell_length_c   9.38990411
_cell_angle_alpha   99.96182104
_cell_angle_beta   99.96856040
_cell_angle_gamma   130.82022573
_symmetry_Int_Tables_number   1
_chemical_formula_structural   Sr2Cd21Cu
_chemical_formula_sum   'Sr2 Cd21 Cu1'
_cell_volume   569.93229612
_cell_formula_units_Z   1
loop_
 _symmetry_equiv_pos_site_id
 _symmetry_equiv_pos_as_xyz
  1  'x, y, z'
loop_
 _atom_site_type_symbol
 _atom_site_label
 _atom_site_symmetry_multiplicity
 _atom_site_fract_x
 _atom_site_fract_y
 _atom_site_fract_z
 _atom_site_occupancy
  Sr  Sr0  1  0.748827  0.248272  0.499445  1
  Sr  Sr1  1  0.501173  0.501728  0.000555  1
  Cd  Cd2  1  0.001441  0.319501  0.930026  1
  Cd  Cd3  1  0.125000  0.875000  0.750000  1
  Cd  Cd4  1  0.678383  0.594252  0.675020  1
  Cd  Cd5  1  0.389475  0.319501  0.318060  1
  Cd  Cd6  1  0.688280  0.013850  0.089489  1
  Cd  Cd7  1  0.860525  0.430499  0.181940  1
  Cd  Cd8  1  0.411234  0.084305  0.088819  1
  Cd  Cd9  1  0.004868  0.012137  0.007269  1
  Cd  Cd10  1  0.838766  0.665695  0.411181  1
  Cd  Cd11  1  0.245132  0.737863  0.492731  1
  Cd  Cd12  1  0.325641  0.736150  0.174431  1
  Cd  Cd13  1  0.125000  0.875000  0.250000  1
  Cd  Cd14  1  0.248559  0.430499  0.569974  1
  Cd  Cd15  1  0.561720  0.736150  0.410511  1
  Cd  Cd16  1  0.995485  0.084305  0.673070  1
  Cd  Cd17  1  0.924359  0.013850  0.325569  1
  Cd  Cd18  1  0.330770  0.155748  0.584131  1
  Cd  Cd19  1  0.254515  0.665695  0.826930  1
  Cd  Cd20  1  0.571617  0.155748  0.824980  1
  Cd  Cd21  1  0.919230  0.594252  0.915869  1
  Cd  Cd22  1  0.625000  0.875000  0.750000  1
  Cu  Cu23  1  0.125000  0.375000  0.250000  1
