# generated using pymatgen
data_Sm5Tc6P12Ir13
_symmetry_space_group_name_H-M   'P 1'
_cell_length_a   12.65926500
_cell_length_b   12.65926468
_cell_length_c   3.99234300
_cell_angle_alpha   90.00000000
_cell_angle_beta   90.00000000
_cell_angle_gamma   119.99999823
_symmetry_Int_Tables_number   1
_chemical_formula_structural   Sm5Tc6P12Ir13
_chemical_formula_sum   'Sm5 Tc6 P12 Ir13'
_cell_volume   554.08380568
_cell_formula_units_Z   1
loop_
 _symmetry_equiv_pos_site_id
 _symmetry_equiv_pos_as_xyz
  1  'x, y, z'
loop_
 _atom_site_type_symbol
 _atom_site_label
 _atom_site_symmetry_multiplicity
 _atom_site_fract_x
 _atom_site_fract_y
 _atom_site_fract_z
 _atom_site_occupancy
  Sm  Sm0  1  0.333333  0.666667  0.500000  1
  Sm  Sm1  1  0.666667  0.333333  0.500000  1
  Sm  Sm2  1  0.000621  0.812338  0.000000  1
  Sm  Sm3  1  0.187662  0.188284  0.000000  1
  Sm  Sm4  1  0.811716  0.999379  0.000000  1
  Tc  Tc5  1  0.990550  0.446128  0.500000  1
  Tc  Tc6  1  0.553872  0.544421  0.500000  1
  Tc  Tc7  1  0.455579  0.009450  0.500000  1
  Tc  Tc8  1  0.619964  0.798589  0.500000  1
  Tc  Tc9  1  0.201411  0.821376  0.500000  1
  Tc  Tc10  1  0.178624  0.380036  0.500000  1
  P  P11  1  0.006996  0.637420  0.500000  1
  P  P12  1  0.362580  0.369577  0.500000  1
  P  P13  1  0.630423  0.993004  0.500000  1
  P  P14  1  0.521904  0.694106  0.000000  1
  P  P15  1  0.305894  0.827797  0.000000  1
  P  P16  1  0.172203  0.478096  0.000000  1
  P  P17  1  0.481887  0.167646  0.000000  1
  P  P18  1  0.685759  0.518113  0.000000  1
  P  P19  1  0.832354  0.314241  0.000000  1
  P  P20  1  0.003501  0.183144  0.500000  1
  P  P21  1  0.816856  0.820358  0.500000  1
  P  P22  1  0.179642  0.996499  0.500000  1
  Ir  Ir23  1  0.507760  0.875992  0.000000  1
  Ir  Ir24  1  0.124008  0.631769  0.000000  1
  Ir  Ir25  1  0.368231  0.492240  0.000000  1
  Ir  Ir26  1  0.492628  0.358364  0.000000  1
  Ir  Ir27  1  0.865738  0.507372  0.000000  1
  Ir  Ir28  1  0.641636  0.134262  0.000000  1
  Ir  Ir29  1  0.995506  0.282450  0.000000  1
  Ir  Ir30  1  0.717550  0.713057  0.000000  1
  Ir  Ir31  1  0.286943  0.004494  0.000000  1
  Ir  Ir32  1  0.374829  0.184760  0.500000  1
  Ir  Ir33  1  0.809932  0.625171  0.500000  1
  Ir  Ir34  1  0.815240  0.190068  0.500000  1
  Ir  Ir35  1  0.000000  0.000000  0.500000  1
