# generated using pymatgen
data_Tb6Tm3LuPb6
_symmetry_space_group_name_H-M   'P 1'
_cell_length_a   6.57269100
_cell_length_b   9.05533510
_cell_length_c   9.05675302
_cell_angle_alpha   119.99447115
_cell_angle_beta   89.99975142
_cell_angle_gamma   90.00037917
_symmetry_Int_Tables_number   1
_chemical_formula_structural   Tb6Tm3LuPb6
_chemical_formula_sum   'Tb6 Tm3 Lu1 Pb6'
_cell_volume   466.84755763
_cell_formula_units_Z   1
loop_
 _symmetry_equiv_pos_site_id
 _symmetry_equiv_pos_as_xyz
  1  'x, y, z'
loop_
 _atom_site_type_symbol
 _atom_site_label
 _atom_site_symmetry_multiplicity
 _atom_site_fract_x
 _atom_site_fract_y
 _atom_site_fract_z
 _atom_site_occupancy
  Tb  Tb0  1  0.749969  0.238726  0.999970  1
  Tb  Tb1  1  0.749965  0.761143  0.761236  1
  Tb  Tb2  1  0.749962  0.999971  0.238794  1
  Tb  Tb3  1  0.250038  0.761245  0.999969  1
  Tb  Tb4  1  0.250032  0.238824  0.238798  1
  Tb  Tb5  1  0.250036  0.000091  0.761233  1
  Tm  Tm6  1  0.499995  0.666629  0.333296  1
  Tm  Tm7  1  0.999998  0.666668  0.333297  1
  Tm  Tm8  1  0.999999  0.333372  0.666707  1
  Lu  Lu9  1  0.499998  0.333328  0.666697  1
  Pb  Pb10  1  0.749912  0.604396  0.999906  1
  Pb  Pb11  1  0.749921  0.395445  0.395514  1
  Pb  Pb12  1  0.749922  0.000123  0.604582  1
  Pb  Pb13  1  0.250078  0.395510  0.999906  1
  Pb  Pb14  1  0.250086  0.604459  0.604581  1
  Pb  Pb15  1  0.250089  0.000068  0.395514  1
