# generated using pymatgen
data_NdEu7(CdNi)2
_symmetry_space_group_name_H-M   'P 1'
_cell_length_a   10.11245051
_cell_length_b   10.11244977
_cell_length_c   10.14312200
_cell_angle_alpha   59.89961451
_cell_angle_beta   59.89961696
_cell_angle_gamma   59.92629345
_symmetry_Int_Tables_number   1
_chemical_formula_structural   NdEu7(CdNi)2
_chemical_formula_sum   'Nd2 Eu14 Cd4 Ni4'
_cell_volume   731.92578015
_cell_formula_units_Z   2
loop_
 _symmetry_equiv_pos_site_id
 _symmetry_equiv_pos_as_xyz
  1  'x, y, z'
loop_
 _atom_site_type_symbol
 _atom_site_label
 _atom_site_symmetry_multiplicity
 _atom_site_fract_x
 _atom_site_fract_y
 _atom_site_fract_z
 _atom_site_occupancy
  Nd  Nd0  1  0.595001  0.595001  0.593565  1
  Nd  Nd1  1  0.595001  0.595001  0.216434  1
  Eu  Eu2  1  0.596227  0.211710  0.596032  1
  Eu  Eu3  1  0.211710  0.596227  0.596032  1
  Eu  Eu4  1  0.056979  0.442629  0.442103  1
  Eu  Eu5  1  0.442629  0.056979  0.058289  1
  Eu  Eu6  1  0.442629  0.056979  0.442103  1
  Eu  Eu7  1  0.056979  0.442629  0.058289  1
  Eu  Eu8  1  0.442169  0.442169  0.057831  1
  Eu  Eu9  1  0.056818  0.056818  0.443182  1
  Eu  Eu10  1  0.190434  0.809165  0.809845  1
  Eu  Eu11  1  0.809165  0.190434  0.190556  1
  Eu  Eu12  1  0.809165  0.190434  0.809845  1
  Eu  Eu13  1  0.190434  0.809165  0.190556  1
  Eu  Eu14  1  0.809405  0.809405  0.190595  1
  Eu  Eu15  1  0.189912  0.189912  0.810088  1
  Cd  Cd16  1  0.827122  0.827122  0.830031  1
  Cd  Cd17  1  0.827122  0.827122  0.515725  1
  Cd  Cd18  1  0.826945  0.513830  0.829613  1
  Cd  Cd19  1  0.513830  0.826945  0.829613  1
  Ni  Ni20  1  0.395485  0.395485  0.385201  1
  Ni  Ni21  1  0.395485  0.395485  0.823831  1
  Ni  Ni22  1  0.399925  0.819432  0.390322  1
  Ni  Ni23  1  0.819432  0.399925  0.390322  1
