# generated using pymatgen
data_Y2ErPa(ReB6)2
_symmetry_space_group_name_H-M   'P 1'
_cell_length_a   3.69520000
_cell_length_b   9.17253266
_cell_length_c   11.53714040
_cell_angle_alpha   90.40151378
_cell_angle_beta   90.00000000
_cell_angle_gamma   90.00000000
_symmetry_Int_Tables_number   1
_chemical_formula_structural   Y2ErPa(ReB6)2
_chemical_formula_sum   'Y4 Er2 Pa2 Re4 B24'
_cell_volume   391.03418860
_cell_formula_units_Z   2
loop_
 _symmetry_equiv_pos_site_id
 _symmetry_equiv_pos_as_xyz
  1  'x, y, z'
loop_
 _atom_site_type_symbol
 _atom_site_label
 _atom_site_symmetry_multiplicity
 _atom_site_fract_x
 _atom_site_fract_y
 _atom_site_fract_z
 _atom_site_occupancy
  Y  Y0  1  0.000000  0.823418  0.085766  1
  Y  Y1  1  0.000000  0.176582  0.914234  1
  Y  Y2  1  0.000000  0.945017  0.372852  1
  Y  Y3  1  0.000000  0.054983  0.627148  1
  Er  Er4  1  0.000000  0.443910  0.126425  1
  Er  Er5  1  0.000000  0.556090  0.873575  1
  Pa  Pa6  1  0.000000  0.322515  0.412741  1
  Pa  Pa7  1  0.000000  0.677485  0.587259  1
  Re  Re8  1  0.000000  0.634773  0.324609  1
  Re  Re9  1  0.000000  0.365227  0.675391  1
  Re  Re10  1  0.000000  0.141581  0.181590  1
  Re  Re11  1  0.000000  0.858419  0.818410  1
  B  B12  1  0.500000  0.553038  0.432794  1
  B  B13  1  0.500000  0.446962  0.567206  1
  B  B14  1  0.500000  0.053899  0.067394  1
  B  B15  1  0.500000  0.946101  0.932606  1
  B  B16  1  0.500000  0.747121  0.419712  1
  B  B17  1  0.500000  0.252879  0.580288  1
  B  B18  1  0.500000  0.248811  0.080336  1
  B  B19  1  0.500000  0.751189  0.919664  1
  B  B20  1  0.500000  0.790925  0.265631  1
  B  B21  1  0.500000  0.209075  0.734369  1
  B  B22  1  0.500000  0.293071  0.233392  1
  B  B23  1  0.500000  0.706929  0.766608  1
  B  B24  1  0.500000  0.630752  0.185373  1
  B  B25  1  0.500000  0.369248  0.814627  1
  B  B26  1  0.500000  0.133508  0.313644  1
  B  B27  1  0.500000  0.866492  0.686356  1
  B  B28  1  0.500000  0.983001  0.212102  1
  B  B29  1  0.500000  0.016999  0.787898  1
  B  B30  1  0.500000  0.482802  0.286283  1
  B  B31  1  0.500000  0.517198  0.713717  1
  B  B32  1  0.500000  0.603259  0.029035  1
  B  B33  1  0.500000  0.396741  0.970965  1
  B  B34  1  0.500000  0.114241  0.468519  1
  B  B35  1  0.500000  0.885759  0.531481  1
