# generated using pymatgen
data_Ho5Th3(Si3Pt)4
_symmetry_space_group_name_H-M   'P 1'
_cell_length_a   8.15993105
_cell_length_b   8.15993141
_cell_length_c   8.34559300
_cell_angle_alpha   90.00000000
_cell_angle_beta   90.00000000
_cell_angle_gamma   120.01240515
_symmetry_Int_Tables_number   1
_chemical_formula_structural   Ho5Th3(Si3Pt)4
_chemical_formula_sum   'Ho5 Th3 Si12 Pt4'
_cell_volume   481.17884870
_cell_formula_units_Z   1
loop_
 _symmetry_equiv_pos_site_id
 _symmetry_equiv_pos_as_xyz
  1  'x, y, z'
loop_
 _atom_site_type_symbol
 _atom_site_label
 _atom_site_symmetry_multiplicity
 _atom_site_fract_x
 _atom_site_fract_y
 _atom_site_fract_z
 _atom_site_occupancy
  Ho  Ho0  1  0.502270  0.004351  0.250000  1
  Ho  Ho1  1  0.995649  0.497730  0.250000  1
  Ho  Ho2  1  0.497254  0.502746  0.750000  1
  Ho  Ho3  1  0.496884  0.994247  0.750000  1
  Ho  Ho4  1  0.005753  0.503116  0.750000  1
  Th  Th5  1  0.999961  0.000039  0.250000  1
  Th  Th6  1  0.999739  0.000261  0.750000  1
  Th  Th7  1  0.502473  0.497527  0.250000  1
  Si  Si8  1  0.166739  0.833261  0.498285  1
  Si  Si9  1  0.165205  0.332226  0.501754  1
  Si  Si10  1  0.667774  0.834795  0.501754  1
  Si  Si11  1  0.833025  0.166975  0.498721  1
  Si  Si12  1  0.834854  0.667533  0.502807  1
  Si  Si13  1  0.332467  0.165146  0.502807  1
  Si  Si14  1  0.833025  0.166975  0.001279  1
  Si  Si15  1  0.834854  0.667533  0.997193  1
  Si  Si16  1  0.332467  0.165146  0.997193  1
  Si  Si17  1  0.166739  0.833261  0.001715  1
  Si  Si18  1  0.165205  0.332226  0.998246  1
  Si  Si19  1  0.667774  0.834795  0.998246  1
  Pt  Pt20  1  0.333105  0.666895  0.497605  1
  Pt  Pt21  1  0.666839  0.333161  0.512242  1
  Pt  Pt22  1  0.666839  0.333161  0.987758  1
  Pt  Pt23  1  0.333105  0.666895  0.002395  1
