# generated using pymatgen
data_Tb5Y3AlCdPd2
_symmetry_space_group_name_H-M   'P 1'
_cell_length_a   9.69174352
_cell_length_b   9.69174474
_cell_length_c   9.69198700
_cell_angle_alpha   59.99917655
_cell_angle_beta   59.99917237
_cell_angle_gamma   60.07668392
_symmetry_Int_Tables_number   1
_chemical_formula_structural   Tb5Y3AlCdPd2
_chemical_formula_sum   'Tb10 Y6 Al2 Cd2 Pd4'
_cell_volume   644.09115920
_cell_formula_units_Z   2
loop_
 _symmetry_equiv_pos_site_id
 _symmetry_equiv_pos_as_xyz
  1  'x, y, z'
loop_
 _atom_site_type_symbol
 _atom_site_label
 _atom_site_symmetry_multiplicity
 _atom_site_fract_x
 _atom_site_fract_y
 _atom_site_fract_z
 _atom_site_occupancy
  Tb  Tb0  1  0.354802  0.354802  0.352540  1
  Tb  Tb1  1  0.354802  0.354802  0.937857  1
  Tb  Tb2  1  0.357220  0.933485  0.354648  1
  Tb  Tb3  1  0.933485  0.357220  0.354648  1
  Tb  Tb4  1  0.808759  0.192675  0.190184  1
  Tb  Tb5  1  0.192675  0.808759  0.808384  1
  Tb  Tb6  1  0.192675  0.808759  0.190184  1
  Tb  Tb7  1  0.808759  0.192675  0.808384  1
  Tb  Tb8  1  0.189102  0.189102  0.810898  1
  Tb  Tb9  1  0.806253  0.806253  0.193747  1
  Y  Y10  1  0.932814  0.565529  0.565408  1
  Y  Y11  1  0.565529  0.932814  0.936249  1
  Y  Y12  1  0.565529  0.932814  0.565408  1
  Y  Y13  1  0.932814  0.565529  0.936249  1
  Y  Y14  1  0.566185  0.566185  0.933815  1
  Y  Y15  1  0.936334  0.936334  0.563666  1
  Al  Al16  1  0.581831  0.581831  0.579416  1
  Al  Al17  1  0.581831  0.581831  0.256923  1
  Cd  Cd18  1  0.581457  0.257878  0.580333  1
  Cd  Cd19  1  0.257878  0.581457  0.580333  1
  Pd  Pd20  1  0.144492  0.144492  0.146032  1
  Pd  Pd21  1  0.144492  0.144492  0.564983  1
  Pd  Pd22  1  0.143320  0.566967  0.144856  1
  Pd  Pd23  1  0.566967  0.143320  0.144856  1
