# generated using pymatgen
data_Li4Dy3YBiPb3
_symmetry_space_group_name_H-M   'P 1'
_cell_length_a   9.55232270
_cell_length_b   9.55972641
_cell_length_c   7.29941838
_cell_angle_alpha   89.99993785
_cell_angle_beta   90.07773339
_cell_angle_gamma   120.02577021
_symmetry_Int_Tables_number   1
_chemical_formula_structural   Li4Dy3YBiPb3
_chemical_formula_sum   'Li8 Dy6 Y2 Bi2 Pb6'
_cell_volume   577.11182003
_cell_formula_units_Z   2
loop_
 _symmetry_equiv_pos_site_id
 _symmetry_equiv_pos_as_xyz
  1  'x, y, z'
loop_
 _atom_site_type_symbol
 _atom_site_label
 _atom_site_symmetry_multiplicity
 _atom_site_fract_x
 _atom_site_fract_y
 _atom_site_fract_z
 _atom_site_occupancy
  Li  Li0  1  0.167576  0.333845  0.282259  1
  Li  Li1  1  0.167575  0.833732  0.282259  1
  Li  Li2  1  0.665456  0.832729  0.285033  1
  Li  Li3  1  0.830900  0.665501  0.785623  1
  Li  Li4  1  0.830900  0.165400  0.785624  1
  Li  Li5  1  0.335951  0.167976  0.791070  1
  Li  Li6  1  0.335972  0.667986  0.672266  1
  Li  Li7  1  0.665888  0.332942  0.176669  1
  Dy  Dy8  1  0.974117  0.487059  0.489893  1
  Dy  Dy9  1  0.491641  0.978086  0.995997  1
  Dy  Dy10  1  0.491641  0.513556  0.995997  1
  Dy  Dy11  1  0.018792  0.509396  0.997101  1
  Dy  Dy12  1  0.996723  0.998362  0.497587  1
  Dy  Dy13  1  0.996839  0.998419  0.004135  1
  Y  Y14  1  0.515001  0.025312  0.491990  1
  Y  Y15  1  0.515002  0.489689  0.491990  1
  Bi  Bi16  1  0.166304  0.333479  0.734092  1
  Bi  Bi17  1  0.166304  0.832825  0.734091  1
  Pb  Pb18  1  0.666844  0.833422  0.732963  1
  Pb  Pb19  1  0.834014  0.666790  0.232566  1
  Pb  Pb20  1  0.834014  0.167224  0.232567  1
  Pb  Pb21  1  0.332954  0.166478  0.231101  1
  Pb  Pb22  1  0.331818  0.665909  0.258357  1
  Pb  Pb23  1  0.667770  0.333885  0.760765  1
