# generated using pymatgen
data_Cs4Sr(PS4)2
_symmetry_space_group_name_H-M   'P 1'
_cell_length_a   9.66845019
_cell_length_b   9.77738567
_cell_length_c   11.91592700
_cell_angle_alpha   105.74072745
_cell_angle_beta   102.72001638
_cell_angle_gamma   93.94447559
_symmetry_Int_Tables_number   1
_chemical_formula_structural   Cs4Sr(PS4)2
_chemical_formula_sum   'Cs8 Sr2 P4 S16'
_cell_volume   1047.63142907
_cell_formula_units_Z   2
loop_
 _symmetry_equiv_pos_site_id
 _symmetry_equiv_pos_as_xyz
  1  'x, y, z'
loop_
 _atom_site_type_symbol
 _atom_site_label
 _atom_site_symmetry_multiplicity
 _atom_site_fract_x
 _atom_site_fract_y
 _atom_site_fract_z
 _atom_site_occupancy
  Cs  Cs0  1  0.938120  0.522144  0.258956  1
  Cs  Cs1  1  0.061880  0.477856  0.741044  1
  Cs  Cs2  1  0.762978  0.994628  0.468452  1
  Cs  Cs3  1  0.237022  0.005372  0.531548  1
  Cs  Cs4  1  0.596605  0.738957  0.025049  1
  Cs  Cs5  1  0.403395  0.261043  0.974951  1
  Cs  Cs6  1  0.614667  0.682585  0.616881  1
  Cs  Cs7  1  0.385333  0.317415  0.383119  1
  Sr  Sr8  1  0.848990  0.140412  0.925296  1
  Sr  Sr9  1  0.151010  0.859588  0.074704  1
  P  P10  1  0.949342  0.112792  0.234448  1
  P  P11  1  0.050658  0.887208  0.765552  1
  P  P12  1  0.375289  0.677975  0.257302  1
  P  P13  1  0.624711  0.322025  0.742698  1
  S  S14  1  0.951523  0.900782  0.232973  1
  S  S15  1  0.048477  0.099218  0.767027  1
  S  S16  1  0.582862  0.106405  0.734557  1
  S  S17  1  0.417138  0.893595  0.265443  1
  S  S18  1  0.293284  0.661274  0.397535  1
  S  S19  1  0.706716  0.338726  0.602465  1
  S  S20  1  0.773261  0.423282  0.905535  1
  S  S21  1  0.226739  0.576718  0.094465  1
  S  S22  1  0.010602  0.244440  0.405515  1
  S  S23  1  0.989398  0.755560  0.594485  1
  S  S24  1  0.093529  0.166221  0.140021  1
  S  S25  1  0.906471  0.833779  0.859979  1
  S  S26  1  0.747773  0.138060  0.146748  1
  S  S27  1  0.252227  0.861940  0.853252  1
  S  S28  1  0.559795  0.585262  0.263271  1
  S  S29  1  0.440205  0.414738  0.736729  1
