# generated using pymatgen
data_BeNb3Re3Si2
_symmetry_space_group_name_H-M   'P 1'
_cell_length_a   6.82749267
_cell_length_b   6.44056559
_cell_length_c   7.55028200
_cell_angle_alpha   115.24637113
_cell_angle_beta   116.88074229
_cell_angle_gamma   89.99999817
_symmetry_Int_Tables_number   1
_chemical_formula_structural   BeNb3Re3Si2
_chemical_formula_sum   'Be2 Nb6 Re6 Si4'
_cell_volume   260.08363946
_cell_formula_units_Z   2
loop_
 _symmetry_equiv_pos_site_id
 _symmetry_equiv_pos_as_xyz
  1  'x, y, z'
loop_
 _atom_site_type_symbol
 _atom_site_label
 _atom_site_symmetry_multiplicity
 _atom_site_fract_x
 _atom_site_fract_y
 _atom_site_fract_z
 _atom_site_occupancy
  Be  Be0  1  0.247002  0.250199  0.000400  1
  Be  Be1  1  0.246602  0.749801  0.999600  1
  Nb  Nb2  1  0.246774  0.446598  0.393195  1
  Nb  Nb3  1  0.853578  0.553402  0.606805  1
  Nb  Nb4  1  0.639558  0.749808  0.999614  1
  Nb  Nb5  1  0.639943  0.250192  0.000386  1
  Nb  Nb6  1  0.854024  0.053654  0.607309  1
  Nb  Nb7  1  0.246717  0.946346  0.392691  1
  Re  Re8  1  0.999014  0.000000  0.000000  1
  Re  Re9  1  0.999014  0.500000  0.000000  1
  Re  Re10  1  0.494293  0.623949  0.247570  1
  Re  Re11  1  0.246722  0.376051  0.752430  1
  Re  Re12  1  0.246722  0.876377  0.752430  1
  Re  Re13  1  0.494293  0.123623  0.247570  1
  Si  Si14  1  0.579829  0.833587  0.666586  1
  Si  Si15  1  0.913242  0.166413  0.333414  1
  Si  Si16  1  0.913242  0.667001  0.333414  1
  Si  Si17  1  0.579829  0.332999  0.666586  1
