# generated using pymatgen
data_Tb5Dy2Co4Sn23Ir2
_symmetry_space_group_name_H-M   'P 1'
_cell_length_a   9.77719834
_cell_length_b   9.77719695
_cell_length_c   10.04430514
_cell_angle_alpha   90.20112688
_cell_angle_beta   89.79887326
_cell_angle_gamma   120.02918055
_symmetry_Int_Tables_number   1
_chemical_formula_structural   Tb5Dy2Co4Sn23Ir2
_chemical_formula_sum   'Tb5 Dy2 Co4 Sn23 Ir2'
_cell_volume   831.28123198
_cell_formula_units_Z   1
loop_
 _symmetry_equiv_pos_site_id
 _symmetry_equiv_pos_as_xyz
  1  'x, y, z'
loop_
 _atom_site_type_symbol
 _atom_site_label
 _atom_site_symmetry_multiplicity
 _atom_site_fract_x
 _atom_site_fract_y
 _atom_site_fract_z
 _atom_site_occupancy
  Tb  Tb0  1  0.000000  0.000000  0.000000  1
  Tb  Tb1  1  0.479095  0.956982  0.306023  1
  Tb  Tb2  1  0.520905  0.043018  0.693977  1
  Tb  Tb3  1  0.043018  0.520905  0.306023  1
  Tb  Tb4  1  0.956982  0.479095  0.693977  1
  Dy  Dy5  1  0.478739  0.521261  0.306443  1
  Dy  Dy6  1  0.521261  0.478739  0.693557  1
  Co  Co7  1  0.830960  0.664197  0.197565  1
  Co  Co8  1  0.169040  0.335803  0.802435  1
  Co  Co9  1  0.335803  0.169040  0.197565  1
  Co  Co10  1  0.664197  0.830960  0.802435  1
  Sn  Sn11  1  0.351125  0.004665  0.005702  1
  Sn  Sn12  1  0.648875  0.995335  0.994298  1
  Sn  Sn13  1  0.004665  0.351125  0.994298  1
  Sn  Sn14  1  0.995335  0.648875  0.005702  1
  Sn  Sn15  1  0.654229  0.654229  0.000000  1
  Sn  Sn16  1  0.345771  0.345771  0.000000  1
  Sn  Sn17  1  0.335772  0.664228  0.819400  1
  Sn  Sn18  1  0.664228  0.335772  0.180600  1
  Sn  Sn19  1  0.000000  0.000000  0.500000  1
  Sn  Sn20  1  0.779341  0.220659  0.456846  1
  Sn  Sn21  1  0.220659  0.779341  0.543154  1
  Sn  Sn22  1  0.780780  0.561852  0.450780  1
  Sn  Sn23  1  0.219220  0.438148  0.549220  1
  Sn  Sn24  1  0.438148  0.219220  0.450780  1
  Sn  Sn25  1  0.561852  0.780780  0.549220  1
  Sn  Sn26  1  0.333974  0.666026  0.117018  1
  Sn  Sn27  1  0.666026  0.333974  0.882982  1
  Sn  Sn28  1  0.116994  0.883006  0.273753  1
  Sn  Sn29  1  0.883006  0.116994  0.726247  1
  Sn  Sn30  1  0.124386  0.237283  0.278579  1
  Sn  Sn31  1  0.875614  0.762717  0.721421  1
  Sn  Sn32  1  0.762717  0.875614  0.278579  1
  Sn  Sn33  1  0.237283  0.124386  0.721421  1
  Ir  Ir34  1  0.832276  0.167724  0.196549  1
  Ir  Ir35  1  0.167724  0.832276  0.803451  1
