# generated using pymatgen
data_Lu3Co8P6Rh
_symmetry_space_group_name_H-M   'P 1'
_cell_length_a   3.67307600
_cell_length_b   10.48113300
_cell_length_c   12.15877300
_cell_angle_alpha   90.00000000
_cell_angle_beta   90.00000000
_cell_angle_gamma   90.00000000
_symmetry_Int_Tables_number   1
_chemical_formula_structural   Lu3Co8P6Rh
_chemical_formula_sum   'Lu6 Co16 P12 Rh2'
_cell_volume   468.08841955
_cell_formula_units_Z   2
loop_
 _symmetry_equiv_pos_site_id
 _symmetry_equiv_pos_as_xyz
  1  'x, y, z'
loop_
 _atom_site_type_symbol
 _atom_site_label
 _atom_site_symmetry_multiplicity
 _atom_site_fract_x
 _atom_site_fract_y
 _atom_site_fract_z
 _atom_site_occupancy
  Lu  Lu0  1  0.000000  0.500000  0.524790  1
  Lu  Lu1  1  0.500000  0.000000  0.475210  1
  Lu  Lu2  1  0.500000  0.819396  0.207546  1
  Lu  Lu3  1  0.500000  0.180604  0.207546  1
  Lu  Lu4  1  0.000000  0.680604  0.792454  1
  Lu  Lu5  1  0.000000  0.319396  0.792454  1
  Co  Co6  1  0.500000  0.500000  0.704031  1
  Co  Co7  1  0.000000  0.000000  0.295969  1
  Co  Co8  1  0.000000  0.500000  0.986159  1
  Co  Co9  1  0.500000  0.000000  0.013841  1
  Co  Co10  1  0.500000  0.332578  0.992238  1
  Co  Co11  1  0.500000  0.667422  0.992238  1
  Co  Co12  1  0.000000  0.167422  0.007762  1
  Co  Co13  1  0.000000  0.832578  0.007762  1
  Co  Co14  1  0.500000  0.297706  0.431284  1
  Co  Co15  1  0.500000  0.702294  0.431284  1
  Co  Co16  1  0.000000  0.202294  0.568716  1
  Co  Co17  1  0.000000  0.797706  0.568716  1
  Co  Co18  1  0.500000  0.877023  0.707794  1
  Co  Co19  1  0.500000  0.122977  0.707794  1
  Co  Co20  1  0.000000  0.622977  0.292206  1
  Co  Co21  1  0.000000  0.377023  0.292206  1
  P  P22  1  0.500000  0.500000  0.881518  1
  P  P23  1  0.000000  0.000000  0.118482  1
  P  P24  1  0.500000  0.500000  0.353766  1
  P  P25  1  0.000000  0.000000  0.646234  1
  P  P26  1  0.500000  0.312911  0.616711  1
  P  P27  1  0.500000  0.687089  0.616711  1
  P  P28  1  0.000000  0.187089  0.383289  1
  P  P29  1  0.000000  0.812911  0.383289  1
  P  P30  1  0.500000  0.843448  0.892697  1
  P  P31  1  0.500000  0.156552  0.892697  1
  P  P32  1  0.000000  0.656552  0.107303  1
  P  P33  1  0.000000  0.343448  0.107303  1
  Rh  Rh34  1  0.500000  0.500000  0.160659  1
  Rh  Rh35  1  0.000000  0.000000  0.839341  1
