# generated using pymatgen
data_La3Ce(Ge2Pt)4
_symmetry_space_group_name_H-M   'P 1'
_cell_length_a   4.46498392
_cell_length_b   8.89602082
_cell_length_c   9.77210956
_cell_angle_alpha   117.07613671
_cell_angle_beta   103.20615402
_cell_angle_gamma   89.99999832
_symmetry_Int_Tables_number   1
_chemical_formula_structural   La3Ce(Ge2Pt)4
_chemical_formula_sum   'La3 Ce1 Ge8 Pt4'
_cell_volume   334.04355753
_cell_formula_units_Z   1
loop_
 _symmetry_equiv_pos_site_id
 _symmetry_equiv_pos_as_xyz
  1  'x, y, z'
loop_
 _atom_site_type_symbol
 _atom_site_label
 _atom_site_symmetry_multiplicity
 _atom_site_fract_x
 _atom_site_fract_y
 _atom_site_fract_z
 _atom_site_occupancy
  La  La0  1  0.999575  0.253331  0.999150  1
  La  La1  1  0.999575  0.745819  0.999150  1
  La  La2  1  0.796455  0.296455  0.592909  1
  Ce  Ce3  1  0.204760  0.704760  0.409519  1
  Ge  Ge4  1  0.426426  0.926426  0.852852  1
  Ge  Ge5  1  0.575545  0.075545  0.151090  1
  Ge  Ge6  1  0.426331  0.426331  0.852664  1
  Ge  Ge7  1  0.575415  0.575415  0.150828  1
  Ge  Ge8  1  0.197498  0.045978  0.394997  1
  Ge  Ge9  1  0.801240  0.950479  0.602479  1
  Ge  Ge10  1  0.197498  0.349018  0.394997  1
  Ge  Ge11  1  0.801240  0.652001  0.602479  1
  Pt  Pt12  1  0.349724  0.096991  0.699449  1
  Pt  Pt13  1  0.649497  0.899316  0.298993  1
  Pt  Pt14  1  0.349724  0.602458  0.699449  1
  Pt  Pt15  1  0.649497  0.399677  0.298993  1
