# generated using pymatgen
data_Lu3Zr7(In2Ir)4
_symmetry_space_group_name_H-M   'P 1'
_cell_length_a   3.40150000
_cell_length_b   7.84935186
_cell_length_c   17.77791362
_cell_angle_alpha   89.99167883
_cell_angle_beta   90.00000000
_cell_angle_gamma   90.00000000
_symmetry_Int_Tables_number   1
_chemical_formula_structural   Lu3Zr7(In2Ir)4
_chemical_formula_sum   'Lu3 Zr7 In8 Ir4'
_cell_volume   474.66265051
_cell_formula_units_Z   1
loop_
 _symmetry_equiv_pos_site_id
 _symmetry_equiv_pos_as_xyz
  1  'x, y, z'
loop_
 _atom_site_type_symbol
 _atom_site_label
 _atom_site_symmetry_multiplicity
 _atom_site_fract_x
 _atom_site_fract_y
 _atom_site_fract_z
 _atom_site_occupancy
  Lu  Lu0  1  0.000000  0.748305  0.779370  1
  Lu  Lu1  1  0.000000  0.248653  0.720828  1
  Lu  Lu2  1  0.000000  0.749806  0.279188  1
  Zr  Zr3  1  0.000000  0.131169  0.418049  1
  Zr  Zr4  1  0.000000  0.870020  0.580617  1
  Zr  Zr5  1  0.000000  0.370676  0.920134  1
  Zr  Zr6  1  0.000000  0.630358  0.081621  1
  Zr  Zr7  1  0.000000  0.249692  0.221535  1
  Zr  Zr8  1  0.000000  0.000591  0.001197  1
  Zr  Zr9  1  0.000000  0.499698  0.498972  1
  In  In10  1  0.500000  0.428906  0.350428  1
  In  In11  1  0.500000  0.568716  0.647936  1
  In  In12  1  0.500000  0.070008  0.852200  1
  In  In13  1  0.500000  0.931600  0.148398  1
  In  In14  1  0.500000  0.295813  0.065961  1
  In  In15  1  0.500000  0.704150  0.936120  1
  In  In16  1  0.500000  0.202818  0.563932  1
  In  In17  1  0.500000  0.798914  0.434849  1
  Ir  Ir18  1  0.500000  0.045655  0.306286  1
  Ir  Ir19  1  0.500000  0.961549  0.690307  1
  Ir  Ir20  1  0.500000  0.461577  0.810411  1
  Ir  Ir21  1  0.500000  0.531328  0.191661  1
