# generated using pymatgen
data_Hf8Nb12Si15Au
_symmetry_space_group_name_H-M   'P 1'
_cell_length_a   6.69989534
_cell_length_b   6.90899407
_cell_length_c   13.10210400
_cell_angle_alpha   90.00000000
_cell_angle_beta   90.00000000
_cell_angle_gamma   89.91942554
_symmetry_Int_Tables_number   1
_chemical_formula_structural   Hf8Nb12Si15Au
_chemical_formula_sum   'Hf8 Nb12 Si15 Au1'
_cell_volume   606.48973041
_cell_formula_units_Z   1
loop_
 _symmetry_equiv_pos_site_id
 _symmetry_equiv_pos_as_xyz
  1  'x, y, z'
loop_
 _atom_site_type_symbol
 _atom_site_label
 _atom_site_symmetry_multiplicity
 _atom_site_fract_x
 _atom_site_fract_y
 _atom_site_fract_z
 _atom_site_occupancy
  Hf  Hf0  1  0.496856  0.673843  0.594688  1
  Hf  Hf1  1  0.996897  0.826504  0.906250  1
  Hf  Hf2  1  0.495470  0.326097  0.089153  1
  Hf  Hf3  1  0.007295  0.166493  0.410042  1
  Hf  Hf4  1  0.495470  0.326097  0.410847  1
  Hf  Hf5  1  0.007295  0.166493  0.089958  1
  Hf  Hf6  1  0.496856  0.673843  0.905312  1
  Hf  Hf7  1  0.996897  0.826504  0.593750  1
  Nb  Nb8  1  0.663837  0.172303  0.623916  1
  Nb  Nb9  1  0.164433  0.328409  0.876174  1
  Nb  Nb10  1  0.337093  0.825991  0.123424  1
  Nb  Nb11  1  0.839240  0.683205  0.378692  1
  Nb  Nb12  1  0.337093  0.825991  0.376576  1
  Nb  Nb13  1  0.839240  0.683205  0.121308  1
  Nb  Nb14  1  0.663837  0.172303  0.876084  1
  Nb  Nb15  1  0.164433  0.328409  0.623826  1
  Nb  Nb16  1  0.837035  0.498113  0.750000  1
  Nb  Nb17  1  0.337378  0.002156  0.750000  1
  Nb  Nb18  1  0.168137  0.507418  0.250000  1
  Nb  Nb19  1  0.661241  0.985863  0.250000  1
  Si  Si20  1  0.670068  0.968418  0.461480  1
  Si  Si21  1  0.168400  0.535220  0.039054  1
  Si  Si22  1  0.329214  0.033879  0.960077  1
  Si  Si23  1  0.827833  0.464953  0.538243  1
  Si  Si24  1  0.329214  0.033879  0.539923  1
  Si  Si25  1  0.827833  0.464953  0.961757  1
  Si  Si26  1  0.670068  0.968418  0.038520  1
  Si  Si27  1  0.168400  0.535220  0.460946  1
  Si  Si28  1  0.461348  0.387838  0.750000  1
  Si  Si29  1  0.960813  0.113462  0.750000  1
  Si  Si30  1  0.542452  0.612568  0.250000  1
  Si  Si31  1  0.041362  0.888505  0.250000  1
  Si  Si32  1  0.704428  0.861997  0.750000  1
  Si  Si33  1  0.203466  0.639315  0.750000  1
  Si  Si34  1  0.299269  0.138505  0.250000  1
  Au  Au35  1  0.789798  0.353625  0.250000  1
