# generated using pymatgen
data_Lu4Ga2(OsRu)3
_symmetry_space_group_name_H-M   'P 1'
_cell_length_a   5.26684566
_cell_length_b   5.26684681
_cell_length_c   8.80786400
_cell_angle_alpha   90.00000000
_cell_angle_beta   90.00000000
_cell_angle_gamma   119.86631531
_symmetry_Int_Tables_number   1
_chemical_formula_structural   Lu4Ga2(OsRu)3
_chemical_formula_sum   'Lu4 Ga2 Os3 Ru3'
_cell_volume   211.87805267
_cell_formula_units_Z   1
loop_
 _symmetry_equiv_pos_site_id
 _symmetry_equiv_pos_as_xyz
  1  'x, y, z'
loop_
 _atom_site_type_symbol
 _atom_site_label
 _atom_site_symmetry_multiplicity
 _atom_site_fract_x
 _atom_site_fract_y
 _atom_site_fract_z
 _atom_site_occupancy
  Lu  Lu0  1  0.329448  0.670552  0.440370  1
  Lu  Lu1  1  0.665570  0.334430  0.569258  1
  Lu  Lu2  1  0.665570  0.334430  0.930742  1
  Lu  Lu3  1  0.329448  0.670552  0.059630  1
  Ga  Ga4  1  0.340566  0.167448  0.250000  1
  Ga  Ga5  1  0.832552  0.659434  0.250000  1
  Os  Os6  1  0.166818  0.334544  0.750000  1
  Os  Os7  1  0.177068  0.822932  0.750000  1
  Os  Os8  1  0.665456  0.833182  0.750000  1
  Ru  Ru9  1  0.997936  0.002064  0.001428  1
  Ru  Ru10  1  0.831635  0.168365  0.250000  1
  Ru  Ru11  1  0.997936  0.002064  0.498572  1
