# generated using pymatgen
data_Yb6Ag16Pt
_symmetry_space_group_name_H-M   'P 1'
_cell_length_a   8.64974764
_cell_length_b   8.64974800
_cell_length_c   8.64974700
_cell_angle_alpha   109.47122531
_cell_angle_beta   109.47122617
_cell_angle_gamma   109.47122087
_symmetry_Int_Tables_number   1
_chemical_formula_structural   Yb6Ag16Pt
_chemical_formula_sum   'Yb6 Ag16 Pt1'
_cell_volume   498.18236482
_cell_formula_units_Z   1
loop_
 _symmetry_equiv_pos_site_id
 _symmetry_equiv_pos_as_xyz
  1  'x, y, z'
loop_
 _atom_site_type_symbol
 _atom_site_label
 _atom_site_symmetry_multiplicity
 _atom_site_fract_x
 _atom_site_fract_y
 _atom_site_fract_z
 _atom_site_occupancy
  Yb  Yb0  1  0.281686  0.281686  0.000000  1
  Yb  Yb1  1  0.718314  0.718314  0.000000  1
  Yb  Yb2  1  0.281686  0.000000  0.281686  1
  Yb  Yb3  1  0.000000  0.281686  0.281686  1
  Yb  Yb4  1  0.718314  0.000000  0.718314  1
  Yb  Yb5  1  0.000000  0.718314  0.718314  1
  Ag  Ag6  1  0.500000  0.000000  0.000000  1
  Ag  Ag7  1  0.657967  0.342033  0.000000  1
  Ag  Ag8  1  0.000000  0.500000  0.000000  1
  Ag  Ag9  1  0.342033  0.657967  0.000000  1
  Ag  Ag10  1  0.657967  0.657967  0.315933  1
  Ag  Ag11  1  0.684065  0.342032  0.342032  1
  Ag  Ag12  1  0.342032  0.684065  0.342032  1
  Ag  Ag13  1  0.657967  0.000000  0.342033  1
  Ag  Ag14  1  0.000000  0.657967  0.342033  1
  Ag  Ag15  1  0.000000  0.000000  0.500000  1
  Ag  Ag16  1  0.500000  0.500000  0.500000  1
  Ag  Ag17  1  0.342033  0.000000  0.657967  1
  Ag  Ag18  1  0.657967  0.315933  0.657967  1
  Ag  Ag19  1  0.000000  0.342033  0.657967  1
  Ag  Ag20  1  0.315933  0.657967  0.657967  1
  Ag  Ag21  1  0.342032  0.342032  0.684065  1
  Pt  Pt22  1  0.000000  0.000000  0.000000  1
