# generated using pymatgen
data_Nb12Cr4Fe3Co5N4
_symmetry_space_group_name_H-M   'P 1'
_cell_length_a   8.03088375
_cell_length_b   8.03180021
_cell_length_c   8.02946212
_cell_angle_alpha   60.08313883
_cell_angle_beta   60.06945486
_cell_angle_gamma   60.08673954
_symmetry_Int_Tables_number   1
_chemical_formula_structural   Nb12Cr4Fe3Co5N4
_chemical_formula_sum   'Nb12 Cr4 Fe3 Co5 N4'
_cell_volume   366.88681131
_cell_formula_units_Z   1
loop_
 _symmetry_equiv_pos_site_id
 _symmetry_equiv_pos_as_xyz
  1  'x, y, z'
loop_
 _atom_site_type_symbol
 _atom_site_label
 _atom_site_symmetry_multiplicity
 _atom_site_fract_x
 _atom_site_fract_y
 _atom_site_fract_z
 _atom_site_occupancy
  Nb  Nb0  1  0.803061  0.803127  0.196637  1
  Nb  Nb1  1  0.196935  0.196764  0.803755  1
  Nb  Nb2  1  0.803003  0.196610  0.803106  1
  Nb  Nb3  1  0.197000  0.803625  0.196880  1
  Nb  Nb4  1  0.196995  0.802743  0.802793  1
  Nb  Nb5  1  0.803473  0.197084  0.197151  1
  Nb  Nb6  1  0.446607  0.446554  0.053473  1
  Nb  Nb7  1  0.054449  0.054248  0.446184  1
  Nb  Nb8  1  0.446597  0.053180  0.446629  1
  Nb  Nb9  1  0.054435  0.446195  0.054297  1
  Nb  Nb10  1  0.052986  0.446741  0.446759  1
  Nb  Nb11  1  0.446226  0.054304  0.054506  1
  Cr  Cr12  1  0.124810  0.626011  0.625975  1
  Cr  Cr13  1  0.625620  0.124907  0.626115  1
  Cr  Cr14  1  0.625721  0.626231  0.124438  1
  Cr  Cr15  1  0.624397  0.624387  0.624355  1
  Fe  Fe16  1  0.725659  0.424607  0.423387  1
  Fe  Fe17  1  0.424120  0.725218  0.424073  1
  Fe  Fe18  1  0.424041  0.424296  0.725833  1
  Co  Co19  1  0.422823  0.422968  0.423130  1
  Co  Co20  1  0.522322  0.825876  0.825757  1
  Co  Co21  1  0.826196  0.522078  0.825968  1
  Co  Co22  1  0.826107  0.826007  0.522203  1
  Co  Co23  1  0.825577  0.825658  0.825718  1
  N  N24  1  0.624754  0.125366  0.125472  1
  N  N25  1  0.125445  0.624679  0.125428  1
  N  N26  1  0.125425  0.125361  0.624720  1
  N  N27  1  0.125218  0.125176  0.125259  1
