# generated using pymatgen
data_Tm3Lu(TcB4)4
_symmetry_space_group_name_H-M   'P 1'
_cell_length_a   3.57221100
_cell_length_b   5.93119215
_cell_length_c   11.46910929
_cell_angle_alpha   89.97403313
_cell_angle_beta   90.00000000
_cell_angle_gamma   90.00000000
_symmetry_Int_Tables_number   1
_chemical_formula_structural   Tm3Lu(TcB4)4
_chemical_formula_sum   'Tm3 Lu1 Tc4 B16'
_cell_volume   243.00138242
_cell_formula_units_Z   1
loop_
 _symmetry_equiv_pos_site_id
 _symmetry_equiv_pos_as_xyz
  1  'x, y, z'
loop_
 _atom_site_type_symbol
 _atom_site_label
 _atom_site_symmetry_multiplicity
 _atom_site_fract_x
 _atom_site_fract_y
 _atom_site_fract_z
 _atom_site_occupancy
  Tm  Tm0  1  0.500000  0.371644  0.150019  1
  Tm  Tm1  1  0.500000  0.628348  0.850072  1
  Tm  Tm2  1  0.500000  0.128491  0.649745  1
  Lu  Lu3  1  0.500000  0.871702  0.350341  1
  Tc  Tc4  1  0.500000  0.365586  0.411676  1
  Tc  Tc5  1  0.500000  0.634546  0.587771  1
  Tc  Tc6  1  0.500000  0.134058  0.912102  1
  Tc  Tc7  1  0.500000  0.865780  0.088486  1
  B  B8  1  0.000000  0.113641  0.048083  1
  B  B9  1  0.000000  0.886076  0.952301  1
  B  B10  1  0.000000  0.386438  0.547526  1
  B  B11  1  0.000000  0.614510  0.451742  1
  B  B12  1  0.000000  0.134732  0.468728  1
  B  B13  1  0.000000  0.865424  0.530650  1
  B  B14  1  0.000000  0.365148  0.969056  1
  B  B15  1  0.000000  0.634770  0.031254  1
  B  B16  1  0.000000  0.021455  0.193706  1
  B  B17  1  0.000000  0.978022  0.806791  1
  B  B18  1  0.000000  0.478074  0.693014  1
  B  B19  1  0.000000  0.522149  0.306728  1
  B  B20  1  0.000000  0.210106  0.314826  1
  B  B21  1  0.000000  0.789348  0.685062  1
  B  B22  1  0.000000  0.289316  0.814741  1
  B  B23  1  0.000000  0.710637  0.185582  1
