# generated using pymatgen
data_Co3Bi2Sb2PbO12
_symmetry_space_group_name_H-M   'P 1'
_cell_length_a   11.26091726
_cell_length_b   11.27152272
_cell_length_c   11.29244114
_cell_angle_alpha   109.38956519
_cell_angle_beta   109.35148039
_cell_angle_gamma   109.57903327
_symmetry_Int_Tables_number   1
_chemical_formula_structural   Co3Bi2Sb2PbO12
_chemical_formula_sum   'Co12 Bi8 Sb8 Pb4 O48'
_cell_volume   1104.64161498
_cell_formula_units_Z   4
loop_
 _symmetry_equiv_pos_site_id
 _symmetry_equiv_pos_as_xyz
  1  'x, y, z'
loop_
 _atom_site_type_symbol
 _atom_site_label
 _atom_site_symmetry_multiplicity
 _atom_site_fract_x
 _atom_site_fract_y
 _atom_site_fract_z
 _atom_site_occupancy
  Co  Co0  1  0.873249  0.248750  0.123163  1
  Co  Co1  1  0.749912  0.874412  0.123160  1
  Co  Co2  1  0.624900  0.375314  0.252010  1
  Co  Co3  1  0.127110  0.876696  0.252010  1
  Co  Co4  1  0.248115  0.622344  0.373359  1
  Co  Co5  1  0.625244  0.751017  0.373360  1
  Co  Co6  1  0.375991  0.250155  0.627647  1
  Co  Co7  1  0.751656  0.377491  0.627647  1
  Co  Co8  1  0.874912  0.125994  0.748799  1
  Co  Co9  1  0.373888  0.622805  0.748801  1
  Co  Co10  1  0.248539  0.124528  0.875084  1
  Co  Co11  1  0.126545  0.750556  0.875083  1
  Bi  Bi12  1  0.375422  0.747517  0.120998  1
  Bi  Bi13  1  0.245578  0.373483  0.120998  1
  Bi  Bi14  1  0.375396  0.125396  0.250792  1
  Bi  Bi15  1  0.872453  0.622452  0.244907  1
  Bi  Bi16  1  0.751847  0.124133  0.378514  1
  Bi  Bi17  1  0.126668  0.254381  0.378515  1
  Bi  Bi18  1  0.871762  0.749774  0.627613  1
  Bi  Bi19  1  0.255849  0.877839  0.627612  1
  Sb  Sb20  1  0.002801  0.002274  0.000933  1
  Sb  Sb21  1  0.498132  0.998658  0.000933  1
  Sb  Sb22  1  0.003175  0.501303  0.004502  1
  Sb  Sb23  1  0.501328  0.503198  0.004501  1
  Sb  Sb24  1  0.998115  0.997695  0.497288  1
  Sb  Sb25  1  0.498004  0.999383  0.497089  1
  Sb  Sb26  1  0.999172  0.499593  0.497289  1
  Sb  Sb27  1  0.499085  0.497708  0.497091  1
  Pb  Pb28  1  0.125346  0.375346  0.750692  1
  Pb  Pb29  1  0.627266  0.877266  0.754534  1
  Pb  Pb30  1  0.627741  0.250300  0.873166  1
  Pb  Pb31  1  0.745430  0.622868  0.873169  1
  O  O32  1  0.201791  0.122476  0.029545  1
  O  O33  1  0.327754  0.907070  0.029545  1
  O  O34  1  0.893704  0.416362  0.093480  1
  O  O35  1  0.699778  0.677118  0.093479  1
  O  O36  1  0.982961  0.673235  0.104171  1
  O  O37  1  0.621211  0.430936  0.104172  1
  O  O38  1  0.027484  0.199501  0.120282  1
  O  O39  1  0.592799  0.920782  0.120283  1
  O  O40  1  0.202533  0.579531  0.173780  1
  O  O41  1  0.471249  0.594249  0.173780  1
  O  O42  1  0.121967  0.025594  0.197091  1
  O  O43  1  0.575122  0.171496  0.197091  1
  O  O44  1  0.471572  0.377028  0.300226  1
  O  O45  1  0.328652  0.923197  0.300224  1
  O  O46  1  0.904248  0.025070  0.326531  1
  O  O47  1  0.922281  0.301460  0.326531  1
  O  O48  1  0.301158  0.472212  0.378233  1
  O  O49  1  0.577075  0.906021  0.378233  1
  O  O50  1  0.828524  0.523592  0.402285  1
  O  O51  1  0.073760  0.878693  0.402284  1
  O  O52  1  0.095812  0.621343  0.423862  1
  O  O53  1  0.828049  0.802519  0.423863  1
  O  O54  1  0.592564  0.173574  0.473247  1
  O  O55  1  0.380681  0.299674  0.473248  1
  O  O56  1  0.396169  0.826389  0.516205  1
  O  O57  1  0.620035  0.689817  0.516206  1
  O  O58  1  0.169701  0.190518  0.567905  1
  O  O59  1  0.898206  0.377388  0.567907  1
  O  O60  1  0.173297  0.475381  0.582918  1
  O  O61  1  0.909622  0.107536  0.582919  1
  O  O62  1  0.408631  0.084107  0.605942  1
  O  O63  1  0.697311  0.521835  0.605941  1
  O  O64  1  0.097116  0.978484  0.670883  1
  O  O65  1  0.073768  0.692401  0.670884  1
  O  O66  1  0.672342  0.079818  0.686054  1
  O  O67  1  0.513712  0.606239  0.686054  1
  O  O68  1  0.895640  0.980932  0.804071  1
  O  O69  1  0.408432  0.823139  0.804072  1
  O  O70  1  0.513161  0.407915  0.828139  1
  O  O71  1  0.814979  0.420223  0.828138  1
  O  O72  1  0.982795  0.810497  0.879313  1
  O  O73  1  0.396517  0.068815  0.879312  1
  O  O74  1  0.393548  0.593630  0.918494  1
  O  O75  1  0.024946  0.324863  0.918493  1
  O  O76  1  0.308038  0.329636  0.932114  1
  O  O77  1  0.124077  0.602478  0.932114  1
  O  O78  1  0.672160  0.092281  0.984594  1
  O  O79  1  0.812434  0.892312  0.984592  1
