# generated using pymatgen
data_Ta9Ga2Si4Mo
_symmetry_space_group_name_H-M   'P 1'
_cell_length_a   7.59092647
_cell_length_b   7.59092576
_cell_length_c   7.59092572
_cell_angle_alpha   128.64824992
_cell_angle_beta   128.64824848
_cell_angle_gamma   75.57721509
_symmetry_Int_Tables_number   1
_chemical_formula_structural   Ta9Ga2Si4Mo
_chemical_formula_sum   'Ta9 Ga2 Si4 Mo1'
_cell_volume   259.57335026
_cell_formula_units_Z   1
loop_
 _symmetry_equiv_pos_site_id
 _symmetry_equiv_pos_as_xyz
  1  'x, y, z'
loop_
 _atom_site_type_symbol
 _atom_site_label
 _atom_site_symmetry_multiplicity
 _atom_site_fract_x
 _atom_site_fract_y
 _atom_site_fract_z
 _atom_site_occupancy
  Ta  Ta0  1  0.013702  0.186331  0.499783  1
  Ta  Ta1  1  0.686547  0.513918  0.500217  1
  Ta  Ta2  1  0.513918  0.013702  0.827372  1
  Ta  Ta3  1  0.186331  0.686547  0.172628  1
  Ta  Ta4  1  0.986298  0.813669  0.500217  1
  Ta  Ta5  1  0.313453  0.486082  0.499783  1
  Ta  Ta6  1  0.486082  0.986298  0.172628  1
  Ta  Ta7  1  0.813669  0.313453  0.827372  1
  Ta  Ta8  1  0.500000  0.500000  0.000000  1
  Ga  Ga9  1  0.750221  0.750221  0.000000  1
  Ga  Ga10  1  0.249779  0.249779  0.000000  1
  Si  Si11  1  0.366312  0.128744  0.495056  1
  Si  Si12  1  0.633688  0.871256  0.504944  1
  Si  Si13  1  0.871256  0.366312  0.237567  1
  Si  Si14  1  0.128744  0.633688  0.762433  1
  Mo  Mo15  1  0.000000  0.000000  0.000000  1
