# generated using pymatgen
data_Th3ScH15
_symmetry_space_group_name_H-M   'P 1'
_cell_length_a   7.78492606
_cell_length_b   7.75340893
_cell_length_c   7.67506607
_cell_angle_alpha   109.45400961
_cell_angle_beta   109.62119633
_cell_angle_gamma   109.83124846
_symmetry_Int_Tables_number   1
_chemical_formula_structural   Th3ScH15
_chemical_formula_sum   'Th6 Sc2 H30'
_cell_volume   354.43306457
_cell_formula_units_Z   2
loop_
 _symmetry_equiv_pos_site_id
 _symmetry_equiv_pos_as_xyz
  1  'x, y, z'
loop_
 _atom_site_type_symbol
 _atom_site_label
 _atom_site_symmetry_multiplicity
 _atom_site_fract_x
 _atom_site_fract_y
 _atom_site_fract_z
 _atom_site_occupancy
  Th  Th0  1  0.989233  0.076567  0.489923  1
  Th  Th1  1  0.085900  0.508297  0.002283  1
  Th  Th2  1  0.999310  0.586644  0.510077  1
  Th  Th3  1  0.583617  0.506013  0.997717  1
  Th  Th4  1  0.508041  0.997525  0.592803  1
  Th  Th5  1  0.415238  0.404723  0.407197  1
  Sc  Sc6  1  0.901103  0.905197  0.907497  1
  Sc  Sc7  1  0.493606  0.997700  0.092503  1
  H  H8  1  0.642932  0.960111  0.358184  1
  H  H9  1  0.217462  0.318687  0.845595  1
  H  H10  1  0.187254  0.402913  0.534647  1
  H  H11  1  0.093389  0.269591  0.115660  1
  H  H12  1  0.286593  0.111841  0.089701  1
  H  H13  1  0.115157  0.085843  0.262125  1
  H  H14  1  0.477729  0.153931  0.884340  1
  H  H15  1  0.719086  0.353042  0.811200  1
  H  H16  1  0.627455  0.379857  0.249529  1
  H  H17  1  0.252118  0.622620  0.379884  1
  H  H18  1  0.748633  0.872898  0.120728  1
  H  H19  1  0.127905  0.752170  0.879272  1
  H  H20  1  0.372234  0.242736  0.620116  1
  H  H21  1  0.877926  0.130329  0.750471  1
  H  H22  1  0.784748  0.601927  0.641816  1
  H  H23  1  0.324599  0.856993  0.220785  1
  H  H24  1  0.378306  0.672112  0.969956  1
  H  H25  1  0.958361  0.365653  0.648958  1
  H  H26  1  0.539349  0.179890  0.398133  1
  H  H27  1  0.407885  0.541842  0.188800  1
  H  H28  1  0.825413  0.210746  0.303175  1
  H  H29  1  0.908349  0.702155  0.030044  1
  H  H30  1  0.809403  0.716695  0.351042  1
  H  H31  1  0.152607  0.868266  0.465353  1
  H  H32  1  0.696892  0.022140  0.910299  1
  H  H33  1  0.353033  0.823718  0.737875  1
  H  H34  1  0.871867  0.473092  0.154405  1
  H  H35  1  0.641217  0.781758  0.601867  1
  H  H36  1  0.603814  0.636208  0.779215  1
  H  H37  1  0.022238  0.907571  0.696825  1
