# generated using pymatgen
data_Tb2Lu2Zn4Si3Ge
_symmetry_space_group_name_H-M   'P 1'
_cell_length_a   4.16723000
_cell_length_b   4.16722996
_cell_length_c   15.43266600
_cell_angle_alpha   90.00000000
_cell_angle_beta   90.00000000
_cell_angle_gamma   120.00000030
_symmetry_Int_Tables_number   1
_chemical_formula_structural   Tb2Lu2Zn4Si3Ge
_chemical_formula_sum   'Tb2 Lu2 Zn4 Si3 Ge1'
_cell_volume   232.09539593
_cell_formula_units_Z   1
loop_
 _symmetry_equiv_pos_site_id
 _symmetry_equiv_pos_as_xyz
  1  'x, y, z'
loop_
 _atom_site_type_symbol
 _atom_site_label
 _atom_site_symmetry_multiplicity
 _atom_site_fract_x
 _atom_site_fract_y
 _atom_site_fract_z
 _atom_site_occupancy
  Tb  Tb0  1  0.000000  0.000000  0.002214  1
  Tb  Tb1  1  0.000000  0.000000  0.499733  1
  Lu  Lu2  1  0.000000  0.000000  0.250578  1
  Lu  Lu3  1  0.000000  0.000000  0.747764  1
  Zn  Zn4  1  0.333333  0.666667  0.145274  1
  Zn  Zn5  1  0.666667  0.333333  0.850812  1
  Zn  Zn6  1  0.666667  0.333333  0.642987  1
  Zn  Zn7  1  0.333333  0.666667  0.356116  1
  Si  Si8  1  0.333333  0.666667  0.619416  1
  Si  Si9  1  0.666667  0.333333  0.380500  1
  Si  Si10  1  0.666667  0.333333  0.120927  1
  Ge  Ge11  1  0.333333  0.666667  0.883678  1
