# generated using pymatgen
data_Ho2Th(GaNi)3
_symmetry_space_group_name_H-M   'P 1'
_cell_length_a   7.11978700
_cell_length_b   7.04293700
_cell_length_c   3.80159500
_cell_angle_alpha   90.00000000
_cell_angle_beta   90.00000000
_cell_angle_gamma   120.36161069
_symmetry_Int_Tables_number   1
_chemical_formula_structural   Ho2Th(GaNi)3
_chemical_formula_sum   'Ho2 Th1 Ga3 Ni3'
_cell_volume   164.48383712
_cell_formula_units_Z   1
loop_
 _symmetry_equiv_pos_site_id
 _symmetry_equiv_pos_as_xyz
  1  'x, y, z'
loop_
 _atom_site_type_symbol
 _atom_site_label
 _atom_site_symmetry_multiplicity
 _atom_site_fract_x
 _atom_site_fract_y
 _atom_site_fract_z
 _atom_site_occupancy
  Ho  Ho0  1  0.999110  0.412675  0.500000  1
  Ho  Ho1  1  0.586435  0.587325  0.500000  1
  Th  Th2  1  0.417512  0.000000  0.500000  1
  Ga  Ga3  1  0.988614  0.746346  0.000000  1
  Ga  Ga4  1  0.242268  0.253654  0.000000  1
  Ga  Ga5  1  0.768035  0.000000  0.000000  1
  Ni  Ni6  1  0.333536  0.674208  0.000000  1
  Ni  Ni7  1  0.659329  0.325792  0.000000  1
  Ni  Ni8  1  0.005160  0.000000  0.500000  1
