# generated using pymatgen
data_Ca12InSi11Au12
_symmetry_space_group_name_H-M   'P 1'
_cell_length_a   4.46136900
_cell_length_b   7.65964018
_cell_length_c   22.07987800
_cell_angle_alpha   89.80984503
_cell_angle_beta   90.00000000
_cell_angle_gamma   90.00000000
_symmetry_Int_Tables_number   1
_chemical_formula_structural   Ca12InSi11Au12
_chemical_formula_sum   'Ca12 In1 Si11 Au12'
_cell_volume   754.52006196
_cell_formula_units_Z   1
loop_
 _symmetry_equiv_pos_site_id
 _symmetry_equiv_pos_as_xyz
  1  'x, y, z'
loop_
 _atom_site_type_symbol
 _atom_site_label
 _atom_site_symmetry_multiplicity
 _atom_site_fract_x
 _atom_site_fract_y
 _atom_site_fract_z
 _atom_site_occupancy
  Ca  Ca0  1  0.750000  0.208647  0.497094  1
  Ca  Ca1  1  0.250000  0.797010  0.166572  1
  Ca  Ca2  1  0.250000  0.789211  0.498650  1
  Ca  Ca3  1  0.250000  0.798349  0.834499  1
  Ca  Ca4  1  0.250000  0.702492  0.331977  1
  Ca  Ca5  1  0.750000  0.206958  0.838037  1
  Ca  Ca6  1  0.750000  0.287715  0.000517  1
  Ca  Ca7  1  0.750000  0.297651  0.664515  1
  Ca  Ca8  1  0.750000  0.295756  0.333048  1
  Ca  Ca9  1  0.250000  0.696303  0.662296  1
  Ca  Ca10  1  0.250000  0.712799  0.002203  1
  Ca  Ca11  1  0.750000  0.203991  0.167673  1
  In  In12  1  0.750000  0.914040  0.726347  1
  Si  Si13  1  0.250000  0.406410  0.564719  1
  Si  Si14  1  0.250000  0.082853  0.391285  1
  Si  Si15  1  0.250000  0.091198  0.068921  1
  Si  Si16  1  0.250000  0.418145  0.895202  1
  Si  Si17  1  0.750000  0.585066  0.108011  1
  Si  Si18  1  0.250000  0.424185  0.780455  1
  Si  Si19  1  0.750000  0.581492  0.224082  1
  Si  Si20  1  0.750000  0.588628  0.430610  1
  Si  Si21  1  0.750000  0.910051  0.934168  1
  Si  Si22  1  0.250000  0.080874  0.275638  1
  Si  Si23  1  0.750000  0.911947  0.598957  1
  Au  Au24  1  0.250000  0.082839  0.593132  1
  Au  Au25  1  0.250000  0.118043  0.741144  1
  Au  Au26  1  0.750000  0.586696  0.907742  1
  Au  Au27  1  0.750000  0.914019  0.403629  1
  Au  Au28  1  0.750000  0.580329  0.564236  1
  Au  Au29  1  0.750000  0.568879  0.765732  1
  Au  Au30  1  0.250000  0.416118  0.431918  1
  Au  Au31  1  0.250000  0.412554  0.237860  1
  Au  Au32  1  0.750000  0.917179  0.068162  1
  Au  Au33  1  0.250000  0.415341  0.095064  1
  Au  Au34  1  0.250000  0.083769  0.934191  1
  Au  Au35  1  0.750000  0.912460  0.261712  1
