# generated using pymatgen
data_Sc10GaGePb6
_symmetry_space_group_name_H-M   'P 1'
_cell_length_a   8.83590400
_cell_length_b   8.83590371
_cell_length_c   6.19036400
_cell_angle_alpha   90.00000000
_cell_angle_beta   90.00000000
_cell_angle_gamma   120.00000107
_symmetry_Int_Tables_number   1
_chemical_formula_structural   Sc10GaGePb6
_chemical_formula_sum   'Sc10 Ga1 Ge1 Pb6'
_cell_volume   418.55137905
_cell_formula_units_Z   1
loop_
 _symmetry_equiv_pos_site_id
 _symmetry_equiv_pos_as_xyz
  1  'x, y, z'
loop_
 _atom_site_type_symbol
 _atom_site_label
 _atom_site_symmetry_multiplicity
 _atom_site_fract_x
 _atom_site_fract_y
 _atom_site_fract_z
 _atom_site_occupancy
  Sc  Sc0  1  0.666667  0.333333  0.000000  1
  Sc  Sc1  1  0.333333  0.666667  0.000000  1
  Sc  Sc2  1  0.333333  0.666667  0.500000  1
  Sc  Sc3  1  0.666667  0.333333  0.500000  1
  Sc  Sc4  1  0.744965  0.744965  0.755166  1
  Sc  Sc5  1  0.255035  0.000000  0.755166  1
  Sc  Sc6  1  0.000000  0.255035  0.755166  1
  Sc  Sc7  1  0.255035  0.255035  0.244834  1
  Sc  Sc8  1  0.744965  0.000000  0.244834  1
  Sc  Sc9  1  0.000000  0.744965  0.244834  1
  Ga  Ga10  1  0.000000  0.000000  0.500000  1
  Ge  Ge11  1  0.000000  0.000000  0.000000  1
  Pb  Pb12  1  0.390122  0.390122  0.749574  1
  Pb  Pb13  1  0.609878  0.000000  0.749574  1
  Pb  Pb14  1  0.000000  0.609878  0.749574  1
  Pb  Pb15  1  0.609878  0.609878  0.250426  1
  Pb  Pb16  1  0.390122  0.000000  0.250426  1
  Pb  Pb17  1  0.000000  0.390122  0.250426  1
