# generated using pymatgen
data_Zr3TaCo8(GeP2)2
_symmetry_space_group_name_H-M   'P 1'
_cell_length_a   12.24639422
_cell_length_b   12.22703385
_cell_length_c   3.67657100
_cell_angle_alpha   90.00000000
_cell_angle_beta   90.00000000
_cell_angle_gamma   120.07913770
_symmetry_Int_Tables_number   1
_chemical_formula_structural   Zr3TaCo8(GeP2)2
_chemical_formula_sum   'Zr6 Ta2 Co16 Ge4 P8'
_cell_volume   476.38278689
_cell_formula_units_Z   2
loop_
 _symmetry_equiv_pos_site_id
 _symmetry_equiv_pos_as_xyz
  1  'x, y, z'
loop_
 _atom_site_type_symbol
 _atom_site_label
 _atom_site_symmetry_multiplicity
 _atom_site_fract_x
 _atom_site_fract_y
 _atom_site_fract_z
 _atom_site_occupancy
  Zr  Zr0  1  0.000306  0.556215  0.000000  1
  Zr  Zr1  1  0.672916  0.335260  0.000000  1
  Zr  Zr2  1  0.333205  0.666866  0.000000  1
  Zr  Zr3  1  0.829144  0.827940  0.500000  1
  Zr  Zr4  1  0.170469  0.000149  0.500000  1
  Zr  Zr5  1  0.999136  0.169491  0.500000  1
  Ta  Ta6  1  0.440189  0.444866  0.000000  1
  Ta  Ta7  1  0.556535  0.998838  0.000000  1
  Co  Co8  1  0.202402  0.374324  0.000000  1
  Co  Co9  1  0.173994  0.799554  0.000000  1
  Co  Co10  1  0.829244  0.629250  0.000000  1
  Co  Co11  1  0.795150  0.167863  0.000000  1
  Co  Co12  1  0.365632  0.198056  0.000000  1
  Co  Co13  1  0.133577  0.486859  0.500000  1
  Co  Co14  1  0.358995  0.868305  0.500000  1
  Co  Co15  1  0.509846  0.644531  0.500000  1
  Co  Co16  1  0.649952  0.524853  0.500000  1
  Co  Co17  1  0.865976  0.351786  0.500000  1
  Co  Co18  1  0.488912  0.123545  0.500000  1
  Co  Co19  1  0.998945  0.999400  0.000000  1
  Co  Co20  1  0.719534  0.998540  0.500000  1
  Co  Co21  1  0.001453  0.722960  0.500000  1
  Co  Co22  1  0.625427  0.829468  0.000000  1
  Co  Co23  1  0.275102  0.280157  0.500000  1
  Ge  Ge24  1  0.653100  0.654883  0.000000  1
  Ge  Ge25  1  0.346790  0.000963  0.000000  1
  Ge  Ge26  1  0.999056  0.342158  0.000000  1
  Ge  Ge27  1  0.486858  0.312721  0.500000  1
  P  P28  1  0.688865  0.168951  0.500000  1
  P  P29  1  0.826818  0.519834  0.500000  1
  P  P30  1  0.518260  0.828789  0.500000  1
  P  P31  1  0.174771  0.692020  0.500000  1
  P  P32  1  0.823698  0.998649  0.000000  1
  P  P33  1  0.001367  0.824951  0.000000  1
  P  P34  1  0.310042  0.481398  0.500000  1
  P  P35  1  0.174334  0.175606  0.000000  1
