# generated using pymatgen
data_Cs4SrI6
_symmetry_space_group_name_H-M   'P 1'
_cell_length_a   10.66346588
_cell_length_b   10.66346632
_cell_length_c   10.66346555
_cell_angle_alpha   89.13529746
_cell_angle_beta   89.13529432
_cell_angle_gamma   89.13529666
_symmetry_Int_Tables_number   1
_chemical_formula_structural   Cs4SrI6
_chemical_formula_sum   'Cs8 Sr2 I12'
_cell_volume   1212.12730157
_cell_formula_units_Z   2
loop_
 _symmetry_equiv_pos_site_id
 _symmetry_equiv_pos_as_xyz
  1  'x, y, z'
loop_
 _atom_site_type_symbol
 _atom_site_label
 _atom_site_symmetry_multiplicity
 _atom_site_fract_x
 _atom_site_fract_y
 _atom_site_fract_z
 _atom_site_occupancy
  Cs  Cs0  1  0.250000  0.250000  0.250000  1
  Cs  Cs1  1  0.750000  0.750000  0.750000  1
  Cs  Cs2  1  0.250000  0.625900  0.874100  1
  Cs  Cs3  1  0.874100  0.250000  0.625900  1
  Cs  Cs4  1  0.625900  0.874100  0.250000  1
  Cs  Cs5  1  0.750000  0.374100  0.125900  1
  Cs  Cs6  1  0.125900  0.750000  0.374100  1
  Cs  Cs7  1  0.374100  0.125900  0.750000  1
  Sr  Sr8  1  0.000000  0.000000  0.000000  1
  Sr  Sr9  1  0.500000  0.500000  0.500000  1
  I  I10  1  0.561591  0.204117  0.427106  1
  I  I11  1  0.427106  0.561591  0.204117  1
  I  I12  1  0.204117  0.427106  0.561591  1
  I  I13  1  0.938409  0.072894  0.295883  1
  I  I14  1  0.295883  0.938409  0.072894  1
  I  I15  1  0.072894  0.295883  0.938409  1
  I  I16  1  0.438409  0.795883  0.572894  1
  I  I17  1  0.572894  0.438409  0.795883  1
  I  I18  1  0.795883  0.572894  0.438409  1
  I  I19  1  0.061591  0.927106  0.704117  1
  I  I20  1  0.927106  0.704117  0.061591  1
  I  I21  1  0.704117  0.061591  0.927106  1
