# generated using pymatgen
data_Ce9Dy3(Si3Ir)4
_symmetry_space_group_name_H-M   'P 1'
_cell_length_a   4.33323000
_cell_length_b   10.45768753
_cell_length_c   12.61997200
_cell_angle_alpha   89.68253367
_cell_angle_beta   90.00000000
_cell_angle_gamma   90.00000000
_symmetry_Int_Tables_number   1
_chemical_formula_structural   Ce9Dy3(Si3Ir)4
_chemical_formula_sum   'Ce9 Dy3 Si12 Ir4'
_cell_volume   571.87238708
_cell_formula_units_Z   1
loop_
 _symmetry_equiv_pos_site_id
 _symmetry_equiv_pos_as_xyz
  1  'x, y, z'
loop_
 _atom_site_type_symbol
 _atom_site_label
 _atom_site_symmetry_multiplicity
 _atom_site_fract_x
 _atom_site_fract_y
 _atom_site_fract_z
 _atom_site_occupancy
  Ce  Ce0  1  0.750000  0.387465  0.470300  1
  Ce  Ce1  1  0.250000  0.918893  0.598887  1
  Ce  Ce2  1  0.250000  0.580184  0.098349  1
  Ce  Ce3  1  0.750000  0.082235  0.400820  1
  Ce  Ce4  1  0.750000  0.420246  0.902837  1
  Ce  Ce5  1  0.250000  0.660886  0.807200  1
  Ce  Ce6  1  0.250000  0.839656  0.306592  1
  Ce  Ce7  1  0.750000  0.338541  0.191877  1
  Ce  Ce8  1  0.750000  0.162953  0.694462  1
  Dy  Dy9  1  0.250000  0.887226  0.028175  1
  Dy  Dy10  1  0.250000  0.610384  0.528182  1
  Dy  Dy11  1  0.750000  0.112043  0.971085  1
  Si  Si12  1  0.250000  0.000593  0.819685  1
  Si  Si13  1  0.250000  0.500237  0.319758  1
  Si  Si14  1  0.750000  0.999779  0.180214  1
  Si  Si15  1  0.750000  0.500032  0.680789  1
  Si  Si16  1  0.250000  0.240905  0.841883  1
  Si  Si17  1  0.250000  0.258451  0.337389  1
  Si  Si18  1  0.750000  0.759373  0.159532  1
  Si  Si19  1  0.750000  0.741344  0.660125  1
  Si  Si20  1  0.250000  0.209988  0.539728  1
  Si  Si21  1  0.250000  0.287792  0.038060  1
  Si  Si22  1  0.750000  0.788272  0.461751  1
  Si  Si23  1  0.750000  0.712692  0.961958  1
  Ir  Ir24  1  0.250000  0.383832  0.683672  1
  Ir  Ir25  1  0.250000  0.115121  0.178996  1
  Ir  Ir26  1  0.750000  0.615703  0.318462  1
  Ir  Ir27  1  0.750000  0.885174  0.819234  1
