# generated using pymatgen
data_Cs2U4S7
_symmetry_space_group_name_H-M   'P 1'
_cell_length_a   3.97052600
_cell_length_b   12.89141496
_cell_length_c   14.57852780
_cell_angle_alpha   82.66455942
_cell_angle_beta   90.00000000
_cell_angle_gamma   90.00000000
_symmetry_Int_Tables_number   1
_chemical_formula_structural   Cs2U4S7
_chemical_formula_sum   'Cs4 U8 S14'
_cell_volume   740.10486898
_cell_formula_units_Z   2
loop_
 _symmetry_equiv_pos_site_id
 _symmetry_equiv_pos_as_xyz
  1  'x, y, z'
loop_
 _atom_site_type_symbol
 _atom_site_label
 _atom_site_symmetry_multiplicity
 _atom_site_fract_x
 _atom_site_fract_y
 _atom_site_fract_z
 _atom_site_occupancy
  Cs  Cs0  1  0.250000  0.570406  0.827618  1
  Cs  Cs1  1  0.750000  0.429594  0.172382  1
  Cs  Cs2  1  0.750000  0.834264  0.620886  1
  Cs  Cs3  1  0.250000  0.165736  0.379114  1
  U  U4  1  0.250000  0.954366  0.892625  1
  U  U5  1  0.750000  0.045634  0.107375  1
  U  U6  1  0.250000  0.839359  0.269405  1
  U  U7  1  0.750000  0.160641  0.730595  1
  U  U8  1  0.750000  0.759268  0.056934  1
  U  U9  1  0.250000  0.240732  0.943066  1
  U  U10  1  0.750000  0.606123  0.421642  1
  U  U11  1  0.250000  0.393877  0.578358  1
  S  S12  1  0.250000  0.465602  0.392334  1
  S  S13  1  0.750000  0.534398  0.607666  1
  S  S14  1  0.250000  0.623728  0.048694  1
  S  S15  1  0.750000  0.376272  0.951306  1
  S  S16  1  0.750000  0.978492  0.296549  1
  S  S17  1  0.250000  0.021508  0.703451  1
  S  S18  1  0.750000  0.812188  0.867842  1
  S  S19  1  0.250000  0.187812  0.132158  1
  S  S20  1  0.250000  0.746644  0.448551  1
  S  S21  1  0.750000  0.253356  0.551449  1
  S  S22  1  0.750000  0.696538  0.243169  1
  S  S23  1  0.250000  0.303462  0.756831  1
  S  S24  1  0.250000  0.902321  0.082587  1
  S  S25  1  0.750000  0.097679  0.917413  1
