# generated using pymatgen
data_Nb6ZnGa4ReN2
_symmetry_space_group_name_H-M   'P 1'
_cell_length_a   8.32329634
_cell_length_b   8.32329616
_cell_length_c   8.38988100
_cell_angle_alpha   59.73501748
_cell_angle_beta   59.73501818
_cell_angle_gamma   59.35790425
_symmetry_Int_Tables_number   1
_chemical_formula_structural   Nb6ZnGa4ReN2
_chemical_formula_sum   'Nb12 Zn2 Ga8 Re2 N4'
_cell_volume   407.32904008
_cell_formula_units_Z   2
loop_
 _symmetry_equiv_pos_site_id
 _symmetry_equiv_pos_as_xyz
  1  'x, y, z'
loop_
 _atom_site_type_symbol
 _atom_site_label
 _atom_site_symmetry_multiplicity
 _atom_site_fract_x
 _atom_site_fract_y
 _atom_site_fract_z
 _atom_site_occupancy
  Nb  Nb0  1  0.440224  0.440224  0.059776  1
  Nb  Nb1  1  0.056743  0.442918  0.057462  1
  Nb  Nb2  1  0.442918  0.056743  0.057462  1
  Nb  Nb3  1  0.054657  0.054657  0.445343  1
  Nb  Nb4  1  0.442918  0.056743  0.442876  1
  Nb  Nb5  1  0.056743  0.442918  0.442876  1
  Nb  Nb6  1  0.809776  0.809776  0.190224  1
  Nb  Nb7  1  0.193257  0.807082  0.192538  1
  Nb  Nb8  1  0.807082  0.193257  0.192538  1
  Nb  Nb9  1  0.195343  0.195343  0.804657  1
  Nb  Nb10  1  0.807082  0.193257  0.807124  1
  Nb  Nb11  1  0.193257  0.807082  0.807124  1
  Zn  Zn12  1  0.625000  0.125000  0.625000  1
  Zn  Zn13  1  0.125000  0.625000  0.625000  1
  Ga  Ga14  1  0.838579  0.838579  0.485153  1
  Ga  Ga15  1  0.837247  0.486758  0.837998  1
  Ga  Ga16  1  0.486758  0.837247  0.837998  1
  Ga  Ga17  1  0.838579  0.838579  0.837690  1
  Ga  Ga18  1  0.411421  0.411421  0.764847  1
  Ga  Ga19  1  0.412753  0.763242  0.412002  1
  Ga  Ga20  1  0.763242  0.412753  0.412002  1
  Ga  Ga21  1  0.411421  0.411421  0.412310  1
  Re  Re22  1  0.625000  0.625000  0.125000  1
  Re  Re23  1  0.625000  0.625000  0.625000  1
  N  N24  1  0.125000  0.125000  0.625000  1
  N  N25  1  0.125000  0.625000  0.125000  1
  N  N26  1  0.625000  0.125000  0.125000  1
  N  N27  1  0.125000  0.125000  0.125000  1
