# generated using pymatgen
data_Nd2HgRhAu
_symmetry_space_group_name_H-M   'P 1'
_cell_length_a   7.81857900
_cell_length_b   7.99567200
_cell_length_c   3.91330100
_cell_angle_alpha   90.00000000
_cell_angle_beta   90.00000000
_cell_angle_gamma   90.00000000
_symmetry_Int_Tables_number   1
_chemical_formula_structural   Nd2HgRhAu
_chemical_formula_sum   'Nd4 Hg2 Rh2 Au2'
_cell_volume   244.63920271
_cell_formula_units_Z   2
loop_
 _symmetry_equiv_pos_site_id
 _symmetry_equiv_pos_as_xyz
  1  'x, y, z'
loop_
 _atom_site_type_symbol
 _atom_site_label
 _atom_site_symmetry_multiplicity
 _atom_site_fract_x
 _atom_site_fract_y
 _atom_site_fract_z
 _atom_site_occupancy
  Nd  Nd0  1  0.825742  0.686852  0.500000  1
  Nd  Nd1  1  0.325742  0.813148  0.500000  1
  Nd  Nd2  1  0.677280  0.149315  0.500000  1
  Nd  Nd3  1  0.177280  0.350685  0.500000  1
  Hg  Hg4  1  0.997661  0.992362  0.000000  1
  Hg  Hg5  1  0.497661  0.507638  0.000000  1
  Rh  Rh6  1  0.634030  0.875443  0.000000  1
  Rh  Rh7  1  0.134030  0.624557  0.000000  1
  Au  Au8  1  0.865285  0.380426  0.000000  1
  Au  Au9  1  0.365285  0.119574  0.000000  1
