# generated using pymatgen
data_TbHo(Si7Ir3)2
_symmetry_space_group_name_H-M   'P 1'
_cell_length_a   8.05330551
_cell_length_b   8.05330461
_cell_length_c   8.05330569
_cell_angle_alpha   56.49777190
_cell_angle_beta   56.49777450
_cell_angle_gamma   56.49776865
_symmetry_Int_Tables_number   1
_chemical_formula_structural   TbHo(Si7Ir3)2
_chemical_formula_sum   'Tb1 Ho1 Si14 Ir6'
_cell_volume   339.42724725
_cell_formula_units_Z   1
loop_
 _symmetry_equiv_pos_site_id
 _symmetry_equiv_pos_as_xyz
  1  'x, y, z'
loop_
 _atom_site_type_symbol
 _atom_site_label
 _atom_site_symmetry_multiplicity
 _atom_site_fract_x
 _atom_site_fract_y
 _atom_site_fract_z
 _atom_site_occupancy
  Tb  Tb0  1  0.000000  0.000000  0.000000  1
  Ho  Ho1  1  0.500000  0.500000  0.500000  1
  Si  Si2  1  0.850707  0.064045  0.672542  1
  Si  Si3  1  0.672542  0.850707  0.064045  1
  Si  Si4  1  0.064045  0.672542  0.850707  1
  Si  Si5  1  0.649727  0.827316  0.435898  1
  Si  Si6  1  0.250123  0.250123  0.250123  1
  Si  Si7  1  0.749877  0.749877  0.749877  1
  Si  Si8  1  0.172684  0.564102  0.350273  1
  Si  Si9  1  0.564102  0.350273  0.172684  1
  Si  Si10  1  0.350273  0.172684  0.564102  1
  Si  Si11  1  0.935955  0.327458  0.149293  1
  Si  Si12  1  0.327458  0.149293  0.935955  1
  Si  Si13  1  0.149293  0.935955  0.327458  1
  Si  Si14  1  0.827316  0.435898  0.649727  1
  Si  Si15  1  0.435898  0.649727  0.827316  1
  Ir  Ir16  1  0.749496  0.070945  0.429839  1
  Ir  Ir17  1  0.429839  0.749496  0.070945  1
  Ir  Ir18  1  0.070945  0.429839  0.749496  1
  Ir  Ir19  1  0.250504  0.929055  0.570161  1
  Ir  Ir20  1  0.570161  0.250504  0.929055  1
  Ir  Ir21  1  0.929055  0.570161  0.250504  1
