# generated using pymatgen
data_La2TbEr3(IrO7)2
_symmetry_space_group_name_H-M   'P 1'
_cell_length_a   6.47053372
_cell_length_b   6.47642331
_cell_length_c   7.51641500
_cell_angle_alpha   90.00000000
_cell_angle_beta   90.00000000
_cell_angle_gamma   109.48817901
_symmetry_Int_Tables_number   1
_chemical_formula_structural   La2TbEr3(IrO7)2
_chemical_formula_sum   'La2 Tb1 Er3 Ir2 O14'
_cell_volume   296.93702541
_cell_formula_units_Z   1
loop_
 _symmetry_equiv_pos_site_id
 _symmetry_equiv_pos_as_xyz
  1  'x, y, z'
loop_
 _atom_site_type_symbol
 _atom_site_label
 _atom_site_symmetry_multiplicity
 _atom_site_fract_x
 _atom_site_fract_y
 _atom_site_fract_z
 _atom_site_occupancy
  La  La0  1  0.997617  0.999095  0.501100  1
  La  La1  1  0.997617  0.999095  0.998900  1
  Tb  Tb2  1  0.063127  0.515980  0.250000  1
  Er  Er3  1  0.513367  0.058815  0.250000  1
  Er  Er4  1  0.938638  0.486738  0.750000  1
  Er  Er5  1  0.485845  0.939122  0.750000  1
  Ir  Ir6  1  0.499448  0.498565  0.501084  1
  Ir  Ir7  1  0.499448  0.498565  0.998916  1
  O  O8  1  0.444142  0.180236  0.534285  1
  O  O9  1  0.820014  0.559187  0.468668  1
  O  O10  1  0.444142  0.180236  0.965715  1
  O  O11  1  0.820014  0.559187  0.031332  1
  O  O12  1  0.553714  0.818126  0.466593  1
  O  O13  1  0.180533  0.439330  0.536745  1
  O  O14  1  0.553714  0.818126  0.033407  1
  O  O15  1  0.180533  0.439330  0.963255  1
  O  O16  1  0.160659  0.881519  0.250000  1
  O  O17  1  0.124687  0.837977  0.750000  1
  O  O18  1  0.836843  0.125000  0.750000  1
  O  O19  1  0.873640  0.159433  0.250000  1
  O  O20  1  0.414968  0.409382  0.250000  1
  O  O21  1  0.597291  0.596957  0.750000  1
