# generated using pymatgen
data_Tb4Ce3Sm(ReB6)4
_symmetry_space_group_name_H-M   'P 1'
_cell_length_a   3.74044000
_cell_length_b   9.24997076
_cell_length_c   11.63435174
_cell_angle_alpha   89.89661508
_cell_angle_beta   90.00000000
_cell_angle_gamma   90.00000000
_symmetry_Int_Tables_number   1
_chemical_formula_structural   Tb4Ce3Sm(ReB6)4
_chemical_formula_sum   'Tb4 Ce3 Sm1 Re4 B24'
_cell_volume   402.53582252
_cell_formula_units_Z   1
loop_
 _symmetry_equiv_pos_site_id
 _symmetry_equiv_pos_as_xyz
  1  'x, y, z'
loop_
 _atom_site_type_symbol
 _atom_site_label
 _atom_site_symmetry_multiplicity
 _atom_site_fract_x
 _atom_site_fract_y
 _atom_site_fract_z
 _atom_site_occupancy
  Tb  Tb0  1  0.000000  0.943895  0.371674  1
  Tb  Tb1  1  0.000000  0.056726  0.628127  1
  Tb  Tb2  1  0.000000  0.444019  0.127725  1
  Tb  Tb3  1  0.000000  0.555532  0.873145  1
  Ce  Ce4  1  0.000000  0.675757  0.586098  1
  Ce  Ce5  1  0.000000  0.822888  0.086334  1
  Ce  Ce6  1  0.000000  0.177371  0.914105  1
  Sm  Sm7  1  0.000000  0.323420  0.413469  1
  Re  Re8  1  0.000000  0.639938  0.320879  1
  Re  Re9  1  0.000000  0.361628  0.680228  1
  Re  Re10  1  0.000000  0.136702  0.177038  1
  Re  Re11  1  0.000000  0.861528  0.821214  1
  B  B12  1  0.500000  0.554940  0.432088  1
  B  B13  1  0.500000  0.446448  0.568820  1
  B  B14  1  0.500000  0.053927  0.068024  1
  B  B15  1  0.500000  0.945759  0.931413  1
  B  B16  1  0.500000  0.747775  0.418594  1
  B  B17  1  0.500000  0.252219  0.582116  1
  B  B18  1  0.500000  0.247822  0.081254  1
  B  B19  1  0.500000  0.752438  0.918517  1
  B  B20  1  0.500000  0.791359  0.266554  1
  B  B21  1  0.500000  0.208877  0.733474  1
  B  B22  1  0.500000  0.291106  0.232674  1
  B  B23  1  0.500000  0.708785  0.766669  1
  B  B24  1  0.500000  0.632478  0.186505  1
  B  B25  1  0.500000  0.367546  0.813817  1
  B  B26  1  0.500000  0.131542  0.313139  1
  B  B27  1  0.500000  0.867820  0.686398  1
  B  B28  1  0.500000  0.984066  0.212644  1
  B  B29  1  0.500000  0.015653  0.787182  1
  B  B30  1  0.500000  0.484561  0.286784  1
  B  B31  1  0.500000  0.515681  0.712865  1
  B  B32  1  0.500000  0.609667  0.030709  1
  B  B33  1  0.500000  0.390382  0.969797  1
  B  B34  1  0.500000  0.105062  0.470481  1
  B  B35  1  0.500000  0.894682  0.529443  1
