# generated using pymatgen
data_Tb2ZrPd8Pt
_symmetry_space_group_name_H-M   'P 1'
_cell_length_a   4.09886100
_cell_length_b   4.09886100
_cell_length_c   12.36698300
_cell_angle_alpha   90.00000000
_cell_angle_beta   90.00000000
_cell_angle_gamma   90.00000000
_symmetry_Int_Tables_number   1
_chemical_formula_structural   Tb2ZrPd8Pt
_chemical_formula_sum   'Tb2 Zr1 Pd8 Pt1'
_cell_volume   207.77349513
_cell_formula_units_Z   1
loop_
 _symmetry_equiv_pos_site_id
 _symmetry_equiv_pos_as_xyz
  1  'x, y, z'
loop_
 _atom_site_type_symbol
 _atom_site_label
 _atom_site_symmetry_multiplicity
 _atom_site_fract_x
 _atom_site_fract_y
 _atom_site_fract_z
 _atom_site_occupancy
  Tb  Tb0  1  0.000000  0.000000  0.332833  1
  Tb  Tb1  1  0.000000  0.000000  0.667167  1
  Zr  Zr2  1  0.000000  0.000000  0.000000  1
  Pd  Pd3  1  0.500000  0.500000  0.329167  1
  Pd  Pd4  1  0.500000  0.500000  0.670833  1
  Pd  Pd5  1  0.500000  0.000000  0.159106  1
  Pd  Pd6  1  0.500000  0.000000  0.500000  1
  Pd  Pd7  1  0.500000  0.000000  0.840894  1
  Pd  Pd8  1  0.000000  0.500000  0.159106  1
  Pd  Pd9  1  0.000000  0.500000  0.500000  1
  Pd  Pd10  1  0.000000  0.500000  0.840894  1
  Pt  Pt11  1  0.500000  0.500000  0.000000  1
