# generated using pymatgen
data_Zr6Zn6Cu17C
_symmetry_space_group_name_H-M   'P 1'
_cell_length_a   8.46404956
_cell_length_b   8.46408409
_cell_length_c   8.46404772
_cell_angle_alpha   59.99985504
_cell_angle_beta   60.08644731
_cell_angle_gamma   59.99985351
_symmetry_Int_Tables_number   1
_chemical_formula_structural   Zr6Zn6Cu17C
_chemical_formula_sum   'Zr6 Zn6 Cu17 C1'
_cell_volume   429.04539698
_cell_formula_units_Z   1
loop_
 _symmetry_equiv_pos_site_id
 _symmetry_equiv_pos_as_xyz
  1  'x, y, z'
loop_
 _atom_site_type_symbol
 _atom_site_label
 _atom_site_symmetry_multiplicity
 _atom_site_fract_x
 _atom_site_fract_y
 _atom_site_fract_z
 _atom_site_occupancy
  Zr  Zr0  1  0.694776  0.302675  0.305224  1
  Zr  Zr1  1  0.305224  0.697325  0.694776  1
  Zr  Zr2  1  0.303117  0.696883  0.303117  1
  Zr  Zr3  1  0.696883  0.303117  0.696883  1
  Zr  Zr4  1  0.305224  0.302675  0.694776  1
  Zr  Zr5  1  0.694776  0.697325  0.305224  1
  Zn  Zn6  1  0.500000  0.000000  0.000000  1
  Zn  Zn7  1  0.000000  0.500000  0.500000  1
  Zn  Zn8  1  0.000000  0.500000  0.000000  1
  Zn  Zn9  1  0.000000  0.000000  0.500000  1
  Zn  Zn10  1  0.500000  0.500000  0.000000  1
  Zn  Zn11  1  0.000000  0.000000  0.000000  1
  Cu  Cu12  1  0.119373  0.119575  0.119373  1
  Cu  Cu13  1  0.880627  0.880425  0.880627  1
  Cu  Cu14  1  0.122263  0.118236  0.641266  1
  Cu  Cu15  1  0.119373  0.641680  0.119373  1
  Cu  Cu16  1  0.877737  0.881764  0.358734  1
  Cu  Cu17  1  0.880627  0.358320  0.880627  1
  Cu  Cu18  1  0.641266  0.118236  0.122263  1
  Cu  Cu19  1  0.358734  0.881764  0.877737  1
  Cu  Cu20  1  0.500000  0.000000  0.500000  1
  Cu  Cu21  1  0.328967  0.326202  0.328967  1
  Cu  Cu22  1  0.671033  0.673798  0.671033  1
  Cu  Cu23  1  0.328115  0.328371  0.015143  1
  Cu  Cu24  1  0.328967  0.015865  0.328967  1
  Cu  Cu25  1  0.671885  0.671629  0.984857  1
  Cu  Cu26  1  0.671033  0.984135  0.671033  1
  Cu  Cu27  1  0.015143  0.328371  0.328115  1
  Cu  Cu28  1  0.984857  0.671629  0.671885  1
  C  C29  1  0.500000  0.500000  0.500000  1
