# generated using pymatgen
data_SrY2(Al3Pd2)3
_symmetry_space_group_name_H-M   'P 1'
_cell_length_a   4.17221000
_cell_length_b   9.56812828
_cell_length_c   9.56443041
_cell_angle_alpha   120.01310520
_cell_angle_beta   90.00000000
_cell_angle_gamma   90.00000000
_symmetry_Int_Tables_number   1
_chemical_formula_structural   SrY2(Al3Pd2)3
_chemical_formula_sum   'Sr1 Y2 Al9 Pd6'
_cell_volume   330.61726268
_cell_formula_units_Z   1
loop_
 _symmetry_equiv_pos_site_id
 _symmetry_equiv_pos_as_xyz
  1  'x, y, z'
loop_
 _atom_site_type_symbol
 _atom_site_label
 _atom_site_symmetry_multiplicity
 _atom_site_fract_x
 _atom_site_fract_y
 _atom_site_fract_z
 _atom_site_occupancy
  Sr  Sr0  1  0.000000  0.999982  0.999999  1
  Y  Y1  1  0.500000  0.333402  0.666812  1
  Y  Y2  1  0.500000  0.666589  0.333190  1
  Al  Al3  1  0.500000  0.308081  0.000002  1
  Al  Al4  1  0.500000  0.692050  0.691936  1
  Al  Al5  1  0.500000  0.000110  0.308062  1
  Al  Al6  1  0.500000  0.691894  0.000002  1
  Al  Al7  1  0.500000  0.307952  0.308060  1
  Al  Al8  1  0.500000  0.999887  0.691937  1
  Al  Al9  1  0.000000  0.499990  0.000005  1
  Al  Al10  1  0.000000  0.500004  0.499991  1
  Al  Al11  1  0.000000  0.000005  0.500006  1
  Pd  Pd12  1  0.000000  0.188290  0.376576  1
  Pd  Pd13  1  0.000000  0.188178  0.811739  1
  Pd  Pd14  1  0.000000  0.623538  0.811739  1
  Pd  Pd15  1  0.000000  0.811713  0.623422  1
  Pd  Pd16  1  0.000000  0.376439  0.188260  1
  Pd  Pd17  1  0.000000  0.811799  0.188262  1
