# generated using pymatgen
data_Pr2AlV(WO6)2
_symmetry_space_group_name_H-M   'P 1'
_cell_length_a   5.40045633
_cell_length_b   7.52616346
_cell_length_c   11.02046300
_cell_angle_alpha   90.00000000
_cell_angle_beta   90.00000000
_cell_angle_gamma   90.04023033
_symmetry_Int_Tables_number   1
_chemical_formula_structural   Pr2AlV(WO6)2
_chemical_formula_sum   'Pr4 Al2 V2 W4 O24'
_cell_volume   447.92349097
_cell_formula_units_Z   2
loop_
 _symmetry_equiv_pos_site_id
 _symmetry_equiv_pos_as_xyz
  1  'x, y, z'
loop_
 _atom_site_type_symbol
 _atom_site_label
 _atom_site_symmetry_multiplicity
 _atom_site_fract_x
 _atom_site_fract_y
 _atom_site_fract_z
 _atom_site_occupancy
  Pr  Pr0  1  0.046086  0.250209  0.051986  1
  Pr  Pr1  1  0.546086  0.750209  0.448014  1
  Pr  Pr2  1  0.457129  0.252852  0.538952  1
  Pr  Pr3  1  0.957131  0.752852  0.961048  1
  Al  Al4  1  0.546167  0.997157  0.136544  1
  Al  Al5  1  0.046168  0.497157  0.363456  1
  V  V6  1  0.951604  0.999617  0.634845  1
  V  V7  1  0.451603  0.499617  0.865154  1
  W  W8  1  0.553490  0.504622  0.147364  1
  W  W9  1  0.053490  0.004622  0.352636  1
  W  W10  1  0.947617  0.506234  0.640744  1
  W  W11  1  0.447617  0.006234  0.859257  1
  O  O12  1  0.274505  0.965924  0.026915  1
  O  O13  1  0.271121  0.538877  0.031650  1
  O  O14  1  0.645012  0.751994  0.127605  1
  O  O15  1  0.466795  0.253044  0.144237  1
  O  O16  1  0.867072  0.451301  0.219982  1
  O  O17  1  0.861131  0.050356  0.213334  1
  O  O18  1  0.361129  0.550356  0.286665  1
  O  O19  1  0.367072  0.951301  0.280018  1
  O  O20  1  0.966795  0.753045  0.355763  1
  O  O21  1  0.145010  0.251993  0.372396  1
  O  O22  1  0.771120  0.038878  0.468350  1
  O  O23  1  0.774507  0.465924  0.473084  1
  O  O24  1  0.237372  0.965994  0.515896  1
  O  O25  1  0.224994  0.539153  0.520009  1
  O  O26  1  0.840295  0.749864  0.619471  1
  O  O27  1  0.053071  0.258470  0.642304  1
  O  O28  1  0.635022  0.442034  0.705336  1
  O  O29  1  0.621521  0.062498  0.717274  1
  O  O30  1  0.121521  0.562498  0.782725  1
  O  O31  1  0.135022  0.942034  0.794664  1
  O  O32  1  0.553071  0.758471  0.857696  1
  O  O33  1  0.340295  0.249863  0.880530  1
  O  O34  1  0.724993  0.039154  0.979991  1
  O  O35  1  0.737372  0.465994  0.984104  1
