# generated using pymatgen
data_Tb6Ho(TmSi2)3
_symmetry_space_group_name_H-M   'P 1'
_cell_length_a   8.43844000
_cell_length_b   8.43843928
_cell_length_c   6.31690600
_cell_angle_alpha   90.00000000
_cell_angle_beta   90.00000000
_cell_angle_gamma   120.00001066
_symmetry_Int_Tables_number   1
_chemical_formula_structural   Tb6Ho(TmSi2)3
_chemical_formula_sum   'Tb6 Ho1 Tm3 Si6'
_cell_volume   389.54649033
_cell_formula_units_Z   1
loop_
 _symmetry_equiv_pos_site_id
 _symmetry_equiv_pos_as_xyz
  1  'x, y, z'
loop_
 _atom_site_type_symbol
 _atom_site_label
 _atom_site_symmetry_multiplicity
 _atom_site_fract_x
 _atom_site_fract_y
 _atom_site_fract_z
 _atom_site_occupancy
  Tb  Tb0  1  0.755330  0.755452  0.249450  1
  Tb  Tb1  1  0.244548  0.999879  0.249450  1
  Tb  Tb2  1  0.000121  0.244670  0.249450  1
  Tb  Tb3  1  0.244548  0.244670  0.750550  1
  Tb  Tb4  1  0.755330  0.999879  0.750550  1
  Tb  Tb5  1  0.000121  0.755452  0.750550  1
  Ho  Ho6  1  0.666667  0.333333  0.500000  1
  Tm  Tm7  1  0.333333  0.666667  0.500000  1
  Tm  Tm8  1  0.333333  0.666667  0.000000  1
  Tm  Tm9  1  0.666667  0.333333  0.000000  1
  Si  Si10  1  0.394432  0.395521  0.248295  1
  Si  Si11  1  0.604479  0.998911  0.248295  1
  Si  Si12  1  0.001089  0.605568  0.248295  1
  Si  Si13  1  0.604479  0.605568  0.751705  1
  Si  Si14  1  0.394432  0.998911  0.751705  1
  Si  Si15  1  0.001089  0.395521  0.751705  1
