# generated using pymatgen
data_ErTm15MgIn3Ir4
_symmetry_space_group_name_H-M   'P 1'
_cell_length_a   9.55527418
_cell_length_b   9.58570543
_cell_length_c   9.54573520
_cell_angle_alpha   59.86139686
_cell_angle_beta   59.91493952
_cell_angle_gamma   59.89460095
_symmetry_Int_Tables_number   1
_chemical_formula_structural   ErTm15MgIn3Ir4
_chemical_formula_sum   'Er1 Tm15 Mg1 In3 Ir4'
_cell_volume   616.70758533
_cell_formula_units_Z   1
loop_
 _symmetry_equiv_pos_site_id
 _symmetry_equiv_pos_as_xyz
  1  'x, y, z'
loop_
 _atom_site_type_symbol
 _atom_site_label
 _atom_site_symmetry_multiplicity
 _atom_site_fract_x
 _atom_site_fract_y
 _atom_site_fract_z
 _atom_site_occupancy
  Er  Er0  1  0.060686  0.439062  0.061188  1
  Tm  Tm1  1  0.061411  0.061662  0.438450  1
  Tm  Tm2  1  0.650979  0.043473  0.651750  1
  Tm  Tm3  1  0.192141  0.808039  0.191780  1
  Tm  Tm4  1  0.437377  0.061500  0.439623  1
  Tm  Tm5  1  0.192350  0.190843  0.808864  1
  Tm  Tm6  1  0.650979  0.653798  0.651750  1
  Tm  Tm7  1  0.048279  0.651079  0.649563  1
  Tm  Tm8  1  0.438245  0.060885  0.061054  1
  Tm  Tm9  1  0.650010  0.652404  0.045182  1
  Tm  Tm10  1  0.192350  0.807943  0.808864  1
  Tm  Tm11  1  0.811022  0.189349  0.810280  1
  Tm  Tm12  1  0.811749  0.188605  0.189903  1
  Tm  Tm13  1  0.811749  0.809741  0.189903  1
  Tm  Tm14  1  0.061411  0.438477  0.438450  1
  Tm  Tm15  1  0.438245  0.439816  0.061054  1
  Mg  Mg16  1  0.735588  0.421414  0.421583  1
  In  In17  1  0.418184  0.416379  0.749058  1
  In  In18  1  0.417774  0.749519  0.416285  1
  In  In19  1  0.417774  0.416422  0.416285  1
  Ir  Ir20  1  0.859465  0.858488  0.858350  1
  Ir  Ir21  1  0.423271  0.858959  0.858810  1
  Ir  Ir22  1  0.859498  0.858443  0.423618  1
  Ir  Ir23  1  0.859465  0.423697  0.858350  1
