# generated using pymatgen
data_Yb2Ce(InRh)3
_symmetry_space_group_name_H-M   'P 1'
_cell_length_a   7.41683211
_cell_length_b   7.41683217
_cell_length_c   3.98206800
_cell_angle_alpha   90.00000000
_cell_angle_beta   90.00000000
_cell_angle_gamma   116.25848709
_symmetry_Int_Tables_number   1
_chemical_formula_structural   Yb2Ce(InRh)3
_chemical_formula_sum   'Yb2 Ce1 In3 Rh3'
_cell_volume   196.44666781
_cell_formula_units_Z   1
loop_
 _symmetry_equiv_pos_site_id
 _symmetry_equiv_pos_as_xyz
  1  'x, y, z'
loop_
 _atom_site_type_symbol
 _atom_site_label
 _atom_site_symmetry_multiplicity
 _atom_site_fract_x
 _atom_site_fract_y
 _atom_site_fract_z
 _atom_site_occupancy
  Yb  Yb0  1  0.402356  0.995646  0.500000  1
  Yb  Yb1  1  0.995646  0.402356  0.500000  1
  Ce  Ce2  1  0.581021  0.581021  0.500000  1
  In  In3  1  0.741663  0.010059  0.000000  1
  In  In4  1  0.010059  0.741663  0.000000  1
  In  In5  1  0.242036  0.242036  0.000000  1
  Rh  Rh6  1  0.365047  0.665451  0.000000  1
  Rh  Rh7  1  0.665451  0.365047  0.000000  1
  Rh  Rh8  1  0.996722  0.996722  0.500000  1
