# generated using pymatgen
data_LiSn5IrRh2
_symmetry_space_group_name_H-M   'P 1'
_cell_length_a   5.50065200
_cell_length_b   9.88509000
_cell_length_c   12.94703600
_cell_angle_alpha   90.00000000
_cell_angle_beta   90.00000000
_cell_angle_gamma   90.00000000
_symmetry_Int_Tables_number   1
_chemical_formula_structural   LiSn5IrRh2
_chemical_formula_sum   'Li4 Sn20 Ir4 Rh8'
_cell_volume   703.98783318
_cell_formula_units_Z   4
loop_
 _symmetry_equiv_pos_site_id
 _symmetry_equiv_pos_as_xyz
  1  'x, y, z'
loop_
 _atom_site_type_symbol
 _atom_site_label
 _atom_site_symmetry_multiplicity
 _atom_site_fract_x
 _atom_site_fract_y
 _atom_site_fract_z
 _atom_site_occupancy
  Li  Li0  1  0.597501  0.108928  0.250000  1
  Li  Li1  1  0.402499  0.608928  0.250000  1
  Li  Li2  1  0.597501  0.391072  0.750000  1
  Li  Li3  1  0.402499  0.891073  0.750000  1
  Sn  Sn4  1  0.865965  0.126830  0.063466  1
  Sn  Sn5  1  0.134035  0.626831  0.063466  1
  Sn  Sn6  1  0.374285  0.326384  0.111787  1
  Sn  Sn7  1  0.625715  0.826384  0.111787  1
  Sn  Sn8  1  0.842706  0.424480  0.250000  1
  Sn  Sn9  1  0.157294  0.924480  0.250000  1
  Sn  Sn10  1  0.374285  0.326384  0.388214  1
  Sn  Sn11  1  0.625715  0.826384  0.388214  1
  Sn  Sn12  1  0.865965  0.126830  0.436535  1
  Sn  Sn13  1  0.134035  0.626831  0.436535  1
  Sn  Sn14  1  0.865965  0.373170  0.563465  1
  Sn  Sn15  1  0.134035  0.873169  0.563465  1
  Sn  Sn16  1  0.374285  0.173617  0.611786  1
  Sn  Sn17  1  0.625715  0.673617  0.611786  1
  Sn  Sn18  1  0.842706  0.075520  0.750000  1
  Sn  Sn19  1  0.157294  0.575521  0.750000  1
  Sn  Sn20  1  0.374285  0.173617  0.888213  1
  Sn  Sn21  1  0.625715  0.673617  0.888213  1
  Sn  Sn22  1  0.865965  0.373170  0.936534  1
  Sn  Sn23  1  0.134035  0.873169  0.936534  1
  Ir  Ir24  1  0.093869  0.194502  0.250000  1
  Ir  Ir25  1  0.906131  0.694502  0.250000  1
  Ir  Ir26  1  0.093869  0.305498  0.750000  1
  Ir  Ir27  1  0.906131  0.805498  0.750000  1
  Rh  Rh28  1  0.353865  0.051812  0.078580  1
  Rh  Rh29  1  0.646135  0.551812  0.078580  1
  Rh  Rh30  1  0.353865  0.051812  0.421420  1
  Rh  Rh31  1  0.646135  0.551812  0.421420  1
  Rh  Rh32  1  0.353865  0.448188  0.578580  1
  Rh  Rh33  1  0.646135  0.948187  0.578580  1
  Rh  Rh34  1  0.353865  0.448188  0.921420  1
  Rh  Rh35  1  0.646135  0.948187  0.921420  1
