# generated using pymatgen
data_Ca6Al24Os3Pd5
_symmetry_space_group_name_H-M   'P 1'
_cell_length_a   8.94151336
_cell_length_b   8.92254060
_cell_length_c   9.63065917
_cell_angle_alpha   89.99999816
_cell_angle_beta   89.82053303
_cell_angle_gamma   119.92983095
_symmetry_Int_Tables_number   1
_chemical_formula_structural   Ca6Al24Os3Pd5
_chemical_formula_sum   'Ca6 Al24 Os3 Pd5'
_cell_volume   665.87086590
_cell_formula_units_Z   1
loop_
 _symmetry_equiv_pos_site_id
 _symmetry_equiv_pos_as_xyz
  1  'x, y, z'
loop_
 _atom_site_type_symbol
 _atom_site_label
 _atom_site_symmetry_multiplicity
 _atom_site_fract_x
 _atom_site_fract_y
 _atom_site_fract_z
 _atom_site_occupancy
  Ca  Ca0  1  0.191778  0.386903  0.251375  1
  Ca  Ca1  1  0.808222  0.613097  0.748625  1
  Ca  Ca2  1  0.616870  0.808435  0.251520  1
  Ca  Ca3  1  0.383130  0.191565  0.748480  1
  Ca  Ca4  1  0.191778  0.804875  0.251375  1
  Ca  Ca5  1  0.808222  0.195125  0.748625  1
  Al  Al6  1  0.333508  0.666754  0.008711  1
  Al  Al7  1  0.666492  0.333246  0.991289  1
  Al  Al8  1  0.671905  0.335952  0.510095  1
  Al  Al9  1  0.328095  0.664048  0.489905  1
  Al  Al10  1  0.155561  0.323119  0.578281  1
  Al  Al11  1  0.844439  0.676881  0.421719  1
  Al  Al12  1  0.678013  0.839006  0.579601  1
  Al  Al13  1  0.839054  0.678339  0.081404  1
  Al  Al14  1  0.321987  0.160994  0.420399  1
  Al  Al15  1  0.160946  0.321661  0.918596  1
  Al  Al16  1  0.155561  0.832443  0.578281  1
  Al  Al17  1  0.320898  0.160449  0.080505  1
  Al  Al18  1  0.844439  0.167557  0.421719  1
  Al  Al19  1  0.679102  0.839551  0.919495  1
  Al  Al20  1  0.839054  0.160715  0.081404  1
  Al  Al21  1  0.160946  0.839285  0.918596  1
  Al  Al22  1  0.563775  0.125977  0.250024  1
  Al  Al23  1  0.436225  0.874023  0.749976  1
  Al  Al24  1  0.877051  0.438526  0.252341  1
  Al  Al25  1  0.122949  0.561474  0.747659  1
  Al  Al26  1  0.563775  0.437798  0.250024  1
  Al  Al27  1  0.436225  0.562202  0.749976  1
  Al  Al28  1  0.999860  0.999930  0.250333  1
  Al  Al29  1  0.000140  0.000070  0.749667  1
  Os  Os30  1  0.000000  0.500000  0.500000  1
  Os  Os31  1  0.000000  0.000000  0.000000  1
  Os  Os32  1  0.000000  0.000000  0.500000  1
  Pd  Pd33  1  0.500000  0.000000  0.000000  1
  Pd  Pd34  1  0.000000  0.500000  0.000000  1
  Pd  Pd35  1  0.500000  0.000000  0.500000  1
  Pd  Pd36  1  0.500000  0.500000  0.000000  1
  Pd  Pd37  1  0.500000  0.500000  0.500000  1
