# generated using pymatgen
data_Pr11In9(CuIr)2
_symmetry_space_group_name_H-M   'P 1'
_cell_length_a   13.60622200
_cell_length_b   13.66656933
_cell_length_c   3.80659700
_cell_angle_alpha   90.00000000
_cell_angle_beta   90.00000000
_cell_angle_gamma   111.26360074
_symmetry_Int_Tables_number   1
_chemical_formula_structural   Pr11In9(CuIr)2
_chemical_formula_sum   'Pr11 In9 Cu2 Ir2'
_cell_volume   659.64980344
_cell_formula_units_Z   1
loop_
 _symmetry_equiv_pos_site_id
 _symmetry_equiv_pos_as_xyz
  1  'x, y, z'
loop_
 _atom_site_type_symbol
 _atom_site_label
 _atom_site_symmetry_multiplicity
 _atom_site_fract_x
 _atom_site_fract_y
 _atom_site_fract_z
 _atom_site_occupancy
  Pr  Pr0  1  0.072816  0.418987  0.000000  1
  Pr  Pr1  1  0.927184  0.581013  0.000000  1
  Pr  Pr2  1  0.417127  0.073580  0.000000  1
  Pr  Pr3  1  0.582873  0.926420  0.000000  1
  Pr  Pr4  1  0.618761  0.365372  0.000000  1
  Pr  Pr5  1  0.381239  0.634628  0.000000  1
  Pr  Pr6  1  0.841694  0.160958  0.000000  1
  Pr  Pr7  1  0.158306  0.839042  0.000000  1
  Pr  Pr8  1  0.000000  0.000000  0.000000  1
  Pr  Pr9  1  0.314770  0.305375  0.000000  1
  Pr  Pr10  1  0.685230  0.694625  0.000000  1
  In  In11  1  0.837648  0.368614  0.500000  1
  In  In12  1  0.162352  0.631386  0.500000  1
  In  In13  1  0.366418  0.836098  0.500000  1
  In  In14  1  0.633582  0.163902  0.500000  1
  In  In15  1  0.076682  0.219670  0.500000  1
  In  In16  1  0.923318  0.780330  0.500000  1
  In  In17  1  0.219696  0.077708  0.500000  1
  In  In18  1  0.780304  0.922292  0.500000  1
  In  In19  1  0.500000  0.500000  0.500000  1
  Cu  Cu20  1  0.250538  0.451047  0.500000  1
  Cu  Cu21  1  0.749462  0.548953  0.500000  1
  Ir  Ir22  1  0.448771  0.243118  0.500000  1
  Ir  Ir23  1  0.551229  0.756882  0.500000  1
