# generated using pymatgen
data_Pr4Al4Ir3Pt
_symmetry_space_group_name_H-M   'P 1'
_cell_length_a   4.40194500
_cell_length_b   7.10318917
_cell_length_c   8.05899577
_cell_angle_alpha   90.10961287
_cell_angle_beta   90.00000000
_cell_angle_gamma   90.00000000
_symmetry_Int_Tables_number   1
_chemical_formula_structural   Pr4Al4Ir3Pt
_chemical_formula_sum   'Pr4 Al4 Ir3 Pt1'
_cell_volume   251.98699431
_cell_formula_units_Z   1
loop_
 _symmetry_equiv_pos_site_id
 _symmetry_equiv_pos_as_xyz
  1  'x, y, z'
loop_
 _atom_site_type_symbol
 _atom_site_label
 _atom_site_symmetry_multiplicity
 _atom_site_fract_x
 _atom_site_fract_y
 _atom_site_fract_z
 _atom_site_occupancy
  Pr  Pr0  1  0.250000  0.533118  0.818079  1
  Pr  Pr1  1  0.250000  0.027605  0.679129  1
  Pr  Pr2  1  0.750000  0.971050  0.317440  1
  Pr  Pr3  1  0.750000  0.473957  0.185174  1
  Al  Al4  1  0.250000  0.138285  0.066521  1
  Al  Al5  1  0.750000  0.362094  0.561372  1
  Al  Al6  1  0.250000  0.639835  0.435762  1
  Al  Al7  1  0.750000  0.855193  0.935418  1
  Ir  Ir8  1  0.250000  0.778964  0.113669  1
  Ir  Ir9  1  0.250000  0.278360  0.385599  1
  Ir  Ir10  1  0.750000  0.722504  0.615418  1
  Pt  Pt11  1  0.750000  0.219035  0.886419  1
