# generated using pymatgen
data_Ba2NiIrCl
_symmetry_space_group_name_H-M   'P 1'
_cell_length_a   4.29777600
_cell_length_b   4.29777446
_cell_length_c   17.80653600
_cell_angle_alpha   90.00000000
_cell_angle_beta   90.00000000
_cell_angle_gamma   119.99999643
_symmetry_Int_Tables_number   1
_chemical_formula_structural   Ba2NiIrCl
_chemical_formula_sum   'Ba4 Ni2 Ir2 Cl2'
_cell_volume   284.83771089
_cell_formula_units_Z   2
loop_
 _symmetry_equiv_pos_site_id
 _symmetry_equiv_pos_as_xyz
  1  'x, y, z'
loop_
 _atom_site_type_symbol
 _atom_site_label
 _atom_site_symmetry_multiplicity
 _atom_site_fract_x
 _atom_site_fract_y
 _atom_site_fract_z
 _atom_site_occupancy
  Ba  Ba0  1  0.000000  0.000000  0.619419  1
  Ba  Ba1  1  0.000000  0.000000  0.380730  1
  Ba  Ba2  1  0.000000  0.000000  0.119419  1
  Ba  Ba3  1  0.000000  0.000000  0.880730  1
  Ni  Ni4  1  0.666667  0.333333  0.999496  1
  Ni  Ni5  1  0.333333  0.666667  0.499496  1
  Ir  Ir6  1  0.666667  0.333333  0.500449  1
  Ir  Ir7  1  0.333333  0.666667  0.000449  1
  Cl  Cl8  1  0.666667  0.333333  0.249906  1
  Cl  Cl9  1  0.333333  0.666667  0.749906  1
