# generated using pymatgen
data_TiMo(SeO3)4
_symmetry_space_group_name_H-M   'P 1'
_cell_length_a   8.56520285
_cell_length_b   4.90644667
_cell_length_c   7.06753254
_cell_angle_alpha   68.84834295
_cell_angle_beta   89.74272108
_cell_angle_gamma   90.47292715
_symmetry_Int_Tables_number   1
_chemical_formula_structural   TiMo(SeO3)4
_chemical_formula_sum   'Ti1 Mo1 Se4 O12'
_cell_volume   276.98264267
_cell_formula_units_Z   1
loop_
 _symmetry_equiv_pos_site_id
 _symmetry_equiv_pos_as_xyz
  1  'x, y, z'
loop_
 _atom_site_type_symbol
 _atom_site_label
 _atom_site_symmetry_multiplicity
 _atom_site_fract_x
 _atom_site_fract_y
 _atom_site_fract_z
 _atom_site_occupancy
  Ti  Ti0  1  0.000000  0.500000  0.000000  1
  Mo  Mo1  1  0.500000  0.500000  0.500000  1
  Se  Se2  1  0.644380  0.138811  0.178764  1
  Se  Se3  1  0.143211  0.863106  0.313349  1
  Se  Se4  1  0.355620  0.861189  0.821236  1
  Se  Se5  1  0.856789  0.136894  0.686651  1
  O  O6  1  0.146107  0.169053  0.091734  1
  O  O7  1  0.658883  0.836142  0.405121  1
  O  O8  1  0.853893  0.830947  0.908266  1
  O  O9  1  0.341117  0.163858  0.594879  1
  O  O10  1  0.054685  0.601429  0.238463  1
  O  O11  1  0.550677  0.399888  0.249293  1
  O  O12  1  0.661203  0.216447  0.695309  1
  O  O13  1  0.163610  0.751063  0.826787  1
  O  O14  1  0.338797  0.783553  0.304691  1
  O  O15  1  0.836390  0.248937  0.173213  1
  O  O16  1  0.449323  0.600112  0.750707  1
  O  O17  1  0.945315  0.398571  0.761537  1
