# generated using pymatgen
data_CaTcIO4
_symmetry_space_group_name_H-M   'P 1'
_cell_length_a   9.51230900
_cell_length_b   6.01244110
_cell_length_c   7.46659111
_cell_angle_alpha   51.86679058
_cell_angle_beta   90.00000000
_cell_angle_gamma   90.00000000
_symmetry_Int_Tables_number   1
_chemical_formula_structural   CaTcIO4
_chemical_formula_sum   'Ca2 Tc2 I2 O8'
_cell_volume   335.89267500
_cell_formula_units_Z   2
loop_
 _symmetry_equiv_pos_site_id
 _symmetry_equiv_pos_as_xyz
  1  'x, y, z'
loop_
 _atom_site_type_symbol
 _atom_site_label
 _atom_site_symmetry_multiplicity
 _atom_site_fract_x
 _atom_site_fract_y
 _atom_site_fract_z
 _atom_site_occupancy
  Ca  Ca0  1  0.481709  0.091179  0.475684  1
  Ca  Ca1  1  0.981709  0.908821  0.024316  1
  Tc  Tc2  1  0.865172  0.728047  0.613165  1
  Tc  Tc3  1  0.365172  0.271953  0.886835  1
  I  I4  1  0.187081  0.399695  0.319499  1
  I  I5  1  0.687081  0.600305  0.180501  1
  O  O6  1  0.380870  0.638527  0.717646  1
  O  O7  1  0.880870  0.361473  0.782354  1
  O  O8  1  0.688925  0.823153  0.579803  1
  O  O9  1  0.188925  0.176847  0.920197  1
  O  O10  1  0.954030  0.848347  0.742287  1
  O  O11  1  0.454030  0.151653  0.757713  1
  O  O12  1  0.942214  0.883870  0.348854  1
  O  O13  1  0.442214  0.116130  0.151146  1
