# generated using pymatgen
data_Cs3K9(AlTe3)4
_symmetry_space_group_name_H-M   'P 1'
_cell_length_a   14.62979360
_cell_length_b   8.89706318
_cell_length_c   11.34724264
_cell_angle_alpha   52.88610843
_cell_angle_beta   89.59359858
_cell_angle_gamma   89.39439627
_symmetry_Int_Tables_number   1
_chemical_formula_structural   Cs3K9(AlTe3)4
_chemical_formula_sum   'Cs3 K9 Al4 Te12'
_cell_volume   1177.73483224
_cell_formula_units_Z   1
loop_
 _symmetry_equiv_pos_site_id
 _symmetry_equiv_pos_as_xyz
  1  'x, y, z'
loop_
 _atom_site_type_symbol
 _atom_site_label
 _atom_site_symmetry_multiplicity
 _atom_site_fract_x
 _atom_site_fract_y
 _atom_site_fract_z
 _atom_site_occupancy
  Cs  Cs0  1  0.312710  0.154471  0.065618  1
  Cs  Cs1  1  0.685969  0.847146  0.933980  1
  Cs  Cs2  1  0.815294  0.846860  0.435471  1
  K  K3  1  0.896177  0.317125  0.403489  1
  K  K4  1  0.610386  0.360315  0.475202  1
  K  K5  1  0.111097  0.639746  0.025224  1
  K  K6  1  0.387876  0.639832  0.525346  1
  K  K7  1  0.890227  0.360736  0.974483  1
  K  K8  1  0.606253  0.316202  0.903744  1
  K  K9  1  0.106583  0.683555  0.596683  1
  K  K10  1  0.393266  0.683526  0.096103  1
  K  K11  1  0.188784  0.149012  0.572705  1
  Al  Al12  1  0.066679  0.943536  0.157793  1
  Al  Al13  1  0.563008  0.051801  0.343241  1
  Al  Al14  1  0.433124  0.953342  0.655434  1
  Al  Al15  1  0.936535  0.051788  0.841838  1
  Te  Te16  1  0.403476  0.188457  0.361826  1
  Te  Te17  1  0.907037  0.816250  0.136938  1
  Te  Te18  1  0.591889  0.814093  0.638285  1
  Te  Te19  1  0.096837  0.178962  0.859828  1
  Te  Te20  1  0.686923  0.318523  0.201388  1
  Te  Te21  1  0.188000  0.665929  0.305562  1
  Te  Te22  1  0.305603  0.695162  0.792532  1
  Te  Te23  1  0.811325  0.319118  0.701869  1
  Te  Te24  1  0.552182  0.860009  0.237879  1
  Te  Te25  1  0.055496  0.139552  0.260487  1
  Te  Te26  1  0.446632  0.142739  0.762307  1
  Te  Te27  1  0.950631  0.862211  0.734744  1
