# generated using pymatgen
data_Y3PaCdPd4Pb
_symmetry_space_group_name_H-M   'P 1'
_cell_length_a   7.85534456
_cell_length_b   7.83037178
_cell_length_c   3.69783100
_cell_angle_alpha   90.00000000
_cell_angle_beta   90.00000000
_cell_angle_gamma   91.64764624
_symmetry_Int_Tables_number   1
_chemical_formula_structural   Y3PaCdPd4Pb
_chemical_formula_sum   'Y3 Pa1 Cd1 Pd4 Pb1'
_cell_volume   227.36053595
_cell_formula_units_Z   1
loop_
 _symmetry_equiv_pos_site_id
 _symmetry_equiv_pos_as_xyz
  1  'x, y, z'
loop_
 _atom_site_type_symbol
 _atom_site_label
 _atom_site_symmetry_multiplicity
 _atom_site_fract_x
 _atom_site_fract_y
 _atom_site_fract_z
 _atom_site_occupancy
  Y  Y0  1  0.171243  0.326899  0.500000  1
  Y  Y1  1  0.830938  0.675127  0.500000  1
  Y  Y2  1  0.321623  0.828385  0.500000  1
  Pa  Pa3  1  0.672181  0.166998  0.500000  1
  Cd  Cd4  1  0.004836  0.998374  0.000000  1
  Pd  Pd5  1  0.864428  0.358544  0.000000  1
  Pd  Pd6  1  0.380774  0.127605  0.000000  1
  Pd  Pd7  1  0.637366  0.888270  0.000000  1
  Pd  Pd8  1  0.117458  0.623073  0.000000  1
  Pb  Pb9  1  0.499153  0.506724  0.000000  1
