# generated using pymatgen
data_La6GaSnI6
_symmetry_space_group_name_H-M   'P 1'
_cell_length_a   11.25187107
_cell_length_b   11.25187061
_cell_length_c   11.15957524
_cell_angle_alpha   109.45396273
_cell_angle_beta   109.45396545
_cell_angle_gamma   109.83819297
_symmetry_Int_Tables_number   1
_chemical_formula_structural   La6GaSnI6
_chemical_formula_sum   'La12 Ga2 Sn2 I12'
_cell_volume   1083.11752438
_cell_formula_units_Z   2
loop_
 _symmetry_equiv_pos_site_id
 _symmetry_equiv_pos_as_xyz
  1  'x, y, z'
loop_
 _atom_site_type_symbol
 _atom_site_label
 _atom_site_symmetry_multiplicity
 _atom_site_fract_x
 _atom_site_fract_y
 _atom_site_fract_z
 _atom_site_occupancy
  La  La0  1  0.238657  0.756487  0.733350  1
  La  La1  1  0.523135  0.505306  0.766649  1
  La  La2  1  0.239072  0.982813  0.504857  1
  La  La3  1  0.977956  0.734215  0.995143  1
  La  La4  1  0.743512  0.261341  0.766649  1
  La  La5  1  0.765227  0.734772  0.249999  1
  La  La6  1  0.994694  0.976865  0.733352  1
  La  La7  1  0.507011  0.757011  0.514022  1
  La  La8  1  0.765786  0.522044  0.504857  1
  La  La9  1  0.984773  0.515227  0.250001  1
  La  La10  1  0.517187  0.260930  0.995143  1
  La  La11  1  0.742990  0.992989  0.985978  1
  Ga  Ga12  1  0.749200  0.499200  0.998401  1
  Ga  Ga13  1  0.000800  0.750800  0.501599  1
  Sn  Sn14  1  0.749826  0.750174  0.750000  1
  Sn  Sn15  1  0.500174  0.999826  0.750000  1
  I  I16  1  0.012234  0.256001  0.006141  1
  I  I17  1  0.749861  0.006093  0.493859  1
  I  I18  1  0.486372  0.493182  0.243142  1
  I  I19  1  0.750039  0.243231  0.256857  1
  I  I20  1  0.006819  0.013628  0.256858  1
  I  I21  1  0.256036  0.006036  0.012072  1
  I  I22  1  0.256769  0.749961  0.243143  1
  I  I23  1  0.006794  0.493206  0.750000  1
  I  I24  1  0.493907  0.750139  0.006141  1
  I  I25  1  0.493965  0.243964  0.487928  1
  I  I26  1  0.243999  0.487766  0.493860  1
  I  I27  1  0.243207  0.256793  0.750000  1
