# generated using pymatgen
data_TbNd5(In4Te)2
_symmetry_space_group_name_H-M   'P 1'
_cell_length_a   8.57426771
_cell_length_b   8.57426702
_cell_length_c   8.57426798
_cell_angle_alpha   119.23132354
_cell_angle_beta   119.23132333
_cell_angle_gamma   91.33662655
_symmetry_Int_Tables_number   1
_chemical_formula_structural   TbNd5(In4Te)2
_chemical_formula_sum   'Tb1 Nd5 In8 Te2'
_cell_volume   450.78036250
_cell_formula_units_Z   1
loop_
 _symmetry_equiv_pos_site_id
 _symmetry_equiv_pos_as_xyz
  1  'x, y, z'
loop_
 _atom_site_type_symbol
 _atom_site_label
 _atom_site_symmetry_multiplicity
 _atom_site_fract_x
 _atom_site_fract_y
 _atom_site_fract_z
 _atom_site_occupancy
  Tb  Tb0  1  0.750000  0.750000  0.000000  1
  Nd  Nd1  1  0.250000  0.250000  0.000000  1
  Nd  Nd2  1  0.659430  0.159430  0.818861  1
  Nd  Nd3  1  0.340570  0.840570  0.181139  1
  Nd  Nd4  1  0.159430  0.340570  0.500000  1
  Nd  Nd5  1  0.840570  0.659430  0.500000  1
  In  In6  1  0.332982  0.831872  0.791628  1
  In  In7  1  0.668128  0.167018  0.208372  1
  In  In8  1  0.040244  0.541354  0.208372  1
  In  In9  1  0.831872  0.040244  0.498890  1
  In  In10  1  0.459756  0.668128  0.501110  1
  In  In11  1  0.958646  0.459756  0.791628  1
  In  In12  1  0.167018  0.958646  0.498890  1
  In  In13  1  0.541354  0.332982  0.501110  1
  Te  Te14  1  0.503145  0.503145  0.000000  1
  Te  Te15  1  0.996855  0.996855  0.000000  1
