# generated using pymatgen
data_Nb16CrFe3Te16
_symmetry_space_group_name_H-M   'P 1'
_cell_length_a   4.86773100
_cell_length_b   10.98313168
_cell_length_c   19.22922000
_cell_angle_alpha   89.95308093
_cell_angle_beta   90.00000000
_cell_angle_gamma   90.00000000
_symmetry_Int_Tables_number   1
_chemical_formula_structural   Nb16CrFe3Te16
_chemical_formula_sum   'Nb16 Cr1 Fe3 Te16'
_cell_volume   1028.05010904
_cell_formula_units_Z   1
loop_
 _symmetry_equiv_pos_site_id
 _symmetry_equiv_pos_as_xyz
  1  'x, y, z'
loop_
 _atom_site_type_symbol
 _atom_site_label
 _atom_site_symmetry_multiplicity
 _atom_site_fract_x
 _atom_site_fract_y
 _atom_site_fract_z
 _atom_site_occupancy
  Nb  Nb0  1  0.500853  0.564322  0.383138  1
  Nb  Nb1  1  0.500853  0.435678  0.616862  1
  Nb  Nb2  1  0.500083  0.063725  0.115175  1
  Nb  Nb3  1  0.500083  0.936275  0.884825  1
  Nb  Nb4  1  0.500719  0.705155  0.536651  1
  Nb  Nb5  1  0.500719  0.294845  0.463349  1
  Nb  Nb6  1  0.499996  0.202479  0.963593  1
  Nb  Nb7  1  0.499996  0.797521  0.036407  1
  Nb  Nb8  1  0.999210  0.690589  0.443035  1
  Nb  Nb9  1  0.999210  0.309411  0.556965  1
  Nb  Nb10  1  0.999942  0.188329  0.055957  1
  Nb  Nb11  1  0.999942  0.811671  0.944043  1
  Nb  Nb12  1  0.999289  0.400681  0.391461  1
  Nb  Nb13  1  0.999289  0.599319  0.608539  1
  Nb  Nb14  1  0.999830  0.902118  0.107231  1
  Nb  Nb15  1  0.999830  0.097882  0.892769  1
  Cr  Cr16  1  0.250067  0.500000  0.500000  1
  Fe  Fe17  1  0.750539  0.000000  0.000000  1
  Fe  Fe18  1  0.750134  0.500000  0.500000  1
  Fe  Fe19  1  0.249821  0.000000  0.000000  1
  Te  Te20  1  0.997793  0.846509  0.562007  1
  Te  Te21  1  0.997793  0.153491  0.437993  1
  Te  Te22  1  0.999928  0.345495  0.937636  1
  Te  Te23  1  0.999928  0.654505  0.062364  1
  Te  Te24  1  0.502173  0.332206  0.316505  1
  Te  Te25  1  0.502173  0.667794  0.683495  1
  Te  Te26  1  0.499951  0.833040  0.183164  1
  Te  Te27  1  0.499951  0.166960  0.816836  1
  Te  Te28  1  0.502137  0.822153  0.403927  1
  Te  Te29  1  0.502137  0.177847  0.596073  1
  Te  Te30  1  0.499973  0.321599  0.095339  1
  Te  Te31  1  0.499973  0.678401  0.904661  1
  Te  Te32  1  0.997867  0.608563  0.302238  1
  Te  Te33  1  0.997867  0.391437  0.697762  1
  Te  Te34  1  0.999972  0.108547  0.197053  1
  Te  Te35  1  0.999972  0.891453  0.802947  1
