# generated using pymatgen
data_Ho8NiAg2Rh
_symmetry_space_group_name_H-M   'P 1'
_cell_length_a   9.44018932
_cell_length_b   9.35811395
_cell_length_c   9.44018991
_cell_angle_alpha   60.28718974
_cell_angle_beta   60.67837462
_cell_angle_gamma   60.28718971
_symmetry_Int_Tables_number   1
_chemical_formula_structural   Ho8NiAg2Rh
_chemical_formula_sum   'Ho16 Ni2 Ag4 Rh2'
_cell_volume   595.25487564
_cell_formula_units_Z   2
loop_
 _symmetry_equiv_pos_site_id
 _symmetry_equiv_pos_as_xyz
  1  'x, y, z'
loop_
 _atom_site_type_symbol
 _atom_site_label
 _atom_site_symmetry_multiplicity
 _atom_site_fract_x
 _atom_site_fract_y
 _atom_site_fract_z
 _atom_site_occupancy
  Ho  Ho0  1  0.184883  0.186526  0.815572  1
  Ho  Ho1  1  0.598949  0.602888  0.195273  1
  Ho  Ho2  1  0.437349  0.062651  0.437349  1
  Ho  Ho3  1  0.438438  0.438896  0.064539  1
  Ho  Ho4  1  0.813238  0.186762  0.813238  1
  Ho  Ho5  1  0.184979  0.815021  0.184979  1
  Ho  Ho6  1  0.438438  0.058127  0.064539  1
  Ho  Ho7  1  0.184883  0.813020  0.815572  1
  Ho  Ho8  1  0.063108  0.436892  0.063108  1
  Ho  Ho9  1  0.815572  0.813020  0.184883  1
  Ho  Ho10  1  0.195273  0.602888  0.598949  1
  Ho  Ho11  1  0.064539  0.438896  0.438438  1
  Ho  Ho12  1  0.064539  0.058127  0.438438  1
  Ho  Ho13  1  0.815572  0.186526  0.184883  1
  Ho  Ho14  1  0.599382  0.192627  0.599382  1
  Ho  Ho15  1  0.599382  0.608609  0.599382  1
  Ni  Ni16  1  0.391680  0.821693  0.391680  1
  Ni  Ni17  1  0.391680  0.394946  0.391680  1
  Ag  Ag18  1  0.833477  0.830103  0.833477  1
  Ag  Ag19  1  0.833411  0.831589  0.503411  1
  Ag  Ag20  1  0.503411  0.831589  0.833411  1
  Ag  Ag21  1  0.833477  0.502944  0.833477  1
  Rh  Rh22  1  0.819744  0.392829  0.394596  1
  Rh  Rh23  1  0.394596  0.392829  0.819744  1
