# generated using pymatgen
data_Pr3In3GeRh2
_symmetry_space_group_name_H-M   'P 1'
_cell_length_a   7.65845600
_cell_length_b   7.65845648
_cell_length_c   4.20374000
_cell_angle_alpha   90.00000000
_cell_angle_beta   90.00000000
_cell_angle_gamma   119.99999794
_symmetry_Int_Tables_number   1
_chemical_formula_structural   Pr3In3GeRh2
_chemical_formula_sum   'Pr3 In3 Ge1 Rh2'
_cell_volume   213.52511186
_cell_formula_units_Z   1
loop_
 _symmetry_equiv_pos_site_id
 _symmetry_equiv_pos_as_xyz
  1  'x, y, z'
loop_
 _atom_site_type_symbol
 _atom_site_label
 _atom_site_symmetry_multiplicity
 _atom_site_fract_x
 _atom_site_fract_y
 _atom_site_fract_z
 _atom_site_occupancy
  Pr  Pr0  1  0.990145  0.584682  0.500000  1
  Pr  Pr1  1  0.415318  0.405463  0.500000  1
  Pr  Pr2  1  0.594537  0.009855  0.500000  1
  In  In3  1  0.757443  0.746985  0.000000  1
  In  In4  1  0.989543  0.242557  0.000000  1
  In  In5  1  0.253015  0.010457  0.000000  1
  Ge  Ge6  1  0.333333  0.666667  0.000000  1
  Rh  Rh7  1  0.000000  0.000000  0.500000  1
  Rh  Rh8  1  0.666667  0.333333  0.000000  1
