# generated using pymatgen
data_HoTmSc3Pt4
_symmetry_space_group_name_H-M   'P 1'
_cell_length_a   7.30772787
_cell_length_b   7.30562201
_cell_length_c   13.92715763
_cell_angle_alpha   90.00220945
_cell_angle_beta   90.05566401
_cell_angle_gamma   89.99549056
_symmetry_Int_Tables_number   1
_chemical_formula_structural   HoTmSc3Pt4
_chemical_formula_sum   'Ho4 Tm4 Sc12 Pt16'
_cell_volume   743.53574070
_cell_formula_units_Z   4
loop_
 _symmetry_equiv_pos_site_id
 _symmetry_equiv_pos_as_xyz
  1  'x, y, z'
loop_
 _atom_site_type_symbol
 _atom_site_label
 _atom_site_symmetry_multiplicity
 _atom_site_fract_x
 _atom_site_fract_y
 _atom_site_fract_z
 _atom_site_occupancy
  Ho  Ho0  1  0.004147  0.178089  0.094031  1
  Ho  Ho1  1  0.995324  0.822139  0.905989  1
  Ho  Ho2  1  0.495465  0.677139  0.906779  1
  Ho  Ho3  1  0.995104  0.822769  0.592930  1
  Tm  Tm4  1  0.504333  0.321528  0.094383  1
  Tm  Tm5  1  0.004721  0.178540  0.405911  1
  Tm  Tm6  1  0.504591  0.322123  0.406687  1
  Tm  Tm7  1  0.494718  0.677647  0.593297  1
  Sc  Sc8  1  0.169424  0.498513  0.749451  1
  Sc  Sc9  1  0.830602  0.501576  0.250585  1
  Sc  Sc10  1  0.330501  0.998289  0.250510  1
  Sc  Sc11  1  0.669404  0.001505  0.749398  1
  Sc  Sc12  1  0.336600  0.162807  0.623509  1
  Sc  Sc13  1  0.663580  0.837067  0.376635  1
  Sc  Sc14  1  0.164752  0.662026  0.376112  1
  Sc  Sc15  1  0.663654  0.837371  0.124470  1
  Sc  Sc16  1  0.836474  0.337236  0.623233  1
  Sc  Sc17  1  0.337518  0.163555  0.876202  1
  Sc  Sc18  1  0.836328  0.337547  0.875650  1
  Sc  Sc19  1  0.163809  0.662522  0.124239  1
  Pt  Pt20  1  0.033502  0.122748  0.749848  1
  Pt  Pt21  1  0.966957  0.878168  0.250853  1
  Pt  Pt22  1  0.468119  0.621442  0.250185  1
  Pt  Pt23  1  0.532459  0.377781  0.749158  1
  Pt  Pt24  1  0.300119  0.852884  0.749191  1
  Pt  Pt25  1  0.699809  0.147836  0.250982  1
  Pt  Pt26  1  0.202209  0.352476  0.250871  1
  Pt  Pt27  1  0.797780  0.646702  0.748969  1
  Pt  Pt28  1  0.178530  0.455534  0.541390  1
  Pt  Pt29  1  0.821865  0.542205  0.457504  1
  Pt  Pt30  1  0.321954  0.957478  0.457329  1
  Pt  Pt31  1  0.821285  0.542677  0.042552  1
  Pt  Pt32  1  0.676732  0.044208  0.541734  1
  Pt  Pt33  1  0.177261  0.455696  0.958411  1
  Pt  Pt34  1  0.677243  0.044708  0.958189  1
  Pt  Pt35  1  0.323130  0.957469  0.042833  1
