# generated using pymatgen
data_CaSmScMnO6
_symmetry_space_group_name_H-M   'P 1'
_cell_length_a   5.44449356
_cell_length_b   5.60170000
_cell_length_c   7.77445888
_cell_angle_alpha   90.00004517
_cell_angle_beta   90.31995458
_cell_angle_gamma   90.00051003
_symmetry_Int_Tables_number   1
_chemical_formula_structural   CaSmScMnO6
_chemical_formula_sum   'Ca2 Sm2 Sc2 Mn2 O12'
_cell_volume   237.10501215
_cell_formula_units_Z   2
loop_
 _symmetry_equiv_pos_site_id
 _symmetry_equiv_pos_as_xyz
  1  'x, y, z'
loop_
 _atom_site_type_symbol
 _atom_site_label
 _atom_site_symmetry_multiplicity
 _atom_site_fract_x
 _atom_site_fract_y
 _atom_site_fract_z
 _atom_site_occupancy
  Ca  Ca0  1  0.488697  0.452167  0.751174  1
  Ca  Ca1  1  0.988696  0.047839  0.251173  1
  Sm  Sm2  1  0.015046  0.944354  0.750319  1
  Sm  Sm3  1  0.515049  0.555642  0.250320  1
  Sc  Sc4  1  0.500608  0.006641  0.499815  1
  Sc  Sc5  1  0.000603  0.493355  0.999813  1
  Mn  Mn6  1  0.500343  0.001642  0.000226  1
  Mn  Mn7  1  0.000341  0.498362  0.500225  1
  O  O8  1  0.096888  0.471430  0.260586  1
  O  O9  1  0.596888  0.028570  0.760588  1
  O  O10  1  0.213661  0.193757  0.950639  1
  O  O11  1  0.713659  0.306242  0.450640  1
  O  O12  1  0.189868  0.212839  0.550689  1
  O  O13  1  0.689863  0.287157  0.050691  1
  O  O14  1  0.302199  0.719253  0.950320  1
  O  O15  1  0.802200  0.780748  0.450320  1
  O  O16  1  0.281491  0.700816  0.547083  1
  O  O17  1  0.781493  0.799182  0.047085  1
  O  O18  1  0.411202  0.970469  0.239147  1
  O  O19  1  0.911205  0.529534  0.739147  1
