# generated using pymatgen
data_HoEr15CdIn3Pd4
_symmetry_space_group_name_H-M   'P 1'
_cell_length_a   9.65075455
_cell_length_b   9.65572676
_cell_length_c   9.65572711
_cell_angle_alpha   59.82463259
_cell_angle_beta   59.82845533
_cell_angle_gamma   59.82845480
_symmetry_Int_Tables_number   1
_chemical_formula_structural   HoEr15CdIn3Pd4
_chemical_formula_sum   'Ho1 Er15 Cd1 In3 Pd4'
_cell_volume   633.73743448
_cell_formula_units_Z   1
loop_
 _symmetry_equiv_pos_site_id
 _symmetry_equiv_pos_as_xyz
  1  'x, y, z'
loop_
 _atom_site_type_symbol
 _atom_site_label
 _atom_site_symmetry_multiplicity
 _atom_site_fract_x
 _atom_site_fract_y
 _atom_site_fract_z
 _atom_site_occupancy
  Ho  Ho0  1  0.351941  0.352728  0.352728  1
  Er  Er1  1  0.352467  0.353176  0.941041  1
  Er  Er2  1  0.352467  0.941041  0.353176  1
  Er  Er3  1  0.941146  0.352693  0.352693  1
  Er  Er4  1  0.810806  0.189470  0.189470  1
  Er  Er5  1  0.189493  0.810795  0.810795  1
  Er  Er6  1  0.188952  0.811565  0.188689  1
  Er  Er7  1  0.810199  0.190094  0.810162  1
  Er  Er8  1  0.188952  0.188689  0.811565  1
  Er  Er9  1  0.810199  0.810162  0.190094  1
  Er  Er10  1  0.936296  0.565396  0.565396  1
  Er  Er11  1  0.564712  0.935382  0.935382  1
  Er  Er12  1  0.565521  0.934666  0.564869  1
  Er  Er13  1  0.936999  0.564280  0.934143  1
  Er  Er14  1  0.565521  0.564869  0.934666  1
  Er  Er15  1  0.936999  0.934143  0.564280  1
  Cd  Cd16  1  0.250279  0.583202  0.583202  1
  In  In17  1  0.582585  0.583587  0.583587  1
  In  In18  1  0.582211  0.583549  0.250870  1
  In  In19  1  0.582211  0.250870  0.583549  1
  Pd  Pd20  1  0.144714  0.144091  0.144091  1
  Pd  Pd21  1  0.143784  0.143753  0.568029  1
  Pd  Pd22  1  0.143784  0.568029  0.143753  1
  Pd  Pd23  1  0.567763  0.143768  0.143768  1
