# generated using pymatgen
data_NdDy7(CdPt)2
_symmetry_space_group_name_H-M   'P 1'
_cell_length_a   9.73425993
_cell_length_b   9.73425990
_cell_length_c   9.71596900
_cell_angle_alpha   60.06214154
_cell_angle_beta   60.06214163
_cell_angle_gamma   59.87571978
_symmetry_Int_Tables_number   1
_chemical_formula_structural   NdDy7(CdPt)2
_chemical_formula_sum   'Nd2 Dy14 Cd4 Pt4'
_cell_volume   650.98944520
_cell_formula_units_Z   2
loop_
 _symmetry_equiv_pos_site_id
 _symmetry_equiv_pos_as_xyz
  1  'x, y, z'
loop_
 _atom_site_type_symbol
 _atom_site_label
 _atom_site_symmetry_multiplicity
 _atom_site_fract_x
 _atom_site_fract_y
 _atom_site_fract_z
 _atom_site_occupancy
  Nd  Nd0  1  0.566882  0.566882  0.933118  1
  Nd  Nd1  1  0.933118  0.933118  0.566882  1
  Dy  Dy2  1  0.351090  0.351090  0.351480  1
  Dy  Dy3  1  0.351090  0.351090  0.946339  1
  Dy  Dy4  1  0.351480  0.946339  0.351090  1
  Dy  Dy5  1  0.946339  0.351480  0.351090  1
  Dy  Dy6  1  0.809881  0.190119  0.190119  1
  Dy  Dy7  1  0.190119  0.809881  0.809881  1
  Dy  Dy8  1  0.190119  0.809881  0.190119  1
  Dy  Dy9  1  0.809881  0.190119  0.809881  1
  Dy  Dy10  1  0.190085  0.190085  0.809915  1
  Dy  Dy11  1  0.809915  0.809915  0.190085  1
  Dy  Dy12  1  0.937599  0.562401  0.562401  1
  Dy  Dy13  1  0.562401  0.937599  0.937599  1
  Dy  Dy14  1  0.562401  0.937599  0.562401  1
  Dy  Dy15  1  0.937599  0.562401  0.937599  1
  Cd  Cd16  1  0.582161  0.582161  0.578762  1
  Cd  Cd17  1  0.582161  0.582161  0.256917  1
  Cd  Cd18  1  0.578762  0.256917  0.582161  1
  Cd  Cd19  1  0.256917  0.578762  0.582161  1
  Pt  Pt20  1  0.143887  0.143887  0.141031  1
  Pt  Pt21  1  0.143887  0.143887  0.571196  1
  Pt  Pt22  1  0.141031  0.571196  0.143887  1
  Pt  Pt23  1  0.571196  0.141031  0.143887  1
