# generated using pymatgen
data_Tb3Y7(Bi3P)2
_symmetry_space_group_name_H-M   'P 1'
_cell_length_a   9.24272200
_cell_length_b   9.24272332
_cell_length_c   6.70345900
_cell_angle_alpha   90.00000000
_cell_angle_beta   90.00000000
_cell_angle_gamma   120.00000243
_symmetry_Int_Tables_number   1
_chemical_formula_structural   Tb3Y7(Bi3P)2
_chemical_formula_sum   'Tb3 Y7 Bi6 P2'
_cell_volume   495.94032454
_cell_formula_units_Z   1
loop_
 _symmetry_equiv_pos_site_id
 _symmetry_equiv_pos_as_xyz
  1  'x, y, z'
loop_
 _atom_site_type_symbol
 _atom_site_label
 _atom_site_symmetry_multiplicity
 _atom_site_fract_x
 _atom_site_fract_y
 _atom_site_fract_z
 _atom_site_occupancy
  Tb  Tb0  1  0.237467  0.237467  0.750000  1
  Tb  Tb1  1  0.762533  0.000000  0.750000  1
  Tb  Tb2  1  0.000000  0.762533  0.750000  1
  Y  Y3  1  0.666667  0.333333  0.500028  1
  Y  Y4  1  0.333333  0.666667  0.500028  1
  Y  Y5  1  0.333333  0.666667  0.999972  1
  Y  Y6  1  0.666667  0.333333  0.999972  1
  Y  Y7  1  0.762560  0.762560  0.250000  1
  Y  Y8  1  0.237440  0.000000  0.250000  1
  Y  Y9  1  0.000000  0.237440  0.250000  1
  Bi  Bi10  1  0.399795  0.399795  0.250000  1
  Bi  Bi11  1  0.600205  0.000000  0.250000  1
  Bi  Bi12  1  0.000000  0.600205  0.250000  1
  Bi  Bi13  1  0.600268  0.600268  0.750000  1
  Bi  Bi14  1  0.399732  0.000000  0.750000  1
  Bi  Bi15  1  0.000000  0.399732  0.750000  1
  P  P16  1  0.000000  0.000000  0.499862  1
  P  P17  1  0.000000  0.000000  0.000138  1
