# generated using pymatgen
data_Dy3Er2Si3H
_symmetry_space_group_name_H-M   'P 1'
_cell_length_a   8.41886800
_cell_length_b   8.41886975
_cell_length_c   6.20457000
_cell_angle_alpha   90.00000000
_cell_angle_beta   90.00000000
_cell_angle_gamma   120.00000099
_symmetry_Int_Tables_number   1
_chemical_formula_structural   Dy3Er2Si3H
_chemical_formula_sum   'Dy6 Er4 Si6 H2'
_cell_volume   380.84635784
_cell_formula_units_Z   2
loop_
 _symmetry_equiv_pos_site_id
 _symmetry_equiv_pos_as_xyz
  1  'x, y, z'
loop_
 _atom_site_type_symbol
 _atom_site_label
 _atom_site_symmetry_multiplicity
 _atom_site_fract_x
 _atom_site_fract_y
 _atom_site_fract_z
 _atom_site_occupancy
  Dy  Dy0  1  0.749496  0.749496  0.750000  1
  Dy  Dy1  1  0.250504  0.000000  0.750000  1
  Dy  Dy2  1  0.000000  0.250504  0.750000  1
  Dy  Dy3  1  0.250504  0.250504  0.250000  1
  Dy  Dy4  1  0.749496  0.000000  0.250000  1
  Dy  Dy5  1  0.000000  0.749496  0.250000  1
  Er  Er6  1  0.666667  0.333333  0.000000  1
  Er  Er7  1  0.333333  0.666667  0.000000  1
  Er  Er8  1  0.333333  0.666667  0.500000  1
  Er  Er9  1  0.666667  0.333333  0.500000  1
  Si  Si10  1  0.390456  0.390456  0.750000  1
  Si  Si11  1  0.609544  0.000000  0.750000  1
  Si  Si12  1  0.000000  0.609544  0.750000  1
  Si  Si13  1  0.609544  0.609544  0.250000  1
  Si  Si14  1  0.390456  0.000000  0.250000  1
  Si  Si15  1  0.000000  0.390456  0.250000  1
  H  H16  1  0.000000  0.000000  0.500000  1
  H  H17  1  0.000000  0.000000  0.000000  1
