# generated using pymatgen
data_Li4DyP12Ir16Rh3
_symmetry_space_group_name_H-M   'P 1'
_cell_length_a   12.58300000
_cell_length_b   12.59845198
_cell_length_c   3.91565400
_cell_angle_alpha   90.00000000
_cell_angle_beta   90.00000000
_cell_angle_gamma   119.95943079
_symmetry_Int_Tables_number   1
_chemical_formula_structural   Li4DyP12Ir16Rh3
_chemical_formula_sum   'Li4 Dy1 P12 Ir16 Rh3'
_cell_volume   537.79123280
_cell_formula_units_Z   1
loop_
 _symmetry_equiv_pos_site_id
 _symmetry_equiv_pos_as_xyz
  1  'x, y, z'
loop_
 _atom_site_type_symbol
 _atom_site_label
 _atom_site_symmetry_multiplicity
 _atom_site_fract_x
 _atom_site_fract_y
 _atom_site_fract_z
 _atom_site_occupancy
  Li  Li0  1  0.333465  0.667505  0.500000  1
  Li  Li1  1  0.665961  0.332495  0.500000  1
  Li  Li2  1  0.000551  0.818288  0.000000  1
  Li  Li3  1  0.182264  0.181712  0.000000  1
  Dy  Dy4  1  0.823255  0.000000  0.000000  1
  P  P5  1  0.999988  0.639153  0.500000  1
  P  P6  1  0.360835  0.360847  0.500000  1
  P  P7  1  0.636983  0.000000  0.500000  1
  P  P8  1  0.511136  0.686413  0.000000  1
  P  P9  1  0.311578  0.825106  0.000000  1
  P  P10  1  0.175431  0.488975  0.000000  1
  P  P11  1  0.486473  0.174894  0.000000  1
  P  P12  1  0.686457  0.511025  0.000000  1
  P  P13  1  0.824722  0.313587  0.000000  1
  P  P14  1  0.006478  0.183119  0.500000  1
  P  P15  1  0.823360  0.816881  0.500000  1
  P  P16  1  0.179631  0.000000  0.500000  1
  Ir  Ir17  1  0.509117  0.868649  0.000000  1
  Ir  Ir18  1  0.129026  0.640313  0.000000  1
  Ir  Ir19  1  0.359104  0.489997  0.000000  1
  Ir  Ir20  1  0.488715  0.359687  0.000000  1
  Ir  Ir21  1  0.869108  0.510003  0.000000  1
  Ir  Ir22  1  0.640469  0.131351  0.000000  1
  Ir  Ir23  1  0.999722  0.287605  0.000000  1
  Ir  Ir24  1  0.712118  0.712395  0.000000  1
  Ir  Ir25  1  0.286267  0.000000  0.000000  1
  Ir  Ir26  1  0.625336  0.805826  0.500000  1
  Ir  Ir27  1  0.193952  0.817408  0.500000  1
  Ir  Ir28  1  0.183153  0.378017  0.500000  1
  Ir  Ir29  1  0.376544  0.182592  0.500000  1
  Ir  Ir30  1  0.805135  0.621983  0.500000  1
  Ir  Ir31  1  0.819510  0.194174  0.500000  1
  Ir  Ir32  1  0.998912  0.000000  0.500000  1
  Rh  Rh33  1  0.997541  0.455866  0.500000  1
  Rh  Rh34  1  0.541676  0.544134  0.500000  1
  Rh  Rh35  1  0.456027  0.000000  0.500000  1
