# generated using pymatgen
data_Tb3ZnIn3RhAu
_symmetry_space_group_name_H-M   'P 1'
_cell_length_a   7.76776000
_cell_length_b   7.76775994
_cell_length_c   3.90532300
_cell_angle_alpha   90.00000000
_cell_angle_beta   90.00000000
_cell_angle_gamma   119.99999173
_symmetry_Int_Tables_number   1
_chemical_formula_structural   Tb3ZnIn3RhAu
_chemical_formula_sum   'Tb3 Zn1 In3 Rh1 Au1'
_cell_volume   204.07002667
_cell_formula_units_Z   1
loop_
 _symmetry_equiv_pos_site_id
 _symmetry_equiv_pos_as_xyz
  1  'x, y, z'
loop_
 _atom_site_type_symbol
 _atom_site_label
 _atom_site_symmetry_multiplicity
 _atom_site_fract_x
 _atom_site_fract_y
 _atom_site_fract_z
 _atom_site_occupancy
  Tb  Tb0  1  0.583729  0.982057  0.500000  1
  Tb  Tb1  1  0.398328  0.416271  0.500000  1
  Tb  Tb2  1  0.017943  0.601672  0.500000  1
  Zn  Zn3  1  0.000000  0.000000  0.500000  1
  In  In4  1  0.741020  0.742780  0.000000  1
  In  In5  1  0.001760  0.258980  0.000000  1
  In  In6  1  0.257220  0.998240  0.000000  1
  Rh  Rh7  1  0.333333  0.666667  0.000000  1
  Au  Au8  1  0.666667  0.333333  0.000000  1
