# generated using pymatgen
data_Y2Tm9Lu5(In3Co)2
_symmetry_space_group_name_H-M   'P 1'
_cell_length_a   10.19027300
_cell_length_b   10.19027437
_cell_length_c   6.94697100
_cell_angle_alpha   90.00000000
_cell_angle_beta   90.00000000
_cell_angle_gamma   120.00000531
_symmetry_Int_Tables_number   1
_chemical_formula_structural   Y2Tm9Lu5(In3Co)2
_chemical_formula_sum   'Y2 Tm9 Lu5 In6 Co2'
_cell_volume   624.73780969
_cell_formula_units_Z   1
loop_
 _symmetry_equiv_pos_site_id
 _symmetry_equiv_pos_as_xyz
  1  'x, y, z'
loop_
 _atom_site_type_symbol
 _atom_site_label
 _atom_site_symmetry_multiplicity
 _atom_site_fract_x
 _atom_site_fract_y
 _atom_site_fract_z
 _atom_site_occupancy
  Y  Y0  1  0.000000  0.000000  0.496174  1
  Y  Y1  1  0.000000  0.000000  0.994695  1
  Tm  Tm2  1  0.464791  0.535209  0.482414  1
  Tm  Tm3  1  0.070418  0.535209  0.482414  1
  Tm  Tm4  1  0.464791  0.929582  0.482414  1
  Tm  Tm5  1  0.534975  0.465025  0.981464  1
  Tm  Tm6  1  0.930050  0.465025  0.981464  1
  Tm  Tm7  1  0.534975  0.069950  0.981464  1
  Tm  Tm8  1  0.820500  0.179500  0.276749  1
  Tm  Tm9  1  0.359000  0.179500  0.276749  1
  Tm  Tm10  1  0.820500  0.641000  0.276749  1
  Lu  Lu11  1  0.179659  0.820341  0.776780  1
  Lu  Lu12  1  0.640681  0.820341  0.776780  1
  Lu  Lu13  1  0.179659  0.359319  0.776780  1
  Lu  Lu14  1  0.333333  0.666667  0.090205  1
  Lu  Lu15  1  0.666667  0.333333  0.591132  1
  In  In16  1  0.163502  0.836498  0.234091  1
  In  In17  1  0.672995  0.836498  0.234091  1
  In  In18  1  0.163502  0.327005  0.234091  1
  In  In19  1  0.836786  0.163214  0.734696  1
  In  In20  1  0.326429  0.163214  0.734696  1
  In  In21  1  0.836786  0.673571  0.734696  1
  Co  Co22  1  0.333333  0.666667  0.707048  1
  Co  Co23  1  0.666667  0.333333  0.206715  1
