# generated using pymatgen
data_KVRhSe4
_symmetry_space_group_name_H-M   'P 1'
_cell_length_a   8.21884528
_cell_length_b   8.21884497
_cell_length_c   5.92796444
_cell_angle_alpha   80.39368485
_cell_angle_beta   80.39368693
_cell_angle_gamma   26.10893811
_symmetry_Int_Tables_number   1
_chemical_formula_structural   KVRhSe4
_chemical_formula_sum   'K1 V1 Rh1 Se4'
_cell_volume   173.61628782
_cell_formula_units_Z   1
loop_
 _symmetry_equiv_pos_site_id
 _symmetry_equiv_pos_as_xyz
  1  'x, y, z'
loop_
 _atom_site_type_symbol
 _atom_site_label
 _atom_site_symmetry_multiplicity
 _atom_site_fract_x
 _atom_site_fract_y
 _atom_site_fract_z
 _atom_site_occupancy
  K  K0  1  0.242622  0.242622  0.716241  1
  V  V1  1  0.989603  0.989603  0.093464  1
  Rh  Rh2  1  0.495142  0.495142  0.499717  1
  Se  Se3  1  0.916874  0.916874  0.728512  1
  Se  Se4  1  0.387906  0.387906  0.232587  1
  Se  Se5  1  0.572065  0.572065  0.840284  1
  Se  Se6  1  0.096789  0.096789  0.322195  1
