# generated using pymatgen
data_Ca21Ga12BiSb2
_symmetry_space_group_name_H-M   'P 1'
_cell_length_a   11.35901385
_cell_length_b   11.35901486
_cell_length_c   11.42851500
_cell_angle_alpha   59.79739146
_cell_angle_beta   59.79738849
_cell_angle_gamma   59.99081778
_symmetry_Int_Tables_number   1
_chemical_formula_structural   Ca21Ga12BiSb2
_chemical_formula_sum   'Ca21 Ga12 Bi1 Sb2'
_cell_volume   1039.41582576
_cell_formula_units_Z   1
loop_
 _symmetry_equiv_pos_site_id
 _symmetry_equiv_pos_as_xyz
  1  'x, y, z'
loop_
 _atom_site_type_symbol
 _atom_site_label
 _atom_site_symmetry_multiplicity
 _atom_site_fract_x
 _atom_site_fract_y
 _atom_site_fract_z
 _atom_site_occupancy
  Ca  Ca0  1  0.997124  0.002876  0.000000  1
  Ca  Ca1  1  0.126721  0.133694  0.125737  1
  Ca  Ca2  1  0.389862  0.877092  0.866523  1
  Ca  Ca3  1  0.871535  0.384942  0.871762  1
  Ca  Ca4  1  0.866306  0.873279  0.386152  1
  Ca  Ca5  1  0.122908  0.610138  0.133477  1
  Ca  Ca6  1  0.126721  0.133694  0.613848  1
  Ca  Ca7  1  0.615058  0.128465  0.128238  1
  Ca  Ca8  1  0.866306  0.873279  0.874263  1
  Ca  Ca9  1  0.505709  0.824282  0.493658  1
  Ca  Ca10  1  0.822637  0.499805  0.500907  1
  Ca  Ca11  1  0.505709  0.824282  0.176352  1
  Ca  Ca12  1  0.175718  0.494291  0.823648  1
  Ca  Ca13  1  0.822637  0.499805  0.176652  1
  Ca  Ca14  1  0.506497  0.493503  0.823869  1
  Ca  Ca15  1  0.175091  0.824909  0.500000  1
  Ca  Ca16  1  0.500195  0.177363  0.823348  1
  Ca  Ca17  1  0.506497  0.493503  0.176131  1
  Ca  Ca18  1  0.821729  0.178271  0.500000  1
  Ca  Ca19  1  0.175718  0.494291  0.506342  1
  Ca  Ca20  1  0.500195  0.177363  0.499093  1
  Ga  Ga21  1  0.789224  0.210776  0.211448  1
  Ga  Ga22  1  0.787096  0.788040  0.212432  1
  Ga  Ga23  1  0.211960  0.212904  0.787568  1
  Ga  Ga24  1  0.789224  0.210776  0.788552  1
  Ga  Ga25  1  0.309734  0.309300  0.308926  1
  Ga  Ga26  1  0.926606  0.692001  0.690696  1
  Ga  Ga27  1  0.690577  0.931862  0.688781  1
  Ga  Ga28  1  0.690700  0.690267  0.927960  1
  Ga  Ga29  1  0.307999  0.073394  0.309304  1
  Ga  Ga30  1  0.309733  0.309300  0.072040  1
  Ga  Ga31  1  0.068138  0.309423  0.311219  1
  Ga  Ga32  1  0.690700  0.690267  0.691073  1
  Bi  Bi33  1  0.496062  0.503938  0.500000  1
  Sb  Sb34  1  0.215689  0.784311  0.211506  1
  Sb  Sb35  1  0.215689  0.784311  0.788494  1
