# generated using pymatgen
data_Nd3Dy3Er2(CdPt)2
_symmetry_space_group_name_H-M   'P 1'
_cell_length_a   9.78247897
_cell_length_b   9.77830872
_cell_length_c   9.77830789
_cell_angle_alpha   60.02822002
_cell_angle_beta   59.98588303
_cell_angle_gamma   59.98588908
_symmetry_Int_Tables_number   1
_chemical_formula_structural   Nd3Dy3Er2(CdPt)2
_chemical_formula_sum   'Nd6 Dy6 Er4 Cd4 Pt4'
_cell_volume   661.39543598
_cell_formula_units_Z   2
loop_
 _symmetry_equiv_pos_site_id
 _symmetry_equiv_pos_as_xyz
  1  'x, y, z'
loop_
 _atom_site_type_symbol
 _atom_site_label
 _atom_site_symmetry_multiplicity
 _atom_site_fract_x
 _atom_site_fract_y
 _atom_site_fract_z
 _atom_site_occupancy
  Nd  Nd0  1  0.937906  0.562094  0.562094  1
  Nd  Nd1  1  0.562094  0.937906  0.937906  1
  Nd  Nd2  1  0.562223  0.937777  0.562223  1
  Nd  Nd3  1  0.937777  0.562223  0.937777  1
  Nd  Nd4  1  0.562223  0.562223  0.937777  1
  Nd  Nd5  1  0.937777  0.937777  0.562223  1
  Dy  Dy6  1  0.350013  0.350515  0.350515  1
  Dy  Dy7  1  0.350515  0.350013  0.948958  1
  Dy  Dy8  1  0.350515  0.948958  0.350013  1
  Dy  Dy9  1  0.948958  0.350515  0.350515  1
  Dy  Dy10  1  0.812674  0.187326  0.187326  1
  Dy  Dy11  1  0.187326  0.812674  0.812674  1
  Er  Er12  1  0.187545  0.812455  0.187545  1
  Er  Er13  1  0.812455  0.187545  0.812455  1
  Er  Er14  1  0.187545  0.187545  0.812455  1
  Er  Er15  1  0.812455  0.812455  0.187545  1
  Cd  Cd16  1  0.579980  0.579669  0.579669  1
  Cd  Cd17  1  0.579669  0.579980  0.260684  1
  Cd  Cd18  1  0.579669  0.260684  0.579980  1
  Cd  Cd19  1  0.260684  0.579669  0.579669  1
  Pt  Pt20  1  0.142932  0.142076  0.142076  1
  Pt  Pt21  1  0.142076  0.142932  0.572915  1
  Pt  Pt22  1  0.142076  0.572915  0.142932  1
  Pt  Pt23  1  0.572915  0.142076  0.142076  1
