# generated using pymatgen
data_Y2Er6Re3B24Rh
_symmetry_space_group_name_H-M   'P 1'
_cell_length_a   3.66236600
_cell_length_b   9.13723076
_cell_length_c   11.51854910
_cell_angle_alpha   90.15054657
_cell_angle_beta   90.00000000
_cell_angle_gamma   90.00000000
_symmetry_Int_Tables_number   1
_chemical_formula_structural   Y2Er6Re3B24Rh
_chemical_formula_sum   'Y2 Er6 Re3 B24 Rh1'
_cell_volume   385.45405182
_cell_formula_units_Z   1
loop_
 _symmetry_equiv_pos_site_id
 _symmetry_equiv_pos_as_xyz
  1  'x, y, z'
loop_
 _atom_site_type_symbol
 _atom_site_label
 _atom_site_symmetry_multiplicity
 _atom_site_fract_x
 _atom_site_fract_y
 _atom_site_fract_z
 _atom_site_occupancy
  Y  Y0  1  0.000000  0.317995  0.415441  1
  Y  Y1  1  0.000000  0.678514  0.591140  1
  Er  Er2  1  0.000000  0.827297  0.081013  1
  Er  Er3  1  0.000000  0.177571  0.912781  1
  Er  Er4  1  0.000000  0.943185  0.369859  1
  Er  Er5  1  0.000000  0.055851  0.629162  1
  Er  Er6  1  0.000000  0.441285  0.128545  1
  Er  Er7  1  0.000000  0.556783  0.872092  1
  Re  Re8  1  0.000000  0.361966  0.678580  1
  Re  Re9  1  0.000000  0.137937  0.179509  1
  Re  Re10  1  0.000000  0.862092  0.821281  1
  B  B11  1  0.500000  0.554142  0.433312  1
  B  B12  1  0.500000  0.446402  0.567031  1
  B  B13  1  0.500000  0.053341  0.066190  1
  B  B14  1  0.500000  0.947515  0.932965  1
  B  B15  1  0.500000  0.749491  0.419637  1
  B  B16  1  0.500000  0.249854  0.581502  1
  B  B17  1  0.500000  0.249514  0.080806  1
  B  B18  1  0.500000  0.751689  0.919444  1
  B  B19  1  0.500000  0.791497  0.264532  1
  B  B20  1  0.500000  0.207913  0.734655  1
  B  B21  1  0.500000  0.291717  0.234638  1
  B  B22  1  0.500000  0.708225  0.766538  1
  B  B23  1  0.500000  0.631947  0.183461  1
  B  B24  1  0.500000  0.369327  0.814918  1
  B  B25  1  0.500000  0.129990  0.314634  1
  B  B26  1  0.500000  0.869134  0.685686  1
  B  B27  1  0.500000  0.982155  0.211636  1
  B  B28  1  0.500000  0.018113  0.787256  1
  B  B29  1  0.500000  0.483289  0.287295  1
  B  B30  1  0.500000  0.518117  0.713196  1
  B  B31  1  0.500000  0.604078  0.029429  1
  B  B32  1  0.500000  0.397440  0.972157  1
  B  B33  1  0.500000  0.100150  0.471393  1
  B  B34  1  0.500000  0.896190  0.527872  1
  Rh  Rh35  1  0.000000  0.638296  0.320413  1
