# generated using pymatgen
data_Dy4Tm4Lu4Co5Sn
_symmetry_space_group_name_H-M   'P 1'
_cell_length_a   8.15140332
_cell_length_b   8.15140276
_cell_length_c   8.15140240
_cell_angle_alpha   106.73845201
_cell_angle_beta   110.58250870
_cell_angle_gamma   111.12728028
_symmetry_Int_Tables_number   1
_chemical_formula_structural   Dy4Tm4Lu4Co5Sn
_chemical_formula_sum   'Dy4 Tm4 Lu4 Co5 Sn1'
_cell_volume   416.22452193
_cell_formula_units_Z   1
loop_
 _symmetry_equiv_pos_site_id
 _symmetry_equiv_pos_as_xyz
  1  'x, y, z'
loop_
 _atom_site_type_symbol
 _atom_site_label
 _atom_site_symmetry_multiplicity
 _atom_site_fract_x
 _atom_site_fract_y
 _atom_site_fract_z
 _atom_site_occupancy
  Dy  Dy0  1  0.194905  0.212629  0.407534  1
  Dy  Dy1  1  0.805095  0.787371  0.592466  1
  Dy  Dy2  1  0.194905  0.787371  0.982275  1
  Dy  Dy3  1  0.805095  0.212629  0.017725  1
  Tm  Tm4  1  0.473776  0.289083  0.184693  1
  Tm  Tm5  1  0.104390  0.289083  0.815307  1
  Tm  Tm6  1  0.895610  0.710917  0.184693  1
  Tm  Tm7  1  0.526224  0.710917  0.815307  1
  Lu  Lu8  1  0.306112  0.621176  0.315064  1
  Lu  Lu9  1  0.306112  0.991050  0.684936  1
  Lu  Lu10  1  0.693888  0.378824  0.684936  1
  Lu  Lu11  1  0.693888  0.008950  0.315064  1
  Co  Co12  1  0.500000  0.613489  0.113489  1
  Co  Co13  1  0.500000  0.386511  0.886511  1
  Co  Co14  1  0.377068  0.000000  0.377068  1
  Co  Co15  1  0.622932  0.000000  0.622932  1
  Co  Co16  1  0.000000  0.000000  0.000000  1
  Sn  Sn17  1  0.000000  0.500000  0.500000  1
