# generated using pymatgen
data_Pr7CdSbPd24
_symmetry_space_group_name_H-M   'P 1'
_cell_length_a   8.56760499
_cell_length_b   8.56760439
_cell_length_c   8.56760500
_cell_angle_alpha   90.32753504
_cell_angle_beta   90.32753502
_cell_angle_gamma   89.67246373
_symmetry_Int_Tables_number   1
_chemical_formula_structural   Pr7CdSbPd24
_chemical_formula_sum   'Pr7 Cd1 Sb1 Pd24'
_cell_volume   628.86448297
_cell_formula_units_Z   1
loop_
 _symmetry_equiv_pos_site_id
 _symmetry_equiv_pos_as_xyz
  1  'x, y, z'
loop_
 _atom_site_type_symbol
 _atom_site_label
 _atom_site_symmetry_multiplicity
 _atom_site_fract_x
 _atom_site_fract_y
 _atom_site_fract_z
 _atom_site_occupancy
  Pr  Pr0  1  0.748382  0.252362  0.747638  1
  Pr  Pr1  1  0.252362  0.748382  0.747638  1
  Pr  Pr2  1  0.746181  0.746181  0.748718  1
  Pr  Pr3  1  0.746181  0.251282  0.253819  1
  Pr  Pr4  1  0.253423  0.253423  0.746577  1
  Pr  Pr5  1  0.251282  0.746181  0.253819  1
  Pr  Pr6  1  0.252362  0.252362  0.251618  1
  Cd  Cd7  1  0.746697  0.746697  0.253303  1
  Sb  Sb8  1  0.005511  0.005511  0.994489  1
  Pd  Pd9  1  0.993585  0.993585  0.305438  1
  Pd  Pd10  1  0.732498  0.993808  0.497924  1
  Pd  Pd11  1  0.732498  0.502076  0.006192  1
  Pd  Pd12  1  0.502076  0.000812  0.734229  1
  Pd  Pd13  1  0.993808  0.732498  0.497924  1
  Pd  Pd14  1  0.502076  0.993808  0.267502  1
  Pd  Pd15  1  0.000812  0.265771  0.497924  1
  Pd  Pd16  1  0.502076  0.732498  0.006192  1
  Pd  Pd17  1  0.255218  0.500483  0.499517  1
  Pd  Pd18  1  0.500483  0.500483  0.744782  1
  Pd  Pd19  1  0.502980  0.502980  0.255794  1
  Pd  Pd20  1  0.500483  0.255218  0.499517  1
  Pd  Pd21  1  0.502980  0.744206  0.497020  1
  Pd  Pd22  1  0.744206  0.502980  0.497020  1
  Pd  Pd23  1  0.315716  0.999868  0.000132  1
  Pd  Pd24  1  0.999868  0.999868  0.684284  1
  Pd  Pd25  1  0.993808  0.502076  0.267502  1
  Pd  Pd26  1  0.999868  0.315716  0.000132  1
  Pd  Pd27  1  0.993585  0.694562  0.006415  1
  Pd  Pd28  1  0.694562  0.993585  0.006415  1
  Pd  Pd29  1  0.265771  0.502076  0.999188  1
  Pd  Pd30  1  0.265771  0.000812  0.497924  1
  Pd  Pd31  1  0.000812  0.502076  0.734229  1
  Pd  Pd32  1  0.502076  0.265771  0.999188  1
