# generated using pymatgen
data_Dy5HoAl23SiOs8
_symmetry_space_group_name_H-M   'P 1'
_cell_length_a   8.77121402
_cell_length_b   8.77121522
_cell_length_c   9.64548400
_cell_angle_alpha   89.99753026
_cell_angle_beta   90.00247020
_cell_angle_gamma   120.00789339
_symmetry_Int_Tables_number   1
_chemical_formula_structural   Dy5HoAl23SiOs8
_chemical_formula_sum   'Dy5 Ho1 Al23 Si1 Os8'
_cell_volume   642.59831607
_cell_formula_units_Z   1
loop_
 _symmetry_equiv_pos_site_id
 _symmetry_equiv_pos_as_xyz
  1  'x, y, z'
loop_
 _atom_site_type_symbol
 _atom_site_label
 _atom_site_symmetry_multiplicity
 _atom_site_fract_x
 _atom_site_fract_y
 _atom_site_fract_z
 _atom_site_occupancy
  Dy  Dy0  1  0.194710  0.389452  0.249781  1
  Dy  Dy1  1  0.806072  0.612045  0.751391  1
  Dy  Dy2  1  0.610548  0.805290  0.249781  1
  Dy  Dy3  1  0.387955  0.193928  0.751391  1
  Dy  Dy4  1  0.194720  0.805280  0.249778  1
  Ho  Ho5  1  0.805863  0.194137  0.751292  1
  Al  Al6  1  0.666752  0.333248  0.980598  1
  Al  Al7  1  0.666743  0.333257  0.522522  1
  Al  Al8  1  0.333325  0.666675  0.478297  1
  Al  Al9  1  0.163533  0.327251  0.575006  1
  Al  Al10  1  0.836024  0.672031  0.424426  1
  Al  Al11  1  0.672749  0.836467  0.575006  1
  Al  Al12  1  0.836148  0.672291  0.074993  1
  Al  Al13  1  0.327969  0.163976  0.424426  1
  Al  Al14  1  0.164893  0.329970  0.922865  1
  Al  Al15  1  0.163643  0.836357  0.574977  1
  Al  Al16  1  0.327709  0.163852  0.074993  1
  Al  Al17  1  0.836012  0.163988  0.424505  1
  Al  Al18  1  0.670030  0.835107  0.922865  1
  Al  Al19  1  0.836137  0.163863  0.074899  1
  Al  Al20  1  0.165002  0.834998  0.922896  1
  Al  Al21  1  0.562443  0.124870  0.248550  1
  Al  Al22  1  0.437381  0.874530  0.748176  1
  Al  Al23  1  0.875130  0.437557  0.248550  1
  Al  Al24  1  0.125470  0.562619  0.748176  1
  Al  Al25  1  0.562434  0.437566  0.248549  1
  Al  Al26  1  0.437163  0.562837  0.748176  1
  Al  Al27  1  0.000001  0.999999  0.248857  1
  Al  Al28  1  0.999910  0.000090  0.748732  1
  Si  Si29  1  0.333332  0.666668  0.040167  1
  Os  Os30  1  0.495999  0.991738  0.000530  1
  Os  Os31  1  0.008262  0.504001  0.000530  1
  Os  Os32  1  0.500478  0.000682  0.498810  1
  Os  Os33  1  0.495863  0.504137  0.000607  1
  Os  Os34  1  0.999318  0.499522  0.498810  1
  Os  Os35  1  0.500322  0.499678  0.498707  1
  Os  Os36  1  0.999975  0.000025  0.998830  1
  Os  Os37  1  0.999987  0.000013  0.498552  1
