# generated using pymatgen
data_CeDyTiSnRh2
_symmetry_space_group_name_H-M   'P 1'
_cell_length_a   4.26634300
_cell_length_b   7.14594700
_cell_length_c   16.74413200
_cell_angle_alpha   90.00000000
_cell_angle_beta   90.00000000
_cell_angle_gamma   90.00000000
_symmetry_Int_Tables_number   1
_chemical_formula_structural   CeDyTiSnRh2
_chemical_formula_sum   'Ce4 Dy4 Ti4 Sn4 Rh8'
_cell_volume   510.47937304
_cell_formula_units_Z   4
loop_
 _symmetry_equiv_pos_site_id
 _symmetry_equiv_pos_as_xyz
  1  'x, y, z'
loop_
 _atom_site_type_symbol
 _atom_site_label
 _atom_site_symmetry_multiplicity
 _atom_site_fract_x
 _atom_site_fract_y
 _atom_site_fract_z
 _atom_site_occupancy
  Ce  Ce0  1  0.250000  0.047743  0.778774  1
  Ce  Ce1  1  0.750000  0.952257  0.221226  1
  Ce  Ce2  1  0.250000  0.547743  0.721226  1
  Ce  Ce3  1  0.750000  0.452257  0.278774  1
  Dy  Dy4  1  0.250000  0.158312  0.562249  1
  Dy  Dy5  1  0.750000  0.841688  0.437751  1
  Dy  Dy6  1  0.250000  0.658312  0.937751  1
  Dy  Dy7  1  0.750000  0.341688  0.062249  1
  Ti  Ti8  1  0.250000  0.002597  0.063660  1
  Ti  Ti9  1  0.750000  0.997403  0.936340  1
  Ti  Ti10  1  0.250000  0.502597  0.436340  1
  Ti  Ti11  1  0.750000  0.497403  0.563660  1
  Sn  Sn12  1  0.250000  0.124882  0.353739  1
  Sn  Sn13  1  0.750000  0.875118  0.646261  1
  Sn  Sn14  1  0.250000  0.624882  0.146261  1
  Sn  Sn15  1  0.750000  0.375118  0.853739  1
  Rh  Rh16  1  0.750000  0.300308  0.437269  1
  Rh  Rh17  1  0.250000  0.699692  0.562731  1
  Rh  Rh18  1  0.750000  0.800308  0.062731  1
  Rh  Rh19  1  0.250000  0.199692  0.937269  1
  Rh  Rh20  1  0.750000  0.776475  0.818859  1
  Rh  Rh21  1  0.250000  0.223525  0.181141  1
  Rh  Rh22  1  0.750000  0.276475  0.681141  1
  Rh  Rh23  1  0.250000  0.723525  0.318859  1
