# generated using pymatgen
data_LiDy8AlPd23
_symmetry_space_group_name_H-M   'P 1'
_cell_length_a   8.33311200
_cell_length_b   8.40281300
_cell_length_c   8.35314800
_cell_angle_alpha   90.00000000
_cell_angle_beta   90.00000000
_cell_angle_gamma   90.00000000
_symmetry_Int_Tables_number   1
_chemical_formula_structural   LiDy8AlPd23
_chemical_formula_sum   'Li1 Dy8 Al1 Pd23'
_cell_volume   584.90063634
_cell_formula_units_Z   1
loop_
 _symmetry_equiv_pos_site_id
 _symmetry_equiv_pos_as_xyz
  1  'x, y, z'
loop_
 _atom_site_type_symbol
 _atom_site_label
 _atom_site_symmetry_multiplicity
 _atom_site_fract_x
 _atom_site_fract_y
 _atom_site_fract_z
 _atom_site_occupancy
  Li  Li0  1  0.267506  0.500000  0.000000  1
  Dy  Dy1  1  0.252227  0.246798  0.258940  1
  Dy  Dy2  1  0.747627  0.747059  0.749688  1
  Dy  Dy3  1  0.747627  0.747059  0.250312  1
  Dy  Dy4  1  0.747627  0.252941  0.749688  1
  Dy  Dy5  1  0.252227  0.246798  0.741060  1
  Dy  Dy6  1  0.252227  0.753202  0.258940  1
  Dy  Dy7  1  0.252227  0.753202  0.741060  1
  Dy  Dy8  1  0.747627  0.252941  0.250312  1
  Al  Al9  1  0.995442  0.000000  0.000000  1
  Pd  Pd10  1  0.743268  0.500000  0.000000  1
  Pd  Pd11  1  0.997488  0.259499  0.500000  1
  Pd  Pd12  1  0.493821  0.262774  0.000000  1
  Pd  Pd13  1  0.997488  0.740501  0.500000  1
  Pd  Pd14  1  0.493821  0.737226  0.000000  1
  Pd  Pd15  1  0.500108  0.000000  0.259713  1
  Pd  Pd16  1  0.258680  0.000000  0.500000  1
  Pd  Pd17  1  0.500108  0.000000  0.740287  1
  Pd  Pd18  1  0.739718  0.000000  0.500000  1
  Pd  Pd19  1  0.002570  0.500000  0.260486  1
  Pd  Pd20  1  0.002570  0.500000  0.739514  1
  Pd  Pd21  1  0.252400  0.500000  0.500000  1
  Pd  Pd22  1  0.747417  0.500000  0.500000  1
  Pd  Pd23  1  0.501751  0.253184  0.500000  1
  Pd  Pd24  1  0.501751  0.746816  0.500000  1
  Pd  Pd25  1  0.496469  0.500000  0.251685  1
  Pd  Pd26  1  0.496469  0.500000  0.748315  1
  Pd  Pd27  1  0.285490  0.000000  0.000000  1
  Pd  Pd28  1  0.706485  0.000000  0.000000  1
  Pd  Pd29  1  0.011833  0.292465  0.000000  1
  Pd  Pd30  1  0.011833  0.707535  0.000000  1
  Pd  Pd31  1  0.998048  0.000000  0.288649  1
  Pd  Pd32  1  0.998048  0.000000  0.711351  1
