# generated using pymatgen
data_Nd6Zn4CuPt12
_symmetry_space_group_name_H-M   'P 1'
_cell_length_a   8.35124856
_cell_length_b   8.35124930
_cell_length_c   8.40162359
_cell_angle_alpha   109.35584313
_cell_angle_beta   109.35584358
_cell_angle_gamma   109.45907147
_symmetry_Int_Tables_number   1
_chemical_formula_structural   Nd6Zn4CuPt12
_chemical_formula_sum   'Nd6 Zn4 Cu1 Pt12'
_cell_volume   452.41703301
_cell_formula_units_Z   1
loop_
 _symmetry_equiv_pos_site_id
 _symmetry_equiv_pos_as_xyz
  1  'x, y, z'
loop_
 _atom_site_type_symbol
 _atom_site_label
 _atom_site_symmetry_multiplicity
 _atom_site_fract_x
 _atom_site_fract_y
 _atom_site_fract_z
 _atom_site_occupancy
  Nd  Nd0  1  0.701716  0.701716  0.002830  1
  Nd  Nd1  1  0.301383  0.995964  0.297347  1
  Nd  Nd2  1  0.995964  0.301383  0.297347  1
  Nd  Nd3  1  0.301114  0.301114  0.002830  1
  Nd  Nd4  1  0.698244  0.999438  0.697682  1
  Nd  Nd5  1  0.999438  0.698244  0.697682  1
  Zn  Zn6  1  0.001974  0.001974  0.500427  1
  Zn  Zn7  1  0.998657  0.498657  0.997314  1
  Zn  Zn8  1  0.498657  0.998657  0.997314  1
  Zn  Zn9  1  0.498452  0.498452  0.500427  1
  Cu  Cu10  1  0.329187  0.329187  0.658372  1
  Pt  Pt11  1  0.673758  0.001362  0.329588  1
  Pt  Pt12  1  0.001362  0.673758  0.329588  1
  Pt  Pt13  1  0.671118  0.330791  0.001909  1
  Pt  Pt14  1  0.328226  0.655829  0.329588  1
  Pt  Pt15  1  0.008143  0.329137  0.671306  1
  Pt  Pt16  1  0.330791  0.671118  0.001909  1
  Pt  Pt17  1  0.329137  0.008143  0.671306  1
  Pt  Pt18  1  0.655829  0.328226  0.329588  1
  Pt  Pt19  1  0.671140  0.671140  0.342282  1
  Pt  Pt20  1  0.663163  0.342170  0.671306  1
  Pt  Pt21  1  0.342170  0.663163  0.671306  1
  Pt  Pt22  1  0.000376  0.000376  0.000753  1
