# generated using pymatgen
data_DyHo3Ni13C4
_symmetry_space_group_name_H-M   'P 1'
_cell_length_a   8.38214543
_cell_length_b   8.38214615
_cell_length_c   3.85650100
_cell_angle_alpha   90.00000000
_cell_angle_beta   90.00000000
_cell_angle_gamma   91.37741782
_symmetry_Int_Tables_number   1
_chemical_formula_structural   DyHo3Ni13C4
_chemical_formula_sum   'Dy1 Ho3 Ni13 C4'
_cell_volume   270.88088370
_cell_formula_units_Z   1
loop_
 _symmetry_equiv_pos_site_id
 _symmetry_equiv_pos_as_xyz
  1  'x, y, z'
loop_
 _atom_site_type_symbol
 _atom_site_label
 _atom_site_symmetry_multiplicity
 _atom_site_fract_x
 _atom_site_fract_y
 _atom_site_fract_z
 _atom_site_occupancy
  Dy  Dy0  1  0.348120  0.348120  0.500000  1
  Ho  Ho1  1  0.652244  0.652244  0.500000  1
  Ho  Ho2  1  0.812063  0.187624  0.500000  1
  Ho  Ho3  1  0.187624  0.812063  0.500000  1
  Ni  Ni4  1  0.999977  0.999977  0.000000  1
  Ni  Ni5  1  0.216120  0.569569  0.000000  1
  Ni  Ni6  1  0.784210  0.430788  0.000000  1
  Ni  Ni7  1  0.430788  0.784210  0.000000  1
  Ni  Ni8  1  0.569569  0.216120  0.000000  1
  Ni  Ni9  1  0.999334  0.500113  0.500000  1
  Ni  Ni10  1  0.500113  0.999334  0.500000  1
  Ni  Ni11  1  0.073350  0.290852  0.000000  1
  Ni  Ni12  1  0.925956  0.708663  0.000000  1
  Ni  Ni13  1  0.708663  0.925956  0.000000  1
  Ni  Ni14  1  0.290852  0.073350  0.000000  1
  Ni  Ni15  1  0.122636  0.122636  0.500000  1
  Ni  Ni16  1  0.876987  0.876987  0.500000  1
  C  C17  1  0.443733  0.557260  0.000000  1
  C  C18  1  0.557260  0.443733  0.000000  1
  C  C19  1  0.000305  0.500095  0.000000  1
  C  C20  1  0.500095  0.000305  0.000000  1
