# generated using pymatgen
data_TbPr6Ho3(Sn5Rh2)4
_symmetry_space_group_name_H-M   'P 1'
_cell_length_a   14.19642154
_cell_length_b   14.19647154
_cell_length_c   4.59003800
_cell_angle_alpha   90.00000000
_cell_angle_beta   90.00000000
_cell_angle_gamma   90.03148021
_symmetry_Int_Tables_number   1
_chemical_formula_structural   TbPr6Ho3(Sn5Rh2)4
_chemical_formula_sum   'Tb1 Pr6 Ho3 Sn20 Rh8'
_cell_volume   925.07196142
_cell_formula_units_Z   1
loop_
 _symmetry_equiv_pos_site_id
 _symmetry_equiv_pos_as_xyz
  1  'x, y, z'
loop_
 _atom_site_type_symbol
 _atom_site_label
 _atom_site_symmetry_multiplicity
 _atom_site_fract_x
 _atom_site_fract_y
 _atom_site_fract_z
 _atom_site_occupancy
  Tb  Tb0  1  0.676978  0.176978  0.500000  1
  Pr  Pr1  1  0.499968  0.499989  0.000000  1
  Pr  Pr2  1  0.999988  0.999966  0.000000  1
  Pr  Pr3  1  0.888282  0.388281  0.500000  1
  Pr  Pr4  1  0.111724  0.611727  0.500000  1
  Pr  Pr5  1  0.388142  0.111828  0.500000  1
  Pr  Pr6  1  0.611828  0.888141  0.500000  1
  Ho  Ho7  1  0.323297  0.823294  0.500000  1
  Ho  Ho8  1  0.176575  0.323309  0.500000  1
  Ho  Ho9  1  0.823302  0.676583  0.500000  1
  Sn  Sn10  1  0.569777  0.069776  0.000000  1
  Sn  Sn11  1  0.429906  0.929904  0.000000  1
  Sn  Sn12  1  0.070018  0.430013  0.000000  1
  Sn  Sn13  1  0.930010  0.570019  0.000000  1
  Sn  Sn14  1  0.654086  0.698617  0.000000  1
  Sn  Sn15  1  0.345885  0.301397  0.000000  1
  Sn  Sn16  1  0.154035  0.801345  0.000000  1
  Sn  Sn17  1  0.846217  0.198707  0.000000  1
  Sn  Sn18  1  0.301345  0.654035  0.000000  1
  Sn  Sn19  1  0.698707  0.346218  0.000000  1
  Sn  Sn20  1  0.198628  0.154080  0.000000  1
  Sn  Sn21  1  0.801405  0.845882  0.000000  1
  Sn  Sn22  1  0.664343  0.506176  0.500000  1
  Sn  Sn23  1  0.335754  0.493734  0.500000  1
  Sn  Sn24  1  0.164275  0.993747  0.500000  1
  Sn  Sn25  1  0.835882  0.006076  0.500000  1
  Sn  Sn26  1  0.493748  0.664287  0.500000  1
  Sn  Sn27  1  0.506076  0.335888  0.500000  1
  Sn  Sn28  1  0.006178  0.164342  0.500000  1
  Sn  Sn29  1  0.993735  0.835754  0.500000  1
  Rh  Rh30  1  0.747370  0.530443  0.000000  1
  Rh  Rh31  1  0.252631  0.469664  0.000000  1
  Rh  Rh32  1  0.247417  0.969635  0.000000  1
  Rh  Rh33  1  0.752736  0.030014  0.000000  1
  Rh  Rh34  1  0.469633  0.747414  0.000000  1
  Rh  Rh35  1  0.530010  0.252733  0.000000  1
  Rh  Rh36  1  0.030444  0.247371  0.000000  1
  Rh  Rh37  1  0.969666  0.752632  0.000000  1
