# generated using pymatgen
data_Dy2Er2OsWC4
_symmetry_space_group_name_H-M   'P 1'
_cell_length_a   5.08493400
_cell_length_b   6.58412240
_cell_length_c   9.85945724
_cell_angle_alpha   89.28259937
_cell_angle_beta   90.00000000
_cell_angle_gamma   90.00000000
_symmetry_Int_Tables_number   1
_chemical_formula_structural   Dy2Er2OsWC4
_chemical_formula_sum   'Dy4 Er4 Os2 W2 C8'
_cell_volume   330.06705629
_cell_formula_units_Z   2
loop_
 _symmetry_equiv_pos_site_id
 _symmetry_equiv_pos_as_xyz
  1  'x, y, z'
loop_
 _atom_site_type_symbol
 _atom_site_label
 _atom_site_symmetry_multiplicity
 _atom_site_fract_x
 _atom_site_fract_y
 _atom_site_fract_z
 _atom_site_occupancy
  Dy  Dy0  1  0.250000  0.539659  0.217754  1
  Dy  Dy1  1  0.750000  0.460341  0.782246  1
  Dy  Dy2  1  0.750000  0.967790  0.715980  1
  Dy  Dy3  1  0.250000  0.032210  0.284020  1
  Er  Er4  1  0.250000  0.675986  0.557829  1
  Er  Er5  1  0.750000  0.324014  0.442171  1
  Er  Er6  1  0.750000  0.825197  0.058151  1
  Er  Er7  1  0.250000  0.174803  0.941849  1
  Os  Os8  1  0.750000  0.779744  0.366731  1
  Os  Os9  1  0.250000  0.220256  0.633269  1
  W  W10  1  0.250000  0.716358  0.867926  1
  W  W11  1  0.750000  0.283642  0.132074  1
  C  C12  1  0.250000  0.449344  0.758578  1
  C  C13  1  0.750000  0.550656  0.241422  1
  C  C14  1  0.750000  0.047383  0.260307  1
  C  C15  1  0.250000  0.952617  0.739693  1
  C  C16  1  0.250000  0.827126  0.053092  1
  C  C17  1  0.750000  0.172874  0.946908  1
  C  C18  1  0.750000  0.674621  0.548696  1
  C  C19  1  0.250000  0.325379  0.451304  1
