# generated using pymatgen
data_Ca3YbDy2(Si3Ru)8
_symmetry_space_group_name_H-M   'P 1'
_cell_length_a   10.16936203
_cell_length_b   10.16936200
_cell_length_c   8.14625433
_cell_angle_alpha   90.00438450
_cell_angle_beta   90.00438779
_cell_angle_gamma   132.77412720
_symmetry_Int_Tables_number   1
_chemical_formula_structural   Ca3YbDy2(Si3Ru)8
_chemical_formula_sum   'Ca3 Yb1 Dy2 Si24 Ru8'
_cell_volume   618.39089820
_cell_formula_units_Z   1
loop_
 _symmetry_equiv_pos_site_id
 _symmetry_equiv_pos_as_xyz
  1  'x, y, z'
loop_
 _atom_site_type_symbol
 _atom_site_label
 _atom_site_symmetry_multiplicity
 _atom_site_fract_x
 _atom_site_fract_y
 _atom_site_fract_z
 _atom_site_occupancy
  Ca  Ca0  1  0.500143  0.499857  0.500000  1
  Ca  Ca1  1  0.501037  0.000876  0.749978  1
  Ca  Ca2  1  0.999124  0.498963  0.250022  1
  Yb  Yb3  1  0.999943  0.000057  0.000000  1
  Dy  Dy4  1  0.499420  0.999507  0.249993  1
  Dy  Dy5  1  0.000493  0.500580  0.750007  1
  Si  Si6  1  0.795710  0.204290  0.500000  1
  Si  Si7  1  0.294805  0.705195  0.000000  1
  Si  Si8  1  0.205011  0.794989  0.500000  1
  Si  Si9  1  0.704443  0.295557  0.000000  1
  Si  Si10  1  0.331078  0.336027  0.832715  1
  Si  Si11  1  0.663973  0.668922  0.167285  1
  Si  Si12  1  0.167947  0.163065  0.331755  1
  Si  Si13  1  0.836935  0.832053  0.668245  1
  Si  Si14  1  0.123323  0.891071  0.730696  1
  Si  Si15  1  0.108929  0.876677  0.269304  1
  Si  Si16  1  0.607310  0.374662  0.229788  1
  Si  Si17  1  0.625338  0.392690  0.770212  1
  Si  Si18  1  0.874706  0.106503  0.269387  1
  Si  Si19  1  0.893497  0.125294  0.730613  1
  Si  Si20  1  0.390357  0.623385  0.770056  1
  Si  Si21  1  0.376615  0.609643  0.229944  1
  Si  Si22  1  0.346829  0.113045  0.506044  1
  Si  Si23  1  0.886955  0.653171  0.493956  1
  Si  Si24  1  0.385781  0.153544  0.009136  1
  Si  Si25  1  0.846456  0.614219  0.990864  1
  Si  Si26  1  0.653437  0.886326  0.490297  1
  Si  Si27  1  0.113674  0.346563  0.509703  1
  Si  Si28  1  0.613715  0.846933  0.994538  1
  Si  Si29  1  0.153067  0.386285  0.005462  1
  Ru  Ru30  1  0.671130  0.328870  0.500000  1
  Ru  Ru31  1  0.169845  0.830155  0.000000  1
  Ru  Ru32  1  0.329745  0.670255  0.500000  1
  Ru  Ru33  1  0.829145  0.170855  0.000000  1
  Ru  Ru34  1  0.126826  0.126694  0.625013  1
  Ru  Ru35  1  0.873306  0.873174  0.374987  1
  Ru  Ru36  1  0.373005  0.373051  0.124732  1
  Ru  Ru37  1  0.626949  0.626995  0.875268  1
