# generated using pymatgen
data_Sc2Al2SiAu
_symmetry_space_group_name_H-M   'P 1'
_cell_length_a   6.76430200
_cell_length_b   6.76430254
_cell_length_c   8.22058200
_cell_angle_alpha   90.00000000
_cell_angle_beta   90.00000000
_cell_angle_gamma   119.99999734
_symmetry_Int_Tables_number   1
_chemical_formula_structural   Sc2Al2SiAu
_chemical_formula_sum   'Sc6 Al6 Si3 Au3'
_cell_volume   325.74609786
_cell_formula_units_Z   3
loop_
 _symmetry_equiv_pos_site_id
 _symmetry_equiv_pos_as_xyz
  1  'x, y, z'
loop_
 _atom_site_type_symbol
 _atom_site_label
 _atom_site_symmetry_multiplicity
 _atom_site_fract_x
 _atom_site_fract_y
 _atom_site_fract_z
 _atom_site_occupancy
  Sc  Sc0  1  0.580108  0.999762  0.741987  1
  Sc  Sc1  1  0.000238  0.580345  0.741987  1
  Sc  Sc2  1  0.419655  0.419892  0.741987  1
  Sc  Sc3  1  0.999010  0.579828  0.258172  1
  Sc  Sc4  1  0.580818  0.000990  0.258172  1
  Sc  Sc5  1  0.420172  0.419182  0.258172  1
  Al  Al6  1  0.744084  0.749027  0.999917  1
  Al  Al7  1  0.250973  0.995057  0.999917  1
  Al  Al8  1  0.004943  0.255916  0.999917  1
  Al  Al9  1  0.752749  0.753083  0.499909  1
  Al  Al10  1  0.246917  0.999666  0.499909  1
  Al  Al11  1  0.000334  0.247251  0.499909  1
  Si  Si12  1  0.666667  0.333333  0.999083  1
  Si  Si13  1  0.666667  0.333333  0.500742  1
  Si  Si14  1  0.333333  0.666667  0.499457  1
  Au  Au15  1  0.000000  0.000000  0.752764  1
  Au  Au16  1  0.000000  0.000000  0.246974  1
  Au  Au17  1  0.333333  0.666667  0.001024  1
