# generated using pymatgen
data_SnBiBRh6
_symmetry_space_group_name_H-M   'P 1'
_cell_length_a   5.78175860
_cell_length_b   5.78175918
_cell_length_c   5.78175900
_cell_angle_alpha   60.00000674
_cell_angle_beta   60.00000344
_cell_angle_gamma   60.00000560
_symmetry_Int_Tables_number   1
_chemical_formula_structural   SnBiBRh6
_chemical_formula_sum   'Sn1 Bi1 B1 Rh6'
_cell_volume   136.66741896
_cell_formula_units_Z   1
loop_
 _symmetry_equiv_pos_site_id
 _symmetry_equiv_pos_as_xyz
  1  'x, y, z'
loop_
 _atom_site_type_symbol
 _atom_site_label
 _atom_site_symmetry_multiplicity
 _atom_site_fract_x
 _atom_site_fract_y
 _atom_site_fract_z
 _atom_site_occupancy
  Sn  Sn0  1  0.750000  0.750000  0.750000  1
  Bi  Bi1  1  0.250000  0.250000  0.250000  1
  B  B2  1  0.000000  0.000000  0.000000  1
  Rh  Rh3  1  0.744928  0.255073  0.255073  1
  Rh  Rh4  1  0.255073  0.744928  0.255073  1
  Rh  Rh5  1  0.744927  0.744927  0.255074  1
  Rh  Rh6  1  0.255073  0.255073  0.744928  1
  Rh  Rh7  1  0.744927  0.255074  0.744927  1
  Rh  Rh8  1  0.255074  0.744927  0.744927  1
