# generated using pymatgen
data_Tb4Ga18OsPt4Rh
_symmetry_space_group_name_H-M   'P 1'
_cell_length_a   7.66383541
_cell_length_b   7.66383476
_cell_length_c   9.49876204
_cell_angle_alpha   90.05889079
_cell_angle_beta   90.05889026
_cell_angle_gamma   119.90242166
_symmetry_Int_Tables_number   1
_chemical_formula_structural   Tb4Ga18OsPt4Rh
_chemical_formula_sum   'Tb4 Ga18 Os1 Pt4 Rh1'
_cell_volume   483.63220563
_cell_formula_units_Z   1
loop_
 _symmetry_equiv_pos_site_id
 _symmetry_equiv_pos_as_xyz
  1  'x, y, z'
loop_
 _atom_site_type_symbol
 _atom_site_label
 _atom_site_symmetry_multiplicity
 _atom_site_fract_x
 _atom_site_fract_y
 _atom_site_fract_z
 _atom_site_occupancy
  Tb  Tb0  1  0.996791  0.668009  0.249984  1
  Tb  Tb1  1  0.003304  0.332264  0.750093  1
  Tb  Tb2  1  0.667736  0.996696  0.249907  1
  Tb  Tb3  1  0.331991  0.003209  0.750016  1
  Ga  Ga4  1  0.125983  0.127960  0.252643  1
  Ga  Ga5  1  0.872040  0.874017  0.747357  1
  Ga  Ga6  1  0.994641  0.334248  0.079490  1
  Ga  Ga7  1  0.996713  0.661160  0.919597  1
  Ga  Ga8  1  0.001807  0.670703  0.581023  1
  Ga  Ga9  1  0.329297  0.998193  0.418977  1
  Ga  Ga10  1  0.999171  0.330169  0.420142  1
  Ga  Ga11  1  0.669831  0.000829  0.579858  1
  Ga  Ga12  1  0.665752  0.005359  0.920510  1
  Ga  Ga13  1  0.338840  0.003287  0.080403  1
  Ga  Ga14  1  0.327726  0.328032  0.568520  1
  Ga  Ga15  1  0.671968  0.672274  0.431480  1
  Ga  Ga16  1  0.668632  0.663670  0.066270  1
  Ga  Ga17  1  0.336330  0.331368  0.933730  1
  Ga  Ga18  1  0.338276  0.542295  0.249974  1
  Ga  Ga19  1  0.660354  0.454712  0.752967  1
  Ga  Ga20  1  0.545288  0.339646  0.247033  1
  Ga  Ga21  1  0.457705  0.661724  0.750026  1
  Os  Os22  1  0.671430  0.328570  0.000000  1
  Pt  Pt23  1  0.328107  0.671893  0.000000  1
  Pt  Pt24  1  0.328826  0.671174  0.500000  1
  Pt  Pt25  1  0.670862  0.329138  0.500000  1
  Pt  Pt26  1  0.000066  0.999934  0.000000  1
  Rh  Rh27  1  0.000531  0.999469  0.500000  1
