# generated using pymatgen
data_Li2Mn(Co3P2)3
_symmetry_space_group_name_H-M   'P 1'
_cell_length_a   3.53511600
_cell_length_b   10.07046800
_cell_length_c   11.67689700
_cell_angle_alpha   90.00000000
_cell_angle_beta   90.00000000
_cell_angle_gamma   90.00000000
_symmetry_Int_Tables_number   1
_chemical_formula_structural   Li2Mn(Co3P2)3
_chemical_formula_sum   'Li4 Mn2 Co18 P12'
_cell_volume   415.70071579
_cell_formula_units_Z   2
loop_
 _symmetry_equiv_pos_site_id
 _symmetry_equiv_pos_as_xyz
  1  'x, y, z'
loop_
 _atom_site_type_symbol
 _atom_site_label
 _atom_site_symmetry_multiplicity
 _atom_site_fract_x
 _atom_site_fract_y
 _atom_site_fract_z
 _atom_site_occupancy
  Li  Li0  1  0.250000  0.578763  0.703246  1
  Li  Li1  1  0.250000  0.921237  0.203246  1
  Li  Li2  1  0.750000  0.420139  0.295378  1
  Li  Li3  1  0.750000  0.079861  0.795378  1
  Mn  Mn4  1  0.250000  0.712929  0.989776  1
  Mn  Mn5  1  0.250000  0.787071  0.489776  1
  Co  Co6  1  0.750000  0.286452  0.010510  1
  Co  Co7  1  0.750000  0.213548  0.510510  1
  Co  Co8  1  0.250000  0.406277  0.486760  1
  Co  Co9  1  0.250000  0.093723  0.986760  1
  Co  Co10  1  0.750000  0.591225  0.515953  1
  Co  Co11  1  0.750000  0.908775  0.015953  1
  Co  Co12  1  0.250000  0.221208  0.175694  1
  Co  Co13  1  0.250000  0.278792  0.675694  1
  Co  Co14  1  0.750000  0.781326  0.825764  1
  Co  Co15  1  0.750000  0.718674  0.325764  1
  Co  Co16  1  0.250000  0.881263  0.699950  1
  Co  Co17  1  0.250000  0.618737  0.199950  1
  Co  Co18  1  0.750000  0.120107  0.299267  1
  Co  Co19  1  0.750000  0.379893  0.799267  1
  Co  Co20  1  0.250000  0.462752  0.931286  1
  Co  Co21  1  0.250000  0.037248  0.431286  1
  Co  Co22  1  0.750000  0.534801  0.067231  1
  Co  Co23  1  0.750000  0.965199  0.567231  1
  P  P24  1  0.250000  0.420022  0.116055  1
  P  P25  1  0.250000  0.079978  0.616055  1
  P  P26  1  0.750000  0.579598  0.882002  1
  P  P27  1  0.750000  0.920402  0.382002  1
  P  P28  1  0.250000  0.260173  0.865265  1
  P  P29  1  0.250000  0.239827  0.365265  1
  P  P30  1  0.750000  0.738552  0.137128  1
  P  P31  1  0.750000  0.761448  0.637128  1
  P  P32  1  0.250000  0.591756  0.387773  1
  P  P33  1  0.250000  0.908244  0.887773  1
  P  P34  1  0.750000  0.401681  0.610962  1
  P  P35  1  0.750000  0.098319  0.110962  1
