# generated using pymatgen
data_Er3TmSi4RuRh3
_symmetry_space_group_name_H-M   'P 1'
_cell_length_a   4.26107200
_cell_length_b   6.87574385
_cell_length_c   7.27107013
_cell_angle_alpha   90.06046192
_cell_angle_beta   90.00000000
_cell_angle_gamma   90.00000000
_symmetry_Int_Tables_number   1
_chemical_formula_structural   Er3TmSi4RuRh3
_chemical_formula_sum   'Er3 Tm1 Si4 Ru1 Rh3'
_cell_volume   213.02798203
_cell_formula_units_Z   1
loop_
 _symmetry_equiv_pos_site_id
 _symmetry_equiv_pos_as_xyz
  1  'x, y, z'
loop_
 _atom_site_type_symbol
 _atom_site_label
 _atom_site_symmetry_multiplicity
 _atom_site_fract_x
 _atom_site_fract_y
 _atom_site_fract_z
 _atom_site_occupancy
  Er  Er0  1  0.250000  0.992870  0.811239  1
  Er  Er1  1  0.750000  0.005145  0.190342  1
  Er  Er2  1  0.250000  0.497672  0.686985  1
  Tm  Tm3  1  0.750000  0.503477  0.311571  1
  Si  Si4  1  0.250000  0.299493  0.105196  1
  Si  Si5  1  0.750000  0.702358  0.899990  1
  Si  Si6  1  0.250000  0.795467  0.387158  1
  Si  Si7  1  0.750000  0.203497  0.607690  1
  Ru  Ru8  1  0.250000  0.653870  0.066541  1
  Rh  Rh9  1  0.750000  0.843916  0.568359  1
  Rh  Rh10  1  0.250000  0.157648  0.431915  1
  Rh  Rh11  1  0.750000  0.344589  0.933014  1
