# generated using pymatgen
data_NdErTmRuI3
_symmetry_space_group_name_H-M   'P 1'
_cell_length_a   4.24006800
_cell_length_b   8.97814246
_cell_length_c   12.39002588
_cell_angle_alpha   94.31362608
_cell_angle_beta   90.00000000
_cell_angle_gamma   90.00000000
_symmetry_Int_Tables_number   1
_chemical_formula_structural   NdErTmRuI3
_chemical_formula_sum   'Nd2 Er2 Tm2 Ru2 I6'
_cell_volume   470.32660316
_cell_formula_units_Z   2
loop_
 _symmetry_equiv_pos_site_id
 _symmetry_equiv_pos_as_xyz
  1  'x, y, z'
loop_
 _atom_site_type_symbol
 _atom_site_label
 _atom_site_symmetry_multiplicity
 _atom_site_fract_x
 _atom_site_fract_y
 _atom_site_fract_z
 _atom_site_occupancy
  Nd  Nd0  1  0.750000  0.270822  0.602121  1
  Nd  Nd1  1  0.250000  0.729178  0.397879  1
  Er  Er2  1  0.750000  0.901085  0.186688  1
  Er  Er3  1  0.250000  0.098915  0.813312  1
  Tm  Tm4  1  0.750000  0.879269  0.625830  1
  Tm  Tm5  1  0.250000  0.120731  0.374170  1
  Ru  Ru6  1  0.750000  0.945427  0.406657  1
  Ru  Ru7  1  0.250000  0.054573  0.593343  1
  I  I8  1  0.750000  0.416666  0.361073  1
  I  I9  1  0.250000  0.583334  0.638927  1
  I  I10  1  0.750000  0.865024  0.889407  1
  I  I11  1  0.250000  0.134976  0.110593  1
  I  I12  1  0.750000  0.347956  0.867508  1
  I  I13  1  0.250000  0.652044  0.132492  1
