# generated using pymatgen
data_NbCrOF5
_symmetry_space_group_name_H-M   'P 1'
_cell_length_a   5.66676309
_cell_length_b   5.70834776
_cell_length_c   5.60516669
_cell_angle_alpha   117.66162343
_cell_angle_beta   118.36862988
_cell_angle_gamma   92.63380236
_symmetry_Int_Tables_number   1
_chemical_formula_structural   NbCrOF5
_chemical_formula_sum   'Nb1 Cr1 O1 F5'
_cell_volume   132.78509323
_cell_formula_units_Z   1
loop_
 _symmetry_equiv_pos_site_id
 _symmetry_equiv_pos_as_xyz
  1  'x, y, z'
loop_
 _atom_site_type_symbol
 _atom_site_label
 _atom_site_symmetry_multiplicity
 _atom_site_fract_x
 _atom_site_fract_y
 _atom_site_fract_z
 _atom_site_occupancy
  Nb  Nb0  1  0.684592  0.996192  0.322580  1
  Cr  Cr1  1  0.159211  0.474815  0.318703  1
  O  O2  1  0.947781  0.221727  0.361980  1
  F  F3  1  0.359339  0.726454  0.265834  1
  F  F4  1  0.405549  0.193502  0.238707  1
  F  F5  1  0.483230  0.724872  0.845594  1
  F  F6  1  0.898082  0.743516  0.391514  1
  F  F7  1  0.823372  0.214156  0.788564  1
