# generated using pymatgen
data_Th10CuSn4Bi3
_symmetry_space_group_name_H-M   'P 1'
_cell_length_a   9.65017119
_cell_length_b   9.63893833
_cell_length_c   6.64284712
_cell_angle_alpha   90.01110878
_cell_angle_beta   89.97780237
_cell_angle_gamma   120.03856082
_symmetry_Int_Tables_number   1
_chemical_formula_structural   Th10CuSn4Bi3
_chemical_formula_sum   'Th10 Cu1 Sn4 Bi3'
_cell_volume   534.90935488
_cell_formula_units_Z   1
loop_
 _symmetry_equiv_pos_site_id
 _symmetry_equiv_pos_as_xyz
  1  'x, y, z'
loop_
 _atom_site_type_symbol
 _atom_site_label
 _atom_site_symmetry_multiplicity
 _atom_site_fract_x
 _atom_site_fract_y
 _atom_site_fract_z
 _atom_site_occupancy
  Th  Th0  1  0.003915  0.728466  0.767718  1
  Th  Th1  1  0.275449  0.271534  0.767718  1
  Th  Th2  1  0.333756  0.670189  0.497316  1
  Th  Th3  1  0.663569  0.329811  0.497316  1
  Th  Th4  1  0.725465  0.725522  0.233023  1
  Th  Th5  1  0.723643  0.000000  0.767213  1
  Th  Th6  1  0.999943  0.274478  0.233023  1
  Th  Th7  1  0.275173  0.000000  0.234029  1
  Th  Th8  1  0.334036  0.669594  0.002406  1
  Th  Th9  1  0.664443  0.330406  0.002406  1
  Cu  Cu10  1  0.999676  0.000000  0.001021  1
  Sn  Sn11  1  0.381333  0.000000  0.745485  1
  Sn  Sn12  1  0.620272  0.000000  0.254431  1
  Sn  Sn13  1  0.379899  0.380309  0.254218  1
  Sn  Sn14  1  0.999590  0.619691  0.254218  1
  Bi  Bi15  1  0.619570  0.618730  0.744055  1
  Bi  Bi16  1  0.000840  0.381270  0.744055  1
  Bi  Bi17  1  0.999428  0.000000  0.500351  1
