# generated using pymatgen
data_Dy5ErSi4(GeRu2)2
_symmetry_space_group_name_H-M   'P 1'
_cell_length_a   5.75979908
_cell_length_b   5.75979905
_cell_length_c   13.88119361
_cell_angle_alpha   90.06521750
_cell_angle_beta   89.93478159
_cell_angle_gamma   137.36480418
_symmetry_Int_Tables_number   1
_chemical_formula_structural   Dy5ErSi4(GeRu2)2
_chemical_formula_sum   'Dy5 Er1 Si4 Ge2 Ru4'
_cell_volume   311.91782286
_cell_formula_units_Z   1
loop_
 _symmetry_equiv_pos_site_id
 _symmetry_equiv_pos_as_xyz
  1  'x, y, z'
loop_
 _atom_site_type_symbol
 _atom_site_label
 _atom_site_symmetry_multiplicity
 _atom_site_fract_x
 _atom_site_fract_y
 _atom_site_fract_z
 _atom_site_occupancy
  Dy  Dy0  1  0.925203  0.074797  0.386997  1
  Dy  Dy1  1  0.074736  0.925264  0.613301  1
  Dy  Dy2  1  0.925230  0.074770  0.112607  1
  Dy  Dy3  1  0.645023  0.354977  0.249666  1
  Dy  Dy4  1  0.355055  0.644945  0.750387  1
  Er  Er5  1  0.075425  0.924575  0.887780  1
  Si  Si6  1  0.617820  0.382180  0.461093  1
  Si  Si7  1  0.382051  0.617949  0.538955  1
  Si  Si8  1  0.617535  0.382465  0.038313  1
  Si  Si9  1  0.382888  0.617112  0.961073  1
  Ge  Ge10  1  0.336496  0.663504  0.249722  1
  Ge  Ge11  1  0.662644  0.337356  0.751036  1
  Ru  Ru12  1  0.788586  0.211414  0.920715  1
  Ru  Ru13  1  0.211641  0.788359  0.078113  1
  Ru  Ru14  1  0.787532  0.212468  0.579026  1
  Ru  Ru15  1  0.212135  0.787865  0.421218  1
