# generated using pymatgen
data_La14YHo(CdRu)4
_symmetry_space_group_name_H-M   'P 1'
_cell_length_a   9.99758726
_cell_length_b   10.09778468
_cell_length_c   9.99758796
_cell_angle_alpha   59.66790462
_cell_angle_beta   60.47069472
_cell_angle_gamma   59.66790853
_symmetry_Int_Tables_number   1
_chemical_formula_structural   La14YHo(CdRu)4
_chemical_formula_sum   'La14 Y1 Ho1 Cd4 Ru4'
_cell_volume   712.53874175
_cell_formula_units_Z   1
loop_
 _symmetry_equiv_pos_site_id
 _symmetry_equiv_pos_as_xyz
  1  'x, y, z'
loop_
 _atom_site_type_symbol
 _atom_site_label
 _atom_site_symmetry_multiplicity
 _atom_site_fract_x
 _atom_site_fract_y
 _atom_site_fract_z
 _atom_site_occupancy
  La  La0  1  0.440394  0.440675  0.059704  1
  La  La1  1  0.059704  0.059227  0.440394  1
  La  La2  1  0.440394  0.059227  0.059704  1
  La  La3  1  0.844361  0.850850  0.844361  1
  La  La4  1  0.685841  0.314310  0.314154  1
  La  La5  1  0.059704  0.440675  0.440394  1
  La  La6  1  0.314154  0.685695  0.685841  1
  La  La7  1  0.314154  0.314310  0.685841  1
  La  La8  1  0.851040  0.844418  0.460125  1
  La  La9  1  0.685841  0.685695  0.314154  1
  La  La10  1  0.460125  0.844418  0.851040  1
  La  La11  1  0.056909  0.443091  0.056909  1
  La  La12  1  0.844361  0.460428  0.844361  1
  La  La13  1  0.443752  0.056248  0.443752  1
  Y  Y14  1  0.691209  0.308791  0.691209  1
  Ho  Ho15  1  0.309145  0.690855  0.309145  1
  Cd  Cd16  1  0.080546  0.762871  0.080546  1
  Cd  Cd17  1  0.075944  0.080617  0.762820  1
  Cd  Cd18  1  0.762820  0.080617  0.075944  1
  Cd  Cd19  1  0.080546  0.076037  0.080546  1
  Ru  Ru20  1  0.634390  0.088231  0.634390  1
  Ru  Ru21  1  0.634390  0.642988  0.634390  1
  Ru  Ru22  1  0.641327  0.634862  0.088947  1
  Ru  Ru23  1  0.088947  0.634862  0.641327  1
