# generated using pymatgen
data_Rb4Th6CBr18
_symmetry_space_group_name_H-M   'P 1'
_cell_length_a   11.07680068
_cell_length_b   11.22931585
_cell_length_c   11.32127258
_cell_angle_alpha   118.61112368
_cell_angle_beta   100.30937900
_cell_angle_gamma   103.75171279
_symmetry_Int_Tables_number   1
_chemical_formula_structural   Rb4Th6CBr18
_chemical_formula_sum   'Rb4 Th6 C1 Br18'
_cell_volume   1127.79731039
_cell_formula_units_Z   1
loop_
 _symmetry_equiv_pos_site_id
 _symmetry_equiv_pos_as_xyz
  1  'x, y, z'
loop_
 _atom_site_type_symbol
 _atom_site_label
 _atom_site_symmetry_multiplicity
 _atom_site_fract_x
 _atom_site_fract_y
 _atom_site_fract_z
 _atom_site_occupancy
  Rb  Rb0  1  0.184405  0.725478  0.564542  1
  Rb  Rb1  1  0.850109  0.963213  0.773551  1
  Rb  Rb2  1  0.149891  0.036787  0.226449  1
  Rb  Rb3  1  0.815595  0.274522  0.435458  1
  Th  Th4  1  0.343491  0.441595  0.761020  1
  Th  Th5  1  0.357998  0.633484  0.140145  1
  Th  Th6  1  0.649731  0.746616  0.045684  1
  Th  Th7  1  0.656509  0.558405  0.238980  1
  Th  Th8  1  0.350269  0.253384  0.954316  1
  Th  Th9  1  0.642002  0.366516  0.859855  1
  C  C10  1  0.500000  0.500000  0.000000  1
  Br  Br11  1  0.829582  0.415383  0.111701  1
  Br  Br12  1  0.517561  0.712764  0.424632  1
  Br  Br13  1  0.168713  0.970599  0.897645  1
  Br  Br14  1  0.170418  0.584617  0.888299  1
  Br  Br15  1  0.839438  0.845749  0.322561  1
  Br  Br16  1  0.506041  0.289209  0.217716  1
  Br  Br17  1  0.798860  0.214000  0.701845  1
  Br  Br18  1  0.160562  0.154251  0.677439  1
  Br  Br19  1  0.509917  0.925489  0.205726  1
  Br  Br20  1  0.824985  0.629216  0.896283  1
  Br  Br21  1  0.201140  0.786000  0.298155  1
  Br  Br22  1  0.157480  0.376870  0.489120  1
  Br  Br23  1  0.493959  0.710791  0.782284  1
  Br  Br24  1  0.831287  0.029401  0.102355  1
  Br  Br25  1  0.482439  0.287236  0.575368  1
  Br  Br26  1  0.175015  0.370784  0.103717  1
  Br  Br27  1  0.842520  0.623130  0.510880  1
  Br  Br28  1  0.490083  0.074511  0.794274  1
