# generated using pymatgen
data_ThZnCu4Au
_symmetry_space_group_name_H-M   'P 1'
_cell_length_a   5.11338800
_cell_length_b   8.27106900
_cell_length_c   10.55027900
_cell_angle_alpha   90.00000000
_cell_angle_beta   90.00000000
_cell_angle_gamma   90.00000000
_symmetry_Int_Tables_number   1
_chemical_formula_structural   ThZnCu4Au
_chemical_formula_sum   'Th4 Zn4 Cu16 Au4'
_cell_volume   446.20490125
_cell_formula_units_Z   4
loop_
 _symmetry_equiv_pos_site_id
 _symmetry_equiv_pos_as_xyz
  1  'x, y, z'
loop_
 _atom_site_type_symbol
 _atom_site_label
 _atom_site_symmetry_multiplicity
 _atom_site_fract_x
 _atom_site_fract_y
 _atom_site_fract_z
 _atom_site_occupancy
  Th  Th0  1  0.250000  0.260327  0.564062  1
  Th  Th1  1  0.750000  0.739673  0.435938  1
  Th  Th2  1  0.250000  0.760327  0.935938  1
  Th  Th3  1  0.750000  0.239673  0.064062  1
  Zn  Zn4  1  0.750000  0.684758  0.750994  1
  Zn  Zn5  1  0.250000  0.315242  0.249006  1
  Zn  Zn6  1  0.750000  0.184758  0.749006  1
  Zn  Zn7  1  0.250000  0.815242  0.250994  1
  Cu  Cu8  1  0.503652  0.564652  0.185996  1
  Cu  Cu9  1  0.003652  0.435348  0.814004  1
  Cu  Cu10  1  0.996348  0.064652  0.314004  1
  Cu  Cu11  1  0.496348  0.935348  0.685996  1
  Cu  Cu12  1  0.750000  0.941602  0.893499  1
  Cu  Cu13  1  0.250000  0.058398  0.106501  1
  Cu  Cu14  1  0.750000  0.441602  0.606501  1
  Cu  Cu15  1  0.250000  0.558398  0.393499  1
  Cu  Cu16  1  0.750000  0.589006  0.984935  1
  Cu  Cu17  1  0.250000  0.410994  0.015065  1
  Cu  Cu18  1  0.750000  0.089006  0.515065  1
  Cu  Cu19  1  0.250000  0.910994  0.484935  1
  Cu  Cu20  1  0.503652  0.064652  0.314004  1
  Cu  Cu21  1  0.003652  0.935348  0.685996  1
  Cu  Cu22  1  0.996348  0.564652  0.185996  1
  Cu  Cu23  1  0.496348  0.435348  0.814004  1
  Au  Au24  1  0.750000  0.362231  0.363390  1
  Au  Au25  1  0.250000  0.637769  0.636610  1
  Au  Au26  1  0.750000  0.862231  0.136610  1
  Au  Au27  1  0.250000  0.137769  0.863390  1
