# generated using pymatgen
data_Y8Sc12Si15B
_symmetry_space_group_name_H-M   'P 1'
_cell_length_a   7.03398501
_cell_length_b   7.38608764
_cell_length_c   13.95394000
_cell_angle_alpha   90.00000000
_cell_angle_beta   90.00000000
_cell_angle_gamma   89.41796920
_symmetry_Int_Tables_number   1
_chemical_formula_structural   Y8Sc12Si15B
_chemical_formula_sum   'Y8 Sc12 Si15 B1'
_cell_volume   724.92042745
_cell_formula_units_Z   1
loop_
 _symmetry_equiv_pos_site_id
 _symmetry_equiv_pos_as_xyz
  1  'x, y, z'
loop_
 _atom_site_type_symbol
 _atom_site_label
 _atom_site_symmetry_multiplicity
 _atom_site_fract_x
 _atom_site_fract_y
 _atom_site_fract_z
 _atom_site_occupancy
  Y  Y0  1  0.010000  0.177944  0.096718  1
  Y  Y1  1  0.988617  0.829031  0.902746  1
  Y  Y2  1  0.489042  0.678058  0.901857  1
  Y  Y3  1  0.988617  0.829031  0.597254  1
  Y  Y4  1  0.511207  0.324801  0.095293  1
  Y  Y5  1  0.010000  0.177944  0.403282  1
  Y  Y6  1  0.511207  0.324801  0.404707  1
  Y  Y7  1  0.489042  0.678058  0.598143  1
  Sc  Sc8  1  0.166421  0.509186  0.750000  1
  Sc  Sc9  1  0.838746  0.498096  0.250000  1
  Sc  Sc10  1  0.338460  0.002783  0.250000  1
  Sc  Sc11  1  0.672903  0.998309  0.750000  1
  Sc  Sc12  1  0.314719  0.174530  0.629500  1
  Sc  Sc13  1  0.669211  0.823324  0.375459  1
  Sc  Sc14  1  0.168417  0.676915  0.375541  1
  Sc  Sc15  1  0.669211  0.823324  0.124541  1
  Sc  Sc16  1  0.848895  0.310415  0.632194  1
  Sc  Sc17  1  0.314719  0.174530  0.870500  1
  Sc  Sc18  1  0.848895  0.310415  0.867806  1
  Sc  Sc19  1  0.168417  0.676915  0.124459  1
  Si  Si20  1  0.966308  0.883051  0.250000  1
  Si  Si21  1  0.467049  0.616526  0.250000  1
  Si  Si22  1  0.538317  0.379991  0.750000  1
  Si  Si23  1  0.267943  0.886147  0.750000  1
  Si  Si24  1  0.711854  0.128473  0.250000  1
  Si  Si25  1  0.214516  0.373098  0.250000  1
  Si  Si26  1  0.787650  0.622656  0.750000  1
  Si  Si27  1  0.158785  0.466606  0.540016  1
  Si  Si28  1  0.840257  0.534887  0.464949  1
  Si  Si29  1  0.340258  0.964555  0.463031  1
  Si  Si30  1  0.840257  0.534887  0.035051  1
  Si  Si31  1  0.654308  0.037841  0.540828  1
  Si  Si32  1  0.158785  0.466606  0.959984  1
  Si  Si33  1  0.654308  0.037841  0.959172  1
  Si  Si34  1  0.340258  0.964555  0.036969  1
  B  B35  1  0.042400  0.103873  0.750000  1
