# generated using pymatgen
data_TmBeCuP2
_symmetry_space_group_name_H-M   'P 1'
_cell_length_a   3.83446000
_cell_length_b   3.83445933
_cell_length_c   6.32082400
_cell_angle_alpha   90.00000000
_cell_angle_beta   90.00000000
_cell_angle_gamma   120.00000575
_symmetry_Int_Tables_number   1
_chemical_formula_structural   TmBeCuP2
_chemical_formula_sum   'Tm1 Be1 Cu1 P2'
_cell_volume   80.48457446
_cell_formula_units_Z   1
loop_
 _symmetry_equiv_pos_site_id
 _symmetry_equiv_pos_as_xyz
  1  'x, y, z'
loop_
 _atom_site_type_symbol
 _atom_site_label
 _atom_site_symmetry_multiplicity
 _atom_site_fract_x
 _atom_site_fract_y
 _atom_site_fract_z
 _atom_site_occupancy
  Tm  Tm0  1  0.000000  0.000000  0.988276  1
  Be  Be1  1  0.666667  0.333333  0.377178  1
  Cu  Cu2  1  0.333333  0.666667  0.634898  1
  P  P3  1  0.333333  0.666667  0.264606  1
  P  P4  1  0.666667  0.333333  0.735042  1
