# generated using pymatgen
data_Nd4Co9P12Ru8Rh3
_symmetry_space_group_name_H-M   'P 1'
_cell_length_a   3.81544800
_cell_length_b   10.67455333
_cell_length_c   12.19994504
_cell_angle_alpha   89.79635172
_cell_angle_beta   90.00000000
_cell_angle_gamma   90.00000000
_symmetry_Int_Tables_number   1
_chemical_formula_structural   Nd4Co9P12Ru8Rh3
_chemical_formula_sum   'Nd4 Co9 P12 Ru8 Rh3'
_cell_volume   496.87870131
_cell_formula_units_Z   1
loop_
 _symmetry_equiv_pos_site_id
 _symmetry_equiv_pos_as_xyz
  1  'x, y, z'
loop_
 _atom_site_type_symbol
 _atom_site_label
 _atom_site_symmetry_multiplicity
 _atom_site_fract_x
 _atom_site_fract_y
 _atom_site_fract_z
 _atom_site_occupancy
  Nd  Nd0  1  0.250000  0.583688  0.706033  1
  Nd  Nd1  1  0.250000  0.913079  0.209325  1
  Nd  Nd2  1  0.750000  0.417304  0.293348  1
  Nd  Nd3  1  0.750000  0.083965  0.793065  1
  Co  Co4  1  0.750000  0.724493  0.320601  1
  Co  Co5  1  0.250000  0.884798  0.694456  1
  Co  Co6  1  0.250000  0.618277  0.197866  1
  Co  Co7  1  0.750000  0.110755  0.304342  1
  Co  Co8  1  0.750000  0.386786  0.803491  1
  Co  Co9  1  0.250000  0.462963  0.934400  1
  Co  Co10  1  0.250000  0.036441  0.434055  1
  Co  Co11  1  0.750000  0.536529  0.066966  1
  Co  Co12  1  0.750000  0.964212  0.564481  1
  P  P13  1  0.250000  0.426368  0.110222  1
  P  P14  1  0.250000  0.074266  0.609104  1
  P  P15  1  0.750000  0.570289  0.891584  1
  P  P16  1  0.750000  0.922414  0.389806  1
  P  P17  1  0.250000  0.273764  0.871725  1
  P  P18  1  0.250000  0.225997  0.371909  1
  P  P19  1  0.750000  0.721431  0.135579  1
  P  P20  1  0.750000  0.777624  0.627129  1
  P  P21  1  0.250000  0.606098  0.382505  1
  P  P22  1  0.250000  0.898541  0.887924  1
  P  P23  1  0.750000  0.393875  0.611373  1
  P  P24  1  0.750000  0.106249  0.113746  1
  Ru  Ru25  1  0.250000  0.709878  0.989092  1
  Ru  Ru26  1  0.250000  0.791605  0.483175  1
  Ru  Ru27  1  0.750000  0.291621  0.011150  1
  Ru  Ru28  1  0.750000  0.208756  0.509975  1
  Ru  Ru29  1  0.250000  0.408244  0.486728  1
  Ru  Ru30  1  0.250000  0.093318  0.988146  1
  Ru  Ru31  1  0.250000  0.223817  0.179886  1
  Ru  Ru32  1  0.250000  0.276223  0.678777  1
  Rh  Rh33  1  0.750000  0.598608  0.511209  1
  Rh  Rh34  1  0.750000  0.902984  0.016947  1
  Rh  Rh35  1  0.750000  0.774741  0.819875  1
