# generated using pymatgen
data_Cs4Hf4Zr2FeBr18
_symmetry_space_group_name_H-M   'P 1'
_cell_length_a   10.91549704
_cell_length_b   11.28711632
_cell_length_c   11.38722864
_cell_angle_alpha   118.12913170
_cell_angle_beta   100.73675134
_cell_angle_gamma   104.41056633
_symmetry_Int_Tables_number   1
_chemical_formula_structural   Cs4Hf4Zr2FeBr18
_chemical_formula_sum   'Cs4 Hf4 Zr2 Fe1 Br18'
_cell_volume   1120.05417598
_cell_formula_units_Z   1
loop_
 _symmetry_equiv_pos_site_id
 _symmetry_equiv_pos_as_xyz
  1  'x, y, z'
loop_
 _atom_site_type_symbol
 _atom_site_label
 _atom_site_symmetry_multiplicity
 _atom_site_fract_x
 _atom_site_fract_y
 _atom_site_fract_z
 _atom_site_occupancy
  Cs  Cs0  1  0.664959  0.538189  0.231958  1
  Cs  Cs1  1  0.335041  0.461811  0.768042  1
  Cs  Cs2  1  0.698196  0.228297  0.564476  1
  Cs  Cs3  1  0.301804  0.771703  0.435524  1
  Hf  Hf4  1  0.862479  0.117958  0.124388  1
  Hf  Hf5  1  0.137521  0.882042  0.875612  1
  Hf  Hf6  1  0.143949  0.232245  0.044800  1
  Hf  Hf7  1  0.856051  0.767755  0.955200  1
  Zr  Zr8  1  0.149517  0.055929  0.224069  1
  Zr  Zr9  1  0.850483  0.944071  0.775931  1
  Fe  Fe10  1  0.000000  0.000000  0.000000  1
  Br  Br11  1  0.007391  0.387340  0.185107  1
  Br  Br12  1  0.992609  0.612660  0.814893  1
  Br  Br13  1  0.323259  0.323844  0.298792  1
  Br  Br14  1  0.676741  0.676156  0.701208  1
  Br  Br15  1  0.311934  0.498617  0.098379  1
  Br  Br16  1  0.688066  0.501383  0.901621  1
  Br  Br17  1  0.001766  0.802235  0.198316  1
  Br  Br18  1  0.998234  0.197765  0.801684  1
  Br  Br19  1  0.710335  0.251695  0.265296  1
  Br  Br20  1  0.289665  0.748305  0.734704  1
  Br  Br21  1  0.308611  0.126766  0.912194  1
  Br  Br22  1  0.691389  0.873234  0.087806  1
  Br  Br23  1  0.012556  0.194520  0.387471  1
  Br  Br24  1  0.987444  0.805480  0.612529  1
  Br  Br25  1  0.314723  0.929531  0.107346  1
  Br  Br26  1  0.685277  0.070469  0.892654  1
  Br  Br27  1  0.328080  0.121502  0.484169  1
  Br  Br28  1  0.671920  0.878498  0.515831  1
