# generated using pymatgen
data_Tb2CoNiOs2
_symmetry_space_group_name_H-M   'P 1'
_cell_length_a   5.28941694
_cell_length_b   5.31758140
_cell_length_c   5.31758113
_cell_angle_alpha   57.25774173
_cell_angle_beta   58.97367496
_cell_angle_gamma   58.97367047
_symmetry_Int_Tables_number   1
_chemical_formula_structural   Tb2CoNiOs2
_chemical_formula_sum   'Tb2 Co1 Ni1 Os2'
_cell_volume   101.82768617
_cell_formula_units_Z   1
loop_
 _symmetry_equiv_pos_site_id
 _symmetry_equiv_pos_as_xyz
  1  'x, y, z'
loop_
 _atom_site_type_symbol
 _atom_site_label
 _atom_site_symmetry_multiplicity
 _atom_site_fract_x
 _atom_site_fract_y
 _atom_site_fract_z
 _atom_site_occupancy
  Tb  Tb0  1  0.125383  0.121329  0.121329  1
  Tb  Tb1  1  0.874617  0.878671  0.878671  1
  Co  Co2  1  0.000000  0.500000  0.500000  1
  Ni  Ni3  1  0.500000  0.500000  0.500000  1
  Os  Os4  1  0.500000  0.000000  0.500000  1
  Os  Os5  1  0.500000  0.500000  0.000000  1
