# generated using pymatgen
data_Hf2Nb4Fe5Si12Ru
_symmetry_space_group_name_H-M   'P 1'
_cell_length_a   9.56112886
_cell_length_b   9.55689130
_cell_length_c   9.56054975
_cell_angle_alpha   148.53335113
_cell_angle_beta   133.31727182
_cell_angle_gamma   57.42749318
_symmetry_Int_Tables_number   1
_chemical_formula_structural   Hf2Nb4Fe5Si12Ru
_chemical_formula_sum   'Hf2 Nb4 Fe5 Si12 Ru1'
_cell_volume   329.25538714
_cell_formula_units_Z   1
loop_
 _symmetry_equiv_pos_site_id
 _symmetry_equiv_pos_as_xyz
  1  'x, y, z'
loop_
 _atom_site_type_symbol
 _atom_site_label
 _atom_site_symmetry_multiplicity
 _atom_site_fract_x
 _atom_site_fract_y
 _atom_site_fract_z
 _atom_site_occupancy
  Hf  Hf0  1  0.139747  0.141386  0.999537  1
  Hf  Hf1  1  0.860253  0.858614  0.000463  1
  Nb  Nb2  1  0.850931  0.592555  0.258186  1
  Nb  Nb3  1  0.149069  0.407445  0.741814  1
  Nb  Nb4  1  0.666443  0.405663  0.256394  1
  Nb  Nb5  1  0.333557  0.594337  0.743606  1
  Fe  Fe6  1  0.751099  0.000553  0.749514  1
  Fe  Fe7  1  0.000000  0.000000  0.500000  1
  Fe  Fe8  1  0.500000  0.000000  0.000000  1
  Fe  Fe9  1  0.248901  0.999447  0.250486  1
  Fe  Fe10  1  0.000000  0.500000  0.000000  1
  Si  Si11  1  0.482923  0.125731  0.340176  1
  Si  Si12  1  0.517077  0.874269  0.659824  1
  Si  Si13  1  0.211274  0.860510  0.346697  1
  Si  Si14  1  0.788726  0.139490  0.653303  1
  Si  Si15  1  0.701856  0.710850  0.016535  1
  Si  Si16  1  0.298144  0.289150  0.983465  1
  Si  Si17  1  0.499385  0.738216  0.239006  1
  Si  Si18  1  0.500615  0.261784  0.760994  1
  Si  Si19  1  0.000269  0.264522  0.264423  1
  Si  Si20  1  0.205074  0.718177  0.504260  1
  Si  Si21  1  0.999731  0.735478  0.735577  1
  Si  Si22  1  0.794926  0.281823  0.495740  1
  Ru  Ru23  1  0.500000  0.500000  0.500000  1
