# generated using pymatgen
data_Tb2ScP7Rh9W2
_symmetry_space_group_name_H-M   'P 1'
_cell_length_a   3.93587705
_cell_length_b   9.62777283
_cell_length_c   9.63740350
_cell_angle_alpha   120.54898686
_cell_angle_beta   90.00081314
_cell_angle_gamma   90.00017382
_symmetry_Int_Tables_number   1
_chemical_formula_structural   Tb2ScP7Rh9W2
_chemical_formula_sum   'Tb2 Sc1 P7 Rh9 W2'
_cell_volume   314.50594171
_cell_formula_units_Z   1
loop_
 _symmetry_equiv_pos_site_id
 _symmetry_equiv_pos_as_xyz
  1  'x, y, z'
loop_
 _atom_site_type_symbol
 _atom_site_label
 _atom_site_symmetry_multiplicity
 _atom_site_fract_x
 _atom_site_fract_y
 _atom_site_fract_z
 _atom_site_occupancy
  Tb  Tb0  1  0.261910  0.666483  0.333857  1
  Tb  Tb1  1  0.761927  0.334506  0.666932  1
  Sc  Sc2  1  0.761876  0.100271  0.878837  1
  P  P3  1  0.261867  0.997298  0.003540  1
  P  P4  1  0.761883  0.870888  0.580585  1
  P  P5  1  0.761899  0.402136  0.287195  1
  P  P6  1  0.761908  0.712574  0.118091  1
  P  P7  1  0.261890  0.117596  0.413653  1
  P  P8  1  0.261821  0.587982  0.704327  1
  P  P9  1  0.261872  0.302546  0.881600  1
  Rh  Rh10  1  0.261915  0.885510  0.162263  1
  Rh  Rh11  1  0.261845  0.838565  0.723757  1
  Rh  Rh12  1  0.261898  0.276104  0.115962  1
  Rh  Rh13  1  0.761896  0.609848  0.559667  1
  Rh  Rh14  1  0.761911  0.444007  0.053532  1
  Rh  Rh15  1  0.761957  0.944103  0.384542  1
  Rh  Rh16  1  0.261909  0.366829  0.437946  1
  Rh  Rh17  1  0.261928  0.567003  0.931431  1
  Rh  Rh18  1  0.262057  0.068508  0.626582  1
  W  W19  1  0.761916  0.123650  0.220421  1
  W  W20  1  0.761911  0.783591  0.915281  1
