# generated using pymatgen
data_SmDyAl3(Fe7C)2
_symmetry_space_group_name_H-M   'P 1'
_cell_length_a   6.49154187
_cell_length_b   6.49154153
_cell_length_c   6.49689414
_cell_angle_alpha   83.76956593
_cell_angle_beta   83.76955430
_cell_angle_gamma   84.21801532
_symmetry_Int_Tables_number   1
_chemical_formula_structural   SmDyAl3(Fe7C)2
_chemical_formula_sum   'Sm1 Dy1 Al3 Fe14 C2'
_cell_volume   269.45661538
_cell_formula_units_Z   1
loop_
 _symmetry_equiv_pos_site_id
 _symmetry_equiv_pos_as_xyz
  1  'x, y, z'
loop_
 _atom_site_type_symbol
 _atom_site_label
 _atom_site_symmetry_multiplicity
 _atom_site_fract_x
 _atom_site_fract_y
 _atom_site_fract_z
 _atom_site_occupancy
  Sm  Sm0  1  0.656834  0.656834  0.659534  1
  Dy  Dy1  1  0.341601  0.341601  0.340572  1
  Al  Al2  1  0.655893  0.655893  0.149577  1
  Al  Al3  1  0.342987  0.342987  0.852219  1
  Al  Al4  1  0.000102  0.000102  0.499856  1
  Fe  Fe5  1  0.655556  0.144670  0.662940  1
  Fe  Fe6  1  0.144670  0.655556  0.662940  1
  Fe  Fe7  1  0.343802  0.856305  0.336533  1
  Fe  Fe8  1  0.856305  0.343802  0.336533  1
  Fe  Fe9  1  0.095927  0.095927  0.092744  1
  Fe  Fe10  1  0.904700  0.904700  0.907681  1
  Fe  Fe11  1  0.000239  0.499654  0.000184  1
  Fe  Fe12  1  0.499654  0.000239  0.000184  1
  Fe  Fe13  1  0.717218  0.282212  0.000665  1
  Fe  Fe14  1  0.288357  0.996207  0.716462  1
  Fe  Fe15  1  0.005459  0.710631  0.283270  1
  Fe  Fe16  1  0.710631  0.005459  0.283270  1
  Fe  Fe17  1  0.996207  0.288357  0.716462  1
  Fe  Fe18  1  0.282212  0.717218  0.000665  1
  C  C19  1  0.498377  0.003269  0.498854  1
  C  C20  1  0.003269  0.498377  0.498854  1
