# generated using pymatgen
data_Ce(ThH5)3
_symmetry_space_group_name_H-M   'P 1'
_cell_length_a   7.90011695
_cell_length_b   7.90159974
_cell_length_c   7.90324916
_cell_angle_alpha   109.46994463
_cell_angle_beta   109.46234723
_cell_angle_gamma   109.46911151
_symmetry_Int_Tables_number   1
_chemical_formula_structural   Ce(ThH5)3
_chemical_formula_sum   'Ce2 Th6 H30'
_cell_volume   379.83765333
_cell_formula_units_Z   2
loop_
 _symmetry_equiv_pos_site_id
 _symmetry_equiv_pos_as_xyz
  1  'x, y, z'
loop_
 _atom_site_type_symbol
 _atom_site_label
 _atom_site_symmetry_multiplicity
 _atom_site_fract_x
 _atom_site_fract_y
 _atom_site_fract_z
 _atom_site_occupancy
  Ce  Ce0  1  0.917739  0.917642  0.918090  1
  Ce  Ce1  1  0.499648  0.999551  0.081910  1
  Th  Th2  1  0.997826  0.082452  0.498469  1
  Th  Th3  1  0.084047  0.501239  0.999701  1
  Th  Th4  1  0.999357  0.583983  0.501531  1
  Th  Th5  1  0.584346  0.501538  0.000299  1
  Th  Th6  1  0.501250  0.999690  0.584419  1
  Th  Th7  1  0.416831  0.415270  0.415581  1
  H  H8  1  0.655671  0.968824  0.377263  1
  H  H9  1  0.218096  0.314992  0.845249  1
  H  H10  1  0.185106  0.403574  0.532078  1
  H  H11  1  0.100330  0.288157  0.131837  1
  H  H12  1  0.284801  0.133290  0.101230  1
  H  H13  1  0.131543  0.100017  0.287345  1
  H  H14  1  0.468493  0.156320  0.868163  1
  H  H15  1  0.719089  0.347625  0.815706  1
  H  H16  1  0.627558  0.381978  0.253184  1
  H  H17  1  0.249225  0.625177  0.374074  1
  H  H18  1  0.752185  0.872119  0.130622  1
  H  H19  1  0.121563  0.741498  0.869378  1
  H  H20  1  0.375152  0.251103  0.625926  1
  H  H21  1  0.874374  0.128794  0.746816  1
  H  H22  1  0.778408  0.591562  0.622737  1
  H  H23  1  0.313656  0.843516  0.221531  1
  H  H24  1  0.370834  0.649099  0.968404  1
  H  H25  1  0.969144  0.372131  0.653442  1
  H  H26  1  0.532222  0.186910  0.408876  1
  H  H27  1  0.403383  0.531919  0.184294  1
  H  H28  1  0.850248  0.222139  0.319619  1
  H  H29  1  0.902430  0.680695  0.031596  1
  H  H30  1  0.815702  0.718688  0.346558  1
  H  H31  1  0.153028  0.871495  0.467922  1
  H  H32  1  0.683571  0.032060  0.898770  1
  H  H33  1  0.344198  0.812673  0.712655  1
  H  H34  1  0.872847  0.469743  0.154751  1
  H  H35  1  0.623345  0.778034  0.591124  1
  H  H36  1  0.592125  0.621985  0.778469  1
  H  H37  1  0.030629  0.902520  0.680381  1
