# generated using pymatgen
data_CsAu(BrO3)4
_symmetry_space_group_name_H-M   'P 1'
_cell_length_a   5.93646300
_cell_length_b   7.84105448
_cell_length_c   8.87922134
_cell_angle_alpha   109.92731822
_cell_angle_beta   90.00000000
_cell_angle_gamma   112.24390173
_symmetry_Int_Tables_number   1
_chemical_formula_structural   CsAu(BrO3)4
_chemical_formula_sum   'Cs1 Au1 Br4 O12'
_cell_volume   355.67248328
_cell_formula_units_Z   1
loop_
 _symmetry_equiv_pos_site_id
 _symmetry_equiv_pos_as_xyz
  1  'x, y, z'
loop_
 _atom_site_type_symbol
 _atom_site_label
 _atom_site_symmetry_multiplicity
 _atom_site_fract_x
 _atom_site_fract_y
 _atom_site_fract_z
 _atom_site_occupancy
  Cs  Cs0  1  0.051579  0.000000  0.000000  1
  Au  Au1  1  0.245277  0.000000  0.500000  1
  Br  Br2  1  0.255107  0.634491  0.166731  1
  Br  Br3  1  0.620615  0.365509  0.833269  1
  Br  Br4  1  0.663376  0.279758  0.359101  1
  Br  Br5  1  0.383618  0.720242  0.640899  1
  O  O6  1  0.115848  0.807228  0.269740  1
  O  O7  1  0.308620  0.192772  0.730260  1
  O  O8  1  0.094278  0.431590  0.201831  1
  O  O9  1  0.662687  0.568409  0.798169  1
  O  O10  1  0.154096  0.599677  0.980294  1
  O  O11  1  0.554420  0.400323  0.019706  1
  O  O12  1  0.628395  0.075848  0.203582  1
  O  O13  1  0.552549  0.924152  0.796418  1
  O  O14  1  0.827558  0.288439  0.514183  1
  O  O15  1  0.539119  0.711561  0.485817  1
  O  O16  1  0.356078  0.225517  0.415399  1
  O  O17  1  0.130561  0.774483  0.584601  1
