# generated using pymatgen
data_Pr6LuFeBr12
_symmetry_space_group_name_H-M   'P 1'
_cell_length_a   9.52083779
_cell_length_b   9.52083775
_cell_length_c   9.52083755
_cell_angle_alpha   107.08101786
_cell_angle_beta   107.08102923
_cell_angle_gamma   107.08101946
_symmetry_Int_Tables_number   1
_chemical_formula_structural   Pr6LuFeBr12
_chemical_formula_sum   'Pr6 Lu1 Fe1 Br12'
_cell_volume   717.14448769
_cell_formula_units_Z   1
loop_
 _symmetry_equiv_pos_site_id
 _symmetry_equiv_pos_as_xyz
  1  'x, y, z'
loop_
 _atom_site_type_symbol
 _atom_site_label
 _atom_site_symmetry_multiplicity
 _atom_site_fract_x
 _atom_site_fract_y
 _atom_site_fract_z
 _atom_site_occupancy
  Pr  Pr0  1  0.691265  0.976538  0.900211  1
  Pr  Pr1  1  0.976538  0.900211  0.691265  1
  Pr  Pr2  1  0.099789  0.308735  0.023462  1
  Pr  Pr3  1  0.308735  0.023462  0.099789  1
  Pr  Pr4  1  0.900211  0.691265  0.976538  1
  Pr  Pr5  1  0.023462  0.099789  0.308735  1
  Lu  Lu6  1  0.500000  0.500000  0.500000  1
  Fe  Fe7  1  0.000000  0.000000  0.000000  1
  Br  Br8  1  0.071824  0.225986  0.683008  1
  Br  Br9  1  0.394071  0.184330  0.468257  1
  Br  Br10  1  0.605929  0.815670  0.531743  1
  Br  Br11  1  0.225986  0.683008  0.071824  1
  Br  Br12  1  0.774014  0.316992  0.928176  1
  Br  Br13  1  0.683008  0.071824  0.225986  1
  Br  Br14  1  0.531743  0.605929  0.815670  1
  Br  Br15  1  0.815670  0.531743  0.605929  1
  Br  Br16  1  0.928176  0.774014  0.316992  1
  Br  Br17  1  0.316992  0.928176  0.774014  1
  Br  Br18  1  0.468257  0.394071  0.184330  1
  Br  Br19  1  0.184330  0.468257  0.394071  1
