# generated using pymatgen
data_ErTmCuSi3
_symmetry_space_group_name_H-M   'P 1'
_cell_length_a   7.95615325
_cell_length_b   7.96609839
_cell_length_c   5.63434946
_cell_angle_alpha   69.40773448
_cell_angle_beta   69.37064500
_cell_angle_gamma   41.44789811
_symmetry_Int_Tables_number   1
_chemical_formula_structural   ErTmCuSi3
_chemical_formula_sum   'Er2 Tm2 Cu2 Si6'
_cell_volume   218.99848776
_cell_formula_units_Z   2
loop_
 _symmetry_equiv_pos_site_id
 _symmetry_equiv_pos_as_xyz
  1  'x, y, z'
loop_
 _atom_site_type_symbol
 _atom_site_label
 _atom_site_symmetry_multiplicity
 _atom_site_fract_x
 _atom_site_fract_y
 _atom_site_fract_z
 _atom_site_occupancy
  Er  Er0  1  0.750117  0.749883  0.749882  1
  Er  Er1  1  0.243524  0.756476  0.756476  1
  Tm  Tm2  1  0.756402  0.243598  0.243597  1
  Tm  Tm3  1  0.249873  0.250128  0.250127  1
  Cu  Cu4  1  0.666791  0.666650  0.333231  1
  Cu  Cu5  1  0.333328  0.333231  0.666649  1
  Si  Si6  1  0.831626  0.831399  0.168664  1
  Si  Si7  1  0.339915  0.828777  0.171282  1
  Si  Si8  1  0.171238  0.659980  0.339938  1
  Si  Si9  1  0.828844  0.339939  0.659979  1
  Si  Si10  1  0.660025  0.171282  0.828776  1
  Si  Si11  1  0.168310  0.168665  0.831399  1
