# generated using pymatgen
data_ErSc7(Ga3Pt)4
_symmetry_space_group_name_H-M   'P 1'
_cell_length_a   8.65791500
_cell_length_b   8.65901804
_cell_length_c   6.72569000
_cell_angle_alpha   90.00000000
_cell_angle_beta   90.00000000
_cell_angle_gamma   120.01228657
_symmetry_Int_Tables_number   1
_chemical_formula_structural   ErSc7(Ga3Pt)4
_chemical_formula_sum   'Er1 Sc7 Ga12 Pt4'
_cell_volume   436.61198985
_cell_formula_units_Z   1
loop_
 _symmetry_equiv_pos_site_id
 _symmetry_equiv_pos_as_xyz
  1  'x, y, z'
loop_
 _atom_site_type_symbol
 _atom_site_label
 _atom_site_symmetry_multiplicity
 _atom_site_fract_x
 _atom_site_fract_y
 _atom_site_fract_z
 _atom_site_occupancy
  Er  Er0  1  0.040058  0.520000  0.750000  1
  Sc  Sc1  1  0.000014  0.999862  0.250000  1
  Sc  Sc2  1  0.999844  0.000073  0.750000  1
  Sc  Sc3  1  0.520574  0.040809  0.250000  1
  Sc  Sc4  1  0.520516  0.479928  0.250000  1
  Sc  Sc5  1  0.957688  0.478891  0.250000  1
  Sc  Sc6  1  0.480200  0.959867  0.750000  1
  Sc  Sc7  1  0.480243  0.520156  0.750000  1
  Ga  Ga8  1  0.166570  0.331097  0.049548  1
  Ga  Ga9  1  0.166729  0.835413  0.450462  1
  Ga  Ga10  1  0.669120  0.834591  0.452548  1
  Ga  Ga11  1  0.669120  0.834591  0.047452  1
  Ga  Ga12  1  0.166729  0.835413  0.049538  1
  Ga  Ga13  1  0.832760  0.669575  0.954935  1
  Ga  Ga14  1  0.832606  0.163244  0.954960  1
  Ga  Ga15  1  0.331228  0.165579  0.952156  1
  Ga  Ga16  1  0.166570  0.331097  0.450452  1
  Ga  Ga17  1  0.331228  0.165579  0.547844  1
  Ga  Ga18  1  0.832760  0.669575  0.545065  1
  Ga  Ga19  1  0.832606  0.163244  0.545040  1
  Pt  Pt20  1  0.335689  0.667748  0.028887  1
  Pt  Pt21  1  0.335689  0.667748  0.471113  1
  Pt  Pt22  1  0.665730  0.332960  0.976723  1
  Pt  Pt23  1  0.665730  0.332960  0.523277  1
