# generated using pymatgen
data_Ca2La2MgRu
_symmetry_space_group_name_H-M   'P 1'
_cell_length_a   10.14541034
_cell_length_b   10.14561392
_cell_length_c   10.23635700
_cell_angle_alpha   59.70552930
_cell_angle_beta   59.70442554
_cell_angle_gamma   60.33720329
_symmetry_Int_Tables_number   1
_chemical_formula_structural   Ca2La2MgRu
_chemical_formula_sum   'Ca8 La8 Mg4 Ru4'
_cell_volume   743.55273097
_cell_formula_units_Z   4
loop_
 _symmetry_equiv_pos_site_id
 _symmetry_equiv_pos_as_xyz
  1  'x, y, z'
loop_
 _atom_site_type_symbol
 _atom_site_label
 _atom_site_symmetry_multiplicity
 _atom_site_fract_x
 _atom_site_fract_y
 _atom_site_fract_z
 _atom_site_occupancy
  Ca  Ca0  1  0.193446  0.193494  0.807112  1
  Ca  Ca1  1  0.805925  0.805909  0.193448  1
  Ca  Ca2  1  0.941769  0.558488  0.558959  1
  Ca  Ca3  1  0.558491  0.941263  0.940762  1
  Ca  Ca4  1  0.558447  0.941813  0.558914  1
  Ca  Ca5  1  0.941211  0.558523  0.940729  1
  Ca  Ca6  1  0.556501  0.556457  0.944024  1
  Ca  Ca7  1  0.944105  0.944108  0.555932  1
  La  La8  1  0.343859  0.343896  0.341663  1
  La  La9  1  0.342778  0.342813  0.972586  1
  La  La10  1  0.340757  0.972355  0.342724  1
  La  La11  1  0.972437  0.340744  0.342696  1
  La  La12  1  0.813146  0.187683  0.186726  1
  La  La13  1  0.187536  0.812529  0.813109  1
  La  La14  1  0.187678  0.813114  0.186758  1
  La  La15  1  0.812547  0.187564  0.813094  1
  Mg  Mg16  1  0.576166  0.576201  0.579104  1
  Mg  Mg17  1  0.576337  0.576377  0.267700  1
  Mg  Mg18  1  0.579459  0.267854  0.575927  1
  Mg  Mg19  1  0.267765  0.579408  0.576074  1
  Ru  Ru20  1  0.124534  0.124442  0.158555  1
  Ru  Ru21  1  0.124851  0.124756  0.592184  1
  Ru  Ru22  1  0.156920  0.593314  0.125613  1
  Ru  Ru23  1  0.593335  0.156895  0.125606  1
