# generated using pymatgen
data_Nd3P6Ru8Rh
_symmetry_space_group_name_H-M   'P 1'
_cell_length_a   4.03260200
_cell_length_b   11.32474800
_cell_length_c   12.68250400
_cell_angle_alpha   90.00000000
_cell_angle_beta   90.00000000
_cell_angle_gamma   90.00000000
_symmetry_Int_Tables_number   1
_chemical_formula_structural   Nd3P6Ru8Rh
_chemical_formula_sum   'Nd6 P12 Ru16 Rh2'
_cell_volume   579.18714736
_cell_formula_units_Z   2
loop_
 _symmetry_equiv_pos_site_id
 _symmetry_equiv_pos_as_xyz
  1  'x, y, z'
loop_
 _atom_site_type_symbol
 _atom_site_label
 _atom_site_symmetry_multiplicity
 _atom_site_fract_x
 _atom_site_fract_y
 _atom_site_fract_z
 _atom_site_occupancy
  Nd  Nd0  1  0.000000  0.500000  0.524600  1
  Nd  Nd1  1  0.500000  0.000000  0.475400  1
  Nd  Nd2  1  0.500000  0.818629  0.205058  1
  Nd  Nd3  1  0.500000  0.181371  0.205058  1
  Nd  Nd4  1  0.000000  0.681371  0.794942  1
  Nd  Nd5  1  0.000000  0.318629  0.794942  1
  P  P6  1  0.500000  0.500000  0.887772  1
  P  P7  1  0.000000  0.000000  0.112228  1
  P  P8  1  0.500000  0.500000  0.337106  1
  P  P9  1  0.000000  0.000000  0.662894  1
  P  P10  1  0.500000  0.296740  0.615281  1
  P  P11  1  0.500000  0.703260  0.615281  1
  P  P12  1  0.000000  0.203260  0.384719  1
  P  P13  1  0.000000  0.796740  0.384719  1
  P  P14  1  0.500000  0.845252  0.897129  1
  P  P15  1  0.500000  0.154748  0.897129  1
  P  P16  1  0.000000  0.654748  0.102871  1
  P  P17  1  0.000000  0.345252  0.102871  1
  Ru  Ru18  1  0.500000  0.500000  0.156144  1
  Ru  Ru19  1  0.000000  0.000000  0.843856  1
  Ru  Ru20  1  0.000000  0.500000  0.988703  1
  Ru  Ru21  1  0.500000  0.000000  0.011297  1
  Ru  Ru22  1  0.500000  0.331404  0.992863  1
  Ru  Ru23  1  0.500000  0.668596  0.992863  1
  Ru  Ru24  1  0.000000  0.168596  0.007137  1
  Ru  Ru25  1  0.000000  0.831404  0.007137  1
  Ru  Ru26  1  0.500000  0.301478  0.429634  1
  Ru  Ru27  1  0.500000  0.698522  0.429634  1
  Ru  Ru28  1  0.000000  0.198522  0.570366  1
  Ru  Ru29  1  0.000000  0.801478  0.570366  1
  Ru  Ru30  1  0.500000  0.879331  0.715267  1
  Ru  Ru31  1  0.500000  0.120669  0.715267  1
  Ru  Ru32  1  0.000000  0.620669  0.284733  1
  Ru  Ru33  1  0.000000  0.379331  0.284733  1
  Rh  Rh34  1  0.500000  0.500000  0.694473  1
  Rh  Rh35  1  0.000000  0.000000  0.305527  1
