# generated using pymatgen
data_Nd2Zn2RuPt
_symmetry_space_group_name_H-M   'P 1'
_cell_length_a   4.04054400
_cell_length_b   7.38667885
_cell_length_c   16.68327108
_cell_angle_alpha   90.01693260
_cell_angle_beta   90.00000000
_cell_angle_gamma   90.00000000
_symmetry_Int_Tables_number   1
_chemical_formula_structural   Nd2Zn2RuPt
_chemical_formula_sum   'Nd8 Zn8 Ru4 Pt4'
_cell_volume   497.93223878
_cell_formula_units_Z   4
loop_
 _symmetry_equiv_pos_site_id
 _symmetry_equiv_pos_as_xyz
  1  'x, y, z'
loop_
 _atom_site_type_symbol
 _atom_site_label
 _atom_site_symmetry_multiplicity
 _atom_site_fract_x
 _atom_site_fract_y
 _atom_site_fract_z
 _atom_site_occupancy
  Nd  Nd0  1  0.250000  0.165819  0.944100  1
  Nd  Nd1  1  0.250000  0.663613  0.560533  1
  Nd  Nd2  1  0.750000  0.328469  0.442493  1
  Nd  Nd3  1  0.750000  0.946416  0.277773  1
  Nd  Nd4  1  0.750000  0.831518  0.061022  1
  Nd  Nd5  1  0.750000  0.457116  0.212162  1
  Nd  Nd6  1  0.250000  0.054316  0.713725  1
  Nd  Nd7  1  0.250000  0.551406  0.787938  1
  Zn  Zn8  1  0.750000  0.005331  0.560586  1
  Zn  Zn9  1  0.250000  0.624339  0.344730  1
  Zn  Zn10  1  0.750000  0.376500  0.649565  1
  Zn  Zn11  1  0.250000  0.500561  0.058802  1
  Zn  Zn12  1  0.750000  0.503034  0.943793  1
  Zn  Zn13  1  0.250000  0.000639  0.441442  1
  Zn  Zn14  1  0.250000  0.120761  0.147830  1
  Zn  Zn15  1  0.750000  0.875343  0.852198  1
  Ru  Ru16  1  0.250000  0.243774  0.565632  1
  Ru  Ru17  1  0.250000  0.747384  0.188829  1
  Ru  Ru18  1  0.750000  0.259004  0.066583  1
  Ru  Ru19  1  0.250000  0.740848  0.933014  1
  Pt  Pt20  1  0.750000  0.752330  0.434386  1
  Pt  Pt21  1  0.250000  0.243527  0.312952  1
  Pt  Pt22  1  0.750000  0.252356  0.813341  1
  Pt  Pt23  1  0.750000  0.755595  0.686569  1
