# generated using pymatgen
data_Sr2Li2Cd5
_symmetry_space_group_name_H-M   'P 1'
_cell_length_a   14.76125888
_cell_length_b   14.76125902
_cell_length_c   14.76126010
_cell_angle_alpha   24.02682606
_cell_angle_beta   24.02682299
_cell_angle_gamma   24.02682696
_symmetry_Int_Tables_number   1
_chemical_formula_structural   Sr2Li2Cd5
_chemical_formula_sum   'Sr4 Li4 Cd10'
_cell_volume   468.54867850
_cell_formula_units_Z   2
loop_
 _symmetry_equiv_pos_site_id
 _symmetry_equiv_pos_as_xyz
  1  'x, y, z'
loop_
 _atom_site_type_symbol
 _atom_site_label
 _atom_site_symmetry_multiplicity
 _atom_site_fract_x
 _atom_site_fract_y
 _atom_site_fract_z
 _atom_site_occupancy
  Sr  Sr0  1  0.949415  0.949415  0.949415  1
  Sr  Sr1  1  0.050585  0.050585  0.050585  1
  Sr  Sr2  1  0.851601  0.851601  0.851601  1
  Sr  Sr3  1  0.148399  0.148399  0.148399  1
  Li  Li4  1  0.720205  0.720205  0.720205  1
  Li  Li5  1  0.279795  0.279795  0.279795  1
  Li  Li6  1  0.612468  0.612468  0.612468  1
  Li  Li7  1  0.387532  0.387532  0.387532  1
  Cd  Cd8  1  0.500000  0.500000  0.500000  1
  Cd  Cd9  1  0.500000  0.500000  0.000000  1
  Cd  Cd10  1  0.000000  0.500000  0.500000  1
  Cd  Cd11  1  0.500000  0.000000  0.500000  1
  Cd  Cd12  1  0.391331  0.895788  0.391331  1
  Cd  Cd13  1  0.391331  0.391331  0.895788  1
  Cd  Cd14  1  0.895788  0.391331  0.391331  1
  Cd  Cd15  1  0.608669  0.104212  0.608669  1
  Cd  Cd16  1  0.608669  0.608669  0.104212  1
  Cd  Cd17  1  0.104212  0.608669  0.608669  1
