# generated using pymatgen
data_Dy16TcNi3Ag4
_symmetry_space_group_name_H-M   'P 1'
_cell_length_a   9.49907365
_cell_length_b   9.49907320
_cell_length_c   9.49907359
_cell_angle_alpha   59.48387780
_cell_angle_beta   59.48387815
_cell_angle_gamma   59.48386938
_symmetry_Int_Tables_number   1
_chemical_formula_structural   Dy16TcNi3Ag4
_chemical_formula_sum   'Dy16 Tc1 Ni3 Ag4'
_cell_volume   598.96343038
_cell_formula_units_Z   1
loop_
 _symmetry_equiv_pos_site_id
 _symmetry_equiv_pos_as_xyz
  1  'x, y, z'
loop_
 _atom_site_type_symbol
 _atom_site_label
 _atom_site_symmetry_multiplicity
 _atom_site_fract_x
 _atom_site_fract_y
 _atom_site_fract_z
 _atom_site_occupancy
  Dy  Dy0  1  0.598706  0.598706  0.598706  1
  Dy  Dy1  1  0.603270  0.603270  0.200578  1
  Dy  Dy2  1  0.603270  0.200578  0.603270  1
  Dy  Dy3  1  0.200578  0.603270  0.603270  1
  Dy  Dy4  1  0.060908  0.437322  0.437322  1
  Dy  Dy5  1  0.437638  0.060071  0.060071  1
  Dy  Dy6  1  0.437322  0.060908  0.437322  1
  Dy  Dy7  1  0.060071  0.437638  0.060071  1
  Dy  Dy8  1  0.437322  0.437322  0.060908  1
  Dy  Dy9  1  0.060071  0.060071  0.437638  1
  Dy  Dy10  1  0.184156  0.814126  0.814126  1
  Dy  Dy11  1  0.806248  0.188587  0.188587  1
  Dy  Dy12  1  0.814126  0.184156  0.814126  1
  Dy  Dy13  1  0.188587  0.806248  0.188587  1
  Dy  Dy14  1  0.814126  0.814126  0.184156  1
  Dy  Dy15  1  0.188587  0.188587  0.806248  1
  Tc  Tc16  1  0.393481  0.393481  0.393481  1
  Ni  Ni17  1  0.393423  0.393423  0.823611  1
  Ni  Ni18  1  0.393423  0.823611  0.393423  1
  Ni  Ni19  1  0.823611  0.393423  0.393423  1
  Ag  Ag20  1  0.832831  0.832831  0.832831  1
  Ag  Ag21  1  0.830753  0.830753  0.506741  1
  Ag  Ag22  1  0.830753  0.506741  0.830753  1
  Ag  Ag23  1  0.506741  0.830753  0.830753  1
