# generated using pymatgen
data_Nd3Re(Ni4P3)2
_symmetry_space_group_name_H-M   'P 1'
_cell_length_a   3.85280400
_cell_length_b   10.66603700
_cell_length_c   12.55930400
_cell_angle_alpha   90.00000000
_cell_angle_beta   90.00000000
_cell_angle_gamma   90.00000000
_symmetry_Int_Tables_number   1
_chemical_formula_structural   Nd3Re(Ni4P3)2
_chemical_formula_sum   'Nd6 Re2 Ni16 P12'
_cell_volume   516.11392269
_cell_formula_units_Z   2
loop_
 _symmetry_equiv_pos_site_id
 _symmetry_equiv_pos_as_xyz
  1  'x, y, z'
loop_
 _atom_site_type_symbol
 _atom_site_label
 _atom_site_symmetry_multiplicity
 _atom_site_fract_x
 _atom_site_fract_y
 _atom_site_fract_z
 _atom_site_occupancy
  Nd  Nd0  1  0.000000  0.500000  0.520229  1
  Nd  Nd1  1  0.500000  0.000000  0.479771  1
  Nd  Nd2  1  0.500000  0.813838  0.207247  1
  Nd  Nd3  1  0.500000  0.186162  0.207247  1
  Nd  Nd4  1  0.000000  0.686162  0.792753  1
  Nd  Nd5  1  0.000000  0.313838  0.792753  1
  Re  Re6  1  0.500000  0.500000  0.150402  1
  Re  Re7  1  0.000000  0.000000  0.849598  1
  Ni  Ni8  1  0.500000  0.500000  0.700102  1
  Ni  Ni9  1  0.000000  0.000000  0.299898  1
  Ni  Ni10  1  0.000000  0.500000  0.982465  1
  Ni  Ni11  1  0.500000  0.000000  0.017535  1
  Ni  Ni12  1  0.500000  0.331308  0.987053  1
  Ni  Ni13  1  0.500000  0.668692  0.987053  1
  Ni  Ni14  1  0.000000  0.168692  0.012947  1
  Ni  Ni15  1  0.000000  0.831308  0.012947  1
  Ni  Ni16  1  0.500000  0.303401  0.425467  1
  Ni  Ni17  1  0.500000  0.696599  0.425467  1
  Ni  Ni18  1  0.000000  0.196599  0.574533  1
  Ni  Ni19  1  0.000000  0.803401  0.574533  1
  Ni  Ni20  1  0.500000  0.883236  0.713184  1
  Ni  Ni21  1  0.500000  0.116764  0.713184  1
  Ni  Ni22  1  0.000000  0.616764  0.286816  1
  Ni  Ni23  1  0.000000  0.383236  0.286816  1
  P  P24  1  0.500000  0.500000  0.878889  1
  P  P25  1  0.000000  0.000000  0.121111  1
  P  P26  1  0.500000  0.500000  0.340893  1
  P  P27  1  0.000000  0.000000  0.659107  1
  P  P28  1  0.500000  0.309719  0.611848  1
  P  P29  1  0.500000  0.690281  0.611848  1
  P  P30  1  0.000000  0.190281  0.388152  1
  P  P31  1  0.000000  0.809719  0.388152  1
  P  P32  1  0.500000  0.851387  0.895336  1
  P  P33  1  0.500000  0.148613  0.895336  1
  P  P34  1  0.000000  0.648613  0.104664  1
  P  P35  1  0.000000  0.351387  0.104664  1
