# generated using pymatgen
data_Nd2Zn(PRh2)6
_symmetry_space_group_name_H-M   'P 1'
_cell_length_a   9.72828600
_cell_length_b   9.72828630
_cell_length_c   3.90673700
_cell_angle_alpha   90.00000000
_cell_angle_beta   90.00000000
_cell_angle_gamma   120.00001259
_symmetry_Int_Tables_number   1
_chemical_formula_structural   Nd2Zn(PRh2)6
_chemical_formula_sum   'Nd2 Zn1 P6 Rh12'
_cell_volume   320.19712288
_cell_formula_units_Z   1
loop_
 _symmetry_equiv_pos_site_id
 _symmetry_equiv_pos_as_xyz
  1  'x, y, z'
loop_
 _atom_site_type_symbol
 _atom_site_label
 _atom_site_symmetry_multiplicity
 _atom_site_fract_x
 _atom_site_fract_y
 _atom_site_fract_z
 _atom_site_occupancy
  Nd  Nd0  1  0.333333  0.666667  0.753962  1
  Nd  Nd1  1  0.666667  0.333333  0.246038  1
  Zn  Zn2  1  0.000000  0.000000  0.500000  1
  P  P3  1  0.886540  0.601003  0.748463  1
  P  P4  1  0.398997  0.285537  0.748463  1
  P  P5  1  0.714463  0.113460  0.748463  1
  P  P6  1  0.113460  0.398997  0.251537  1
  P  P7  1  0.601003  0.714463  0.251537  1
  P  P8  1  0.285537  0.886540  0.251537  1
  Rh  Rh9  1  0.614334  0.551364  0.749215  1
  Rh  Rh10  1  0.448636  0.062971  0.749215  1
  Rh  Rh11  1  0.937029  0.385666  0.749215  1
  Rh  Rh12  1  0.385666  0.448636  0.250785  1
  Rh  Rh13  1  0.551364  0.937029  0.250785  1
  Rh  Rh14  1  0.062971  0.614334  0.250785  1
  Rh  Rh15  1  0.124709  0.842974  0.753539  1
  Rh  Rh16  1  0.157026  0.281735  0.753539  1
  Rh  Rh17  1  0.718265  0.875291  0.753539  1
  Rh  Rh18  1  0.875291  0.157026  0.246461  1
  Rh  Rh19  1  0.842974  0.718265  0.246461  1
  Rh  Rh20  1  0.281735  0.124709  0.246461  1
