# generated using pymatgen
data_Dy17Ho3(BiPb7)2
_symmetry_space_group_name_H-M   'P 1'
_cell_length_a   8.25628400
_cell_length_b   15.60393468
_cell_length_c   8.30760000
_cell_angle_alpha   90.17799322
_cell_angle_beta   90.00152205
_cell_angle_gamma   90.00303387
_symmetry_Int_Tables_number   1
_chemical_formula_structural   Dy17Ho3(BiPb7)2
_chemical_formula_sum   'Dy17 Ho3 Bi2 Pb14'
_cell_volume   1070.26723117
_cell_formula_units_Z   1
loop_
 _symmetry_equiv_pos_site_id
 _symmetry_equiv_pos_as_xyz
  1  'x, y, z'
loop_
 _atom_site_type_symbol
 _atom_site_label
 _atom_site_symmetry_multiplicity
 _atom_site_fract_x
 _atom_site_fract_y
 _atom_site_fract_z
 _atom_site_occupancy
  Dy  Dy0  1  0.619842  0.621586  0.160326  1
  Dy  Dy1  1  0.119965  0.878424  0.339566  1
  Dy  Dy2  1  0.379023  0.121614  0.844185  1
  Dy  Dy3  1  0.879016  0.378369  0.655814  1
  Dy  Dy4  1  0.375274  0.378695  0.840994  1
  Dy  Dy5  1  0.875263  0.121311  0.659003  1
  Dy  Dy6  1  0.622205  0.878738  0.158111  1
  Dy  Dy7  1  0.122336  0.621259  0.341782  1
  Dy  Dy8  1  0.455450  0.603542  0.668947  1
  Dy  Dy9  1  0.955533  0.896462  0.831146  1
  Dy  Dy10  1  0.545399  0.103242  0.324550  1
  Dy  Dy11  1  0.045404  0.396760  0.175448  1
  Dy  Dy12  1  0.540070  0.397908  0.330604  1
  Dy  Dy13  1  0.040073  0.102069  0.169398  1
  Dy  Dy14  1  0.463012  0.897210  0.676750  1
  Dy  Dy15  1  0.963103  0.602799  0.823346  1
  Dy  Dy16  1  0.790678  0.750450  0.498197  1
  Ho  Ho17  1  0.290642  0.749553  0.001881  1
  Ho  Ho18  1  0.209382  0.251672  0.501905  1
  Ho  Ho19  1  0.709368  0.248346  0.998093  1
  Bi  Bi20  1  0.723253  0.455286  0.971648  1
  Bi  Bi21  1  0.223248  0.044716  0.528349  1
  Pb  Pb22  1  0.278304  0.956495  0.030335  1
  Pb  Pb23  1  0.778314  0.543380  0.469597  1
  Pb  Pb24  1  0.278208  0.543240  0.030932  1
  Pb  Pb25  1  0.778202  0.956878  0.469016  1
  Pb  Pb26  1  0.719604  0.043309  0.968347  1
  Pb  Pb27  1  0.219606  0.456696  0.531659  1
  Pb  Pb28  1  0.427010  0.751645  0.372149  1
  Pb  Pb29  1  0.927357  0.748360  0.127522  1
  Pb  Pb30  1  0.571505  0.249995  0.628280  1
  Pb  Pb31  1  0.071544  0.249994  0.871732  1
  Pb  Pb32  1  0.648520  0.748566  0.847046  1
  Pb  Pb33  1  0.148864  0.751439  0.653373  1
  Pb  Pb34  1  0.352700  0.250347  0.154407  1
  Pb  Pb35  1  0.852722  0.249648  0.345564  1
