# generated using pymatgen
data_Ba4Sb3AsF20
_symmetry_space_group_name_H-M   'P 1'
_cell_length_a   4.79730998
_cell_length_b   9.50160784
_cell_length_c   11.40399400
_cell_angle_alpha   90.00000000
_cell_angle_beta   90.00000000
_cell_angle_gamma   90.18087450
_symmetry_Int_Tables_number   1
_chemical_formula_structural   Ba4Sb3AsF20
_chemical_formula_sum   'Ba4 Sb3 As1 F20'
_cell_volume   519.81606686
_cell_formula_units_Z   1
loop_
 _symmetry_equiv_pos_site_id
 _symmetry_equiv_pos_as_xyz
  1  'x, y, z'
loop_
 _atom_site_type_symbol
 _atom_site_label
 _atom_site_symmetry_multiplicity
 _atom_site_fract_x
 _atom_site_fract_y
 _atom_site_fract_z
 _atom_site_occupancy
  Ba  Ba0  1  0.013036  0.247920  0.502387  1
  Ba  Ba1  1  0.986532  0.751400  0.999230  1
  Ba  Ba2  1  0.986532  0.751400  0.500770  1
  Ba  Ba3  1  0.013036  0.247920  0.997613  1
  Sb  Sb4  1  0.607889  0.555532  0.250000  1
  Sb  Sb5  1  0.394499  0.445039  0.750000  1
  Sb  Sb6  1  0.392405  0.056162  0.250000  1
  As  As7  1  0.629652  0.932992  0.750000  1
  F  F8  1  0.111605  0.988035  0.384281  1
  F  F9  1  0.113478  0.513189  0.617032  1
  F  F10  1  0.886134  0.487522  0.116664  1
  F  F11  1  0.876353  0.010084  0.877614  1
  F  F12  1  0.876353  0.010084  0.622386  1
  F  F13  1  0.886134  0.487522  0.383336  1
  F  F14  1  0.113478  0.513189  0.882968  1
  F  F15  1  0.111605  0.988035  0.115719  1
  F  F16  1  0.102230  0.207651  0.250000  1
  F  F17  1  0.102433  0.292348  0.750000  1
  F  F18  1  0.897732  0.708648  0.250000  1
  F  F19  1  0.893604  0.792932  0.750000  1
  F  F20  1  0.469450  0.692463  0.113609  1
  F  F21  1  0.471182  0.812434  0.878953  1
  F  F22  1  0.531639  0.192215  0.384942  1
  F  F23  1  0.530369  0.309086  0.614461  1
  F  F24  1  0.530369  0.309086  0.885539  1
  F  F25  1  0.531639  0.192215  0.115058  1
  F  F26  1  0.471182  0.812434  0.621047  1
  F  F27  1  0.469450  0.692463  0.386391  1
