# generated using pymatgen
data_Dy2Mg2InPb3
_symmetry_space_group_name_H-M   'P 1'
_cell_length_a   4.78794400
_cell_length_b   4.83971500
_cell_length_c   9.03841700
_cell_angle_alpha   90.00000000
_cell_angle_beta   90.00000000
_cell_angle_gamma   90.00000000
_symmetry_Int_Tables_number   1
_chemical_formula_structural   Dy2Mg2InPb3
_chemical_formula_sum   'Dy2 Mg2 In1 Pb3'
_cell_volume   209.44076921
_cell_formula_units_Z   1
loop_
 _symmetry_equiv_pos_site_id
 _symmetry_equiv_pos_as_xyz
  1  'x, y, z'
loop_
 _atom_site_type_symbol
 _atom_site_label
 _atom_site_symmetry_multiplicity
 _atom_site_fract_x
 _atom_site_fract_y
 _atom_site_fract_z
 _atom_site_occupancy
  Dy  Dy0  1  0.000000  0.000000  0.249919  1
  Dy  Dy1  1  0.000000  0.000000  0.750081  1
  Mg  Mg2  1  0.500000  0.500000  0.254238  1
  Mg  Mg3  1  0.500000  0.500000  0.745762  1
  In  In4  1  0.000000  0.500000  0.500000  1
  Pb  Pb5  1  0.000000  0.500000  0.000000  1
  Pb  Pb6  1  0.500000  0.000000  0.500000  1
  Pb  Pb7  1  0.500000  0.000000  0.000000  1
