# generated using pymatgen
data_Ho5Bi2Ru
_symmetry_space_group_name_H-M   'P 1'
_cell_length_a   7.93878700
_cell_length_b   8.99336700
_cell_length_c   12.41686800
_cell_angle_alpha   90.00000000
_cell_angle_beta   90.00000000
_cell_angle_gamma   90.00000000
_symmetry_Int_Tables_number   1
_chemical_formula_structural   Ho5Bi2Ru
_chemical_formula_sum   'Ho20 Bi8 Ru4'
_cell_volume   886.51998522
_cell_formula_units_Z   4
loop_
 _symmetry_equiv_pos_site_id
 _symmetry_equiv_pos_as_xyz
  1  'x, y, z'
loop_
 _atom_site_type_symbol
 _atom_site_label
 _atom_site_symmetry_multiplicity
 _atom_site_fract_x
 _atom_site_fract_y
 _atom_site_fract_z
 _atom_site_occupancy
  Ho  Ho0  1  0.840050  0.750000  0.792672  1
  Ho  Ho1  1  0.159950  0.250000  0.207328  1
  Ho  Ho2  1  0.340050  0.250000  0.707328  1
  Ho  Ho3  1  0.659950  0.750000  0.292672  1
  Ho  Ho4  1  0.375469  0.750000  0.690087  1
  Ho  Ho5  1  0.624531  0.250000  0.309913  1
  Ho  Ho6  1  0.875469  0.250000  0.809913  1
  Ho  Ho7  1  0.124531  0.750000  0.190087  1
  Ho  Ho8  1  0.945667  0.750000  0.504375  1
  Ho  Ho9  1  0.054333  0.250000  0.495625  1
  Ho  Ho10  1  0.445667  0.250000  0.995625  1
  Ho  Ho11  1  0.554333  0.750000  0.004375  1
  Ho  Ho12  1  0.674419  0.041329  0.564774  1
  Ho  Ho13  1  0.325581  0.958671  0.435226  1
  Ho  Ho14  1  0.174419  0.958671  0.935226  1
  Ho  Ho15  1  0.325581  0.541329  0.435226  1
  Ho  Ho16  1  0.825581  0.041329  0.064774  1
  Ho  Ho17  1  0.674419  0.458671  0.564774  1
  Ho  Ho18  1  0.825581  0.458671  0.064774  1
  Ho  Ho19  1  0.174419  0.541329  0.935226  1
  Bi  Bi20  1  0.566993  0.493278  0.827378  1
  Bi  Bi21  1  0.433007  0.506722  0.172622  1
  Bi  Bi22  1  0.066993  0.506722  0.672622  1
  Bi  Bi23  1  0.433007  0.993278  0.172622  1
  Bi  Bi24  1  0.933007  0.493278  0.327378  1
  Bi  Bi25  1  0.566993  0.006722  0.827378  1
  Bi  Bi26  1  0.933007  0.006722  0.327378  1
  Bi  Bi27  1  0.066993  0.993278  0.672622  1
  Ru  Ru28  1  0.574094  0.750000  0.509912  1
  Ru  Ru29  1  0.425906  0.250000  0.490088  1
  Ru  Ru30  1  0.074094  0.250000  0.990088  1
  Ru  Ru31  1  0.925906  0.750000  0.009912  1
