# generated using pymatgen
data_SmU3O8
_symmetry_space_group_name_H-M   'P 1'
_cell_length_a   5.42314564
_cell_length_b   5.42314564
_cell_length_c   5.42314564
_cell_angle_alpha   89.90613344
_cell_angle_beta   89.90613344
_cell_angle_gamma   89.90613344
_symmetry_Int_Tables_number   1
_chemical_formula_structural   SmU3O8
_chemical_formula_sum   'Sm1 U3 O8'
_cell_volume   159.49682987
_cell_formula_units_Z   1
loop_
 _symmetry_equiv_pos_site_id
 _symmetry_equiv_pos_as_xyz
  1  'x, y, z'
loop_
 _atom_site_type_symbol
 _atom_site_label
 _atom_site_symmetry_multiplicity
 _atom_site_fract_x
 _atom_site_fract_y
 _atom_site_fract_z
 _atom_site_occupancy
  Sm  Sm0  1  0.000000  0.000000  0.000000  1
  U  U1  1  0.500001  0.500001  0.000000  1
  U  U2  1  0.500001  0.000000  0.500001  1
  U  U3  1  0.000000  0.500001  0.500001  1
  O  O4  1  0.253832  0.253832  0.253832  1
  O  O5  1  0.257816  0.743144  0.252356  1
  O  O6  1  0.743144  0.252356  0.257816  1
  O  O7  1  0.747645  0.742185  0.256857  1
  O  O8  1  0.252356  0.257816  0.743144  1
  O  O9  1  0.256857  0.747645  0.742185  1
  O  O10  1  0.742185  0.256857  0.747645  1
  O  O11  1  0.746169  0.746169  0.746169  1
