# generated using pymatgen
data_Er2Tm2LuPb3
_symmetry_space_group_name_H-M   'P 1'
_cell_length_a   6.51636700
_cell_length_b   8.96484499
_cell_length_c   8.96624934
_cell_angle_alpha   119.99481410
_cell_angle_beta   89.99974726
_cell_angle_gamma   90.00049840
_symmetry_Int_Tables_number   1
_chemical_formula_structural   Er2Tm2LuPb3
_chemical_formula_sum   'Er4 Tm4 Lu2 Pb6'
_cell_volume   453.64116415
_cell_formula_units_Z   2
loop_
 _symmetry_equiv_pos_site_id
 _symmetry_equiv_pos_as_xyz
  1  'x, y, z'
loop_
 _atom_site_type_symbol
 _atom_site_label
 _atom_site_symmetry_multiplicity
 _atom_site_fract_x
 _atom_site_fract_y
 _atom_site_fract_z
 _atom_site_occupancy
  Er  Er0  1  0.750165  0.236711  0.000000  1
  Er  Er1  1  0.750128  0.762954  0.762755  1
  Er  Er2  1  0.750128  0.000200  0.237245  1
  Er  Er3  1  0.249862  0.763186  0.000000  1
  Tm  Tm4  1  0.249864  0.236812  0.236788  1
  Tm  Tm5  1  0.249864  0.000023  0.763212  1
  Tm  Tm6  1  0.499885  0.333379  0.666738  1
  Tm  Tm7  1  0.499885  0.666641  0.333262  1
  Lu  Lu8  1  0.000132  0.666670  0.333257  1
  Lu  Lu9  1  0.000132  0.333413  0.666743  1
  Pb  Pb10  1  0.750585  0.604691  0.000000  1
  Pb  Pb11  1  0.750610  0.395400  0.395402  1
  Pb  Pb12  1  0.750610  0.000001  0.604598  1
  Pb  Pb13  1  0.249406  0.394321  0.000000  1
  Pb  Pb14  1  0.249373  0.605118  0.604639  1
  Pb  Pb15  1  0.249373  0.000478  0.395361  1
