# generated using pymatgen
data_Ba2Si3PIr4
_symmetry_space_group_name_H-M   'P 1'
_cell_length_a   6.80531679
_cell_length_b   7.73081376
_cell_length_c   7.92676854
_cell_angle_alpha   87.80971728
_cell_angle_beta   90.09865588
_cell_angle_gamma   89.66983793
_symmetry_Int_Tables_number   1
_chemical_formula_structural   Ba2Si3PIr4
_chemical_formula_sum   'Ba4 Si6 P2 Ir8'
_cell_volume   416.71995540
_cell_formula_units_Z   2
loop_
 _symmetry_equiv_pos_site_id
 _symmetry_equiv_pos_as_xyz
  1  'x, y, z'
loop_
 _atom_site_type_symbol
 _atom_site_label
 _atom_site_symmetry_multiplicity
 _atom_site_fract_x
 _atom_site_fract_y
 _atom_site_fract_z
 _atom_site_occupancy
  Ba  Ba0  1  0.376841  0.003031  0.239378  1
  Ba  Ba1  1  0.871534  0.497943  0.761770  1
  Ba  Ba2  1  0.124485  0.498788  0.234496  1
  Ba  Ba3  1  0.621960  0.997474  0.766090  1
  Si  Si4  1  0.645685  0.312528  0.436600  1
  Si  Si5  1  0.855113  0.811390  0.441128  1
  Si  Si6  1  0.921354  0.130545  0.071224  1
  Si  Si7  1  0.581400  0.634885  0.074820  1
  Si  Si8  1  0.083870  0.868657  0.928855  1
  Si  Si9  1  0.351724  0.688334  0.559889  1
  P  P10  1  0.418762  0.367180  0.926679  1
  P  P11  1  0.145525  0.190263  0.560822  1
  Ir  Ir12  1  0.389467  0.381767  0.623918  1
  Ir  Ir13  1  0.606800  0.615219  0.378711  1
  Ir  Ir14  1  0.111463  0.892386  0.623265  1
  Ir  Ir15  1  0.168346  0.172350  0.858590  1
  Ir  Ir16  1  0.661448  0.328567  0.133692  1
  Ir  Ir17  1  0.835608  0.832348  0.139563  1
  Ir  Ir18  1  0.330973  0.659670  0.861140  1
  Ir  Ir19  1  0.897642  0.116675  0.379366  1
