# generated using pymatgen
data_Tb2YbZn4Rh5
_symmetry_space_group_name_H-M   'P 1'
_cell_length_a   5.63563800
_cell_length_b   5.43909920
_cell_length_c   16.32663900
_cell_angle_alpha   90.00000000
_cell_angle_beta   90.00000000
_cell_angle_gamma   121.20270578
_symmetry_Int_Tables_number   1
_chemical_formula_structural   Tb2YbZn4Rh5
_chemical_formula_sum   'Tb4 Yb2 Zn8 Rh10'
_cell_volume   428.06087742
_cell_formula_units_Z   2
loop_
 _symmetry_equiv_pos_site_id
 _symmetry_equiv_pos_as_xyz
  1  'x, y, z'
loop_
 _atom_site_type_symbol
 _atom_site_label
 _atom_site_symmetry_multiplicity
 _atom_site_fract_x
 _atom_site_fract_y
 _atom_site_fract_z
 _atom_site_occupancy
  Tb  Tb0  1  0.331307  0.662614  0.539038  1
  Tb  Tb1  1  0.668693  0.337386  0.039038  1
  Tb  Tb2  1  0.661501  0.323001  0.453961  1
  Tb  Tb3  1  0.338499  0.676999  0.953961  1
  Yb  Yb4  1  0.331438  0.662878  0.752714  1
  Yb  Yb5  1  0.668562  0.337122  0.252714  1
  Zn  Zn6  1  0.168297  0.336593  0.125374  1
  Zn  Zn7  1  0.831703  0.663407  0.625374  1
  Zn  Zn8  1  0.995156  0.990312  0.251830  1
  Zn  Zn9  1  0.004844  0.009688  0.751830  1
  Zn  Zn10  1  0.340177  0.680356  0.251066  1
  Zn  Zn11  1  0.659823  0.319644  0.751066  1
  Zn  Zn12  1  0.998190  0.996381  0.999313  1
  Zn  Zn13  1  0.001810  0.003619  0.499313  1
  Rh  Rh14  1  0.661618  0.829378  0.123676  1
  Rh  Rh15  1  0.167761  0.829378  0.123676  1
  Rh  Rh16  1  0.832239  0.170622  0.623676  1
  Rh  Rh17  1  0.338382  0.170622  0.623676  1
  Rh  Rh18  1  0.831270  0.662541  0.875004  1
  Rh  Rh19  1  0.833624  0.171225  0.877175  1
  Rh  Rh20  1  0.337601  0.171225  0.877175  1
  Rh  Rh21  1  0.662399  0.828775  0.377175  1
  Rh  Rh22  1  0.166376  0.828775  0.377175  1
  Rh  Rh23  1  0.168730  0.337459  0.375004  1
