# generated using pymatgen
data_Lu12Tc3Ge
_symmetry_space_group_name_H-M   'P 1'
_cell_length_a   6.15290938
_cell_length_b   7.37987314
_cell_length_c   8.93575000
_cell_angle_alpha   90.00000000
_cell_angle_beta   90.00000000
_cell_angle_gamma   89.90642620
_symmetry_Int_Tables_number   1
_chemical_formula_structural   Lu12Tc3Ge
_chemical_formula_sum   'Lu12 Tc3 Ge1'
_cell_volume   405.75123048
_cell_formula_units_Z   1
loop_
 _symmetry_equiv_pos_site_id
 _symmetry_equiv_pos_as_xyz
  1  'x, y, z'
loop_
 _atom_site_type_symbol
 _atom_site_label
 _atom_site_symmetry_multiplicity
 _atom_site_fract_x
 _atom_site_fract_y
 _atom_site_fract_z
 _atom_site_occupancy
  Lu  Lu0  1  0.333734  0.676604  0.064299  1
  Lu  Lu1  1  0.162776  0.176996  0.435754  1
  Lu  Lu2  1  0.660069  0.312700  0.558387  1
  Lu  Lu3  1  0.846087  0.833539  0.941243  1
  Lu  Lu4  1  0.660069  0.312700  0.941613  1
  Lu  Lu5  1  0.846087  0.833539  0.558757  1
  Lu  Lu6  1  0.333734  0.676604  0.435701  1
  Lu  Lu7  1  0.162776  0.176996  0.064246  1
  Lu  Lu8  1  0.874153  0.538527  0.250000  1
  Lu  Lu9  1  0.620146  0.035074  0.250000  1
  Lu  Lu10  1  0.117943  0.457947  0.750000  1
  Lu  Lu11  1  0.371639  0.971712  0.750000  1
  Tc  Tc12  1  0.038461  0.880812  0.250000  1
  Tc  Tc13  1  0.461722  0.382605  0.250000  1
  Tc  Tc14  1  0.956312  0.118007  0.750000  1
  Ge  Ge15  1  0.554294  0.615636  0.750000  1
