# generated using pymatgen
data_NaY(CN2)2
_symmetry_space_group_name_H-M   'P 1'
_cell_length_a   6.37474000
_cell_length_b   7.47095800
_cell_length_c   9.96107300
_cell_angle_alpha   90.00000000
_cell_angle_beta   90.00000000
_cell_angle_gamma   90.00000000
_symmetry_Int_Tables_number   1
_chemical_formula_structural   NaY(CN2)2
_chemical_formula_sum   'Na4 Y4 C8 N16'
_cell_volume   474.40023349
_cell_formula_units_Z   4
loop_
 _symmetry_equiv_pos_site_id
 _symmetry_equiv_pos_as_xyz
  1  'x, y, z'
loop_
 _atom_site_type_symbol
 _atom_site_label
 _atom_site_symmetry_multiplicity
 _atom_site_fract_x
 _atom_site_fract_y
 _atom_site_fract_z
 _atom_site_occupancy
  Na  Na0  1  0.250000  0.621755  0.000000  1
  Na  Na1  1  0.750000  0.878245  0.500000  1
  Na  Na2  1  0.750000  0.378245  0.000000  1
  Na  Na3  1  0.250000  0.121755  0.500000  1
  Y  Y4  1  0.250000  0.129791  0.000000  1
  Y  Y5  1  0.750000  0.370209  0.500000  1
  Y  Y6  1  0.750000  0.870209  0.000000  1
  Y  Y7  1  0.250000  0.629791  0.500000  1
  C  C8  1  0.418379  0.379829  0.748909  1
  C  C9  1  0.918379  0.120171  0.751091  1
  C  C10  1  0.581621  0.120171  0.248909  1
  C  C11  1  0.081621  0.379829  0.251091  1
  C  C12  1  0.581621  0.620171  0.251091  1
  C  C13  1  0.081621  0.879829  0.248909  1
  C  C14  1  0.418379  0.879829  0.751091  1
  C  C15  1  0.918379  0.620171  0.748909  1
  N  N16  1  0.401440  0.357627  0.870074  1
  N  N17  1  0.901440  0.142373  0.629926  1
  N  N18  1  0.598560  0.142373  0.370074  1
  N  N19  1  0.098560  0.357627  0.129926  1
  N  N20  1  0.598560  0.642373  0.129926  1
  N  N21  1  0.098560  0.857627  0.370074  1
  N  N22  1  0.401440  0.857627  0.629926  1
  N  N23  1  0.901440  0.642373  0.870074  1
  N  N24  1  0.435534  0.403094  0.625447  1
  N  N25  1  0.935534  0.096906  0.874553  1
  N  N26  1  0.564466  0.096906  0.125447  1
  N  N27  1  0.064466  0.403094  0.374553  1
  N  N28  1  0.564466  0.596906  0.374553  1
  N  N29  1  0.064466  0.903094  0.125447  1
  N  N30  1  0.435534  0.903094  0.874553  1
  N  N31  1  0.935534  0.596906  0.625447  1
