# generated using pymatgen
data_Ho2Mn4Ni8P7
_symmetry_space_group_name_H-M   'P 1'
_cell_length_a   9.17750100
_cell_length_b   9.16324735
_cell_length_c   3.67937900
_cell_angle_alpha   90.00000000
_cell_angle_beta   90.00000000
_cell_angle_gamma   120.05047136
_symmetry_Int_Tables_number   1
_chemical_formula_structural   Ho2Mn4Ni8P7
_chemical_formula_sum   'Ho2 Mn4 Ni8 P7'
_cell_volume   267.82919020
_cell_formula_units_Z   1
loop_
 _symmetry_equiv_pos_site_id
 _symmetry_equiv_pos_as_xyz
  1  'x, y, z'
loop_
 _atom_site_type_symbol
 _atom_site_label
 _atom_site_symmetry_multiplicity
 _atom_site_fract_x
 _atom_site_fract_y
 _atom_site_fract_z
 _atom_site_occupancy
  Ho  Ho0  1  0.667752  0.333405  0.000000  1
  Ho  Ho1  1  0.331671  0.665100  0.500000  1
  Mn  Mn2  1  0.843894  0.119923  0.000000  1
  Mn  Mn3  1  0.120316  0.902453  0.500000  1
  Mn  Mn4  1  0.100577  0.221697  0.500000  1
  Mn  Mn5  1  0.776171  0.876040  0.500000  1
  Ni  Ni6  1  0.375072  0.939922  0.000000  1
  Ni  Ni7  1  0.063536  0.435900  0.000000  1
  Ni  Ni8  1  0.565870  0.627835  0.000000  1
  Ni  Ni9  1  0.877779  0.723027  0.000000  1
  Ni  Ni10  1  0.278565  0.154380  0.000000  1
  Ni  Ni11  1  0.947203  0.563050  0.500000  1
  Ni  Ni12  1  0.437269  0.386027  0.500000  1
  Ni  Ni13  1  0.614503  0.050789  0.500000  1
  P  P14  1  0.113800  0.705808  0.000000  1
  P  P15  1  0.293628  0.406889  0.000000  1
  P  P16  1  0.592503  0.887536  0.000000  1
  P  P17  1  0.709444  0.594581  0.500000  1
  P  P18  1  0.404560  0.114679  0.500000  1
  P  P19  1  0.886282  0.287986  0.500000  1
  P  P20  1  0.999603  0.002973  0.000000  1
