# generated using pymatgen
data_Ho2As2RuRhO2
_symmetry_space_group_name_H-M   'P 1'
_cell_length_a   4.02722400
_cell_length_b   4.02722400
_cell_length_c   8.07145600
_cell_angle_alpha   90.00000000
_cell_angle_beta   90.00000000
_cell_angle_gamma   90.00000000
_symmetry_Int_Tables_number   1
_chemical_formula_structural   Ho2As2RuRhO2
_chemical_formula_sum   'Ho2 As2 Ru1 Rh1 O2'
_cell_volume   130.90717667
_cell_formula_units_Z   1
loop_
 _symmetry_equiv_pos_site_id
 _symmetry_equiv_pos_as_xyz
  1  'x, y, z'
loop_
 _atom_site_type_symbol
 _atom_site_label
 _atom_site_symmetry_multiplicity
 _atom_site_fract_x
 _atom_site_fract_y
 _atom_site_fract_z
 _atom_site_occupancy
  Ho  Ho0  1  0.250004  0.250004  0.128481  1
  Ho  Ho1  1  0.750003  0.750003  0.871520  1
  As  As2  1  0.750003  0.750003  0.330168  1
  As  As3  1  0.250004  0.250004  0.669830  1
  Ru  Ru4  1  0.750003  0.250004  0.499999  1
  Rh  Rh5  1  0.250004  0.750003  0.499999  1
  O  O6  1  0.750003  0.250004  0.000000  1
  O  O7  1  0.250004  0.750003  0.000000  1
