# generated using pymatgen
data_Tb4Sm2RhI10
_symmetry_space_group_name_H-M   'P 1'
_cell_length_a   7.80187148
_cell_length_b   9.76969670
_cell_length_c   9.84557701
_cell_angle_alpha   107.40167899
_cell_angle_beta   97.07437737
_cell_angle_gamma   104.42262170
_symmetry_Int_Tables_number   1
_chemical_formula_structural   Tb4Sm2RhI10
_chemical_formula_sum   'Tb4 Sm2 Rh1 I10'
_cell_volume   677.48737595
_cell_formula_units_Z   1
loop_
 _symmetry_equiv_pos_site_id
 _symmetry_equiv_pos_as_xyz
  1  'x, y, z'
loop_
 _atom_site_type_symbol
 _atom_site_label
 _atom_site_symmetry_multiplicity
 _atom_site_fract_x
 _atom_site_fract_y
 _atom_site_fract_z
 _atom_site_occupancy
  Tb  Tb0  1  0.148894  0.373364  0.331888  1
  Tb  Tb1  1  0.851106  0.626636  0.668112  1
  Tb  Tb2  1  0.613657  0.540978  0.257278  1
  Tb  Tb3  1  0.386343  0.459022  0.742722  1
  Sm  Sm4  1  0.530894  0.219638  0.416339  1
  Sm  Sm5  1  0.469106  0.780362  0.583661  1
  Rh  Rh6  1  0.500000  0.500000  0.500000  1
  I  I7  1  0.143690  0.047734  0.225820  1
  I  I8  1  0.856310  0.952266  0.774180  1
  I  I9  1  0.241496  0.411870  0.037484  1
  I  I10  1  0.758504  0.588130  0.962516  1
  I  I11  1  0.721604  0.243794  0.151674  1
  I  I12  1  0.278396  0.756206  0.848326  1
  I  I13  1  0.043227  0.681925  0.408069  1
  I  I14  1  0.956773  0.318075  0.591931  1
  I  I15  1  0.412077  0.130100  0.682043  1
  I  I16  1  0.587923  0.869900  0.317957  1
