# generated using pymatgen
data_CdIrBr18
_symmetry_space_group_name_H-M   'P 1'
_cell_length_a   9.29229286
_cell_length_b   9.28592502
_cell_length_c   9.28477353
_cell_angle_alpha   88.04775922
_cell_angle_beta   88.04707558
_cell_angle_gamma   88.05152612
_symmetry_Int_Tables_number   1
_chemical_formula_structural   CdIrBr18
_chemical_formula_sum   'Cd1 Ir1 Br18'
_cell_volume   799.79750337
_cell_formula_units_Z   1
loop_
 _symmetry_equiv_pos_site_id
 _symmetry_equiv_pos_as_xyz
  1  'x, y, z'
loop_
 _atom_site_type_symbol
 _atom_site_label
 _atom_site_symmetry_multiplicity
 _atom_site_fract_x
 _atom_site_fract_y
 _atom_site_fract_z
 _atom_site_occupancy
  Cd  Cd0  1  0.000000  0.000000  0.000000  1
  Ir  Ir1  1  0.500000  0.500000  0.500000  1
  Br  Br2  1  0.767725  0.477633  0.509479  1
  Br  Br3  1  0.510170  0.767924  0.476835  1
  Br  Br4  1  0.478514  0.510689  0.767537  1
  Br  Br5  1  0.232275  0.522367  0.490521  1
  Br  Br6  1  0.489830  0.232076  0.523165  1
  Br  Br7  1  0.521486  0.489311  0.232463  1
  Br  Br8  1  0.883377  0.379213  0.751870  1
  Br  Br9  1  0.753338  0.883259  0.378887  1
  Br  Br10  1  0.379621  0.753206  0.882899  1
  Br  Br11  1  0.116623  0.620787  0.248130  1
  Br  Br12  1  0.246662  0.116741  0.621113  1
  Br  Br13  1  0.620379  0.246794  0.117101  1
  Br  Br14  1  0.033921  0.970996  0.699263  1
  Br  Br15  1  0.698645  0.034433  0.972366  1
  Br  Br16  1  0.971411  0.698662  0.035550  1
  Br  Br17  1  0.966079  0.029004  0.300737  1
  Br  Br18  1  0.301355  0.965567  0.027634  1
  Br  Br19  1  0.028589  0.301338  0.964450  1
