# generated using pymatgen
data_Pr2Ti4O11
_symmetry_space_group_name_H-M   'P 1'
_cell_length_a   5.13830132
_cell_length_b   7.34740839
_cell_length_c   12.74327314
_cell_angle_alpha   97.42907255
_cell_angle_beta   101.63102233
_cell_angle_gamma   110.46697707
_symmetry_Int_Tables_number   1
_chemical_formula_structural   Pr2Ti4O11
_chemical_formula_sum   'Pr4 Ti8 O22'
_cell_volume   430.88307269
_cell_formula_units_Z   2
loop_
 _symmetry_equiv_pos_site_id
 _symmetry_equiv_pos_as_xyz
  1  'x, y, z'
loop_
 _atom_site_type_symbol
 _atom_site_label
 _atom_site_symmetry_multiplicity
 _atom_site_fract_x
 _atom_site_fract_y
 _atom_site_fract_z
 _atom_site_occupancy
  Pr  Pr0  1  0.889434  0.697198  0.093530  1
  Pr  Pr1  1  0.598707  0.802803  0.406470  1
  Pr  Pr2  1  0.401294  0.197198  0.593531  1
  Pr  Pr3  1  0.110567  0.302803  0.906469  1
  Ti  Ti4  1  0.573629  0.156789  0.097389  1
  Ti  Ti5  1  0.241041  0.410231  0.190706  1
  Ti  Ti6  1  0.140104  0.089771  0.309295  1
  Ti  Ti7  1  0.819450  0.343211  0.402610  1
  Ti  Ti8  1  0.180549  0.656788  0.597389  1
  Ti  Ti9  1  0.859896  0.910230  0.690705  1
  Ti  Ti10  1  0.758960  0.589770  0.809295  1
  Ti  Ti11  1  0.426371  0.843212  0.902611  1
  O  O12  1  0.637104  0.921061  0.055747  1
  O  O13  1  0.919361  0.339112  0.061868  1
  O  O14  1  0.481281  0.411716  0.096918  1
  O  O15  1  0.266271  0.077055  0.168253  1
  O  O16  1  0.275741  0.660146  0.223066  1
  O  O17  1  0.905160  0.250000  0.250000  1
  O  O18  1  0.892528  0.839855  0.276933  1
  O  O19  1  0.520963  0.422945  0.331747  1
  O  O20  1  0.472648  0.088284  0.403082  1
  O  O21  1  0.018383  0.160890  0.438132  1
  O  O22  1  0.160294  0.578939  0.444252  1
  O  O23  1  0.839705  0.421061  0.555748  1
  O  O24  1  0.981618  0.839111  0.561867  1
  O  O25  1  0.527351  0.911715  0.596918  1
  O  O26  1  0.479037  0.577054  0.668253  1
  O  O27  1  0.107472  0.160146  0.723067  1
  O  O28  1  0.094839  0.749999  0.750000  1
  O  O29  1  0.724260  0.339855  0.776933  1
  O  O30  1  0.733730  0.922946  0.831747  1
  O  O31  1  0.518719  0.588285  0.903082  1
  O  O32  1  0.080640  0.660889  0.938133  1
  O  O33  1  0.362896  0.078939  0.944252  1
