# generated using pymatgen
data_KRb3(TeO4)2
_symmetry_space_group_name_H-M   'P 1'
_cell_length_a   6.55933100
_cell_length_b   6.55933051
_cell_length_c   8.24783500
_cell_angle_alpha   90.00000000
_cell_angle_beta   90.00000000
_cell_angle_gamma   119.99999743
_symmetry_Int_Tables_number   1
_chemical_formula_structural   KRb3(TeO4)2
_chemical_formula_sum   'K1 Rb3 Te2 O8'
_cell_volume   307.31918211
_cell_formula_units_Z   1
loop_
 _symmetry_equiv_pos_site_id
 _symmetry_equiv_pos_as_xyz
  1  'x, y, z'
loop_
 _atom_site_type_symbol
 _atom_site_label
 _atom_site_symmetry_multiplicity
 _atom_site_fract_x
 _atom_site_fract_y
 _atom_site_fract_z
 _atom_site_occupancy
  K  K0  1  0.000000  0.000000  0.000000  1
  Rb  Rb1  1  0.666667  0.333334  0.159715  1
  Rb  Rb2  1  0.000000  0.000000  0.500000  1
  Rb  Rb3  1  0.333333  0.666666  0.840284  1
  Te  Te4  1  0.333333  0.666666  0.293107  1
  Te  Te5  1  0.666667  0.333334  0.706892  1
  O  O6  1  0.181922  0.363845  0.209878  1
  O  O7  1  0.181922  0.818078  0.209878  1
  O  O8  1  0.636155  0.818078  0.209878  1
  O  O9  1  0.666667  0.333334  0.484672  1
  O  O10  1  0.333333  0.666666  0.515328  1
  O  O11  1  0.363845  0.181922  0.790121  1
  O  O12  1  0.818078  0.181922  0.790121  1
  O  O13  1  0.818078  0.636155  0.790121  1
