# generated using pymatgen
data_Zr3Sc(FeB4)4
_symmetry_space_group_name_H-M   'P 1'
_cell_length_a   5.76692286
_cell_length_b   11.17521482
_cell_length_c   3.25661200
_cell_angle_alpha   90.00000000
_cell_angle_beta   90.00000000
_cell_angle_gamma   89.92128962
_symmetry_Int_Tables_number   1
_chemical_formula_structural   Zr3Sc(FeB4)4
_chemical_formula_sum   'Zr3 Sc1 Fe4 B16'
_cell_volume   209.87737876
_cell_formula_units_Z   1
loop_
 _symmetry_equiv_pos_site_id
 _symmetry_equiv_pos_as_xyz
  1  'x, y, z'
loop_
 _atom_site_type_symbol
 _atom_site_label
 _atom_site_symmetry_multiplicity
 _atom_site_fract_x
 _atom_site_fract_y
 _atom_site_fract_z
 _atom_site_occupancy
  Zr  Zr0  1  0.627967  0.350616  0.000000  1
  Zr  Zr1  1  0.372127  0.649569  0.000000  1
  Zr  Zr2  1  0.129593  0.149395  0.000000  1
  Sc  Sc3  1  0.871074  0.850516  0.000000  1
  Fe  Fe4  1  0.633235  0.090450  0.000000  1
  Fe  Fe5  1  0.366713  0.910587  0.000000  1
  Fe  Fe6  1  0.133343  0.409710  0.000000  1
  Fe  Fe7  1  0.866412  0.589944  0.000000  1
  B  B8  1  0.787887  0.185562  0.500000  1
  B  B9  1  0.211019  0.814245  0.500000  1
  B  B10  1  0.287726  0.313719  0.500000  1
  B  B11  1  0.712864  0.686927  0.500000  1
  B  B12  1  0.865337  0.030873  0.500000  1
  B  B13  1  0.134587  0.967595  0.500000  1
  B  B14  1  0.364901  0.468081  0.500000  1
  B  B15  1  0.634330  0.532480  0.500000  1
  B  B16  1  0.886790  0.453317  0.500000  1
  B  B17  1  0.112276  0.547582  0.500000  1
  B  B18  1  0.387740  0.045895  0.500000  1
  B  B19  1  0.615665  0.952102  0.500000  1
  B  B20  1  0.974853  0.306809  0.500000  1
  B  B21  1  0.023287  0.694251  0.500000  1
  B  B22  1  0.475117  0.192679  0.500000  1
  B  B23  1  0.525154  0.807098  0.500000  1
