# generated using pymatgen
data_Hf3BeAl3Pt2
_symmetry_space_group_name_H-M   'P 1'
_cell_length_a   6.61171600
_cell_length_b   6.61171548
_cell_length_c   4.01491600
_cell_angle_alpha   90.00000000
_cell_angle_beta   90.00000000
_cell_angle_gamma   119.99999258
_symmetry_Int_Tables_number   1
_chemical_formula_structural   Hf3BeAl3Pt2
_chemical_formula_sum   'Hf3 Be1 Al3 Pt2'
_cell_volume   151.99716051
_cell_formula_units_Z   1
loop_
 _symmetry_equiv_pos_site_id
 _symmetry_equiv_pos_as_xyz
  1  'x, y, z'
loop_
 _atom_site_type_symbol
 _atom_site_label
 _atom_site_symmetry_multiplicity
 _atom_site_fract_x
 _atom_site_fract_y
 _atom_site_fract_z
 _atom_site_occupancy
  Hf  Hf0  1  0.416845  0.990878  0.000000  1
  Hf  Hf1  1  0.009122  0.425967  0.000000  1
  Hf  Hf2  1  0.574033  0.583155  0.000000  1
  Be  Be3  1  0.333333  0.666667  0.500000  1
  Al  Al4  1  0.745197  0.992220  0.500000  1
  Al  Al5  1  0.007780  0.752976  0.500000  1
  Al  Al6  1  0.247024  0.254803  0.500000  1
  Pt  Pt7  1  0.666667  0.333333  0.500000  1
  Pt  Pt8  1  0.000000  0.000000  0.000000  1
