# generated using pymatgen
data_Dy3TmOs7W
_symmetry_space_group_name_H-M   'P 1'
_cell_length_a   5.48353554
_cell_length_b   5.27588228
_cell_length_c   8.87923520
_cell_angle_alpha   90.01910932
_cell_angle_beta   90.00284565
_cell_angle_gamma   121.21749584
_symmetry_Int_Tables_number   1
_chemical_formula_structural   Dy3TmOs7W
_chemical_formula_sum   'Dy3 Tm1 Os7 W1'
_cell_volume   219.68582600
_cell_formula_units_Z   1
loop_
 _symmetry_equiv_pos_site_id
 _symmetry_equiv_pos_as_xyz
  1  'x, y, z'
loop_
 _atom_site_type_symbol
 _atom_site_label
 _atom_site_symmetry_multiplicity
 _atom_site_fract_x
 _atom_site_fract_y
 _atom_site_fract_z
 _atom_site_occupancy
  Dy  Dy0  1  0.670870  0.341569  0.563117  1
  Dy  Dy1  1  0.334409  0.668901  0.433961  1
  Dy  Dy2  1  0.334422  0.668907  0.065834  1
  Tm  Tm3  1  0.671246  0.342378  0.936844  1
  Os  Os4  1  0.006883  0.013907  0.496996  1
  Os  Os5  1  0.006583  0.013302  0.002768  1
  Os  Os6  1  0.173346  0.823397  0.751054  1
  Os  Os7  1  0.649656  0.823710  0.751026  1
  Os  Os8  1  0.822778  0.645369  0.249057  1
  Os  Os9  1  0.828106  0.166308  0.249365  1
  Os  Os10  1  0.338868  0.166660  0.249311  1
  W  W11  1  0.162832  0.325592  0.750666  1
