# generated using pymatgen
data_TbCe2Sn3Ir2Rh
_symmetry_space_group_name_H-M   'P 1'
_cell_length_a   7.52519700
_cell_length_b   7.52519516
_cell_length_c   4.02285500
_cell_angle_alpha   90.00000000
_cell_angle_beta   90.00000000
_cell_angle_gamma   120.35256683
_symmetry_Int_Tables_number   1
_chemical_formula_structural   TbCe2Sn3Ir2Rh
_chemical_formula_sum   'Tb1 Ce2 Sn3 Ir2 Rh1'
_cell_volume   196.58335646
_cell_formula_units_Z   1
loop_
 _symmetry_equiv_pos_site_id
 _symmetry_equiv_pos_as_xyz
  1  'x, y, z'
loop_
 _atom_site_type_symbol
 _atom_site_label
 _atom_site_symmetry_multiplicity
 _atom_site_fract_x
 _atom_site_fract_y
 _atom_site_fract_z
 _atom_site_occupancy
  Tb  Tb0  1  0.591742  0.591742  0.500000  1
  Ce  Ce1  1  0.414071  0.000191  0.500000  1
  Ce  Ce2  1  0.000191  0.414071  0.500000  1
  Sn  Sn3  1  0.744861  0.993784  0.000000  1
  Sn  Sn4  1  0.993784  0.744861  0.000000  1
  Sn  Sn5  1  0.260052  0.260052  0.000000  1
  Ir  Ir6  1  0.323662  0.668180  0.000000  1
  Ir  Ir7  1  0.668180  0.323662  0.000000  1
  Rh  Rh8  1  0.003455  0.003455  0.500000  1
