# generated using pymatgen
data_PrDyY(Co3P2)3
_symmetry_space_group_name_H-M   'P 1'
_cell_length_a   3.72990000
_cell_length_b   10.58109500
_cell_length_c   12.25889400
_cell_angle_alpha   90.00000000
_cell_angle_beta   90.00000000
_cell_angle_gamma   90.00000000
_symmetry_Int_Tables_number   1
_chemical_formula_structural   PrDyY(Co3P2)3
_chemical_formula_sum   'Pr2 Dy2 Y2 Co18 P12'
_cell_volume   483.81473584
_cell_formula_units_Z   2
loop_
 _symmetry_equiv_pos_site_id
 _symmetry_equiv_pos_as_xyz
  1  'x, y, z'
loop_
 _atom_site_type_symbol
 _atom_site_label
 _atom_site_symmetry_multiplicity
 _atom_site_fract_x
 _atom_site_fract_y
 _atom_site_fract_z
 _atom_site_occupancy
  Pr  Pr0  1  0.000000  0.500000  0.522153  1
  Pr  Pr1  1  0.500000  0.000000  0.477830  1
  Dy  Dy2  1  0.500000  0.817214  0.204440  1
  Dy  Dy3  1  0.500000  0.182786  0.204440  1
  Y  Y4  1  0.000000  0.682793  0.795573  1
  Y  Y5  1  0.000000  0.317207  0.795573  1
  Co  Co6  1  0.500000  0.500000  0.155869  1
  Co  Co7  1  0.000000  0.000000  0.844139  1
  Co  Co8  1  0.500000  0.500000  0.706964  1
  Co  Co9  1  0.000000  0.000000  0.293009  1
  Co  Co10  1  0.000000  0.500000  0.986874  1
  Co  Co11  1  0.500000  0.000000  0.013144  1
  Co  Co12  1  0.500000  0.333332  0.995104  1
  Co  Co13  1  0.500000  0.666668  0.995104  1
  Co  Co14  1  0.000000  0.166668  0.004918  1
  Co  Co15  1  0.000000  0.833332  0.004918  1
  Co  Co16  1  0.500000  0.296753  0.428617  1
  Co  Co17  1  0.500000  0.703247  0.428617  1
  Co  Co18  1  0.000000  0.203241  0.571369  1
  Co  Co19  1  0.000000  0.796759  0.571369  1
  Co  Co20  1  0.500000  0.880030  0.713490  1
  Co  Co21  1  0.500000  0.119970  0.713490  1
  Co  Co22  1  0.000000  0.619991  0.286503  1
  Co  Co23  1  0.000000  0.380009  0.286503  1
  P  P24  1  0.500000  0.500000  0.884339  1
  P  P25  1  0.000000  0.000000  0.115676  1
  P  P26  1  0.500000  0.500000  0.338235  1
  P  P27  1  0.000000  0.000000  0.661764  1
  P  P28  1  0.500000  0.306454  0.617690  1
  P  P29  1  0.500000  0.693546  0.617690  1
  P  P30  1  0.000000  0.193550  0.382291  1
  P  P31  1  0.000000  0.806450  0.382291  1
  P  P32  1  0.500000  0.846839  0.894774  1
  P  P33  1  0.500000  0.153161  0.894774  1
  P  P34  1  0.000000  0.653179  0.105234  1
  P  P35  1  0.000000  0.346821  0.105234  1
