# generated using pymatgen
data_Y2Pa2(Al8Pt3)3
_symmetry_space_group_name_H-M   'P 1'
_cell_length_a   7.56316658
_cell_length_b   7.57733575
_cell_length_c   13.14273125
_cell_angle_alpha   84.46945928
_cell_angle_beta   78.98511719
_cell_angle_gamma   59.95894554
_symmetry_Int_Tables_number   1
_chemical_formula_structural   Y2Pa2(Al8Pt3)3
_chemical_formula_sum   'Y2 Pa2 Al24 Pt9'
_cell_volume   640.00168576
_cell_formula_units_Z   1
loop_
 _symmetry_equiv_pos_site_id
 _symmetry_equiv_pos_as_xyz
  1  'x, y, z'
loop_
 _atom_site_type_symbol
 _atom_site_label
 _atom_site_symmetry_multiplicity
 _atom_site_fract_x
 _atom_site_fract_y
 _atom_site_fract_z
 _atom_site_occupancy
  Y  Y0  1  0.394012  0.167642  0.808265  1
  Y  Y1  1  0.605988  0.832358  0.191735  1
  Pa  Pa2  1  0.734265  0.498902  0.805103  1
  Pa  Pa3  1  0.265735  0.501098  0.194897  1
  Al  Al4  1  0.684445  0.833899  0.943608  1
  Al  Al5  1  0.315555  0.166101  0.056392  1
  Al  Al6  1  0.146378  0.833539  0.561419  1
  Al  Al7  1  0.853622  0.166461  0.438581  1
  Al  Al8  1  0.480866  0.166219  0.558766  1
  Al  Al9  1  0.519134  0.833781  0.441234  1
  Al  Al10  1  0.217106  0.163471  0.330469  1
  Al  Al11  1  0.782894  0.836529  0.669531  1
  Al  Al12  1  0.436251  0.505976  0.669191  1
  Al  Al13  1  0.563749  0.494024  0.330809  1
  Al  Al14  1  0.112213  0.157904  0.668246  1
  Al  Al15  1  0.887787  0.842096  0.331754  1
  Al  Al16  1  0.352668  0.499381  0.944563  1
  Al  Al17  1  0.647332  0.500619  0.055437  1
  Al  Al18  1  0.015433  0.167820  0.952472  1
  Al  Al19  1  0.984567  0.832180  0.047528  1
  Al  Al20  1  0.187032  0.499347  0.441656  1
  Al  Al21  1  0.812968  0.500653  0.558344  1
  Al  Al22  1  0.734732  0.165043  0.182776  1
  Al  Al23  1  0.265268  0.834957  0.817224  1
  Al  Al24  1  0.059925  0.632726  0.815578  1
  Al  Al25  1  0.940075  0.367274  0.184422  1
  Al  Al26  1  0.856920  0.041296  0.816606  1
  Al  Al27  1  0.143080  0.958704  0.183394  1
  Pt  Pt28  1  0.119958  0.491342  0.639372  1
  Pt  Pt29  1  0.880042  0.508658  0.360628  1
  Pt  Pt30  1  0.656786  0.170727  0.999915  1
  Pt  Pt31  1  0.343214  0.829273  0.000085  1
  Pt  Pt32  1  0.537055  0.167295  0.360256  1
  Pt  Pt33  1  0.462945  0.832705  0.639744  1
  Pt  Pt34  1  0.778413  0.175669  0.638316  1
  Pt  Pt35  1  0.221587  0.824331  0.361684  1
  Pt  Pt36  1  0.000000  0.500000  0.000000  1
