# generated using pymatgen
data_Tb3Ho(ScRh)4
_symmetry_space_group_name_H-M   'P 1'
_cell_length_a   4.22784200
_cell_length_b   7.17387181
_cell_length_c   8.81269754
_cell_angle_alpha   89.62535045
_cell_angle_beta   90.00000000
_cell_angle_gamma   90.00000000
_symmetry_Int_Tables_number   1
_chemical_formula_structural   Tb3Ho(ScRh)4
_chemical_formula_sum   'Tb3 Ho1 Sc4 Rh4'
_cell_volume   267.28337169
_cell_formula_units_Z   1
loop_
 _symmetry_equiv_pos_site_id
 _symmetry_equiv_pos_as_xyz
  1  'x, y, z'
loop_
 _atom_site_type_symbol
 _atom_site_label
 _atom_site_symmetry_multiplicity
 _atom_site_fract_x
 _atom_site_fract_y
 _atom_site_fract_z
 _atom_site_occupancy
  Tb  Tb0  1  0.250000  0.516040  0.175208  1
  Tb  Tb1  1  0.750000  0.483959  0.825315  1
  Tb  Tb2  1  0.750000  0.983545  0.674778  1
  Ho  Ho3  1  0.250000  0.017423  0.325457  1
  Sc  Sc4  1  0.250000  0.639146  0.564682  1
  Sc  Sc5  1  0.750000  0.360684  0.434461  1
  Sc  Sc6  1  0.750000  0.860545  0.067408  1
  Sc  Sc7  1  0.250000  0.138581  0.934702  1
  Rh  Rh8  1  0.250000  0.757804  0.900112  1
  Rh  Rh9  1  0.750000  0.241423  0.100715  1
  Rh  Rh10  1  0.750000  0.743723  0.398169  1
  Rh  Rh11  1  0.250000  0.257130  0.598991  1
