# generated using pymatgen
data_Ta6SiAs
_symmetry_space_group_name_H-M   'P 1'
_cell_length_a   10.27572826
_cell_length_b   10.27654903
_cell_length_c   5.21826415
_cell_angle_alpha   89.99185668
_cell_angle_beta   90.02574275
_cell_angle_gamma   89.99789891
_symmetry_Int_Tables_number   1
_chemical_formula_structural   Ta6SiAs
_chemical_formula_sum   'Ta24 Si4 As4'
_cell_volume   551.04354574
_cell_formula_units_Z   4
loop_
 _symmetry_equiv_pos_site_id
 _symmetry_equiv_pos_as_xyz
  1  'x, y, z'
loop_
 _atom_site_type_symbol
 _atom_site_label
 _atom_site_symmetry_multiplicity
 _atom_site_fract_x
 _atom_site_fract_y
 _atom_site_fract_z
 _atom_site_occupancy
  Ta  Ta0  1  0.517419  0.645581  0.273510  1
  Ta  Ta1  1  0.401014  0.085523  0.028241  1
  Ta  Ta2  1  0.710225  0.809083  0.513220  1
  Ta  Ta3  1  0.898256  0.583283  0.468407  1
  Ta  Ta4  1  0.853867  0.019726  0.771875  1
  Ta  Ta5  1  0.016926  0.149065  0.226729  1
  Ta  Ta6  1  0.784551  0.686806  0.988587  1
  Ta  Ta7  1  0.285062  0.190936  0.512370  1
  Ta  Ta8  1  0.690245  0.215235  0.012587  1
  Ta  Ta9  1  0.417393  0.899298  0.531762  1
  Ta  Ta10  1  0.812567  0.289447  0.488129  1
  Ta  Ta11  1  0.352510  0.519553  0.727602  1
  Ta  Ta12  1  0.647797  0.485565  0.725044  1
  Ta  Ta13  1  0.146641  0.986288  0.774257  1
  Ta  Ta14  1  0.211065  0.313095  0.988357  1
  Ta  Ta15  1  0.914416  0.400987  0.971569  1
  Ta  Ta16  1  0.313133  0.784272  0.011322  1
  Ta  Ta17  1  0.596253  0.912501  0.026487  1
  Ta  Ta18  1  0.087816  0.597265  0.974038  1
  Ta  Ta19  1  0.098851  0.415134  0.470451  1
  Ta  Ta20  1  0.983739  0.851537  0.226355  1
  Ta  Ta21  1  0.190501  0.710444  0.487077  1
  Ta  Ta22  1  0.483484  0.354616  0.273544  1
  Ta  Ta23  1  0.585149  0.099218  0.529691  1
  Si  Si24  1  0.295503  0.527510  0.222145  1
  Si  Si25  1  0.028113  0.206611  0.721847  1
  Si  Si26  1  0.704554  0.470706  0.219542  1
  Si  Si27  1  0.528253  0.703920  0.779594  1
  As  As28  1  0.972317  0.792957  0.722744  1
  As  As29  1  0.206657  0.971827  0.278187  1
  As  As30  1  0.793437  0.026380  0.276465  1
  As  As31  1  0.472285  0.295632  0.778268  1
