# generated using pymatgen
data_Ho2BeSiI2
_symmetry_space_group_name_H-M   'P 1'
_cell_length_a   3.96032600
_cell_length_b   3.96032557
_cell_length_c   11.73035500
_cell_angle_alpha   90.00000000
_cell_angle_beta   90.00000000
_cell_angle_gamma   119.99998692
_symmetry_Int_Tables_number   1
_chemical_formula_structural   Ho2BeSiI2
_chemical_formula_sum   'Ho2 Be1 Si1 I2'
_cell_volume   159.33224334
_cell_formula_units_Z   1
loop_
 _symmetry_equiv_pos_site_id
 _symmetry_equiv_pos_as_xyz
  1  'x, y, z'
loop_
 _atom_site_type_symbol
 _atom_site_label
 _atom_site_symmetry_multiplicity
 _atom_site_fract_x
 _atom_site_fract_y
 _atom_site_fract_z
 _atom_site_occupancy
  Ho  Ho0  1  0.000000  0.000000  0.163319  1
  Ho  Ho1  1  0.000000  0.000000  0.834801  1
  Be  Be2  1  0.333333  0.666667  0.011008  1
  Si  Si3  1  0.666667  0.333333  0.991495  1
  I  I4  1  0.333333  0.666667  0.658232  1
  I  I5  1  0.666667  0.333333  0.341146  1
