# generated using pymatgen
data_Rb4Eu(PSe4)2
_symmetry_space_group_name_H-M   'P 1'
_cell_length_a   9.53234417
_cell_length_b   10.57645485
_cell_length_c   12.03309900
_cell_angle_alpha   116.07028940
_cell_angle_beta   113.33387895
_cell_angle_gamma   90.00000191
_symmetry_Int_Tables_number   1
_chemical_formula_structural   Rb4Eu(PSe4)2
_chemical_formula_sum   'Rb8 Eu2 P4 Se16'
_cell_volume   978.06182984
_cell_formula_units_Z   2
loop_
 _symmetry_equiv_pos_site_id
 _symmetry_equiv_pos_as_xyz
  1  'x, y, z'
loop_
 _atom_site_type_symbol
 _atom_site_label
 _atom_site_symmetry_multiplicity
 _atom_site_fract_x
 _atom_site_fract_y
 _atom_site_fract_z
 _atom_site_occupancy
  Rb  Rb0  1  0.702206  0.086523  0.173046  1
  Rb  Rb1  1  0.470840  0.586523  0.173046  1
  Rb  Rb2  1  0.235016  0.485016  0.470033  1
  Rb  Rb3  1  0.235016  0.985016  0.470033  1
  Rb  Rb4  1  0.764984  0.014985  0.529968  1
  Rb  Rb5  1  0.764984  0.514984  0.529968  1
  Rb  Rb6  1  0.529159  0.413477  0.826954  1
  Rb  Rb7  1  0.297794  0.913478  0.826954  1
  Eu  Eu8  1  0.000000  0.250000  0.000000  1
  Eu  Eu9  1  0.000000  0.750000  0.000000  1
  P  P10  1  0.328307  0.125142  0.250282  1
  P  P11  1  0.921975  0.625142  0.250282  1
  P  P12  1  0.078025  0.374859  0.749718  1
  P  P13  1  0.671694  0.874859  0.749718  1
  Se  Se14  1  0.360977  0.245096  0.145858  1
  Se  Se15  1  0.784880  0.400762  0.145858  1
  Se  Se16  1  0.784880  0.745096  0.145858  1
  Se  Se17  1  0.360977  0.900762  0.145858  1
  Se  Se18  1  0.075138  0.103849  0.207699  1
  Se  Se19  1  0.132561  0.603849  0.207699  1
  Se  Se20  1  0.494378  0.236448  0.472895  1
  Se  Se21  1  0.978517  0.736448  0.472895  1
  Se  Se22  1  0.021483  0.263553  0.527105  1
  Se  Se23  1  0.505622  0.763553  0.527105  1
  Se  Se24  1  0.867439  0.396151  0.792300  1
  Se  Se25  1  0.924861  0.896151  0.792300  1
  Se  Se26  1  0.639022  0.099238  0.854142  1
  Se  Se27  1  0.215119  0.254904  0.854142  1
  Se  Se28  1  0.215119  0.599238  0.854142  1
  Se  Se29  1  0.639022  0.754904  0.854142  1
