# generated using pymatgen
data_Sc12InFe3Sb
_symmetry_space_group_name_H-M   'P 1'
_cell_length_a   7.78559901
_cell_length_b   7.78559868
_cell_length_c   7.78559828
_cell_angle_alpha   108.19620450
_cell_angle_beta   108.67379381
_cell_angle_gamma   111.56448942
_symmetry_Int_Tables_number   1
_chemical_formula_structural   Sc12InFe3Sb
_chemical_formula_sum   'Sc12 In1 Fe3 Sb1'
_cell_volume   362.91937813
_cell_formula_units_Z   1
loop_
 _symmetry_equiv_pos_site_id
 _symmetry_equiv_pos_as_xyz
  1  'x, y, z'
loop_
 _atom_site_type_symbol
 _atom_site_label
 _atom_site_symmetry_multiplicity
 _atom_site_fract_x
 _atom_site_fract_y
 _atom_site_fract_z
 _atom_site_occupancy
  Sc  Sc0  1  0.302106  0.308065  0.610171  1
  Sc  Sc1  1  0.697894  0.691935  0.389829  1
  Sc  Sc2  1  0.697894  0.308065  0.005959  1
  Sc  Sc3  1  0.302106  0.691935  0.994041  1
  Sc  Sc4  1  0.192422  0.425814  0.233392  1
  Sc  Sc5  1  0.807578  0.574186  0.766608  1
  Sc  Sc6  1  0.192422  0.959028  0.766608  1
  Sc  Sc7  1  0.961536  0.196063  0.765474  1
  Sc  Sc8  1  0.807578  0.040972  0.233392  1
  Sc  Sc9  1  0.038464  0.803937  0.234526  1
  Sc  Sc10  1  0.430589  0.196063  0.234526  1
  Sc  Sc11  1  0.569411  0.803937  0.765474  1
  In  In12  1  0.000000  0.500000  0.500000  1
  Fe  Fe13  1  0.379165  0.379165  0.000000  1
  Fe  Fe14  1  0.620835  0.620835  0.000000  1
  Fe  Fe15  1  0.000000  0.000000  0.000000  1
  Sb  Sb16  1  0.500000  0.000000  0.500000  1
