# generated using pymatgen
data_Ho3Er7Cd3Ru
_symmetry_space_group_name_H-M   'P 1'
_cell_length_a   9.52019200
_cell_length_b   9.52019190
_cell_length_c   9.76004800
_cell_angle_alpha   90.00000000
_cell_angle_beta   90.00000000
_cell_angle_gamma   120.00000036
_symmetry_Int_Tables_number   1
_chemical_formula_structural   Ho3Er7Cd3Ru
_chemical_formula_sum   'Ho6 Er14 Cd6 Ru2'
_cell_volume   766.07976861
_cell_formula_units_Z   2
loop_
 _symmetry_equiv_pos_site_id
 _symmetry_equiv_pos_as_xyz
  1  'x, y, z'
loop_
 _atom_site_type_symbol
 _atom_site_label
 _atom_site_symmetry_multiplicity
 _atom_site_fract_x
 _atom_site_fract_y
 _atom_site_fract_z
 _atom_site_occupancy
  Ho  Ho0  1  0.541086  0.458914  0.250000  1
  Ho  Ho1  1  0.541086  0.082173  0.250000  1
  Ho  Ho2  1  0.917827  0.458914  0.250000  1
  Ho  Ho3  1  0.458914  0.541086  0.750000  1
  Ho  Ho4  1  0.458914  0.917827  0.750000  1
  Ho  Ho5  1  0.082173  0.541086  0.750000  1
  Er  Er6  1  0.000000  0.000000  0.500000  1
  Er  Er7  1  0.000000  0.000000  0.000000  1
  Er  Er8  1  0.209757  0.790243  0.440152  1
  Er  Er9  1  0.209757  0.419516  0.440152  1
  Er  Er10  1  0.580484  0.790243  0.440152  1
  Er  Er11  1  0.790243  0.209757  0.559848  1
  Er  Er12  1  0.790243  0.580484  0.559848  1
  Er  Er13  1  0.419516  0.209757  0.559848  1
  Er  Er14  1  0.790243  0.209757  0.940152  1
  Er  Er15  1  0.790243  0.580484  0.940152  1
  Er  Er16  1  0.419516  0.209757  0.940152  1
  Er  Er17  1  0.209757  0.790243  0.059848  1
  Er  Er18  1  0.209757  0.419516  0.059848  1
  Er  Er19  1  0.580484  0.790243  0.059848  1
  Cd  Cd20  1  0.885503  0.114497  0.250000  1
  Cd  Cd21  1  0.885503  0.771007  0.250000  1
  Cd  Cd22  1  0.228993  0.114497  0.250000  1
  Cd  Cd23  1  0.114497  0.885503  0.750000  1
  Cd  Cd24  1  0.114497  0.228993  0.750000  1
  Cd  Cd25  1  0.771007  0.885503  0.750000  1
  Ru  Ru26  1  0.333333  0.666667  0.250000  1
  Ru  Ru27  1  0.666667  0.333333  0.750000  1
