# generated using pymatgen
data_DyHo3ZnSi6Rh
_symmetry_space_group_name_H-M   'P 1'
_cell_length_a   8.13469200
_cell_length_b   8.13469257
_cell_length_c   8.01524200
_cell_angle_alpha   90.00000000
_cell_angle_beta   90.00000000
_cell_angle_gamma   120.00000583
_symmetry_Int_Tables_number   1
_chemical_formula_structural   DyHo3ZnSi6Rh
_chemical_formula_sum   'Dy2 Ho6 Zn2 Si12 Rh2'
_cell_volume   459.33496322
_cell_formula_units_Z   2
loop_
 _symmetry_equiv_pos_site_id
 _symmetry_equiv_pos_as_xyz
  1  'x, y, z'
loop_
 _atom_site_type_symbol
 _atom_site_label
 _atom_site_symmetry_multiplicity
 _atom_site_fract_x
 _atom_site_fract_y
 _atom_site_fract_z
 _atom_site_occupancy
  Dy  Dy0  1  0.000000  0.000000  0.249336  1
  Dy  Dy1  1  0.000000  0.000000  0.750664  1
  Ho  Ho2  1  0.506901  0.493099  0.243441  1
  Ho  Ho3  1  0.506901  0.013803  0.243441  1
  Ho  Ho4  1  0.986197  0.493099  0.243441  1
  Ho  Ho5  1  0.493099  0.506901  0.756559  1
  Ho  Ho6  1  0.493099  0.986197  0.756559  1
  Ho  Ho7  1  0.013803  0.506901  0.756559  1
  Zn  Zn8  1  0.333333  0.666667  0.463227  1
  Zn  Zn9  1  0.666667  0.333333  0.536773  1
  Si  Si10  1  0.166580  0.833420  0.506140  1
  Si  Si11  1  0.166580  0.333159  0.506140  1
  Si  Si12  1  0.666841  0.833420  0.506140  1
  Si  Si13  1  0.833420  0.166580  0.493860  1
  Si  Si14  1  0.833420  0.666841  0.493860  1
  Si  Si15  1  0.333159  0.166580  0.493860  1
  Si  Si16  1  0.833094  0.166906  0.993435  1
  Si  Si17  1  0.833094  0.666188  0.993435  1
  Si  Si18  1  0.333812  0.166906  0.993435  1
  Si  Si19  1  0.166906  0.833094  0.006565  1
  Si  Si20  1  0.166906  0.333812  0.006565  1
  Si  Si21  1  0.666188  0.833094  0.006565  1
  Rh  Rh22  1  0.666667  0.333333  0.983705  1
  Rh  Rh23  1  0.333333  0.666667  0.016295  1
