# generated using pymatgen
data_ZrPa7(ZnRh)8
_symmetry_space_group_name_H-M   'P 1'
_cell_length_a   3.79101700
_cell_length_b   7.34073149
_cell_length_c   16.29671011
_cell_angle_alpha   90.07006657
_cell_angle_beta   90.00000000
_cell_angle_gamma   90.00000000
_symmetry_Int_Tables_number   1
_chemical_formula_structural   ZrPa7(ZnRh)8
_chemical_formula_sum   'Zr1 Pa7 Zn8 Rh8'
_cell_volume   453.51816440
_cell_formula_units_Z   1
loop_
 _symmetry_equiv_pos_site_id
 _symmetry_equiv_pos_as_xyz
  1  'x, y, z'
loop_
 _atom_site_type_symbol
 _atom_site_label
 _atom_site_symmetry_multiplicity
 _atom_site_fract_x
 _atom_site_fract_y
 _atom_site_fract_z
 _atom_site_occupancy
  Zr  Zr0  1  0.250000  0.560641  0.788183  1
  Pa  Pa1  1  0.250000  0.168300  0.936955  1
  Pa  Pa2  1  0.250000  0.673644  0.564057  1
  Pa  Pa3  1  0.750000  0.336760  0.441461  1
  Pa  Pa4  1  0.750000  0.941171  0.285335  1
  Pa  Pa5  1  0.750000  0.827616  0.059334  1
  Pa  Pa6  1  0.750000  0.439641  0.214436  1
  Pa  Pa7  1  0.250000  0.056987  0.716494  1
  Zn  Zn8  1  0.750000  0.011973  0.560264  1
  Zn  Zn9  1  0.250000  0.612123  0.344119  1
  Zn  Zn10  1  0.750000  0.397741  0.664234  1
  Zn  Zn11  1  0.250000  0.491838  0.059798  1
  Zn  Zn12  1  0.750000  0.506958  0.931059  1
  Zn  Zn13  1  0.250000  0.997361  0.439954  1
  Zn  Zn14  1  0.250000  0.112877  0.154840  1
  Zn  Zn15  1  0.750000  0.867515  0.841581  1
  Rh  Rh16  1  0.750000  0.736428  0.442247  1
  Rh  Rh17  1  0.250000  0.240182  0.313932  1
  Rh  Rh18  1  0.750000  0.236845  0.815232  1
  Rh  Rh19  1  0.750000  0.768619  0.682014  1
  Rh  Rh20  1  0.250000  0.271884  0.560281  1
  Rh  Rh21  1  0.250000  0.741266  0.185481  1
  Rh  Rh22  1  0.750000  0.235107  0.054938  1
  Rh  Rh23  1  0.250000  0.766525  0.943770  1
