# generated using pymatgen
data_CeY7Cu3Si12Rh
_symmetry_space_group_name_H-M   'P 1'
_cell_length_a   8.03795200
_cell_length_b   8.03795226
_cell_length_c   8.17617300
_cell_angle_alpha   89.99995723
_cell_angle_beta   90.00004277
_cell_angle_gamma   120.00009769
_symmetry_Int_Tables_number   1
_chemical_formula_structural   CeY7Cu3Si12Rh
_chemical_formula_sum   'Ce1 Y7 Cu3 Si12 Rh1'
_cell_volume   457.47894113
_cell_formula_units_Z   1
loop_
 _symmetry_equiv_pos_site_id
 _symmetry_equiv_pos_as_xyz
  1  'x, y, z'
loop_
 _atom_site_type_symbol
 _atom_site_label
 _atom_site_symmetry_multiplicity
 _atom_site_fract_x
 _atom_site_fract_y
 _atom_site_fract_z
 _atom_site_occupancy
  Ce  Ce0  1  0.000000  0.000000  0.250481  1
  Y  Y1  1  0.000000  0.000000  0.750037  1
  Y  Y2  1  0.999684  0.499842  0.251527  1
  Y  Y3  1  0.500157  0.499843  0.251527  1
  Y  Y4  1  0.500684  0.001367  0.748508  1
  Y  Y5  1  0.500158  0.000316  0.251527  1
  Y  Y6  1  0.500683  0.499317  0.748509  1
  Y  Y7  1  0.998633  0.499316  0.748508  1
  Cu  Cu8  1  0.333332  0.666668  0.997311  1
  Cu  Cu9  1  0.333333  0.666667  0.500629  1
  Cu  Cu10  1  0.666667  0.333333  0.000246  1
  Si  Si11  1  0.169086  0.338172  0.999984  1
  Si  Si12  1  0.661828  0.830914  0.999984  1
  Si  Si13  1  0.168199  0.336398  0.502114  1
  Si  Si14  1  0.338428  0.169214  0.998655  1
  Si  Si15  1  0.169086  0.830914  0.999984  1
  Si  Si16  1  0.663602  0.831801  0.502114  1
  Si  Si17  1  0.830786  0.661572  0.998655  1
  Si  Si18  1  0.335770  0.167884  0.499110  1
  Si  Si19  1  0.168199  0.831801  0.502114  1
  Si  Si20  1  0.832116  0.664230  0.499110  1
  Si  Si21  1  0.830787  0.169213  0.998656  1
  Si  Si22  1  0.832116  0.167884  0.499110  1
  Rh  Rh23  1  0.666667  0.333333  0.501599  1
