# generated using pymatgen
data_Li8Ho8Si7Sb
_symmetry_space_group_name_H-M   'P 1'
_cell_length_a   8.82400800
_cell_length_b   8.82105214
_cell_length_c   7.08314200
_cell_angle_alpha   90.12114478
_cell_angle_beta   90.00000000
_cell_angle_gamma   120.01108535
_symmetry_Int_Tables_number   1
_chemical_formula_structural   Li8Ho8Si7Sb
_chemical_formula_sum   'Li8 Ho8 Si7 Sb1'
_cell_volume   477.41168552
_cell_formula_units_Z   1
loop_
 _symmetry_equiv_pos_site_id
 _symmetry_equiv_pos_as_xyz
  1  'x, y, z'
loop_
 _atom_site_type_symbol
 _atom_site_label
 _atom_site_symmetry_multiplicity
 _atom_site_fract_x
 _atom_site_fract_y
 _atom_site_fract_z
 _atom_site_occupancy
  Li  Li0  1  0.166678  0.333356  0.284303  1
  Li  Li1  1  0.170085  0.834261  0.288060  1
  Li  Li2  1  0.664176  0.834261  0.288060  1
  Li  Li3  1  0.833112  0.666224  0.785996  1
  Li  Li4  1  0.823626  0.162297  0.792058  1
  Li  Li5  1  0.338670  0.162297  0.792058  1
  Li  Li6  1  0.338079  0.676158  0.665352  1
  Li  Li7  1  0.665268  0.330536  0.168383  1
  Ho  Ho8  1  0.514242  0.028482  0.493770  1
  Ho  Ho9  1  0.522589  0.491360  0.490915  1
  Ho  Ho10  1  0.968773  0.491360  0.490915  1
  Ho  Ho11  1  0.485769  0.971540  0.996313  1
  Ho  Ho12  1  0.497097  0.518682  0.999452  1
  Ho  Ho13  1  0.021584  0.518682  0.999452  1
  Ho  Ho14  1  0.993676  0.987351  0.498476  1
  Ho  Ho15  1  0.996478  0.992956  0.006278  1
  Si  Si16  1  0.165745  0.832390  0.729474  1
  Si  Si17  1  0.666645  0.832390  0.729474  1
  Si  Si18  1  0.833417  0.666834  0.231016  1
  Si  Si19  1  0.833540  0.167187  0.229216  1
  Si  Si20  1  0.333646  0.167187  0.229216  1
  Si  Si21  1  0.332906  0.665813  0.260570  1
  Si  Si22  1  0.667370  0.334740  0.761701  1
  Sb  Sb23  1  0.166828  0.333655  0.731488  1
