# generated using pymatgen
data_YbHoU4(CoSn6)2
_symmetry_space_group_name_H-M   'P 1'
_cell_length_a   8.39340763
_cell_length_b   8.39340775
_cell_length_c   13.15273120
_cell_angle_alpha   89.99984042
_cell_angle_beta   90.00015879
_cell_angle_gamma   148.00630379
_symmetry_Int_Tables_number   1
_chemical_formula_structural   YbHoU4(CoSn6)2
_chemical_formula_sum   'Yb1 Ho1 U4 Co2 Sn12'
_cell_volume   490.93705448
_cell_formula_units_Z   1
loop_
 _symmetry_equiv_pos_site_id
 _symmetry_equiv_pos_as_xyz
  1  'x, y, z'
loop_
 _atom_site_type_symbol
 _atom_site_label
 _atom_site_symmetry_multiplicity
 _atom_site_fract_x
 _atom_site_fract_y
 _atom_site_fract_z
 _atom_site_occupancy
  Yb  Yb0  1  0.900100  0.099900  0.403093  1
  Ho  Ho1  1  0.099495  0.900505  0.247994  1
  U  U2  1  0.902618  0.097382  0.093675  1
  U  U3  1  0.099822  0.900178  0.597651  1
  U  U4  1  0.903436  0.096564  0.751996  1
  U  U5  1  0.096624  0.903376  0.905808  1
  Co  Co6  1  0.298453  0.701547  0.249722  1
  Co  Co7  1  0.699647  0.300353  0.749919  1
  Sn  Sn8  1  0.756775  0.243225  0.571845  1
  Sn  Sn9  1  0.428466  0.571534  0.576543  1
  Sn  Sn10  1  0.575411  0.424589  0.424955  1
  Sn  Sn11  1  0.734379  0.265621  0.247490  1
  Sn  Sn12  1  0.265190  0.734810  0.750647  1
  Sn  Sn13  1  0.244386  0.755614  0.069569  1
  Sn  Sn14  1  0.242481  0.757519  0.428836  1
  Sn  Sn15  1  0.572023  0.427977  0.075681  1
  Sn  Sn16  1  0.454954  0.545046  0.249029  1
  Sn  Sn17  1  0.544121  0.455879  0.751079  1
  Sn  Sn18  1  0.756058  0.243942  0.928912  1
  Sn  Sn19  1  0.425559  0.574441  0.925556  1
