# generated using pymatgen
data_LiPrY(P3Pd10)2
_symmetry_space_group_name_H-M   'P 1'
_cell_length_a   8.66729505
_cell_length_b   8.66729428
_cell_length_c   8.66729500
_cell_angle_alpha   60.00000107
_cell_angle_beta   60.00000401
_cell_angle_gamma   59.99999753
_symmetry_Int_Tables_number   1
_chemical_formula_structural   LiPrY(P3Pd10)2
_chemical_formula_sum   'Li1 Pr1 Y1 P6 Pd20'
_cell_volume   460.40042162
_cell_formula_units_Z   1
loop_
 _symmetry_equiv_pos_site_id
 _symmetry_equiv_pos_as_xyz
  1  'x, y, z'
loop_
 _atom_site_type_symbol
 _atom_site_label
 _atom_site_symmetry_multiplicity
 _atom_site_fract_x
 _atom_site_fract_y
 _atom_site_fract_z
 _atom_site_occupancy
  Li  Li0  1  0.000000  0.000000  0.000000  1
  Pr  Pr1  1  0.750000  0.750000  0.750000  1
  Y  Y2  1  0.250000  0.250000  0.250000  1
  P  P3  1  0.740295  0.259705  0.259705  1
  P  P4  1  0.259705  0.740295  0.740295  1
  P  P5  1  0.259705  0.740295  0.259705  1
  P  P6  1  0.740295  0.259705  0.740295  1
  P  P7  1  0.259705  0.259705  0.740295  1
  P  P8  1  0.740295  0.740295  0.259705  1
  Pd  Pd9  1  0.384687  0.384687  0.384687  1
  Pd  Pd10  1  0.612822  0.612822  0.612822  1
  Pd  Pd11  1  0.384687  0.384687  0.845940  1
  Pd  Pd12  1  0.384687  0.845940  0.384687  1
  Pd  Pd13  1  0.612822  0.612822  0.161533  1
  Pd  Pd14  1  0.612822  0.161533  0.612822  1
  Pd  Pd15  1  0.845940  0.384687  0.384687  1
  Pd  Pd16  1  0.161533  0.612822  0.612822  1
  Pd  Pd17  1  0.344214  0.001054  0.001054  1
  Pd  Pd18  1  0.653677  0.001054  0.001054  1
  Pd  Pd19  1  0.001054  0.344214  0.653677  1
  Pd  Pd20  1  0.001054  0.653677  0.344214  1
  Pd  Pd21  1  0.001054  0.344214  0.001054  1
  Pd  Pd22  1  0.653677  0.001054  0.344214  1
  Pd  Pd23  1  0.001054  0.653677  0.001054  1
  Pd  Pd24  1  0.344214  0.001054  0.653677  1
  Pd  Pd25  1  0.001054  0.001054  0.344214  1
  Pd  Pd26  1  0.001054  0.001054  0.653677  1
  Pd  Pd27  1  0.653677  0.344214  0.001054  1
  Pd  Pd28  1  0.344214  0.653677  0.001054  1
