# generated using pymatgen
data_Ho2Pd3Pt2Au
_symmetry_space_group_name_H-M   'P 1'
_cell_length_a   4.16984200
_cell_length_b   4.06980100
_cell_length_c   8.36881200
_cell_angle_alpha   90.00000000
_cell_angle_beta   90.00000000
_cell_angle_gamma   90.00000000
_symmetry_Int_Tables_number   1
_chemical_formula_structural   Ho2Pd3Pt2Au
_chemical_formula_sum   'Ho2 Pd3 Pt2 Au1'
_cell_volume   142.02231431
_cell_formula_units_Z   1
loop_
 _symmetry_equiv_pos_site_id
 _symmetry_equiv_pos_as_xyz
  1  'x, y, z'
loop_
 _atom_site_type_symbol
 _atom_site_label
 _atom_site_symmetry_multiplicity
 _atom_site_fract_x
 _atom_site_fract_y
 _atom_site_fract_z
 _atom_site_occupancy
  Ho  Ho0  1  0.000000  0.000000  0.241529  1
  Ho  Ho1  1  0.000000  0.000000  0.758471  1
  Pd  Pd2  1  0.500000  0.500000  0.248734  1
  Pd  Pd3  1  0.500000  0.500000  0.751266  1
  Pd  Pd4  1  0.000000  0.500000  0.500000  1
  Pt  Pt5  1  0.000000  0.500000  0.000000  1
  Pt  Pt6  1  0.500000  0.000000  0.000000  1
  Au  Au7  1  0.500000  0.000000  0.500000  1
