# generated using pymatgen
data_HoEr7Tc2(B12Ru)2
_symmetry_space_group_name_H-M   'P 1'
_cell_length_a   3.64924700
_cell_length_b   9.11298369
_cell_length_c   11.49595101
_cell_angle_alpha   89.85432000
_cell_angle_beta   90.00000000
_cell_angle_gamma   90.00000000
_symmetry_Int_Tables_number   1
_chemical_formula_structural   HoEr7Tc2(B12Ru)2
_chemical_formula_sum   'Ho1 Er7 Tc2 B24 Ru2'
_cell_volume   382.30268932
_cell_formula_units_Z   1
loop_
 _symmetry_equiv_pos_site_id
 _symmetry_equiv_pos_as_xyz
  1  'x, y, z'
loop_
 _atom_site_type_symbol
 _atom_site_label
 _atom_site_symmetry_multiplicity
 _atom_site_fract_x
 _atom_site_fract_y
 _atom_site_fract_z
 _atom_site_occupancy
  Ho  Ho0  1  0.000000  0.325026  0.415565  1
  Er  Er1  1  0.000000  0.674937  0.584407  1
  Er  Er2  1  0.000000  0.821209  0.087458  1
  Er  Er3  1  0.000000  0.178785  0.912535  1
  Er  Er4  1  0.000000  0.942359  0.370659  1
  Er  Er5  1  0.000000  0.057534  0.629373  1
  Er  Er6  1  0.000000  0.443371  0.129885  1
  Er  Er7  1  0.000000  0.556694  0.870083  1
  Tc  Tc8  1  0.000000  0.638734  0.320170  1
  Tc  Tc9  1  0.000000  0.361421  0.679894  1
  B  B10  1  0.500000  0.553293  0.433175  1
  B  B11  1  0.500000  0.446919  0.566933  1
  B  B12  1  0.500000  0.053842  0.066723  1
  B  B13  1  0.500000  0.946144  0.933267  1
  B  B14  1  0.500000  0.748896  0.419226  1
  B  B15  1  0.500000  0.251098  0.580957  1
  B  B16  1  0.500000  0.248894  0.080806  1
  B  B17  1  0.500000  0.751096  0.919175  1
  B  B18  1  0.500000  0.792051  0.265083  1
  B  B19  1  0.500000  0.207950  0.734945  1
  B  B20  1  0.500000  0.291007  0.234289  1
  B  B21  1  0.500000  0.708923  0.765585  1
  B  B22  1  0.500000  0.631433  0.184856  1
  B  B23  1  0.500000  0.368582  0.815133  1
  B  B24  1  0.500000  0.130975  0.314231  1
  B  B25  1  0.500000  0.868901  0.685677  1
  B  B26  1  0.500000  0.982876  0.211908  1
  B  B27  1  0.500000  0.017099  0.788093  1
  B  B28  1  0.500000  0.482497  0.287478  1
  B  B29  1  0.500000  0.517712  0.712451  1
  B  B30  1  0.500000  0.603406  0.028404  1
  B  B31  1  0.500000  0.396597  0.971580  1
  B  B32  1  0.500000  0.103271  0.471238  1
  B  B33  1  0.500000  0.896522  0.528828  1
  Ru  Ru34  1  0.000000  0.137800  0.178356  1
  Ru  Ru35  1  0.000000  0.862148  0.821576  1
