# generated using pymatgen
data_PrB4(OsRh)2
_symmetry_space_group_name_H-M   'P 1'
_cell_length_a   4.02184900
_cell_length_b   7.61417900
_cell_length_c   7.61417900
_cell_angle_alpha   90.00000000
_cell_angle_beta   90.00000000
_cell_angle_gamma   90.00000000
_symmetry_Int_Tables_number   1
_chemical_formula_structural   PrB4(OsRh)2
_chemical_formula_sum   'Pr2 B8 Os4 Rh4'
_cell_volume   233.16959892
_cell_formula_units_Z   2
loop_
 _symmetry_equiv_pos_site_id
 _symmetry_equiv_pos_as_xyz
  1  'x, y, z'
loop_
 _atom_site_type_symbol
 _atom_site_label
 _atom_site_symmetry_multiplicity
 _atom_site_fract_x
 _atom_site_fract_y
 _atom_site_fract_z
 _atom_site_occupancy
  Pr  Pr0  1  0.254744  0.250000  0.250000  1
  Pr  Pr1  1  0.754744  0.750000  0.750000  1
  B  B2  1  0.359905  0.913994  0.036172  1
  B  B3  1  0.359905  0.586006  0.463828  1
  B  B4  1  0.859905  0.536172  0.086006  1
  B  B5  1  0.859905  0.963828  0.413994  1
  B  B6  1  0.642187  0.086596  0.966290  1
  B  B7  1  0.642187  0.413404  0.533710  1
  B  B8  1  0.142187  0.466290  0.913404  1
  B  B9  1  0.142187  0.033710  0.586596  1
  Os  Os10  1  0.857720  0.603018  0.358318  1
  Os  Os11  1  0.857720  0.896982  0.141682  1
  Os  Os12  1  0.357720  0.858318  0.396982  1
  Os  Os13  1  0.357720  0.641682  0.103018  1
  Rh  Rh14  1  0.137816  0.401624  0.639126  1
  Rh  Rh15  1  0.137816  0.098376  0.860874  1
  Rh  Rh16  1  0.637816  0.139126  0.598376  1
  Rh  Rh17  1  0.637816  0.360874  0.901624  1
