# generated using pymatgen
data_Er(MnAl5)2
_symmetry_space_group_name_H-M   'P 1'
_cell_length_a   6.78596322
_cell_length_b   6.78578712
_cell_length_c   9.02568700
_cell_angle_alpha   90.00000000
_cell_angle_beta   90.00000000
_cell_angle_gamma   97.35795260
_symmetry_Int_Tables_number   1
_chemical_formula_structural   Er(MnAl5)2
_chemical_formula_sum   'Er2 Mn4 Al20'
_cell_volume   412.19332973
_cell_formula_units_Z   2
loop_
 _symmetry_equiv_pos_site_id
 _symmetry_equiv_pos_as_xyz
  1  'x, y, z'
loop_
 _atom_site_type_symbol
 _atom_site_label
 _atom_site_symmetry_multiplicity
 _atom_site_fract_x
 _atom_site_fract_y
 _atom_site_fract_z
 _atom_site_occupancy
  Er  Er0  1  0.126642  0.873256  0.250000  1
  Er  Er1  1  0.873359  0.126745  0.750000  1
  Mn  Mn2  1  0.500000  0.000000  0.000000  1
  Mn  Mn3  1  0.000000  0.500000  0.000000  1
  Mn  Mn4  1  0.500000  0.000000  0.500000  1
  Mn  Mn5  1  0.000000  0.500000  0.500000  1
  Al  Al6  1  0.228631  0.228676  0.000008  1
  Al  Al7  1  0.771368  0.771323  0.999992  1
  Al  Al8  1  0.373880  0.626089  0.045749  1
  Al  Al9  1  0.843977  0.156072  0.096038  1
  Al  Al10  1  0.474889  0.218412  0.250000  1
  Al  Al11  1  0.132637  0.412758  0.250000  1
  Al  Al12  1  0.781594  0.525092  0.250000  1
  Al  Al13  1  0.587259  0.867328  0.250000  1
  Al  Al14  1  0.843977  0.156072  0.403962  1
  Al  Al15  1  0.373880  0.626089  0.454251  1
  Al  Al16  1  0.228631  0.228676  0.499992  1
  Al  Al17  1  0.771368  0.771323  0.500008  1
  Al  Al18  1  0.626121  0.373912  0.545750  1
  Al  Al19  1  0.156024  0.843929  0.596038  1
  Al  Al20  1  0.412742  0.132673  0.750000  1
  Al  Al21  1  0.218405  0.474908  0.750000  1
  Al  Al22  1  0.867364  0.587243  0.750000  1
  Al  Al23  1  0.525111  0.781587  0.750000  1
  Al  Al24  1  0.156024  0.843929  0.903962  1
  Al  Al25  1  0.626121  0.373912  0.954250  1
