# generated using pymatgen
data_TaNb2CrRe2Si3
_symmetry_space_group_name_H-M   'P 1'
_cell_length_a   6.82210023
_cell_length_b   6.78849208
_cell_length_c   3.32162900
_cell_angle_alpha   90.00000000
_cell_angle_beta   90.00000000
_cell_angle_gamma   120.17773774
_symmetry_Int_Tables_number   1
_chemical_formula_structural   TaNb2CrRe2Si3
_chemical_formula_sum   'Ta1 Nb2 Cr1 Re2 Si3'
_cell_volume   132.98190623
_cell_formula_units_Z   1
loop_
 _symmetry_equiv_pos_site_id
 _symmetry_equiv_pos_as_xyz
  1  'x, y, z'
loop_
 _atom_site_type_symbol
 _atom_site_label
 _atom_site_symmetry_multiplicity
 _atom_site_fract_x
 _atom_site_fract_y
 _atom_site_fract_z
 _atom_site_occupancy
  Ta  Ta0  1  0.994241  0.600635  0.500000  1
  Nb  Nb1  1  0.413712  0.411405  0.500000  1
  Nb  Nb2  1  0.597506  0.992903  0.500000  1
  Cr  Cr3  1  0.747666  0.745480  0.000000  1
  Re  Re4  1  0.252522  0.998807  0.000000  1
  Re  Re5  1  0.001600  0.257664  0.000000  1
  Si  Si6  1  0.667093  0.333826  0.000000  1
  Si  Si7  1  0.335883  0.666834  0.000000  1
  Si  Si8  1  0.989778  0.992447  0.500000  1
