# generated using pymatgen
data_NpB2Ru3
_symmetry_space_group_name_H-M   'P 1'
_cell_length_a   5.52323400
_cell_length_b   5.52323490
_cell_length_c   2.92994000
_cell_angle_alpha   90.00000000
_cell_angle_beta   90.00000000
_cell_angle_gamma   119.99999458
_symmetry_Int_Tables_number   1
_chemical_formula_structural   NpB2Ru3
_chemical_formula_sum   'Np1 B2 Ru3'
_cell_volume   77.40630551
_cell_formula_units_Z   1
loop_
 _symmetry_equiv_pos_site_id
 _symmetry_equiv_pos_as_xyz
  1  'x, y, z'
loop_
 _atom_site_type_symbol
 _atom_site_label
 _atom_site_symmetry_multiplicity
 _atom_site_fract_x
 _atom_site_fract_y
 _atom_site_fract_z
 _atom_site_occupancy
  Np  Np0  1  0.000000  0.000000  0.000000  1
  B  B1  1  0.333333  0.666667  0.000000  1
  B  B2  1  0.666667  0.333333  0.000000  1
  Ru  Ru3  1  0.500000  0.000000  0.500000  1
  Ru  Ru4  1  0.500000  0.500000  0.500000  1
  Ru  Ru5  1  0.000000  0.500000  0.500000  1
