# generated using pymatgen
data_Pr16MgTl2InIr4
_symmetry_space_group_name_H-M   'P 1'
_cell_length_a   10.07283467
_cell_length_b   10.10666276
_cell_length_c   10.09197300
_cell_angle_alpha   60.04807214
_cell_angle_beta   59.93713206
_cell_angle_gamma   60.03049076
_symmetry_Int_Tables_number   1
_chemical_formula_structural   Pr16MgTl2InIr4
_chemical_formula_sum   'Pr16 Mg1 Tl2 In1 Ir4'
_cell_volume   726.55940935
_cell_formula_units_Z   1
loop_
 _symmetry_equiv_pos_site_id
 _symmetry_equiv_pos_as_xyz
  1  'x, y, z'
loop_
 _atom_site_type_symbol
 _atom_site_label
 _atom_site_symmetry_multiplicity
 _atom_site_fract_x
 _atom_site_fract_y
 _atom_site_fract_z
 _atom_site_occupancy
  Pr  Pr0  1  0.348281  0.346728  0.346368  1
  Pr  Pr1  1  0.348281  0.346728  0.958624  1
  Pr  Pr2  1  0.348806  0.957242  0.346976  1
  Pr  Pr3  1  0.953813  0.349573  0.348308  1
  Pr  Pr4  1  0.807171  0.190844  0.193750  1
  Pr  Pr5  1  0.186416  0.810655  0.811623  1
  Pr  Pr6  1  0.186416  0.810655  0.191307  1
  Pr  Pr7  1  0.807171  0.190844  0.808236  1
  Pr  Pr8  1  0.188218  0.189107  0.811338  1
  Pr  Pr9  1  0.806865  0.806748  0.193194  1
  Pr  Pr10  1  0.942463  0.558968  0.561105  1
  Pr  Pr11  1  0.558286  0.943089  0.938866  1
  Pr  Pr12  1  0.558286  0.943089  0.559758  1
  Pr  Pr13  1  0.942463  0.558968  0.937464  1
  Pr  Pr14  1  0.558696  0.559381  0.940961  1
  Pr  Pr15  1  0.939321  0.940786  0.559947  1
  Mg  Mg16  1  0.276023  0.573867  0.575056  1
  Tl  Tl17  1  0.580957  0.584012  0.585721  1
  Tl  Tl18  1  0.580957  0.584012  0.249311  1
  In  In19  1  0.580104  0.252640  0.583629  1
  Ir  Ir20  1  0.141414  0.141825  0.140950  1
  Ir  Ir21  1  0.141414  0.141825  0.575810  1
  Ir  Ir22  1  0.142081  0.576483  0.140717  1
  Ir  Ir23  1  0.576099  0.141935  0.140983  1
