# generated using pymatgen
data_LiTb3Zn2Pd2Ru
_symmetry_space_group_name_H-M   'P 1'
_cell_length_a   7.22176814
_cell_length_b   7.18385655
_cell_length_c   3.97783000
_cell_angle_alpha   90.00000000
_cell_angle_beta   90.00000000
_cell_angle_gamma   120.15260672
_symmetry_Int_Tables_number   1
_chemical_formula_structural   LiTb3Zn2Pd2Ru
_chemical_formula_sum   'Li1 Tb3 Zn2 Pd2 Ru1'
_cell_volume   178.44654487
_cell_formula_units_Z   1
loop_
 _symmetry_equiv_pos_site_id
 _symmetry_equiv_pos_as_xyz
  1  'x, y, z'
loop_
 _atom_site_type_symbol
 _atom_site_label
 _atom_site_symmetry_multiplicity
 _atom_site_fract_x
 _atom_site_fract_y
 _atom_site_fract_z
 _atom_site_occupancy
  Li  Li0  1  0.999412  0.765117  0.500000  1
  Tb  Tb1  1  0.013253  0.414622  0.000000  1
  Tb  Tb2  1  0.575065  0.591625  0.000000  1
  Tb  Tb3  1  0.410195  0.990333  0.000000  1
  Zn  Zn4  1  0.246102  0.244794  0.500000  1
  Zn  Zn5  1  0.750152  0.992024  0.500000  1
  Pd  Pd6  1  0.000520  0.004635  0.000000  1
  Pd  Pd7  1  0.669015  0.333351  0.500000  1
  Ru  Ru8  1  0.336287  0.663500  0.500000  1
