# generated using pymatgen
data_Dy8Si16(Mo3W)3
_symmetry_space_group_name_H-M   'P 1'
_cell_length_a   6.77532110
_cell_length_b   6.94592759
_cell_length_c   12.90710600
_cell_angle_alpha   90.00000000
_cell_angle_beta   90.00000000
_cell_angle_gamma   89.96652202
_symmetry_Int_Tables_number   1
_chemical_formula_structural   Dy8Si16(Mo3W)3
_chemical_formula_sum   'Dy8 Si16 Mo9 W3'
_cell_volume   607.41978880
_cell_formula_units_Z   1
loop_
 _symmetry_equiv_pos_site_id
 _symmetry_equiv_pos_as_xyz
  1  'x, y, z'
loop_
 _atom_site_type_symbol
 _atom_site_label
 _atom_site_symmetry_multiplicity
 _atom_site_fract_x
 _atom_site_fract_y
 _atom_site_fract_z
 _atom_site_occupancy
  Dy  Dy0  1  0.496887  0.332565  0.093786  1
  Dy  Dy1  1  0.997071  0.167183  0.406096  1
  Dy  Dy2  1  0.502815  0.667201  0.594008  1
  Dy  Dy3  1  0.003265  0.832686  0.905933  1
  Dy  Dy4  1  0.502815  0.667201  0.905992  1
  Dy  Dy5  1  0.003265  0.832686  0.594067  1
  Dy  Dy6  1  0.496887  0.332565  0.406214  1
  Dy  Dy7  1  0.997071  0.167183  0.093904  1
  Si  Si8  1  0.659452  0.042326  0.547681  1
  Si  Si9  1  0.159285  0.457442  0.952343  1
  Si  Si10  1  0.340548  0.957823  0.047445  1
  Si  Si11  1  0.841045  0.542919  0.452247  1
  Si  Si12  1  0.340548  0.957823  0.452555  1
  Si  Si13  1  0.841045  0.542919  0.047753  1
  Si  Si14  1  0.659452  0.042326  0.952319  1
  Si  Si15  1  0.159285  0.457442  0.547657  1
  Si  Si16  1  0.534976  0.367453  0.750000  1
  Si  Si17  1  0.034581  0.132433  0.750000  1
  Si  Si18  1  0.465459  0.632649  0.250000  1
  Si  Si19  1  0.964831  0.866281  0.250000  1
  Si  Si20  1  0.802364  0.630589  0.750000  1
  Si  Si21  1  0.302559  0.869588  0.750000  1
  Si  Si22  1  0.197350  0.370352  0.250000  1
  Si  Si23  1  0.697418  0.129765  0.250000  1
  Mo  Mo24  1  0.830768  0.335804  0.625742  1
  Mo  Mo25  1  0.330817  0.164259  0.874077  1
  Mo  Mo26  1  0.169931  0.664898  0.125654  1
  Mo  Mo27  1  0.668633  0.835839  0.374290  1
  Mo  Mo28  1  0.169931  0.664898  0.374346  1
  Mo  Mo29  1  0.668633  0.835839  0.125710  1
  Mo  Mo30  1  0.830768  0.335804  0.874258  1
  Mo  Mo31  1  0.330817  0.164259  0.625923  1
  Mo  Mo32  1  0.834598  0.499289  0.250000  1
  W  W33  1  0.665093  0.000105  0.750000  1
  W  W34  1  0.164946  0.499777  0.750000  1
  W  W35  1  0.334794  0.999829  0.250000  1
