# generated using pymatgen
data_Sc4Si6Ir5Pd2
_symmetry_space_group_name_H-M   'P 1'
_cell_length_a   6.99116565
_cell_length_b   6.99907335
_cell_length_c   6.99907288
_cell_angle_alpha   109.79463442
_cell_angle_beta   109.33245292
_cell_angle_gamma   109.33246785
_symmetry_Int_Tables_number   1
_chemical_formula_structural   Sc4Si6Ir5Pd2
_chemical_formula_sum   'Sc4 Si6 Ir5 Pd2'
_cell_volume   263.48474022
_cell_formula_units_Z   1
loop_
 _symmetry_equiv_pos_site_id
 _symmetry_equiv_pos_as_xyz
  1  'x, y, z'
loop_
 _atom_site_type_symbol
 _atom_site_label
 _atom_site_symmetry_multiplicity
 _atom_site_fract_x
 _atom_site_fract_y
 _atom_site_fract_z
 _atom_site_occupancy
  Sc  Sc0  1  0.003428  0.001714  0.501714  1
  Sc  Sc1  1  0.003428  0.501714  0.001714  1
  Sc  Sc2  1  0.495642  0.993670  0.993670  1
  Sc  Sc3  1  0.495642  0.501972  0.501972  1
  Si  Si4  1  0.679945  0.683538  0.996407  1
  Si  Si5  1  0.313900  0.996945  0.316955  1
  Si  Si6  1  0.006258  0.319044  0.319044  1
  Si  Si7  1  0.313900  0.316955  0.996945  1
  Si  Si8  1  0.679945  0.996407  0.683538  1
  Si  Si9  1  0.006258  0.687214  0.687214  1
  Ir  Ir10  1  0.502442  0.251221  0.751221  1
  Ir  Ir11  1  0.248495  0.499511  0.748984  1
  Ir  Ir12  1  0.248495  0.748984  0.499511  1
  Ir  Ir13  1  0.502442  0.751221  0.251221  1
  Ir  Ir14  1  0.999487  0.999744  0.999744  1
  Pd  Pd15  1  0.750146  0.251124  0.499022  1
  Pd  Pd16  1  0.750146  0.499022  0.251124  1
