# generated using pymatgen
data_Ga2Ni3SnO8
_symmetry_space_group_name_H-M   'P 1'
_cell_length_a   5.95628571
_cell_length_b   5.95612889
_cell_length_c   10.54390668
_cell_angle_alpha   90.00004980
_cell_angle_beta   73.58603016
_cell_angle_gamma   119.99921393
_symmetry_Int_Tables_number   1
_chemical_formula_structural   Ga2Ni3SnO8
_chemical_formula_sum   'Ga4 Ni6 Sn2 O16'
_cell_volume   306.21854090
_cell_formula_units_Z   2
loop_
 _symmetry_equiv_pos_site_id
 _symmetry_equiv_pos_as_xyz
  1  'x, y, z'
loop_
 _atom_site_type_symbol
 _atom_site_label
 _atom_site_symmetry_multiplicity
 _atom_site_fract_x
 _atom_site_fract_y
 _atom_site_fract_z
 _atom_site_occupancy
  Ga  Ga0  1  0.005528  0.002767  0.991759  1
  Ga  Ga1  1  0.005520  0.502754  0.491760  1
  Ga  Ga2  1  0.744411  0.872211  0.383311  1
  Ga  Ga3  1  0.744415  0.372203  0.883311  1
  Ni  Ni4  1  0.374982  0.437502  0.187508  1
  Ni  Ni5  1  0.374986  0.937499  0.187505  1
  Ni  Ni6  1  0.875031  0.437524  0.187484  1
  Ni  Ni7  1  0.374961  0.937477  0.687509  1
  Ni  Ni8  1  0.374987  0.437474  0.687508  1
  Ni  Ni9  1  0.875017  0.937513  0.687481  1
  Sn  Sn10  1  0.375028  0.687513  0.937482  1
  Sn  Sn11  1  0.375013  0.187505  0.437482  1
  O  O12  1  0.619702  0.809849  0.570541  1
  O  O13  1  0.619727  0.309873  0.070540  1
  O  O14  1  0.130251  0.565132  0.304480  1
  O  O15  1  0.130241  0.065114  0.804482  1
  O  O16  1  0.135534  0.567748  0.811746  1
  O  O17  1  0.135527  0.067771  0.311744  1
  O  O18  1  0.620490  0.567724  0.811690  1
  O  O19  1  0.620481  0.067727  0.311688  1
  O  O20  1  0.620471  0.052755  0.811691  1
  O  O21  1  0.620474  0.552760  0.311693  1
  O  O22  1  0.129594  0.322293  0.063276  1
  O  O23  1  0.129573  0.822282  0.563274  1
  O  O24  1  0.129595  0.807307  0.063274  1
  O  O25  1  0.129586  0.307296  0.563277  1
  O  O26  1  0.614441  0.807229  0.063258  1
  O  O27  1  0.614432  0.307201  0.563257  1
