# generated using pymatgen
data_Dy2PdPbAu
_symmetry_space_group_name_H-M   'P 1'
_cell_length_a   8.13093300
_cell_length_b   8.09762400
_cell_length_c   3.58702700
_cell_angle_alpha   90.00000000
_cell_angle_beta   90.00000000
_cell_angle_gamma   90.00000000
_symmetry_Int_Tables_number   1
_chemical_formula_structural   Dy2PdPbAu
_chemical_formula_sum   'Dy4 Pd2 Pb2 Au2'
_cell_volume   236.17429915
_cell_formula_units_Z   2
loop_
 _symmetry_equiv_pos_site_id
 _symmetry_equiv_pos_as_xyz
  1  'x, y, z'
loop_
 _atom_site_type_symbol
 _atom_site_label
 _atom_site_symmetry_multiplicity
 _atom_site_fract_x
 _atom_site_fract_y
 _atom_site_fract_z
 _atom_site_occupancy
  Dy  Dy0  1  0.675594  0.167240  0.500000  1
  Dy  Dy1  1  0.159017  0.330205  0.500000  1
  Dy  Dy2  1  0.824406  0.667240  0.500000  1
  Dy  Dy3  1  0.340983  0.830205  0.500000  1
  Pd  Pd4  1  0.627764  0.874555  0.000000  1
  Pd  Pd5  1  0.872236  0.374555  0.000000  1
  Pb  Pb6  1  0.992951  0.001791  0.000000  1
  Pb  Pb7  1  0.507049  0.501791  0.000000  1
  Au  Au8  1  0.376338  0.126210  0.000000  1
  Au  Au9  1  0.123662  0.626210  0.000000  1
