# generated using pymatgen
data_RbTmTa6Cl18
_symmetry_space_group_name_H-M   'P 1'
_cell_length_a   10.16952661
_cell_length_b   10.16952696
_cell_length_c   10.16952700
_cell_angle_alpha   55.62595127
_cell_angle_beta   55.62594993
_cell_angle_gamma   55.62595346
_symmetry_Int_Tables_number   1
_chemical_formula_structural   RbTmTa6Cl18
_chemical_formula_sum   'Rb1 Tm1 Ta6 Cl18'
_cell_volume   668.19662443
_cell_formula_units_Z   1
loop_
 _symmetry_equiv_pos_site_id
 _symmetry_equiv_pos_as_xyz
  1  'x, y, z'
loop_
 _atom_site_type_symbol
 _atom_site_label
 _atom_site_symmetry_multiplicity
 _atom_site_fract_x
 _atom_site_fract_y
 _atom_site_fract_z
 _atom_site_occupancy
  Rb  Rb0  1  0.223686  0.223686  0.223686  1
  Tm  Tm1  1  0.498660  0.498660  0.498660  1
  Ta  Ta2  1  0.806451  0.148229  0.907933  1
  Ta  Ta3  1  0.907933  0.806451  0.148229  1
  Ta  Ta4  1  0.148229  0.907933  0.806451  1
  Ta  Ta5  1  0.194929  0.852007  0.090602  1
  Ta  Ta6  1  0.090602  0.194929  0.852007  1
  Ta  Ta7  1  0.852007  0.090602  0.194929  1
  Cl  Cl8  1  0.873743  0.410017  0.718762  1
  Cl  Cl9  1  0.718762  0.873743  0.410017  1
  Cl  Cl10  1  0.410017  0.718762  0.873743  1
  Cl  Cl11  1  0.125289  0.589705  0.283134  1
  Cl  Cl12  1  0.283134  0.125289  0.589705  1
  Cl  Cl13  1  0.589705  0.283134  0.125289  1
  Cl  Cl14  1  0.545298  0.340340  0.793140  1
  Cl  Cl15  1  0.793140  0.545298  0.340340  1
  Cl  Cl16  1  0.340340  0.793140  0.545298  1
  Cl  Cl17  1  0.451895  0.661903  0.208529  1
  Cl  Cl18  1  0.208529  0.451895  0.661903  1
  Cl  Cl19  1  0.661903  0.208529  0.451895  1
  Cl  Cl20  1  0.660055  0.943995  0.065886  1
  Cl  Cl21  1  0.065886  0.660055  0.943995  1
  Cl  Cl22  1  0.943995  0.065886  0.660055  1
  Cl  Cl23  1  0.343156  0.054586  0.929207  1
  Cl  Cl24  1  0.929207  0.343156  0.054586  1
  Cl  Cl25  1  0.054586  0.929207  0.343156  1
