# generated using pymatgen
data_TbSmFe6(P3Rh2)2
_symmetry_space_group_name_H-M   'P 1'
_cell_length_a   3.78550400
_cell_length_b   10.39396800
_cell_length_c   12.22359400
_cell_angle_alpha   90.00000000
_cell_angle_beta   90.00000000
_cell_angle_gamma   90.00000000
_symmetry_Int_Tables_number   1
_chemical_formula_structural   TbSmFe6(P3Rh2)2
_chemical_formula_sum   'Tb2 Sm2 Fe12 P12 Rh8'
_cell_volume   480.95450990
_cell_formula_units_Z   2
loop_
 _symmetry_equiv_pos_site_id
 _symmetry_equiv_pos_as_xyz
  1  'x, y, z'
loop_
 _atom_site_type_symbol
 _atom_site_label
 _atom_site_symmetry_multiplicity
 _atom_site_fract_x
 _atom_site_fract_y
 _atom_site_fract_z
 _atom_site_occupancy
  Tb  Tb0  1  0.750000  0.419046  0.289230  1
  Tb  Tb1  1  0.750000  0.080954  0.789230  1
  Sm  Sm2  1  0.250000  0.581044  0.710697  1
  Sm  Sm3  1  0.250000  0.918956  0.210697  1
  Fe  Fe4  1  0.250000  0.224731  0.170587  1
  Fe  Fe5  1  0.250000  0.275269  0.670587  1
  Fe  Fe6  1  0.750000  0.776405  0.829500  1
  Fe  Fe7  1  0.750000  0.723595  0.329500  1
  Fe  Fe8  1  0.250000  0.878454  0.697233  1
  Fe  Fe9  1  0.250000  0.621546  0.197233  1
  Fe  Fe10  1  0.750000  0.123297  0.303221  1
  Fe  Fe11  1  0.750000  0.376703  0.803221  1
  Fe  Fe12  1  0.250000  0.458779  0.935884  1
  Fe  Fe13  1  0.250000  0.041221  0.435884  1
  Fe  Fe14  1  0.750000  0.540129  0.065006  1
  Fe  Fe15  1  0.750000  0.959871  0.565006  1
  P  P16  1  0.250000  0.429631  0.112691  1
  P  P17  1  0.250000  0.070369  0.612691  1
  P  P18  1  0.750000  0.569919  0.888739  1
  P  P19  1  0.750000  0.930081  0.388739  1
  P  P20  1  0.250000  0.274439  0.852860  1
  P  P21  1  0.250000  0.225561  0.352860  1
  P  P22  1  0.750000  0.724084  0.146842  1
  P  P23  1  0.750000  0.775916  0.646842  1
  P  P24  1  0.250000  0.606644  0.378107  1
  P  P25  1  0.250000  0.893356  0.878107  1
  P  P26  1  0.750000  0.391880  0.621527  1
  P  P27  1  0.750000  0.108120  0.121527  1
  Rh  Rh28  1  0.250000  0.707040  0.985011  1
  Rh  Rh29  1  0.250000  0.792960  0.485011  1
  Rh  Rh30  1  0.750000  0.292832  0.014707  1
  Rh  Rh31  1  0.750000  0.207168  0.514707  1
  Rh  Rh32  1  0.250000  0.404446  0.479368  1
  Rh  Rh33  1  0.250000  0.095554  0.979368  1
  Rh  Rh34  1  0.750000  0.595245  0.518792  1
  Rh  Rh35  1  0.750000  0.904755  0.018792  1
