# generated using pymatgen
data_Ca10Si3Pd7
_symmetry_space_group_name_H-M   'P 1'
_cell_length_a   8.83391000
_cell_length_b   8.83391095
_cell_length_c   13.85546700
_cell_angle_alpha   90.00000000
_cell_angle_beta   90.00000000
_cell_angle_gamma   120.00000391
_symmetry_Int_Tables_number   1
_chemical_formula_structural   Ca10Si3Pd7
_chemical_formula_sum   'Ca20 Si6 Pd14'
_cell_volume   936.39216352
_cell_formula_units_Z   2
loop_
 _symmetry_equiv_pos_site_id
 _symmetry_equiv_pos_as_xyz
  1  'x, y, z'
loop_
 _atom_site_type_symbol
 _atom_site_label
 _atom_site_symmetry_multiplicity
 _atom_site_fract_x
 _atom_site_fract_y
 _atom_site_fract_z
 _atom_site_occupancy
  Ca  Ca0  1  0.000000  0.744544  0.890639  1
  Ca  Ca1  1  0.255456  0.255456  0.890639  1
  Ca  Ca2  1  0.744544  0.000000  0.890639  1
  Ca  Ca3  1  0.000000  0.255456  0.109361  1
  Ca  Ca4  1  0.744544  0.744544  0.109361  1
  Ca  Ca5  1  0.255456  0.000000  0.109361  1
  Ca  Ca6  1  0.000000  0.255456  0.390639  1
  Ca  Ca7  1  0.744544  0.744544  0.390639  1
  Ca  Ca8  1  0.255456  0.000000  0.390639  1
  Ca  Ca9  1  0.000000  0.744544  0.609361  1
  Ca  Ca10  1  0.255456  0.255456  0.609361  1
  Ca  Ca11  1  0.744544  0.000000  0.609361  1
  Ca  Ca12  1  0.666667  0.333333  0.000000  1
  Ca  Ca13  1  0.333333  0.666667  0.000000  1
  Ca  Ca14  1  0.333333  0.666667  0.500000  1
  Ca  Ca15  1  0.666667  0.333333  0.500000  1
  Ca  Ca16  1  0.333333  0.666667  0.750000  1
  Ca  Ca17  1  0.666667  0.333333  0.750000  1
  Ca  Ca18  1  0.666667  0.333333  0.250000  1
  Ca  Ca19  1  0.333333  0.666667  0.250000  1
  Si  Si20  1  0.000000  0.287752  0.750000  1
  Si  Si21  1  0.712248  0.712248  0.750000  1
  Si  Si22  1  0.287752  0.000000  0.750000  1
  Si  Si23  1  0.000000  0.712248  0.250000  1
  Si  Si24  1  0.287752  0.287752  0.250000  1
  Si  Si25  1  0.712248  0.000000  0.250000  1
  Pd  Pd26  1  0.000000  0.000000  0.750000  1
  Pd  Pd27  1  0.000000  0.000000  0.250000  1
  Pd  Pd28  1  0.000000  0.411997  0.903535  1
  Pd  Pd29  1  0.588003  0.588003  0.903535  1
  Pd  Pd30  1  0.411997  0.000000  0.903535  1
  Pd  Pd31  1  0.000000  0.588003  0.096465  1
  Pd  Pd32  1  0.411997  0.411997  0.096465  1
  Pd  Pd33  1  0.588003  0.000000  0.096465  1
  Pd  Pd34  1  0.000000  0.588003  0.403535  1
  Pd  Pd35  1  0.411997  0.411997  0.403535  1
  Pd  Pd36  1  0.588003  0.000000  0.403535  1
  Pd  Pd37  1  0.000000  0.411997  0.596465  1
  Pd  Pd38  1  0.588003  0.588003  0.596465  1
  Pd  Pd39  1  0.411997  0.000000  0.596465  1
