# generated using pymatgen
data_La2Al19CuRh4
_symmetry_space_group_name_H-M   'P 1'
_cell_length_a   6.87977901
_cell_length_b   6.90060624
_cell_length_c   9.19930100
_cell_angle_alpha   90.00000000
_cell_angle_beta   90.00000000
_cell_angle_gamma   97.50121645
_symmetry_Int_Tables_number   1
_chemical_formula_structural   La2Al19CuRh4
_chemical_formula_sum   'La2 Al19 Cu1 Rh4'
_cell_volume   432.99603138
_cell_formula_units_Z   1
loop_
 _symmetry_equiv_pos_site_id
 _symmetry_equiv_pos_as_xyz
  1  'x, y, z'
loop_
 _atom_site_type_symbol
 _atom_site_label
 _atom_site_symmetry_multiplicity
 _atom_site_fract_x
 _atom_site_fract_y
 _atom_site_fract_z
 _atom_site_occupancy
  La  La0  1  0.879033  0.120875  0.750000  1
  La  La1  1  0.120221  0.876538  0.250000  1
  Al  Al2  1  0.627406  0.390562  0.574716  1
  Al  Al3  1  0.383571  0.618202  0.446439  1
  Al  Al4  1  0.383571  0.618202  0.053561  1
  Al  Al5  1  0.627406  0.390562  0.925284  1
  Al  Al6  1  0.230047  0.226969  0.501804  1
  Al  Al7  1  0.776152  0.769789  0.506082  1
  Al  Al8  1  0.776152  0.769789  0.993918  1
  Al  Al9  1  0.230047  0.226969  0.998196  1
  Al  Al10  1  0.831776  0.164809  0.101778  1
  Al  Al11  1  0.158371  0.832496  0.896174  1
  Al  Al12  1  0.158371  0.832496  0.603826  1
  Al  Al13  1  0.831776  0.164809  0.398222  1
  Al  Al14  1  0.139149  0.402722  0.250000  1
  Al  Al15  1  0.401735  0.130280  0.750000  1
  Al  Al16  1  0.597192  0.860367  0.250000  1
  Al  Al17  1  0.207791  0.483218  0.750000  1
  Al  Al18  1  0.772854  0.519805  0.250000  1
  Al  Al19  1  0.521438  0.764835  0.750000  1
  Al  Al20  1  0.480631  0.225767  0.250000  1
  Cu  Cu21  1  0.859714  0.621834  0.750000  1
  Rh  Rh22  1  0.004128  0.495975  0.493283  1
  Rh  Rh23  1  0.004128  0.495975  0.006717  1
  Rh  Rh24  1  0.498669  0.998077  0.000368  1
  Rh  Rh25  1  0.498669  0.998077  0.499632  1
