# generated using pymatgen
data_LiSm6Zr(MnC6)2
_symmetry_space_group_name_H-M   'P 1'
_cell_length_a   8.40228900
_cell_length_b   8.40228886
_cell_length_c   5.21199400
_cell_angle_alpha   90.00000000
_cell_angle_beta   90.00000000
_cell_angle_gamma   120.00000134
_symmetry_Int_Tables_number   1
_chemical_formula_structural   LiSm6Zr(MnC6)2
_chemical_formula_sum   'Li1 Sm6 Zr1 Mn2 C12'
_cell_volume   318.66161716
_cell_formula_units_Z   1
loop_
 _symmetry_equiv_pos_site_id
 _symmetry_equiv_pos_as_xyz
  1  'x, y, z'
loop_
 _atom_site_type_symbol
 _atom_site_label
 _atom_site_symmetry_multiplicity
 _atom_site_fract_x
 _atom_site_fract_y
 _atom_site_fract_z
 _atom_site_occupancy
  Li  Li0  1  0.000000  0.000000  0.500000  1
  Sm  Sm1  1  0.616157  0.678412  0.746262  1
  Sm  Sm2  1  0.937746  0.616157  0.253738  1
  Sm  Sm3  1  0.678412  0.062254  0.253738  1
  Sm  Sm4  1  0.321588  0.937746  0.746262  1
  Sm  Sm5  1  0.062254  0.383843  0.746262  1
  Sm  Sm6  1  0.383843  0.321588  0.253738  1
  Zr  Zr7  1  0.000000  0.000000  0.000000  1
  Mn  Mn8  1  0.666667  0.333333  0.744369  1
  Mn  Mn9  1  0.333333  0.666667  0.255631  1
  C  C10  1  0.967105  0.750232  0.763346  1
  C  C11  1  0.216874  0.967105  0.236654  1
  C  C12  1  0.750232  0.783126  0.236654  1
  C  C13  1  0.249768  0.216874  0.763346  1
  C  C14  1  0.783126  0.032895  0.763346  1
  C  C15  1  0.032895  0.249768  0.236654  1
  C  C16  1  0.857457  0.566149  0.749581  1
  C  C17  1  0.291307  0.857457  0.250419  1
  C  C18  1  0.566149  0.708693  0.250419  1
  C  C19  1  0.433851  0.291307  0.749581  1
  C  C20  1  0.142543  0.433851  0.250419  1
  C  C21  1  0.708693  0.142543  0.749581  1
