# generated using pymatgen
data_Al(FeBr4)3
_symmetry_space_group_name_H-M   'P 1'
_cell_length_a   7.56435921
_cell_length_b   8.03516740
_cell_length_c   11.31692074
_cell_angle_alpha   81.96146345
_cell_angle_beta   90.19916257
_cell_angle_gamma   89.63600182
_symmetry_Int_Tables_number   1
_chemical_formula_structural   Al(FeBr4)3
_chemical_formula_sum   'Al1 Fe3 Br12'
_cell_volume   681.07350686
_cell_formula_units_Z   1
loop_
 _symmetry_equiv_pos_site_id
 _symmetry_equiv_pos_as_xyz
  1  'x, y, z'
loop_
 _atom_site_type_symbol
 _atom_site_label
 _atom_site_symmetry_multiplicity
 _atom_site_fract_x
 _atom_site_fract_y
 _atom_site_fract_z
 _atom_site_occupancy
  Al  Al0  1  0.413192  0.187980  0.948799  1
  Fe  Fe1  1  0.085969  0.187214  0.449939  1
  Fe  Fe2  1  0.587064  0.811514  0.050335  1
  Fe  Fe3  1  0.913441  0.813220  0.550194  1
  Br  Br4  1  0.923675  0.393358  0.337645  1
  Br  Br5  1  0.425140  0.608472  0.162472  1
  Br  Br6  1  0.075758  0.607189  0.662654  1
  Br  Br7  1  0.577864  0.387016  0.839309  1
  Br  Br8  1  0.374882  0.249739  0.485383  1
  Br  Br9  1  0.875306  0.749405  0.015403  1
  Br  Br10  1  0.624857  0.750375  0.514699  1
  Br  Br11  1  0.127186  0.245121  0.986420  1
  Br  Br12  1  0.066892  0.920819  0.361704  1
  Br  Br13  1  0.564613  0.082454  0.134341  1
  Br  Br14  1  0.932702  0.079569  0.638230  1
  Br  Br15  1  0.431460  0.926554  0.862471  1
