# generated using pymatgen
data_CaB2IrRu
_symmetry_space_group_name_H-M   'P 1'
_cell_length_a   6.89618142
_cell_length_b   6.01786852
_cell_length_c   5.56761172
_cell_angle_alpha   72.94293145
_cell_angle_beta   56.53816701
_cell_angle_gamma   50.51890286
_symmetry_Int_Tables_number   1
_chemical_formula_structural   CaB2IrRu
_chemical_formula_sum   'Ca2 B4 Ir2 Ru2'
_cell_volume   148.18988133
_cell_formula_units_Z   2
loop_
 _symmetry_equiv_pos_site_id
 _symmetry_equiv_pos_as_xyz
  1  'x, y, z'
loop_
 _atom_site_type_symbol
 _atom_site_label
 _atom_site_symmetry_multiplicity
 _atom_site_fract_x
 _atom_site_fract_y
 _atom_site_fract_z
 _atom_site_occupancy
  Ca  Ca0  1  0.000220  0.000220  0.999780  1
  Ca  Ca1  1  0.250220  0.250220  0.249780  1
  B  B2  1  0.320959  0.678213  0.317861  1
  B  B3  1  0.567033  0.932139  0.571787  1
  B  B4  1  0.678213  0.320959  0.682967  1
  B  B5  1  0.932139  0.567033  0.929041  1
  Ir  Ir6  1  0.616560  0.616560  0.883440  1
  Ir  Ir7  1  0.366560  0.366560  0.633440  1
  Ru  Ru8  1  0.634048  0.634048  0.365952  1
  Ru  Ru9  1  0.884048  0.884048  0.615952  1
