# generated using pymatgen
data_DyCd2Cu(Ni3B)2
_symmetry_space_group_name_H-M   'P 1'
_cell_length_a   5.00993000
_cell_length_b   5.01048110
_cell_length_c   13.98615500
_cell_angle_alpha   90.00000000
_cell_angle_beta   90.00000000
_cell_angle_gamma   120.01212914
_symmetry_Int_Tables_number   1
_chemical_formula_structural   DyCd2Cu(Ni3B)2
_chemical_formula_sum   'Dy2 Cd4 Cu2 Ni12 B4'
_cell_volume   304.00936484
_cell_formula_units_Z   2
loop_
 _symmetry_equiv_pos_site_id
 _symmetry_equiv_pos_as_xyz
  1  'x, y, z'
loop_
 _atom_site_type_symbol
 _atom_site_label
 _atom_site_symmetry_multiplicity
 _atom_site_fract_x
 _atom_site_fract_y
 _atom_site_fract_z
 _atom_site_occupancy
  Dy  Dy0  1  0.666684  0.333342  0.750000  1
  Dy  Dy1  1  0.333316  0.666658  0.250000  1
  Cd  Cd2  1  0.333335  0.666667  0.471324  1
  Cd  Cd3  1  0.666665  0.333333  0.971324  1
  Cd  Cd4  1  0.666665  0.333333  0.528676  1
  Cd  Cd5  1  0.333335  0.666667  0.028676  1
  Cu  Cu6  1  0.000000  0.000000  0.000000  1
  Cu  Cu7  1  0.000000  0.000000  0.500000  1
  Ni  Ni8  1  0.833018  0.666041  0.352575  1
  Ni  Ni9  1  0.334013  0.167003  0.352545  1
  Ni  Ni10  1  0.833022  0.166995  0.147454  1
  Ni  Ni11  1  0.665987  0.832997  0.647455  1
  Ni  Ni12  1  0.166982  0.333959  0.647425  1
  Ni  Ni13  1  0.833018  0.666041  0.147425  1
  Ni  Ni14  1  0.334013  0.167003  0.147455  1
  Ni  Ni15  1  0.665987  0.832997  0.852545  1
  Ni  Ni16  1  0.166982  0.333959  0.852575  1
  Ni  Ni17  1  0.166978  0.833005  0.647454  1
  Ni  Ni18  1  0.166978  0.833005  0.852546  1
  Ni  Ni19  1  0.833022  0.166995  0.352546  1
  B  B20  1  0.666702  0.333320  0.250000  1
  B  B21  1  0.333298  0.666680  0.750000  1
  B  B22  1  0.999969  0.999939  0.750000  1
  B  B23  1  0.000031  0.000061  0.250000  1
