# generated using pymatgen
data_Tb4Ho12Cd4Ni3Pd
_symmetry_space_group_name_H-M   'P 1'
_cell_length_a   9.57451865
_cell_length_b   9.54984306
_cell_length_c   9.54984400
_cell_angle_alpha   59.99999674
_cell_angle_beta   60.08521376
_cell_angle_gamma   60.08521408
_symmetry_Int_Tables_number   1
_chemical_formula_structural   Tb4Ho12Cd4Ni3Pd
_chemical_formula_sum   'Tb4 Ho12 Cd4 Ni3 Pd1'
_cell_volume   618.23363351
_cell_formula_units_Z   1
loop_
 _symmetry_equiv_pos_site_id
 _symmetry_equiv_pos_as_xyz
  1  'x, y, z'
loop_
 _atom_site_type_symbol
 _atom_site_label
 _atom_site_symmetry_multiplicity
 _atom_site_fract_x
 _atom_site_fract_y
 _atom_site_fract_z
 _atom_site_occupancy
  Tb  Tb0  1  0.342623  0.354965  0.354965  1
  Tb  Tb1  1  0.342623  0.354965  0.947449  1
  Tb  Tb2  1  0.342623  0.947449  0.354965  1
  Tb  Tb3  1  0.953335  0.348889  0.348889  1
  Ho  Ho4  1  0.818666  0.187581  0.187581  1
  Ho  Ho5  1  0.188074  0.812670  0.812670  1
  Ho  Ho6  1  0.188074  0.812670  0.186586  1
  Ho  Ho7  1  0.818666  0.187581  0.806172  1
  Ho  Ho8  1  0.188074  0.186586  0.812670  1
  Ho  Ho9  1  0.818666  0.806172  0.187581  1
  Ho  Ho10  1  0.933995  0.565471  0.565471  1
  Ho  Ho11  1  0.565326  0.934821  0.934821  1
  Ho  Ho12  1  0.565326  0.934821  0.565033  1
  Ho  Ho13  1  0.933995  0.565471  0.935063  1
  Ho  Ho14  1  0.565326  0.565033  0.934821  1
  Ho  Ho15  1  0.933995  0.935063  0.565471  1
  Cd  Cd16  1  0.583247  0.581270  0.581270  1
  Cd  Cd17  1  0.583247  0.581270  0.254214  1
  Cd  Cd18  1  0.583247  0.254214  0.581270  1
  Cd  Cd19  1  0.253479  0.582174  0.582174  1
  Ni  Ni20  1  0.141971  0.142311  0.142311  1
  Ni  Ni21  1  0.141971  0.142311  0.573406  1
  Ni  Ni22  1  0.141971  0.573406  0.142311  1
  Pd  Pd23  1  0.571481  0.142840  0.142840  1
