# generated using pymatgen
data_Yb3Cd5(SiO4)4
_symmetry_space_group_name_H-M   'P 1'
_cell_length_a   5.10767871
_cell_length_b   6.65929800
_cell_length_c   11.23436246
_cell_angle_alpha   90.00000000
_cell_angle_beta   89.94046479
_cell_angle_gamma   90.00000000
_symmetry_Int_Tables_number   1
_chemical_formula_structural   Yb3Cd5(SiO4)4
_chemical_formula_sum   'Yb3 Cd5 Si4 O16'
_cell_volume   382.12039524
_cell_formula_units_Z   1
loop_
 _symmetry_equiv_pos_site_id
 _symmetry_equiv_pos_as_xyz
  1  'x, y, z'
loop_
 _atom_site_type_symbol
 _atom_site_label
 _atom_site_symmetry_multiplicity
 _atom_site_fract_x
 _atom_site_fract_y
 _atom_site_fract_z
 _atom_site_occupancy
  Yb  Yb0  1  0.488053  0.750000  0.221429  1
  Yb  Yb1  1  0.988294  0.250000  0.279239  1
  Yb  Yb2  1  0.012123  0.750000  0.720793  1
  Cd  Cd3  1  0.999522  0.000209  0.999836  1
  Cd  Cd4  1  0.999522  0.499792  0.999836  1
  Cd  Cd5  1  0.499804  0.999853  0.500274  1
  Cd  Cd6  1  0.499804  0.500148  0.500274  1
  Cd  Cd7  1  0.516760  0.250000  0.780937  1
  Si  Si8  1  0.424965  0.250000  0.097697  1
  Si  Si9  1  0.923751  0.750000  0.402394  1
  Si  Si10  1  0.077197  0.250000  0.598341  1
  Si  Si11  1  0.573664  0.750000  0.902778  1
  O  O12  1  0.699726  0.750000  0.040597  1
  O  O13  1  0.746652  0.250000  0.097440  1
  O  O14  1  0.293527  0.052167  0.164427  1
  O  O15  1  0.293527  0.447831  0.164427  1
  O  O16  1  0.793216  0.552221  0.335083  1
  O  O17  1  0.793216  0.947778  0.335083  1
  O  O18  1  0.245690  0.750000  0.402552  1
  O  O19  1  0.199672  0.250000  0.459422  1
  O  O20  1  0.799423  0.750000  0.540769  1
  O  O21  1  0.753956  0.250000  0.596367  1
  O  O22  1  0.204962  0.049380  0.663684  1
  O  O23  1  0.204962  0.450618  0.663684  1
  O  O24  1  0.708598  0.553476  0.835019  1
  O  O25  1  0.708598  0.946523  0.835019  1
  O  O26  1  0.252572  0.750000  0.903319  1
  O  O27  1  0.298242  0.250000  0.959277  1
