# generated using pymatgen
data_Cs4VP3(PtS4)4
_symmetry_space_group_name_H-M   'P 1'
_cell_length_a   8.66598927
_cell_length_b   8.66598927
_cell_length_c   12.56524800
_cell_angle_alpha   90.00000000
_cell_angle_beta   90.00000000
_cell_angle_gamma   92.95247121
_symmetry_Int_Tables_number   1
_chemical_formula_structural   Cs4VP3(PtS4)4
_chemical_formula_sum   'Cs4 V1 P3 Pt4 S16'
_cell_volume   942.38962447
_cell_formula_units_Z   1
loop_
 _symmetry_equiv_pos_site_id
 _symmetry_equiv_pos_as_xyz
  1  'x, y, z'
loop_
 _atom_site_type_symbol
 _atom_site_label
 _atom_site_symmetry_multiplicity
 _atom_site_fract_x
 _atom_site_fract_y
 _atom_site_fract_z
 _atom_site_occupancy
  Cs  Cs0  1  0.998708  0.501263  0.751087  1
  Cs  Cs1  1  0.501263  0.998708  0.751087  1
  Cs  Cs2  1  0.501263  0.998708  0.248913  1
  Cs  Cs3  1  0.998708  0.501263  0.248913  1
  V  V4  1  0.749840  0.749840  0.000000  1
  P  P5  1  0.250187  0.250187  0.000000  1
  P  P6  1  0.250374  0.749712  0.500000  1
  P  P7  1  0.749712  0.250374  0.500000  1
  Pt  Pt8  1  0.499904  0.499904  0.500000  1
  Pt  Pt9  1  0.985785  0.985785  0.000000  1
  Pt  Pt10  1  0.514317  0.514317  0.000000  1
  Pt  Pt11  1  0.999997  0.999997  0.500000  1
  S  S12  1  0.364571  0.364571  0.122920  1
  S  S13  1  0.641886  0.641886  0.139899  1
  S  S14  1  0.140473  0.859590  0.377224  1
  S  S15  1  0.859590  0.140473  0.377224  1
  S  S16  1  0.641886  0.641886  0.860101  1
  S  S17  1  0.364571  0.364571  0.877080  1
  S  S18  1  0.140473  0.859590  0.622776  1
  S  S19  1  0.859590  0.140473  0.622776  1
  S  S20  1  0.511156  0.230309  0.500000  1
  S  S21  1  0.488845  0.769534  0.500000  1
  S  S22  1  0.997738  0.718034  0.000000  1
  S  S23  1  0.012781  0.258505  0.000000  1
  S  S24  1  0.769534  0.488845  0.500000  1
  S  S25  1  0.230309  0.511156  0.500000  1
  S  S26  1  0.258505  0.012781  0.000000  1
  S  S27  1  0.718034  0.997738  0.000000  1
