# generated using pymatgen
data_LiMg3Ni3(As3Ir2)2
_symmetry_space_group_name_H-M   'P 1'
_cell_length_a   7.01756884
_cell_length_b   6.93954938
_cell_length_c   6.91694145
_cell_angle_alpha   109.18180991
_cell_angle_beta   109.62319168
_cell_angle_gamma   109.77042330
_symmetry_Int_Tables_number   1
_chemical_formula_structural   LiMg3Ni3(As3Ir2)2
_chemical_formula_sum   'Li1 Mg3 Ni3 As6 Ir4'
_cell_volume   258.78006367
_cell_formula_units_Z   1
loop_
 _symmetry_equiv_pos_site_id
 _symmetry_equiv_pos_as_xyz
  1  'x, y, z'
loop_
 _atom_site_type_symbol
 _atom_site_label
 _atom_site_symmetry_multiplicity
 _atom_site_fract_x
 _atom_site_fract_y
 _atom_site_fract_z
 _atom_site_occupancy
  Li  Li0  1  0.993987  0.987976  0.493987  1
  Mg  Mg1  1  0.500460  0.000919  0.000460  1
  Mg  Mg2  1  0.004952  0.503418  0.008551  1
  Mg  Mg3  1  0.498466  0.503418  0.494866  1
  Ni  Ni4  1  0.251219  0.502439  0.751219  1
  Ni  Ni5  1  0.747918  0.254452  0.504543  1
  Ni  Ni6  1  0.506534  0.254452  0.749909  1
  As  As7  1  0.684700  0.682937  0.996681  1
  As  As8  1  0.305454  0.305719  0.976979  1
  As  As9  1  0.998237  0.682937  0.686256  1
  As  As10  1  0.000265  0.305719  0.328739  1
  As  As11  1  0.695009  0.010926  0.684497  1
  As  As12  1  0.315916  0.010926  0.326428  1
  Ir  Ir13  1  0.001244  0.002488  0.001244  1
  Ir  Ir14  1  0.494758  0.752797  0.240630  1
  Ir  Ir15  1  0.742841  0.485682  0.242841  1
  Ir  Ir16  1  0.258039  0.752797  0.512168  1
