# generated using pymatgen
data_La3SnRh3Pb2
_symmetry_space_group_name_H-M   'P 1'
_cell_length_a   7.68871500
_cell_length_b   7.69712371
_cell_length_c   4.24382900
_cell_angle_alpha   90.00000000
_cell_angle_beta   90.00000000
_cell_angle_gamma   119.96387297
_symmetry_Int_Tables_number   1
_chemical_formula_structural   La3SnRh3Pb2
_chemical_formula_sum   'La3 Sn1 Rh3 Pb2'
_cell_volume   217.58488515
_cell_formula_units_Z   1
loop_
 _symmetry_equiv_pos_site_id
 _symmetry_equiv_pos_as_xyz
  1  'x, y, z'
loop_
 _atom_site_type_symbol
 _atom_site_label
 _atom_site_symmetry_multiplicity
 _atom_site_fract_x
 _atom_site_fract_y
 _atom_site_fract_z
 _atom_site_occupancy
  La  La0  1  0.002921  0.589587  0.000000  1
  La  La1  1  0.413334  0.410413  0.000000  1
  La  La2  1  0.582878  0.000000  0.000000  1
  Sn  Sn3  1  0.248965  0.000000  0.500000  1
  Rh  Rh4  1  0.330879  0.674129  0.500000  1
  Rh  Rh5  1  0.656751  0.325871  0.500000  1
  Rh  Rh6  1  0.014622  0.000000  0.000000  1
  Pb  Pb7  1  0.749645  0.749641  0.500000  1
  Pb  Pb8  1  0.000004  0.250359  0.500000  1
