# generated using pymatgen
data_Tm4ScCu2Bi
_symmetry_space_group_name_H-M   'P 1'
_cell_length_a   8.37010147
_cell_length_b   8.37010135
_cell_length_c   8.37010054
_cell_angle_alpha   124.53062958
_cell_angle_beta   124.53062579
_cell_angle_gamma   82.31692709
_symmetry_Int_Tables_number   1
_chemical_formula_structural   Tm4ScCu2Bi
_chemical_formula_sum   'Tm8 Sc2 Cu4 Bi2'
_cell_volume   382.46927682
_cell_formula_units_Z   2
loop_
 _symmetry_equiv_pos_site_id
 _symmetry_equiv_pos_as_xyz
  1  'x, y, z'
loop_
 _atom_site_type_symbol
 _atom_site_label
 _atom_site_symmetry_multiplicity
 _atom_site_fract_x
 _atom_site_fract_y
 _atom_site_fract_z
 _atom_site_occupancy
  Tm  Tm0  1  0.792697  0.292697  0.811367  1
  Tm  Tm1  1  0.207303  0.707303  0.188633  1
  Tm  Tm2  1  0.481330  0.981330  0.188633  1
  Tm  Tm3  1  0.292697  0.481330  0.500000  1
  Tm  Tm4  1  0.018670  0.207303  0.500000  1
  Tm  Tm5  1  0.518670  0.018670  0.811367  1
  Tm  Tm6  1  0.707303  0.518670  0.500000  1
  Tm  Tm7  1  0.981330  0.792697  0.500000  1
  Sc  Sc8  1  0.000000  0.000000  0.000000  1
  Sc  Sc9  1  0.500000  0.500000  0.000000  1
  Cu  Cu10  1  0.133447  0.633447  0.766893  1
  Cu  Cu11  1  0.866553  0.366553  0.233107  1
  Cu  Cu12  1  0.633447  0.866553  0.500000  1
  Cu  Cu13  1  0.366553  0.133447  0.500000  1
  Bi  Bi14  1  0.250000  0.250000  0.000000  1
  Bi  Bi15  1  0.750000  0.750000  0.000000  1
