# generated using pymatgen
data_Ho4Bi5AsRh7
_symmetry_space_group_name_H-M   'P 1'
_cell_length_a   7.72033113
_cell_length_b   7.72108228
_cell_length_c   7.72108187
_cell_angle_alpha   106.68799527
_cell_angle_beta   110.87006737
_cell_angle_gamma   110.87009201
_symmetry_Int_Tables_number   1
_chemical_formula_structural   Ho4Bi5AsRh7
_chemical_formula_sum   'Ho4 Bi5 As1 Rh7'
_cell_volume   353.76957363
_cell_formula_units_Z   1
loop_
 _symmetry_equiv_pos_site_id
 _symmetry_equiv_pos_as_xyz
  1  'x, y, z'
loop_
 _atom_site_type_symbol
 _atom_site_label
 _atom_site_symmetry_multiplicity
 _atom_site_fract_x
 _atom_site_fract_y
 _atom_site_fract_z
 _atom_site_occupancy
  Ho  Ho0  1  0.450434  0.984935  0.984935  1
  Ho  Ho1  1  0.999345  0.531424  0.985289  1
  Ho  Ho2  1  0.999345  0.985289  0.531424  1
  Ho  Ho3  1  0.542293  0.528628  0.528628  1
  Bi  Bi4  1  0.997693  0.296631  0.296631  1
  Bi  Bi5  1  0.690077  0.015829  0.708293  1
  Bi  Bi6  1  0.690077  0.708293  0.015829  1
  Bi  Bi7  1  0.311403  0.015487  0.329199  1
  Bi  Bi8  1  0.311403  0.329199  0.015487  1
  As  As9  1  0.997749  0.642023  0.642023  1
  Rh  Rh10  1  0.005979  0.914814  0.914814  1
  Rh  Rh11  1  0.502504  0.763323  0.264707  1
  Rh  Rh12  1  0.755099  0.506015  0.259295  1
  Rh  Rh13  1  0.244496  0.748512  0.505597  1
  Rh  Rh14  1  0.244496  0.505597  0.748512  1
  Rh  Rh15  1  0.502504  0.264707  0.763323  1
  Rh  Rh16  1  0.755099  0.259295  0.506015  1
