# generated using pymatgen
data_TbHf2Zr(Al3Rh)6
_symmetry_space_group_name_H-M   'P 1'
_cell_length_a   7.48265206
_cell_length_b   7.47412963
_cell_length_c   9.29643500
_cell_angle_alpha   90.00000000
_cell_angle_beta   90.00000000
_cell_angle_gamma   119.69918413
_symmetry_Int_Tables_number   1
_chemical_formula_structural   TbHf2Zr(Al3Rh)6
_chemical_formula_sum   'Tb1 Hf2 Zr1 Al18 Rh6'
_cell_volume   451.61849934
_cell_formula_units_Z   1
loop_
 _symmetry_equiv_pos_site_id
 _symmetry_equiv_pos_as_xyz
  1  'x, y, z'
loop_
 _atom_site_type_symbol
 _atom_site_label
 _atom_site_symmetry_multiplicity
 _atom_site_fract_x
 _atom_site_fract_y
 _atom_site_fract_z
 _atom_site_occupancy
  Tb  Tb0  1  0.329016  0.006459  0.750000  1
  Hf  Hf1  1  0.993971  0.672125  0.250000  1
  Hf  Hf2  1  0.671781  0.993949  0.250000  1
  Zr  Zr3  1  0.005974  0.329247  0.750000  1
  Al  Al4  1  0.121485  0.123011  0.250000  1
  Al  Al5  1  0.871738  0.875404  0.750000  1
  Al  Al6  1  0.996456  0.334686  0.078179  1
  Al  Al7  1  0.000043  0.662491  0.927135  1
  Al  Al8  1  0.000043  0.662491  0.572865  1
  Al  Al9  1  0.335123  0.997201  0.417964  1
  Al  Al10  1  0.996456  0.334686  0.421821  1
  Al  Al11  1  0.668110  0.002316  0.572992  1
  Al  Al12  1  0.668110  0.002316  0.927008  1
  Al  Al13  1  0.335123  0.997201  0.082036  1
  Al  Al14  1  0.331331  0.333858  0.552348  1
  Al  Al15  1  0.669138  0.669039  0.439466  1
  Al  Al16  1  0.669138  0.669039  0.060534  1
  Al  Al17  1  0.331331  0.333858  0.947652  1
  Al  Al18  1  0.338154  0.554060  0.250000  1
  Al  Al19  1  0.666385  0.451592  0.750000  1
  Al  Al20  1  0.556117  0.339766  0.250000  1
  Al  Al21  1  0.445600  0.656111  0.750000  1
  Rh  Rh22  1  0.672831  0.327746  0.001737  1
  Rh  Rh23  1  0.328276  0.673772  0.002300  1
  Rh  Rh24  1  0.328276  0.673772  0.497700  1
  Rh  Rh25  1  0.672831  0.327746  0.498263  1
  Rh  Rh26  1  0.998581  0.998027  0.002406  1
  Rh  Rh27  1  0.998581  0.998027  0.497594  1
