# generated using pymatgen
data_LaTb19Sn13Sb3
_symmetry_space_group_name_H-M   'P 1'
_cell_length_a   8.13002919
_cell_length_b   8.22070853
_cell_length_c   15.52338900
_cell_angle_alpha   89.85979760
_cell_angle_beta   90.84071057
_cell_angle_gamma   90.19561281
_symmetry_Int_Tables_number   1
_chemical_formula_structural   LaTb19Sn13Sb3
_chemical_formula_sum   'La1 Tb19 Sn13 Sb3'
_cell_volume   1037.37878693
_cell_formula_units_Z   1
loop_
 _symmetry_equiv_pos_site_id
 _symmetry_equiv_pos_as_xyz
  1  'x, y, z'
loop_
 _atom_site_type_symbol
 _atom_site_label
 _atom_site_symmetry_multiplicity
 _atom_site_fract_x
 _atom_site_fract_y
 _atom_site_fract_z
 _atom_site_occupancy
  La  La0  1  0.530016  0.319470  0.400442  1
  Tb  Tb1  1  0.038246  0.170053  0.395364  1
  Tb  Tb2  1  0.370301  0.836125  0.121849  1
  Tb  Tb3  1  0.123935  0.338369  0.619779  1
  Tb  Tb4  1  0.476280  0.678356  0.900774  1
  Tb  Tb5  1  0.870287  0.662404  0.122655  1
  Tb  Tb6  1  0.129608  0.337399  0.876998  1
  Tb  Tb7  1  0.202934  0.500901  0.246486  1
  Tb  Tb8  1  0.703685  0.998837  0.246040  1
  Tb  Tb9  1  0.463902  0.677229  0.604742  1
  Tb  Tb10  1  0.296896  0.001124  0.751275  1
  Tb  Tb11  1  0.623215  0.160434  0.620997  1
  Tb  Tb12  1  0.796950  0.499508  0.753282  1
  Tb  Tb13  1  0.877326  0.660924  0.380403  1
  Tb  Tb14  1  0.023106  0.178142  0.097995  1
  Tb  Tb15  1  0.976210  0.821972  0.900645  1
  Tb  Tb16  1  0.629602  0.162921  0.877006  1
  Tb  Tb17  1  0.524258  0.322040  0.099373  1
  Tb  Tb18  1  0.376255  0.839027  0.379804  1
  Tb  Tb19  1  0.967977  0.827652  0.604133  1
  Sn  Sn20  1  0.664063  0.854661  0.750154  1
  Sn  Sn21  1  0.290114  0.036910  0.958332  1
  Sn  Sn22  1  0.838321  0.354290  0.249891  1
  Sn  Sn23  1  0.790621  0.463927  0.958722  1
  Sn  Sn24  1  0.570857  0.623618  0.252428  1
  Sn  Sn25  1  0.209619  0.535365  0.041243  1
  Sn  Sn26  1  0.429318  0.378416  0.747698  1
  Sn  Sn27  1  0.164022  0.645582  0.750026  1
  Sn  Sn28  1  0.929926  0.122140  0.747840  1
  Sn  Sn29  1  0.280393  0.030649  0.543252  1
  Sn  Sn30  1  0.709489  0.962975  0.040935  1
  Sn  Sn31  1  0.333029  0.142745  0.247099  1
  Sn  Sn32  1  0.069941  0.877150  0.251981  1
  Sb  Sb33  1  0.780301  0.477388  0.548186  1
  Sb  Sb34  1  0.723692  0.968131  0.456195  1
  Sb  Sb35  1  0.215305  0.533161  0.455977  1
