# generated using pymatgen
data_La2Si3Ge2Pd3
_symmetry_space_group_name_H-M   'P 1'
_cell_length_a   8.47083324
_cell_length_b   8.47083326
_cell_length_c   8.47083448
_cell_angle_alpha   137.34940480
_cell_angle_beta   105.44470807
_cell_angle_gamma   89.89644235
_symmetry_Int_Tables_number   1
_chemical_formula_structural   La2Si3Ge2Pd3
_chemical_formula_sum   'La4 Si6 Ge4 Pd6'
_cell_volume   379.01462511
_cell_formula_units_Z   2
loop_
 _symmetry_equiv_pos_site_id
 _symmetry_equiv_pos_as_xyz
  1  'x, y, z'
loop_
 _atom_site_type_symbol
 _atom_site_label
 _atom_site_symmetry_multiplicity
 _atom_site_fract_x
 _atom_site_fract_y
 _atom_site_fract_z
 _atom_site_occupancy
  La  La0  1  0.639254  0.372792  0.266462  1
  La  La1  1  0.360746  0.627208  0.733538  1
  La  La2  1  0.106329  0.872792  0.233538  1
  La  La3  1  0.893671  0.127208  0.766462  1
  Si  Si4  1  0.271617  0.521617  0.250000  1
  Si  Si5  1  0.728383  0.478383  0.750000  1
  Si  Si6  1  0.728383  0.978383  0.250000  1
  Si  Si7  1  0.271617  0.021617  0.750000  1
  Si  Si8  1  0.000000  0.250000  0.250000  1
  Si  Si9  1  0.000000  0.750000  0.750000  1
  Ge  Ge10  1  0.462248  0.114021  0.348228  1
  Ge  Ge11  1  0.537752  0.885979  0.651772  1
  Ge  Ge12  1  0.765793  0.614021  0.151772  1
  Ge  Ge13  1  0.234207  0.385979  0.848228  1
  Pd  Pd14  1  0.500000  0.250000  0.750000  1
  Pd  Pd15  1  0.500000  0.750000  0.250000  1
  Pd  Pd16  1  0.240691  0.138169  0.102523  1
  Pd  Pd17  1  0.759309  0.861831  0.897477  1
  Pd  Pd18  1  0.035645  0.638169  0.397477  1
  Pd  Pd19  1  0.964355  0.361831  0.602523  1
