# generated using pymatgen
data_Dy3Y16InIr12
_symmetry_space_group_name_H-M   'P 1'
_cell_length_a   10.90927200
_cell_length_b   10.90927200
_cell_length_c   6.34186800
_cell_angle_alpha   90.00000000
_cell_angle_beta   90.00000000
_cell_angle_gamma   90.00000000
_symmetry_Int_Tables_number   1
_chemical_formula_structural   Dy3Y16InIr12
_chemical_formula_sum   'Dy3 Y16 In1 Ir12'
_cell_volume   754.75976153
_cell_formula_units_Z   1
loop_
 _symmetry_equiv_pos_site_id
 _symmetry_equiv_pos_as_xyz
  1  'x, y, z'
loop_
 _atom_site_type_symbol
 _atom_site_label
 _atom_site_symmetry_multiplicity
 _atom_site_fract_x
 _atom_site_fract_y
 _atom_site_fract_z
 _atom_site_occupancy
  Dy  Dy0  1  0.000000  0.000000  0.000000  1
  Dy  Dy1  1  0.500000  0.500000  0.000000  1
  Dy  Dy2  1  0.500000  0.500000  0.500000  1
  Y  Y3  1  0.284055  0.085071  0.380438  1
  Y  Y4  1  0.290978  0.911443  0.880701  1
  Y  Y5  1  0.709022  0.088557  0.880701  1
  Y  Y6  1  0.715945  0.914929  0.380438  1
  Y  Y7  1  0.588484  0.791832  0.881609  1
  Y  Y8  1  0.588047  0.208061  0.378157  1
  Y  Y9  1  0.411953  0.791939  0.378157  1
  Y  Y10  1  0.411516  0.208168  0.881609  1
  Y  Y11  1  0.208061  0.411953  0.621843  1
  Y  Y12  1  0.208168  0.588484  0.118391  1
  Y  Y13  1  0.791832  0.411516  0.118391  1
  Y  Y14  1  0.791939  0.588047  0.621843  1
  Y  Y15  1  0.911443  0.709022  0.119299  1
  Y  Y16  1  0.914929  0.284055  0.619562  1
  Y  Y17  1  0.085071  0.715945  0.619562  1
  Y  Y18  1  0.088557  0.290978  0.119299  1
  In  In19  1  0.000000  0.000000  0.500000  1
  Ir  Ir20  1  0.846406  0.155180  0.245646  1
  Ir  Ir21  1  0.844820  0.846406  0.754354  1
  Ir  Ir22  1  0.155180  0.153594  0.754354  1
  Ir  Ir23  1  0.153594  0.844820  0.245646  1
  Ir  Ir24  1  0.654028  0.346788  0.747379  1
  Ir  Ir25  1  0.653212  0.654028  0.252621  1
  Ir  Ir26  1  0.346788  0.345972  0.252621  1
  Ir  Ir27  1  0.345972  0.653212  0.747379  1
  Ir  Ir28  1  0.500000  0.000000  0.126688  1
  Ir  Ir29  1  0.500000  0.000000  0.621913  1
  Ir  Ir30  1  0.000000  0.500000  0.873312  1
  Ir  Ir31  1  0.000000  0.500000  0.378087  1
