# generated using pymatgen
data_La5Sm3Sc12Si15Au
_symmetry_space_group_name_H-M   'P 1'
_cell_length_a   7.29620225
_cell_length_b   7.53295495
_cell_length_c   14.33199128
_cell_angle_alpha   89.87939456
_cell_angle_beta   89.82408951
_cell_angle_gamma   90.24771566
_symmetry_Int_Tables_number   1
_chemical_formula_structural   La5Sm3Sc12Si15Au
_chemical_formula_sum   'La5 Sm3 Sc12 Si15 Au1'
_cell_volume   787.70153091
_cell_formula_units_Z   1
loop_
 _symmetry_equiv_pos_site_id
 _symmetry_equiv_pos_as_xyz
  1  'x, y, z'
loop_
 _atom_site_type_symbol
 _atom_site_label
 _atom_site_symmetry_multiplicity
 _atom_site_fract_x
 _atom_site_fract_y
 _atom_site_fract_z
 _atom_site_occupancy
  La  La0  1  0.011889  0.170784  0.098862  1
  La  La1  1  0.988838  0.829465  0.902694  1
  La  La2  1  0.487907  0.671142  0.903428  1
  La  La3  1  0.989028  0.831131  0.595149  1
  La  La4  1  0.511400  0.329494  0.097375  1
  Sm  Sm5  1  0.010207  0.174464  0.398805  1
  Sm  Sm6  1  0.510432  0.324794  0.399760  1
  Sm  Sm7  1  0.491018  0.675371  0.599400  1
  Sc  Sc8  1  0.161992  0.496974  0.749985  1
  Sc  Sc9  1  0.838338  0.501980  0.252486  1
  Sc  Sc10  1  0.338953  0.995625  0.251067  1
  Sc  Sc11  1  0.663736  0.002249  0.750465  1
  Sc  Sc12  1  0.340426  0.176938  0.624964  1
  Sc  Sc13  1  0.666434  0.823432  0.374566  1
  Sc  Sc14  1  0.169276  0.671597  0.374309  1
  Sc  Sc15  1  0.671555  0.825916  0.127227  1
  Sc  Sc16  1  0.825550  0.326119  0.623061  1
  Sc  Sc17  1  0.328760  0.173522  0.874538  1
  Sc  Sc18  1  0.830393  0.323976  0.874970  1
  Sc  Sc19  1  0.169112  0.675702  0.127207  1
  Si  Si20  1  0.036131  0.130662  0.748890  1
  Si  Si21  1  0.966169  0.874810  0.252274  1
  Si  Si22  1  0.465730  0.623834  0.250766  1
  Si  Si23  1  0.536735  0.377217  0.750478  1
  Si  Si24  1  0.289671  0.883908  0.748592  1
  Si  Si25  1  0.709797  0.119351  0.251965  1
  Si  Si26  1  0.211463  0.379866  0.251497  1
  Si  Si27  1  0.788332  0.617296  0.749540  1
  Si  Si28  1  0.836448  0.534670  0.457202  1
  Si  Si29  1  0.345951  0.963243  0.459322  1
  Si  Si30  1  0.850697  0.538075  0.040088  1
  Si  Si31  1  0.650107  0.037812  0.536535  1
  Si  Si32  1  0.148677  0.461967  0.961283  1
  Si  Si33  1  0.650094  0.037339  0.960313  1
  Si  Si34  1  0.349794  0.961906  0.040555  1
  Au  Au35  1  0.158957  0.457370  0.540385  1
