# generated using pymatgen
data_Co8Tc3Mo13N4
_symmetry_space_group_name_H-M   'P 1'
_cell_length_a   7.92792475
_cell_length_b   7.95218188
_cell_length_c   7.95218000
_cell_angle_alpha   59.99999950
_cell_angle_beta   59.89873348
_cell_angle_gamma   59.89873505
_symmetry_Int_Tables_number   1
_chemical_formula_structural   Co8Tc3Mo13N4
_chemical_formula_sum   'Co8 Tc3 Mo13 N4'
_cell_volume   353.95706330
_cell_formula_units_Z   1
loop_
 _symmetry_equiv_pos_site_id
 _symmetry_equiv_pos_as_xyz
  1  'x, y, z'
loop_
 _atom_site_type_symbol
 _atom_site_label
 _atom_site_symmetry_multiplicity
 _atom_site_fract_x
 _atom_site_fract_y
 _atom_site_fract_z
 _atom_site_occupancy
  Co  Co0  1  0.241840  0.919386  0.919386  1
  Co  Co1  1  0.917338  0.248726  0.916967  1
  Co  Co2  1  0.917338  0.916967  0.916967  1
  Co  Co3  1  0.917338  0.916967  0.248726  1
  Co  Co4  1  0.008160  0.330614  0.330614  1
  Co  Co5  1  0.332662  0.333033  0.001274  1
  Co  Co6  1  0.332662  0.001274  0.333033  1
  Co  Co7  1  0.332662  0.333033  0.333033  1
  Tc  Tc8  1  0.125000  0.125000  0.625000  1
  Tc  Tc9  1  0.125000  0.625000  0.125000  1
  Tc  Tc10  1  0.125000  0.125000  0.125000  1
  Mo  Mo11  1  0.695351  0.307832  0.688986  1
  Mo  Mo12  1  0.625000  0.125000  0.125000  1
  Mo  Mo13  1  0.554649  0.561014  0.942168  1
  Mo  Mo14  1  0.554649  0.942168  0.561014  1
  Mo  Mo15  1  0.945048  0.944812  0.555070  1
  Mo  Mo16  1  0.945048  0.555070  0.555070  1
  Mo  Mo17  1  0.945048  0.555070  0.944812  1
  Mo  Mo18  1  0.695351  0.307832  0.307832  1
  Mo  Mo19  1  0.304952  0.694930  0.305188  1
  Mo  Mo20  1  0.304952  0.305188  0.694930  1
  Mo  Mo21  1  0.304952  0.694930  0.694930  1
  Mo  Mo22  1  0.695351  0.688986  0.307832  1
  Mo  Mo23  1  0.554649  0.942168  0.942168  1
  N  N24  1  0.625000  0.625000  0.625000  1
  N  N25  1  0.125000  0.625000  0.625000  1
  N  N26  1  0.625000  0.125000  0.625000  1
  N  N27  1  0.625000  0.625000  0.125000  1
