# generated using pymatgen
data_TbHo9In8Pd3Ru
_symmetry_space_group_name_H-M   'P 1'
_cell_length_a   3.62274700
_cell_length_b   8.10445724
_cell_length_c   18.25506101
_cell_angle_alpha   90.04063229
_cell_angle_beta   90.00000000
_cell_angle_gamma   90.00000000
_symmetry_Int_Tables_number   1
_chemical_formula_structural   TbHo9In8Pd3Ru
_chemical_formula_sum   'Tb1 Ho9 In8 Pd3 Ru1'
_cell_volume   535.97572472
_cell_formula_units_Z   1
loop_
 _symmetry_equiv_pos_site_id
 _symmetry_equiv_pos_as_xyz
  1  'x, y, z'
loop_
 _atom_site_type_symbol
 _atom_site_label
 _atom_site_symmetry_multiplicity
 _atom_site_fract_x
 _atom_site_fract_y
 _atom_site_fract_z
 _atom_site_occupancy
  Tb  Tb0  1  0.000000  0.499808  0.499566  1
  Ho  Ho1  1  0.000000  0.999843  0.000839  1
  Ho  Ho2  1  0.000000  0.727356  0.277195  1
  Ho  Ho3  1  0.000000  0.259207  0.720131  1
  Ho  Ho4  1  0.000000  0.759466  0.779752  1
  Ho  Ho5  1  0.000000  0.252919  0.220210  1
  Ho  Ho6  1  0.000000  0.615150  0.087372  1
  Ho  Ho7  1  0.000000  0.383895  0.915951  1
  Ho  Ho8  1  0.000000  0.883304  0.584063  1
  Ho  Ho9  1  0.000000  0.118905  0.414703  1
  In  In10  1  0.500000  0.710081  0.931850  1
  In  In11  1  0.500000  0.292602  0.069031  1
  In  In12  1  0.500000  0.792889  0.431872  1
  In  In13  1  0.500000  0.208247  0.567897  1
  In  In14  1  0.500000  0.579083  0.649754  1
  In  In15  1  0.500000  0.425503  0.349560  1
  In  In16  1  0.500000  0.921961  0.150204  1
  In  In17  1  0.500000  0.077879  0.851190  1
  Pd  Pd18  1  0.500000  0.477180  0.804195  1
  Pd  Pd19  1  0.500000  0.977435  0.695609  1
  Pd  Pd20  1  0.500000  0.018920  0.303879  1
  Ru  Ru21  1  0.500000  0.518367  0.195178  1
