# generated using pymatgen
data_ErTm2In3NiAu2
_symmetry_space_group_name_H-M   'P 1'
_cell_length_a   3.68664100
_cell_length_b   7.80977295
_cell_length_c   7.80759460
_cell_angle_alpha   120.00922651
_cell_angle_beta   90.00000000
_cell_angle_gamma   90.00000000
_symmetry_Int_Tables_number   1
_chemical_formula_structural   ErTm2In3NiAu2
_chemical_formula_sum   'Er1 Tm2 In3 Ni1 Au2'
_cell_volume   194.66001753
_cell_formula_units_Z   1
loop_
 _symmetry_equiv_pos_site_id
 _symmetry_equiv_pos_as_xyz
  1  'x, y, z'
loop_
 _atom_site_type_symbol
 _atom_site_label
 _atom_site_symmetry_multiplicity
 _atom_site_fract_x
 _atom_site_fract_y
 _atom_site_fract_z
 _atom_site_occupancy
  Er  Er0  1  0.500000  0.401495  0.000000  1
  Tm  Tm1  1  0.500000  0.598867  0.598578  1
  Tm  Tm2  1  0.500000  0.000289  0.401422  1
  In  In3  1  0.000000  0.750701  0.000000  1
  In  In4  1  0.000000  0.249285  0.249386  1
  In  In5  1  0.000000  0.999900  0.750614  1
  Ni  Ni6  1  0.500000  0.999364  0.000000  1
  Au  Au7  1  0.000000  0.666894  0.333586  1
  Au  Au8  1  0.000000  0.333307  0.666414  1
