# generated using pymatgen
data_Ce2(AlAu2)3
_symmetry_space_group_name_H-M   'P 1'
_cell_length_a   8.75616849
_cell_length_b   8.75616757
_cell_length_c   8.75616823
_cell_angle_alpha   57.68787002
_cell_angle_beta   57.68787093
_cell_angle_gamma   57.68786709
_symmetry_Int_Tables_number   1
_chemical_formula_structural   Ce2(AlAu2)3
_chemical_formula_sum   'Ce4 Al6 Au12'
_cell_volume   449.48952135
_cell_formula_units_Z   2
loop_
 _symmetry_equiv_pos_site_id
 _symmetry_equiv_pos_as_xyz
  1  'x, y, z'
loop_
 _atom_site_type_symbol
 _atom_site_label
 _atom_site_symmetry_multiplicity
 _atom_site_fract_x
 _atom_site_fract_y
 _atom_site_fract_z
 _atom_site_occupancy
  Ce  Ce0  1  0.908861  0.908861  0.908861  1
  Ce  Ce1  1  0.408861  0.408861  0.408861  1
  Ce  Ce2  1  0.091139  0.091139  0.091139  1
  Ce  Ce3  1  0.591139  0.591139  0.591139  1
  Al  Al4  1  0.556917  0.750000  0.943083  1
  Al  Al5  1  0.943083  0.556917  0.750000  1
  Al  Al6  1  0.750000  0.943083  0.556917  1
  Al  Al7  1  0.443083  0.250000  0.056917  1
  Al  Al8  1  0.056917  0.443083  0.250000  1
  Al  Al9  1  0.250000  0.056917  0.443083  1
  Au  Au10  1  0.481045  0.863938  0.202801  1
  Au  Au11  1  0.202801  0.481045  0.863938  1
  Au  Au12  1  0.863938  0.202801  0.481045  1
  Au  Au13  1  0.702801  0.363938  0.981045  1
  Au  Au14  1  0.981045  0.702801  0.363938  1
  Au  Au15  1  0.363938  0.981045  0.702801  1
  Au  Au16  1  0.518955  0.136062  0.797199  1
  Au  Au17  1  0.797199  0.518955  0.136062  1
  Au  Au18  1  0.136062  0.797199  0.518955  1
  Au  Au19  1  0.297199  0.636062  0.018955  1
  Au  Au20  1  0.018955  0.297199  0.636062  1
  Au  Au21  1  0.636062  0.018955  0.297199  1
