# generated using pymatgen
data_Ho2MgAlRh2
_symmetry_space_group_name_H-M   'P 1'
_cell_length_a   4.10285800
_cell_length_b   7.01696888
_cell_length_c   8.30970353
_cell_angle_alpha   90.33752060
_cell_angle_beta   90.00000000
_cell_angle_gamma   90.00000000
_symmetry_Int_Tables_number   1
_chemical_formula_structural   Ho2MgAlRh2
_chemical_formula_sum   'Ho4 Mg2 Al2 Rh4'
_cell_volume   239.22911326
_cell_formula_units_Z   2
loop_
 _symmetry_equiv_pos_site_id
 _symmetry_equiv_pos_as_xyz
  1  'x, y, z'
loop_
 _atom_site_type_symbol
 _atom_site_label
 _atom_site_symmetry_multiplicity
 _atom_site_fract_x
 _atom_site_fract_y
 _atom_site_fract_z
 _atom_site_occupancy
  Ho  Ho0  1  0.250000  0.543079  0.173567  1
  Ho  Ho1  1  0.750000  0.456921  0.826433  1
  Ho  Ho2  1  0.750000  0.968243  0.685404  1
  Ho  Ho3  1  0.250000  0.031757  0.314596  1
  Mg  Mg4  1  0.250000  0.638637  0.564214  1
  Mg  Mg5  1  0.750000  0.361363  0.435786  1
  Al  Al6  1  0.750000  0.864199  0.057978  1
  Al  Al7  1  0.250000  0.135801  0.942022  1
  Rh  Rh8  1  0.250000  0.767310  0.891334  1
  Rh  Rh9  1  0.750000  0.232690  0.108666  1
  Rh  Rh10  1  0.750000  0.753017  0.361835  1
  Rh  Rh11  1  0.250000  0.246983  0.638165  1
