# generated using pymatgen
data_Sm8Ho8Sc4Si15Tc
_symmetry_space_group_name_H-M   'P 1'
_cell_length_a   7.29518809
_cell_length_b   7.74418289
_cell_length_c   14.50634700
_cell_angle_alpha   90.00000000
_cell_angle_beta   90.00000000
_cell_angle_gamma   90.17928302
_symmetry_Int_Tables_number   1
_chemical_formula_structural   Sm8Ho8Sc4Si15Tc
_chemical_formula_sum   'Sm8 Ho8 Sc4 Si15 Tc1'
_cell_volume   819.53599028
_cell_formula_units_Z   1
loop_
 _symmetry_equiv_pos_site_id
 _symmetry_equiv_pos_as_xyz
  1  'x, y, z'
loop_
 _atom_site_type_symbol
 _atom_site_label
 _atom_site_symmetry_multiplicity
 _atom_site_fract_x
 _atom_site_fract_y
 _atom_site_fract_z
 _atom_site_occupancy
  Sm  Sm0  1  0.017097  0.183244  0.097221  1
  Sm  Sm1  1  0.985298  0.825418  0.902540  1
  Sm  Sm2  1  0.483476  0.679579  0.903018  1
  Sm  Sm3  1  0.985298  0.825418  0.597460  1
  Sm  Sm4  1  0.516532  0.319802  0.097089  1
  Sm  Sm5  1  0.017097  0.183244  0.402779  1
  Sm  Sm6  1  0.516532  0.319802  0.402911  1
  Sm  Sm7  1  0.483476  0.679579  0.596982  1
  Ho  Ho8  1  0.311605  0.173098  0.628383  1
  Ho  Ho9  1  0.677537  0.825021  0.373821  1
  Ho  Ho10  1  0.177518  0.678851  0.373933  1
  Ho  Ho11  1  0.677537  0.825021  0.126179  1
  Ho  Ho12  1  0.831647  0.316814  0.627298  1
  Ho  Ho13  1  0.311605  0.173098  0.871617  1
  Ho  Ho14  1  0.831647  0.316814  0.872702  1
  Ho  Ho15  1  0.177518  0.678851  0.126067  1
  Sc  Sc16  1  0.153654  0.509898  0.750000  1
  Sc  Sc17  1  0.842427  0.485423  0.250000  1
  Sc  Sc18  1  0.342098  0.016391  0.250000  1
  Sc  Sc19  1  0.668248  0.988896  0.750000  1
  Si  Si20  1  0.979038  0.900263  0.250000  1
  Si  Si21  1  0.480030  0.599588  0.250000  1
  Si  Si22  1  0.520695  0.400259  0.750000  1
  Si  Si23  1  0.280065  0.862438  0.750000  1
  Si  Si24  1  0.717347  0.133524  0.250000  1
  Si  Si25  1  0.219510  0.367768  0.250000  1
  Si  Si26  1  0.775043  0.628759  0.750000  1
  Si  Si27  1  0.154097  0.472015  0.538526  1
  Si  Si28  1  0.849555  0.532605  0.460692  1
  Si  Si29  1  0.348681  0.969413  0.459791  1
  Si  Si30  1  0.849555  0.532605  0.039308  1
  Si  Si31  1  0.647716  0.030789  0.539246  1
  Si  Si32  1  0.154097  0.472015  0.961474  1
  Si  Si33  1  0.647716  0.030789  0.960754  1
  Si  Si34  1  0.348681  0.969413  0.040209  1
  Tc  Tc35  1  0.020331  0.093490  0.750000  1
