# generated using pymatgen
data_Hf2(ZrSn)3
_symmetry_space_group_name_H-M   'P 1'
_cell_length_a   8.50685300
_cell_length_b   8.50685379
_cell_length_c   5.77810600
_cell_angle_alpha   90.00000000
_cell_angle_beta   90.00000000
_cell_angle_gamma   119.99999306
_symmetry_Int_Tables_number   1
_chemical_formula_structural   Hf2(ZrSn)3
_chemical_formula_sum   'Hf4 Zr6 Sn6'
_cell_volume   362.12129375
_cell_formula_units_Z   2
loop_
 _symmetry_equiv_pos_site_id
 _symmetry_equiv_pos_as_xyz
  1  'x, y, z'
loop_
 _atom_site_type_symbol
 _atom_site_label
 _atom_site_symmetry_multiplicity
 _atom_site_fract_x
 _atom_site_fract_y
 _atom_site_fract_z
 _atom_site_occupancy
  Hf  Hf0  1  0.666667  0.333333  0.000000  1
  Hf  Hf1  1  0.333333  0.666667  0.000000  1
  Hf  Hf2  1  0.333333  0.666667  0.500000  1
  Hf  Hf3  1  0.666667  0.333333  0.500000  1
  Zr  Zr4  1  0.755549  0.755549  0.750000  1
  Zr  Zr5  1  0.244451  0.000000  0.750000  1
  Zr  Zr6  1  0.000000  0.244451  0.750000  1
  Zr  Zr7  1  0.244451  0.244451  0.250000  1
  Zr  Zr8  1  0.755549  0.000000  0.250000  1
  Zr  Zr9  1  0.000000  0.755549  0.250000  1
  Sn  Sn10  1  0.394065  0.394065  0.750000  1
  Sn  Sn11  1  0.605935  0.000000  0.750000  1
  Sn  Sn12  1  0.000000  0.605935  0.750000  1
  Sn  Sn13  1  0.605935  0.605935  0.250000  1
  Sn  Sn14  1  0.394065  0.000000  0.250000  1
  Sn  Sn15  1  0.000000  0.394065  0.250000  1
