# generated using pymatgen
data_DyHoSi3(AsRh3)4
_symmetry_space_group_name_H-M   'P 1'
_cell_length_a   9.87954400
_cell_length_b   9.87954530
_cell_length_c   3.87886200
_cell_angle_alpha   90.00000000
_cell_angle_beta   90.00000000
_cell_angle_gamma   120.00000236
_symmetry_Int_Tables_number   1
_chemical_formula_structural   DyHoSi3(AsRh3)4
_chemical_formula_sum   'Dy1 Ho1 Si3 As4 Rh12'
_cell_volume   327.87537976
_cell_formula_units_Z   1
loop_
 _symmetry_equiv_pos_site_id
 _symmetry_equiv_pos_as_xyz
  1  'x, y, z'
loop_
 _atom_site_type_symbol
 _atom_site_label
 _atom_site_symmetry_multiplicity
 _atom_site_fract_x
 _atom_site_fract_y
 _atom_site_fract_z
 _atom_site_occupancy
  Dy  Dy0  1  0.333333  0.666667  0.244518  1
  Ho  Ho1  1  0.666667  0.333333  0.743969  1
  Si  Si2  1  0.404054  0.112888  0.242961  1
  Si  Si3  1  0.708834  0.595946  0.242961  1
  Si  Si4  1  0.887112  0.291166  0.242961  1
  As  As5  1  0.000000  0.000000  0.625555  1
  As  As6  1  0.595660  0.882884  0.745648  1
  As  As7  1  0.287223  0.404340  0.745648  1
  As  As8  1  0.117116  0.712777  0.745648  1
  Rh  Rh9  1  0.450336  0.379024  0.242483  1
  Rh  Rh10  1  0.928688  0.549664  0.242483  1
  Rh  Rh11  1  0.620976  0.071312  0.242483  1
  Rh  Rh12  1  0.558191  0.615312  0.744696  1
  Rh  Rh13  1  0.057121  0.441809  0.744696  1
  Rh  Rh14  1  0.384688  0.942879  0.744696  1
  Rh  Rh15  1  0.146585  0.887835  0.244841  1
  Rh  Rh16  1  0.741250  0.853415  0.244841  1
  Rh  Rh17  1  0.112165  0.258750  0.244841  1
  Rh  Rh18  1  0.848457  0.125036  0.741358  1
  Rh  Rh19  1  0.276579  0.151543  0.741358  1
  Rh  Rh20  1  0.874964  0.723421  0.741358  1
