# generated using pymatgen
data_NbV(SiAs)2
_symmetry_space_group_name_H-M   'P 1'
_cell_length_a   3.46082600
_cell_length_b   3.46082600
_cell_length_c   7.74976900
_cell_angle_alpha   90.00000000
_cell_angle_beta   90.00000000
_cell_angle_gamma   90.00000000
_symmetry_Int_Tables_number   1
_chemical_formula_structural   NbV(SiAs)2
_chemical_formula_sum   'Nb1 V1 Si2 As2'
_cell_volume   92.82143691
_cell_formula_units_Z   1
loop_
 _symmetry_equiv_pos_site_id
 _symmetry_equiv_pos_as_xyz
  1  'x, y, z'
loop_
 _atom_site_type_symbol
 _atom_site_label
 _atom_site_symmetry_multiplicity
 _atom_site_fract_x
 _atom_site_fract_y
 _atom_site_fract_z
 _atom_site_occupancy
  Nb  Nb0  1  0.500000  0.000000  0.253433  1
  V  V1  1  0.000000  0.500000  0.747070  1
  Si  Si2  1  0.500000  0.500000  0.990587  1
  Si  Si3  1  0.000000  0.000000  0.990587  1
  As  As4  1  0.500000  0.000000  0.619970  1
  As  As5  1  0.000000  0.500000  0.398354  1
