# generated using pymatgen
data_ErZr5(SnRu2)6
_symmetry_space_group_name_H-M   'P 1'
_cell_length_a   4.60230000
_cell_length_b   6.49863300
_cell_length_c   13.78090600
_cell_angle_alpha   90.00000000
_cell_angle_beta   90.00042791
_cell_angle_gamma   90.00000000
_symmetry_Int_Tables_number   1
_chemical_formula_structural   ErZr5(SnRu2)6
_chemical_formula_sum   'Er1 Zr5 Sn6 Ru12'
_cell_volume   412.16841352
_cell_formula_units_Z   1
loop_
 _symmetry_equiv_pos_site_id
 _symmetry_equiv_pos_as_xyz
  1  'x, y, z'
loop_
 _atom_site_type_symbol
 _atom_site_label
 _atom_site_symmetry_multiplicity
 _atom_site_fract_x
 _atom_site_fract_y
 _atom_site_fract_z
 _atom_site_occupancy
  Er  Er0  1  0.000000  0.500000  0.000000  1
  Zr  Zr1  1  0.499987  0.000000  0.166652  1
  Zr  Zr2  1  0.000007  0.500000  0.333172  1
  Zr  Zr3  1  0.500001  0.000000  0.500000  1
  Zr  Zr4  1  0.999993  0.500000  0.666828  1
  Zr  Zr5  1  0.500013  0.000000  0.833348  1
  Sn  Sn6  1  0.000000  0.000000  0.000000  1
  Sn  Sn7  1  0.499974  0.500000  0.166425  1
  Sn  Sn8  1  0.999998  0.000000  0.334019  1
  Sn  Sn9  1  0.500001  0.500000  0.500000  1
  Sn  Sn10  1  0.000002  0.000000  0.665981  1
  Sn  Sn11  1  0.500026  0.500000  0.833576  1
  Ru  Ru12  1  0.500000  0.242587  0.000000  1
  Ru  Ru13  1  0.500000  0.757412  0.000000  1
  Ru  Ru14  1  0.999998  0.246541  0.169991  1
  Ru  Ru15  1  0.999998  0.753460  0.169991  1
  Ru  Ru16  1  0.499995  0.250650  0.334048  1
  Ru  Ru17  1  0.499995  0.749351  0.334048  1
  Ru  Ru18  1  0.000000  0.249775  0.500000  1
  Ru  Ru19  1  0.000000  0.750226  0.500000  1
  Ru  Ru20  1  0.500005  0.250650  0.665952  1
  Ru  Ru21  1  0.500005  0.749351  0.665952  1
  Ru  Ru22  1  0.000002  0.246541  0.830009  1
  Ru  Ru23  1  0.000002  0.753460  0.830009  1
