# generated using pymatgen
data_Tb4Er4Re3B24Os
_symmetry_space_group_name_H-M   'P 1'
_cell_length_a   3.66814900
_cell_length_b   9.15350845
_cell_length_c   11.54886102
_cell_angle_alpha   90.06950084
_cell_angle_beta   90.00000000
_cell_angle_gamma   90.00000000
_symmetry_Int_Tables_number   1
_chemical_formula_structural   Tb4Er4Re3B24Os
_chemical_formula_sum   'Tb4 Er4 Re3 B24 Os1'
_cell_volume   387.76927151
_cell_formula_units_Z   1
loop_
 _symmetry_equiv_pos_site_id
 _symmetry_equiv_pos_as_xyz
  1  'x, y, z'
loop_
 _atom_site_type_symbol
 _atom_site_label
 _atom_site_symmetry_multiplicity
 _atom_site_fract_x
 _atom_site_fract_y
 _atom_site_fract_z
 _atom_site_occupancy
  Tb  Tb0  1  0.000000  0.321822  0.414151  1
  Tb  Tb1  1  0.000000  0.677498  0.587504  1
  Tb  Tb2  1  0.000000  0.824165  0.084639  1
  Tb  Tb3  1  0.000000  0.176859  0.913577  1
  Er  Er4  1  0.000000  0.942813  0.370010  1
  Er  Er5  1  0.000000  0.056411  0.629428  1
  Er  Er6  1  0.000000  0.442865  0.129822  1
  Er  Er7  1  0.000000  0.556762  0.870802  1
  Re  Re8  1  0.000000  0.361790  0.678554  1
  Re  Re9  1  0.000000  0.138748  0.180012  1
  Re  Re10  1  0.000000  0.861296  0.820488  1
  B  B11  1  0.500000  0.554106  0.432399  1
  B  B12  1  0.500000  0.446746  0.567219  1
  B  B13  1  0.500000  0.053422  0.067274  1
  B  B14  1  0.500000  0.946626  0.932560  1
  B  B15  1  0.500000  0.749229  0.418039  1
  B  B16  1  0.500000  0.250054  0.581585  1
  B  B17  1  0.500000  0.249793  0.081683  1
  B  B18  1  0.500000  0.750637  0.918418  1
  B  B19  1  0.500000  0.791251  0.265743  1
  B  B20  1  0.500000  0.207845  0.734122  1
  B  B21  1  0.500000  0.292049  0.234581  1
  B  B22  1  0.500000  0.707721  0.766007  1
  B  B23  1  0.500000  0.630862  0.185765  1
  B  B24  1  0.500000  0.369747  0.814129  1
  B  B25  1  0.500000  0.130647  0.314941  1
  B  B26  1  0.500000  0.869258  0.685526  1
  B  B27  1  0.500000  0.982567  0.212381  1
  B  B28  1  0.500000  0.017547  0.787317  1
  B  B29  1  0.500000  0.483469  0.287692  1
  B  B30  1  0.500000  0.517971  0.712451  1
  B  B31  1  0.500000  0.600463  0.028417  1
  B  B32  1  0.500000  0.399722  0.972367  1
  B  B33  1  0.500000  0.099539  0.471925  1
  B  B34  1  0.500000  0.899067  0.527745  1
  Os  Os35  1  0.000000  0.638639  0.320726  1
