# generated using pymatgen
data_Dy11Y(OsRh)2
_symmetry_space_group_name_H-M   'P 1'
_cell_length_a   6.39701971
_cell_length_b   7.32004749
_cell_length_c   9.13801700
_cell_angle_alpha   90.00000000
_cell_angle_beta   90.00000000
_cell_angle_gamma   90.24165444
_symmetry_Int_Tables_number   1
_chemical_formula_structural   Dy11Y(OsRh)2
_chemical_formula_sum   'Dy11 Y1 Os2 Rh2'
_cell_volume   427.89743818
_cell_formula_units_Z   1
loop_
 _symmetry_equiv_pos_site_id
 _symmetry_equiv_pos_as_xyz
  1  'x, y, z'
loop_
 _atom_site_type_symbol
 _atom_site_label
 _atom_site_symmetry_multiplicity
 _atom_site_fract_x
 _atom_site_fract_y
 _atom_site_fract_z
 _atom_site_occupancy
  Dy  Dy0  1  0.632919  0.036836  0.250000  1
  Dy  Dy1  1  0.367095  0.963474  0.750000  1
  Dy  Dy2  1  0.126847  0.462096  0.750000  1
  Dy  Dy3  1  0.175458  0.179132  0.065410  1
  Dy  Dy4  1  0.824593  0.820714  0.933975  1
  Dy  Dy5  1  0.667243  0.326052  0.939061  1
  Dy  Dy6  1  0.824593  0.820714  0.566025  1
  Dy  Dy7  1  0.332759  0.673926  0.060657  1
  Dy  Dy8  1  0.175458  0.179132  0.434590  1
  Dy  Dy9  1  0.332759  0.673926  0.439343  1
  Dy  Dy10  1  0.667243  0.326052  0.560939  1
  Y  Y11  1  0.873964  0.536691  0.250000  1
  Os  Os12  1  0.463129  0.383493  0.250000  1
  Os  Os13  1  0.534672  0.615998  0.750000  1
  Rh  Rh14  1  0.954442  0.114548  0.750000  1
  Rh  Rh15  1  0.046826  0.887215  0.250000  1
