# generated using pymatgen
data_Hf3Mn2Si3Ru
_symmetry_space_group_name_H-M   'P 1'
_cell_length_a   6.76073800
_cell_length_b   6.71038386
_cell_length_c   3.45110600
_cell_angle_alpha   90.00000000
_cell_angle_beta   90.00000000
_cell_angle_gamma   120.24853948
_symmetry_Int_Tables_number   1
_chemical_formula_structural   Hf3Mn2Si3Ru
_chemical_formula_sum   'Hf3 Mn2 Si3 Ru1'
_cell_volume   135.25000041
_cell_formula_units_Z   1
loop_
 _symmetry_equiv_pos_site_id
 _symmetry_equiv_pos_as_xyz
  1  'x, y, z'
loop_
 _atom_site_type_symbol
 _atom_site_label
 _atom_site_symmetry_multiplicity
 _atom_site_fract_x
 _atom_site_fract_y
 _atom_site_fract_z
 _atom_site_occupancy
  Hf  Hf0  1  0.999793  0.410284  0.500000  1
  Hf  Hf1  1  0.589508  0.589716  0.500000  1
  Hf  Hf2  1  0.402317  0.000000  0.500000  1
  Mn  Mn3  1  0.001038  0.750346  0.000000  1
  Mn  Mn4  1  0.250692  0.249654  0.000000  1
  Si  Si5  1  0.329820  0.664071  0.000000  1
  Si  Si6  1  0.665749  0.335929  0.000000  1
  Si  Si7  1  0.006861  0.000000  0.500000  1
  Ru  Ru8  1  0.754222  0.000000  0.000000  1
