# generated using pymatgen
data_LiTmB6Os
_symmetry_space_group_name_H-M   'P 1'
_cell_length_a   3.49178200
_cell_length_b   8.83714600
_cell_length_c   11.16266800
_cell_angle_alpha   90.00000000
_cell_angle_beta   90.00000000
_cell_angle_gamma   90.00000000
_symmetry_Int_Tables_number   1
_chemical_formula_structural   LiTmB6Os
_chemical_formula_sum   'Li4 Tm4 B24 Os4'
_cell_volume   344.45077016
_cell_formula_units_Z   4
loop_
 _symmetry_equiv_pos_site_id
 _symmetry_equiv_pos_as_xyz
  1  'x, y, z'
loop_
 _atom_site_type_symbol
 _atom_site_label
 _atom_site_symmetry_multiplicity
 _atom_site_fract_x
 _atom_site_fract_y
 _atom_site_fract_z
 _atom_site_occupancy
  Li  Li0  1  0.000000  0.944313  0.372137  1
  Li  Li1  1  0.000000  0.055687  0.627863  1
  Li  Li2  1  0.000000  0.444313  0.127863  1
  Li  Li3  1  0.000000  0.555687  0.872137  1
  Tm  Tm4  1  0.000000  0.321516  0.413076  1
  Tm  Tm5  1  0.000000  0.678484  0.586924  1
  Tm  Tm6  1  0.000000  0.821516  0.086924  1
  Tm  Tm7  1  0.000000  0.178484  0.913076  1
  B  B8  1  0.500000  0.554026  0.433121  1
  B  B9  1  0.500000  0.445974  0.566879  1
  B  B10  1  0.500000  0.054026  0.066879  1
  B  B11  1  0.500000  0.945974  0.933121  1
  B  B12  1  0.500000  0.758999  0.418118  1
  B  B13  1  0.500000  0.241001  0.581882  1
  B  B14  1  0.500000  0.258999  0.081882  1
  B  B15  1  0.500000  0.741001  0.918118  1
  B  B16  1  0.500000  0.794975  0.263550  1
  B  B17  1  0.500000  0.205025  0.736449  1
  B  B18  1  0.500000  0.294975  0.236450  1
  B  B19  1  0.500000  0.705025  0.763551  1
  B  B20  1  0.500000  0.625434  0.181151  1
  B  B21  1  0.500000  0.374566  0.818849  1
  B  B22  1  0.500000  0.125434  0.318849  1
  B  B23  1  0.500000  0.874566  0.681151  1
  B  B24  1  0.500000  0.978470  0.213851  1
  B  B25  1  0.500000  0.021530  0.786149  1
  B  B26  1  0.500000  0.478470  0.286149  1
  B  B27  1  0.500000  0.521530  0.713851  1
  B  B28  1  0.500000  0.592693  0.025575  1
  B  B29  1  0.500000  0.407307  0.974425  1
  B  B30  1  0.500000  0.092693  0.474425  1
  B  B31  1  0.500000  0.907307  0.525575  1
  Os  Os32  1  0.000000  0.640806  0.318834  1
  Os  Os33  1  0.000000  0.359194  0.681166  1
  Os  Os34  1  0.000000  0.140806  0.181166  1
  Os  Os35  1  0.000000  0.859194  0.818834  1
