# generated using pymatgen
data_HoEr2Mg3AgGe2
_symmetry_space_group_name_H-M   'P 1'
_cell_length_a   7.25982667
_cell_length_b   7.25982476
_cell_length_c   4.32932200
_cell_angle_alpha   90.00000000
_cell_angle_beta   90.00000000
_cell_angle_gamma   120.04915383
_symmetry_Int_Tables_number   1
_chemical_formula_structural   HoEr2Mg3AgGe2
_chemical_formula_sum   'Ho1 Er2 Mg3 Ag1 Ge2'
_cell_volume   197.50931705
_cell_formula_units_Z   1
loop_
 _symmetry_equiv_pos_site_id
 _symmetry_equiv_pos_as_xyz
  1  'x, y, z'
loop_
 _atom_site_type_symbol
 _atom_site_label
 _atom_site_symmetry_multiplicity
 _atom_site_fract_x
 _atom_site_fract_y
 _atom_site_fract_z
 _atom_site_occupancy
  Ho  Ho0  1  0.422815  0.422815  0.500000  1
  Er  Er1  1  0.577422  0.000270  0.500000  1
  Er  Er2  1  0.000270  0.577422  0.500000  1
  Mg  Mg3  1  0.754401  0.754401  0.000000  1
  Mg  Mg4  1  0.245376  0.000064  0.000000  1
  Mg  Mg5  1  0.000064  0.245376  0.000000  1
  Ag  Ag6  1  0.999159  0.999159  0.500000  1
  Ge  Ge7  1  0.667350  0.333142  0.000000  1
  Ge  Ge8  1  0.333142  0.667350  0.000000  1
