# generated using pymatgen
data_CaBiPt2O7
_symmetry_space_group_name_H-M   'P 1'
_cell_length_a   7.30054009
_cell_length_b   7.30054073
_cell_length_c   7.17605400
_cell_angle_alpha   60.56248115
_cell_angle_beta   60.56247830
_cell_angle_gamma   61.64672378
_symmetry_Int_Tables_number   1
_chemical_formula_structural   CaBiPt2O7
_chemical_formula_sum   'Ca2 Bi2 Pt4 O14'
_cell_volume   276.01256240
_cell_formula_units_Z   2
loop_
 _symmetry_equiv_pos_site_id
 _symmetry_equiv_pos_as_xyz
  1  'x, y, z'
loop_
 _atom_site_type_symbol
 _atom_site_label
 _atom_site_symmetry_multiplicity
 _atom_site_fract_x
 _atom_site_fract_y
 _atom_site_fract_z
 _atom_site_occupancy
  Ca  Ca0  1  0.125000  0.125000  0.625000  1
  Ca  Ca1  1  0.125000  0.125000  0.125000  1
  Bi  Bi2  1  0.125000  0.625000  0.125000  1
  Bi  Bi3  1  0.625000  0.125000  0.125000  1
  Pt  Pt4  1  0.625000  0.625000  0.125000  1
  Pt  Pt5  1  0.625000  0.125000  0.625000  1
  Pt  Pt6  1  0.125000  0.625000  0.625000  1
  Pt  Pt7  1  0.625000  0.625000  0.625000  1
  O  O8  1  0.259262  0.259262  0.240738  1
  O  O9  1  0.990738  0.990738  0.009262  1
  O  O10  1  0.540412  0.957189  0.540031  1
  O  O11  1  0.292811  0.709588  0.287631  1
  O  O12  1  0.539833  0.539833  0.960167  1
  O  O13  1  0.957189  0.540412  0.540031  1
  O  O14  1  0.540412  0.957189  0.962369  1
  O  O15  1  0.959193  0.959193  0.540807  1
  O  O16  1  0.957189  0.540412  0.962369  1
  O  O17  1  0.709588  0.292811  0.287631  1
  O  O18  1  0.292811  0.709588  0.709969  1
  O  O19  1  0.709588  0.292811  0.709969  1
  O  O20  1  0.290807  0.290807  0.709193  1
  O  O21  1  0.710167  0.710167  0.289833  1
