# generated using pymatgen
data_SmPu3(NbN2)4
_symmetry_space_group_name_H-M   'P 1'
_cell_length_a   3.31828500
_cell_length_b   5.71472804
_cell_length_c   11.01437044
_cell_angle_alpha   89.99026952
_cell_angle_beta   90.00000000
_cell_angle_gamma   90.00000000
_symmetry_Int_Tables_number   1
_chemical_formula_structural   SmPu3(NbN2)4
_chemical_formula_sum   'Sm1 Pu3 Nb4 N8'
_cell_volume   208.86656452
_cell_formula_units_Z   1
loop_
 _symmetry_equiv_pos_site_id
 _symmetry_equiv_pos_as_xyz
  1  'x, y, z'
loop_
 _atom_site_type_symbol
 _atom_site_label
 _atom_site_symmetry_multiplicity
 _atom_site_fract_x
 _atom_site_fract_y
 _atom_site_fract_z
 _atom_site_occupancy
  Sm  Sm0  1  0.250000  0.582866  0.857792  1
  Pu  Pu1  1  0.750000  0.420849  0.141455  1
  Pu  Pu2  1  0.750000  0.920086  0.360127  1
  Pu  Pu3  1  0.250000  0.079481  0.639344  1
  Nb  Nb4  1  0.250000  0.918829  0.105325  1
  Nb  Nb5  1  0.750000  0.082436  0.895896  1
  Nb  Nb6  1  0.750000  0.580590  0.602982  1
  Nb  Nb7  1  0.250000  0.418490  0.396910  1
  N  N8  1  0.250000  0.655738  0.245148  1
  N  N9  1  0.750000  0.335586  0.751387  1
  N  N10  1  0.750000  0.845450  0.742917  1
  N  N11  1  0.250000  0.156338  0.256675  1
  N  N12  1  0.250000  0.753153  0.506060  1
  N  N13  1  0.750000  0.246222  0.492721  1
  N  N14  1  0.750000  0.757295  0.010495  1
  N  N15  1  0.250000  0.246592  0.994767  1
