# generated using pymatgen
data_PuPa(WC2)2
_symmetry_space_group_name_H-M   'P 1'
_cell_length_a   3.32539800
_cell_length_b   5.72251626
_cell_length_c   10.99234464
_cell_angle_alpha   90.08237010
_cell_angle_beta   90.00000000
_cell_angle_gamma   90.00000000
_symmetry_Int_Tables_number   1
_chemical_formula_structural   PuPa(WC2)2
_chemical_formula_sum   'Pu2 Pa2 W4 C8'
_cell_volume   209.18019051
_cell_formula_units_Z   2
loop_
 _symmetry_equiv_pos_site_id
 _symmetry_equiv_pos_as_xyz
  1  'x, y, z'
loop_
 _atom_site_type_symbol
 _atom_site_label
 _atom_site_symmetry_multiplicity
 _atom_site_fract_x
 _atom_site_fract_y
 _atom_site_fract_z
 _atom_site_occupancy
  Pu  Pu0  1  0.750000  0.917135  0.360460  1
  Pu  Pu1  1  0.250000  0.082865  0.639540  1
  Pa  Pa2  1  0.250000  0.581679  0.857890  1
  Pa  Pa3  1  0.750000  0.418321  0.142110  1
  W  W4  1  0.250000  0.917357  0.104518  1
  W  W5  1  0.750000  0.082643  0.895482  1
  W  W6  1  0.750000  0.585438  0.603722  1
  W  W7  1  0.250000  0.414562  0.396278  1
  C  C8  1  0.250000  0.664287  0.246921  1
  C  C9  1  0.750000  0.335713  0.753079  1
  C  C10  1  0.750000  0.837855  0.745765  1
  C  C11  1  0.250000  0.162145  0.254235  1
  C  C12  1  0.250000  0.735016  0.510807  1
  C  C13  1  0.750000  0.264984  0.489193  1
  C  C14  1  0.750000  0.760847  0.010480  1
  C  C15  1  0.250000  0.239153  0.989520  1
