# generated using pymatgen
data_Tc2Ru5Rh
_symmetry_space_group_name_H-M   'P 1'
_cell_length_a   5.47848900
_cell_length_b   5.47553494
_cell_length_c   4.33363300
_cell_angle_alpha   90.00000000
_cell_angle_beta   90.00000000
_cell_angle_gamma   120.01785421
_symmetry_Int_Tables_number   1
_chemical_formula_structural   Tc2Ru5Rh
_chemical_formula_sum   'Tc2 Ru5 Rh1'
_cell_volume   112.56203801
_cell_formula_units_Z   1
loop_
 _symmetry_equiv_pos_site_id
 _symmetry_equiv_pos_as_xyz
  1  'x, y, z'
loop_
 _atom_site_type_symbol
 _atom_site_label
 _atom_site_symmetry_multiplicity
 _atom_site_fract_x
 _atom_site_fract_y
 _atom_site_fract_z
 _atom_site_occupancy
  Tc  Tc0  1  0.335114  0.670229  0.750000  1
  Tc  Tc1  1  0.664968  0.329934  0.250000  1
  Ru  Ru2  1  0.663612  0.835194  0.250000  1
  Ru  Ru3  1  0.171581  0.835194  0.250000  1
  Ru  Ru4  1  0.833247  0.666493  0.750000  1
  Ru  Ru5  1  0.333627  0.164559  0.750000  1
  Ru  Ru6  1  0.830933  0.164559  0.750000  1
  Rh  Rh7  1  0.166918  0.333836  0.250000  1
