# generated using pymatgen
data_Li2Dy5Zr2(P4Ir5)3
_symmetry_space_group_name_H-M   'P 1'
_cell_length_a   12.71353390
_cell_length_b   12.86513758
_cell_length_c   3.96003100
_cell_angle_alpha   90.00000000
_cell_angle_beta   90.00000000
_cell_angle_gamma   118.82369321
_symmetry_Int_Tables_number   1
_chemical_formula_structural   Li2Dy5Zr2(P4Ir5)3
_chemical_formula_sum   'Li2 Dy5 Zr2 P12 Ir15'
_cell_volume   567.46182290
_cell_formula_units_Z   1
loop_
 _symmetry_equiv_pos_site_id
 _symmetry_equiv_pos_as_xyz
  1  'x, y, z'
loop_
 _atom_site_type_symbol
 _atom_site_label
 _atom_site_symmetry_multiplicity
 _atom_site_fract_x
 _atom_site_fract_y
 _atom_site_fract_z
 _atom_site_occupancy
  Li  Li0  1  0.523912  0.884128  0.000000  1
  Li  Li1  1  0.451927  0.010558  0.500000  1
  Dy  Dy2  1  0.326372  0.659997  0.500000  1
  Dy  Dy3  1  0.664430  0.333489  0.500000  1
  Dy  Dy4  1  0.999773  0.814448  0.000000  1
  Dy  Dy5  1  0.188961  0.187942  0.000000  1
  Dy  Dy6  1  0.814871  0.001368  0.000000  1
  Zr  Zr7  1  0.997038  0.444521  0.500000  1
  Zr  Zr8  1  0.552054  0.555156  0.500000  1
  P  P9  1  0.004275  0.652490  0.500000  1
  P  P10  1  0.356307  0.348561  0.500000  1
  P  P11  1  0.645333  0.008254  0.500000  1
  P  P12  1  0.518961  0.690784  0.000000  1
  P  P13  1  0.304244  0.818944  0.000000  1
  P  P14  1  0.165802  0.480574  0.000000  1
  P  P15  1  0.486295  0.166619  0.000000  1
  P  P16  1  0.683677  0.517544  0.000000  1
  P  P17  1  0.827815  0.309439  0.000000  1
  P  P18  1  0.002095  0.174626  0.500000  1
  P  P19  1  0.822952  0.825231  0.500000  1
  P  P20  1  0.181901  0.999683  0.500000  1
  Ir  Ir21  1  0.118052  0.640339  0.000000  1
  Ir  Ir22  1  0.358294  0.498267  0.000000  1
  Ir  Ir23  1  0.484796  0.354892  0.000000  1
  Ir  Ir24  1  0.856395  0.498844  0.000000  1
  Ir  Ir25  1  0.644522  0.123778  0.000000  1
  Ir  Ir26  1  0.002262  0.276772  0.000000  1
  Ir  Ir27  1  0.722613  0.725903  0.000000  1
  Ir  Ir28  1  0.281368  0.997638  0.000000  1
  Ir  Ir29  1  0.613949  0.807089  0.500000  1
  Ir  Ir30  1  0.203920  0.822455  0.500000  1
  Ir  Ir31  1  0.180833  0.369598  0.500000  1
  Ir  Ir32  1  0.377588  0.174176  0.500000  1
  Ir  Ir33  1  0.810248  0.631539  0.500000  1
  Ir  Ir34  1  0.823322  0.196339  0.500000  1
  Ir  Ir35  1  0.002844  0.998013  0.500000  1
