# generated using pymatgen
data_ThZn5Au3
_symmetry_space_group_name_H-M   'P 1'
_cell_length_a   4.26882800
_cell_length_b   12.26227400
_cell_length_c   12.73941300
_cell_angle_alpha   90.00000000
_cell_angle_beta   90.00000000
_cell_angle_gamma   90.00000000
_symmetry_Int_Tables_number   1
_chemical_formula_structural   ThZn5Au3
_chemical_formula_sum   'Th4 Zn20 Au12'
_cell_volume   666.85143487
_cell_formula_units_Z   4
loop_
 _symmetry_equiv_pos_site_id
 _symmetry_equiv_pos_as_xyz
  1  'x, y, z'
loop_
 _atom_site_type_symbol
 _atom_site_label
 _atom_site_symmetry_multiplicity
 _atom_site_fract_x
 _atom_site_fract_y
 _atom_site_fract_z
 _atom_site_occupancy
  Th  Th0  1  0.250000  0.886567  0.303823  1
  Th  Th1  1  0.750000  0.113433  0.696177  1
  Th  Th2  1  0.750000  0.386567  0.196177  1
  Th  Th3  1  0.250000  0.613433  0.803823  1
  Zn  Zn4  1  0.250000  0.414010  0.993632  1
  Zn  Zn5  1  0.750000  0.585990  0.006368  1
  Zn  Zn6  1  0.750000  0.914010  0.506368  1
  Zn  Zn7  1  0.250000  0.085990  0.493632  1
  Zn  Zn8  1  0.250000  0.608271  0.336020  1
  Zn  Zn9  1  0.750000  0.391729  0.663980  1
  Zn  Zn10  1  0.750000  0.108271  0.163980  1
  Zn  Zn11  1  0.250000  0.891729  0.836020  1
  Zn  Zn12  1  0.250000  0.006458  0.066709  1
  Zn  Zn13  1  0.750000  0.993542  0.933291  1
  Zn  Zn14  1  0.750000  0.506458  0.433291  1
  Zn  Zn15  1  0.250000  0.493542  0.566709  1
  Zn  Zn16  1  0.250000  0.773669  0.044885  1
  Zn  Zn17  1  0.750000  0.226331  0.955115  1
  Zn  Zn18  1  0.750000  0.273669  0.455115  1
  Zn  Zn19  1  0.250000  0.726331  0.544885  1
  Zn  Zn20  1  0.250000  0.186731  0.295810  1
  Zn  Zn21  1  0.750000  0.813269  0.704190  1
  Zn  Zn22  1  0.750000  0.686731  0.204190  1
  Zn  Zn23  1  0.250000  0.313269  0.795810  1
  Au  Au24  1  0.250000  0.574795  0.131761  1
  Au  Au25  1  0.750000  0.425205  0.868239  1
  Au  Au26  1  0.750000  0.074795  0.368239  1
  Au  Au27  1  0.250000  0.925205  0.631761  1
  Au  Au28  1  0.250000  0.225430  0.090797  1
  Au  Au29  1  0.750000  0.774570  0.909203  1
  Au  Au30  1  0.750000  0.725430  0.409203  1
  Au  Au31  1  0.250000  0.274570  0.590797  1
  Au  Au32  1  0.250000  0.387633  0.372427  1
  Au  Au33  1  0.750000  0.612367  0.627573  1
  Au  Au34  1  0.750000  0.887633  0.127573  1
  Au  Au35  1  0.250000  0.112367  0.872427  1
