# generated using pymatgen
data_TbErMn6Co6P7
_symmetry_space_group_name_H-M   'P 1'
_cell_length_a   9.06315000
_cell_length_b   9.06315075
_cell_length_c   3.63153300
_cell_angle_alpha   90.00000000
_cell_angle_beta   90.00000000
_cell_angle_gamma   119.99999728
_symmetry_Int_Tables_number   1
_chemical_formula_structural   TbErMn6Co6P7
_chemical_formula_sum   'Tb1 Er1 Mn6 Co6 P7'
_cell_volume   258.33247813
_cell_formula_units_Z   1
loop_
 _symmetry_equiv_pos_site_id
 _symmetry_equiv_pos_as_xyz
  1  'x, y, z'
loop_
 _atom_site_type_symbol
 _atom_site_label
 _atom_site_symmetry_multiplicity
 _atom_site_fract_x
 _atom_site_fract_y
 _atom_site_fract_z
 _atom_site_occupancy
  Tb  Tb0  1  0.333333  0.666667  0.500000  1
  Er  Er1  1  0.666667  0.333333  0.000000  1
  Mn  Mn2  1  0.277167  0.120430  0.000000  1
  Mn  Mn3  1  0.843263  0.722833  0.000000  1
  Mn  Mn4  1  0.879570  0.156737  0.000000  1
  Mn  Mn5  1  0.103735  0.880457  0.500000  1
  Mn  Mn6  1  0.776721  0.896265  0.500000  1
  Mn  Mn7  1  0.119543  0.223279  0.500000  1
  Co  Co8  1  0.059298  0.630331  0.000000  1
  Co  Co9  1  0.571033  0.940702  0.000000  1
  Co  Co10  1  0.369669  0.428967  0.000000  1
  Co  Co11  1  0.439352  0.051703  0.500000  1
  Co  Co12  1  0.612352  0.560648  0.500000  1
  Co  Co13  1  0.948297  0.387648  0.500000  1
  P  P14  1  0.301117  0.889406  0.000000  1
  P  P15  1  0.588288  0.698883  0.000000  1
  P  P16  1  0.110594  0.411712  0.000000  1
  P  P17  1  0.407204  0.288085  0.500000  1
  P  P18  1  0.880880  0.592796  0.500000  1
  P  P19  1  0.711915  0.119120  0.500000  1
  P  P20  1  0.000000  0.000000  0.000000  1
