# generated using pymatgen
data_Sr9CaSi5Bi
_symmetry_space_group_name_H-M   'P 1'
_cell_length_a   9.83440556
_cell_length_b   9.83303831
_cell_length_c   9.83477952
_cell_angle_alpha   131.20283158
_cell_angle_beta   131.21757651
_cell_angle_gamma   71.48018324
_symmetry_Int_Tables_number   1
_chemical_formula_structural   Sr9CaSi5Bi
_chemical_formula_sum   'Sr9 Ca1 Si5 Bi1'
_cell_volume   526.73454784
_cell_formula_units_Z   1
loop_
 _symmetry_equiv_pos_site_id
 _symmetry_equiv_pos_as_xyz
  1  'x, y, z'
loop_
 _atom_site_type_symbol
 _atom_site_label
 _atom_site_symmetry_multiplicity
 _atom_site_fract_x
 _atom_site_fract_y
 _atom_site_fract_z
 _atom_site_occupancy
  Sr  Sr0  1  0.548641  0.030783  0.855550  1
  Sr  Sr1  1  0.175272  0.693122  0.144531  1
  Sr  Sr2  1  0.030714  0.175462  0.482170  1
  Sr  Sr3  1  0.693310  0.548540  0.517851  1
  Sr  Sr4  1  0.473378  0.947245  0.144324  1
  Sr  Sr5  1  0.802897  0.329011  0.855596  1
  Sr  Sr6  1  0.947495  0.802679  0.473847  1
  Sr  Sr7  1  0.328856  0.473620  0.526146  1
  Sr  Sr8  1  0.009912  0.009908  0.000004  1
  Ca  Ca9  1  0.490464  0.490465  0.000008  1
  Si  Si10  1  0.751215  0.751179  0.999972  1
  Si  Si11  1  0.886236  0.392319  0.279621  1
  Si  Si12  1  0.112703  0.606719  0.720367  1
  Si  Si13  1  0.392556  0.112678  0.506038  1
  Si  Si14  1  0.606641  0.886511  0.493957  1
  Bi  Bi15  1  0.249708  0.249759  0.000018  1
