# generated using pymatgen
data_Sc5Si7TcNi16
_symmetry_space_group_name_H-M   'P 1'
_cell_length_a   8.02577511
_cell_length_b   8.02524320
_cell_length_c   7.98941200
_cell_angle_alpha   60.14803185
_cell_angle_beta   60.14785052
_cell_angle_gamma   59.64297801
_symmetry_Int_Tables_number   1
_chemical_formula_structural   Sc5Si7TcNi16
_chemical_formula_sum   'Sc5 Si7 Tc1 Ni16'
_cell_volume   363.68202584
_cell_formula_units_Z   1
loop_
 _symmetry_equiv_pos_site_id
 _symmetry_equiv_pos_as_xyz
  1  'x, y, z'
loop_
 _atom_site_type_symbol
 _atom_site_label
 _atom_site_symmetry_multiplicity
 _atom_site_fract_x
 _atom_site_fract_y
 _atom_site_fract_z
 _atom_site_occupancy
  Sc  Sc0  1  0.301180  0.705646  0.294414  1
  Sc  Sc1  1  0.705639  0.301207  0.294426  1
  Sc  Sc2  1  0.285281  0.285282  0.714721  1
  Sc  Sc3  1  0.705644  0.301192  0.698747  1
  Sc  Sc4  1  0.301193  0.705648  0.698743  1
  Si  Si5  1  0.004878  0.004868  0.995125  1
  Si  Si6  1  0.997580  0.997579  0.502420  1
  Si  Si7  1  0.510028  0.990739  0.489922  1
  Si  Si8  1  0.990732  0.510045  0.489941  1
  Si  Si9  1  0.497603  0.497600  0.002399  1
  Si  Si10  1  0.990733  0.510022  0.009307  1
  Si  Si11  1  0.510055  0.990738  0.009283  1
  Tc  Tc12  1  0.703810  0.703807  0.296190  1
  Ni  Ni13  1  0.881987  0.881990  0.351410  1
  Ni  Ni14  1  0.879644  0.357365  0.881541  1
  Ni  Ni15  1  0.357351  0.879665  0.881458  1
  Ni  Ni16  1  0.882025  0.881943  0.884609  1
  Ni  Ni17  1  0.118523  0.118461  0.642520  1
  Ni  Ni18  1  0.115395  0.648674  0.117961  1
  Ni  Ni19  1  0.648696  0.115379  0.117973  1
  Ni  Ni20  1  0.118429  0.118546  0.120508  1
  Ni  Ni21  1  0.667866  0.667899  0.991126  1
  Ni  Ni22  1  0.665359  0.995604  0.669507  1
  Ni  Ni23  1  0.995594  0.665362  0.669527  1
  Ni  Ni24  1  0.667889  0.667878  0.673103  1
  Ni  Ni25  1  0.330513  0.330517  0.004379  1
  Ni  Ni26  1  0.327033  0.008809  0.332042  1
  Ni  Ni27  1  0.008825  0.327030  0.332107  1
  Ni  Ni28  1  0.330515  0.330502  0.334593  1
