# generated using pymatgen
data_Ce4ErSn3
_symmetry_space_group_name_H-M   'P 1'
_cell_length_a   9.17371842
_cell_length_b   9.17344007
_cell_length_c   9.17741459
_cell_angle_alpha   96.64322331
_cell_angle_beta   96.62212547
_cell_angle_gamma   140.24277240
_symmetry_Int_Tables_number   1
_chemical_formula_structural   Ce4ErSn3
_chemical_formula_sum   'Ce8 Er2 Sn6'
_cell_volume   464.55740341
_cell_formula_units_Z   2
loop_
 _symmetry_equiv_pos_site_id
 _symmetry_equiv_pos_as_xyz
  1  'x, y, z'
loop_
 _atom_site_type_symbol
 _atom_site_label
 _atom_site_symmetry_multiplicity
 _atom_site_fract_x
 _atom_site_fract_y
 _atom_site_fract_z
 _atom_site_occupancy
  Ce  Ce0  1  0.906234  0.231818  0.137834  1
  Ce  Ce1  1  0.231890  0.094388  0.326235  1
  Ce  Ce2  1  0.768110  0.905612  0.673765  1
  Ce  Ce3  1  0.093766  0.768182  0.862166  1
  Ce  Ce4  1  0.732003  0.405728  0.137697  1
  Ce  Ce5  1  0.267997  0.594272  0.862303  1
  Ce  Ce6  1  0.593906  0.731660  0.325725  1
  Ce  Ce7  1  0.406094  0.268340  0.674275  1
  Er  Er8  1  0.749796  0.249780  0.499869  1
  Er  Er9  1  0.250204  0.750220  0.500131  1
  Sn  Sn10  1  0.749897  0.749880  0.000033  1
  Sn  Sn11  1  0.250103  0.250120  0.999967  1
  Sn  Sn12  1  0.845216  0.654746  0.499900  1
  Sn  Sn13  1  0.654731  0.154849  0.809610  1
  Sn  Sn14  1  0.345269  0.845151  0.190390  1
  Sn  Sn15  1  0.154784  0.345254  0.500100  1
