# generated using pymatgen
data_TbThMn17
_symmetry_space_group_name_H-M   'P 1'
_cell_length_a   6.35662238
_cell_length_b   6.35662348
_cell_length_c   6.35662352
_cell_angle_alpha   85.78910153
_cell_angle_beta   85.78910355
_cell_angle_gamma   85.78909568
_symmetry_Int_Tables_number   1
_chemical_formula_structural   TbThMn17
_chemical_formula_sum   'Tb1 Th1 Mn17'
_cell_volume   254.86665292
_cell_formula_units_Z   1
loop_
 _symmetry_equiv_pos_site_id
 _symmetry_equiv_pos_as_xyz
  1  'x, y, z'
loop_
 _atom_site_type_symbol
 _atom_site_label
 _atom_site_symmetry_multiplicity
 _atom_site_fract_x
 _atom_site_fract_y
 _atom_site_fract_z
 _atom_site_occupancy
  Tb  Tb0  1  0.648356  0.648356  0.648356  1
  Th  Th1  1  0.354469  0.354469  0.354469  1
  Mn  Mn2  1  0.354479  0.354479  0.875215  1
  Mn  Mn3  1  0.875215  0.354479  0.354479  1
  Mn  Mn4  1  0.098526  0.098526  0.098526  1
  Mn  Mn5  1  0.902562  0.902562  0.902562  1
  Mn  Mn6  1  0.996298  0.996298  0.501510  1
  Mn  Mn7  1  0.996298  0.501510  0.996298  1
  Mn  Mn8  1  0.501510  0.996298  0.996298  1
  Mn  Mn9  1  0.727710  0.271616  0.999022  1
  Mn  Mn10  1  0.271616  0.999022  0.727710  1
  Mn  Mn11  1  0.999022  0.727710  0.271616  1
  Mn  Mn12  1  0.271616  0.727710  0.999022  1
  Mn  Mn13  1  0.727710  0.999022  0.271616  1
  Mn  Mn14  1  0.999022  0.271616  0.727710  1
  Mn  Mn15  1  0.127271  0.646920  0.646920  1
  Mn  Mn16  1  0.646920  0.646920  0.127271  1
  Mn  Mn17  1  0.646920  0.127271  0.646920  1
  Mn  Mn18  1  0.354479  0.875215  0.354479  1
