# generated using pymatgen
data_Ce3Ho(HgRh2)2
_symmetry_space_group_name_H-M   'P 1'
_cell_length_a   7.68152296
_cell_length_b   7.68152296
_cell_length_c   3.65901800
_cell_angle_alpha   90.00000000
_cell_angle_beta   90.00000000
_cell_angle_gamma   91.42262947
_symmetry_Int_Tables_number   1
_chemical_formula_structural   Ce3Ho(HgRh2)2
_chemical_formula_sum   'Ce3 Ho1 Hg2 Rh4'
_cell_volume   215.83671621
_cell_formula_units_Z   1
loop_
 _symmetry_equiv_pos_site_id
 _symmetry_equiv_pos_as_xyz
  1  'x, y, z'
loop_
 _atom_site_type_symbol
 _atom_site_label
 _atom_site_symmetry_multiplicity
 _atom_site_fract_x
 _atom_site_fract_y
 _atom_site_fract_z
 _atom_site_occupancy
  Ce  Ce0  1  0.831137  0.328320  0.499999  1
  Ce  Ce1  1  0.171680  0.668864  0.499999  1
  Ce  Ce2  1  0.670012  0.829989  0.499999  1
  Ho  Ho3  1  0.330989  0.169011  0.499999  1
  Hg  Hg4  1  0.007234  0.002400  0.000000  1
  Hg  Hg5  1  0.497600  0.492766  0.000000  1
  Rh  Rh6  1  0.640897  0.132790  0.000000  1
  Rh  Rh7  1  0.125031  0.374970  0.000000  1
  Rh  Rh8  1  0.858211  0.641789  0.000000  1
  Rh  Rh9  1  0.367211  0.859103  0.000000  1
