# generated using pymatgen
data_Dy12Co4SnPt
_symmetry_space_group_name_H-M   'P 1'
_cell_length_a   8.30306368
_cell_length_b   8.30306341
_cell_length_c   8.30306376
_cell_angle_alpha   106.83907298
_cell_angle_beta   110.46677134
_cell_angle_gamma   111.14020101
_symmetry_Int_Tables_number   1
_chemical_formula_structural   Dy12Co4SnPt
_chemical_formula_sum   'Dy12 Co4 Sn1 Pt1'
_cell_volume   439.94001832
_cell_formula_units_Z   1
loop_
 _symmetry_equiv_pos_site_id
 _symmetry_equiv_pos_as_xyz
  1  'x, y, z'
loop_
 _atom_site_type_symbol
 _atom_site_label
 _atom_site_symmetry_multiplicity
 _atom_site_fract_x
 _atom_site_fract_y
 _atom_site_fract_z
 _atom_site_occupancy
  Dy  Dy0  1  0.476276  0.291060  0.185216  1
  Dy  Dy1  1  0.105844  0.291060  0.814784  1
  Dy  Dy2  1  0.894156  0.708940  0.185216  1
  Dy  Dy3  1  0.523724  0.708940  0.814784  1
  Dy  Dy4  1  0.305138  0.620062  0.314923  1
  Dy  Dy5  1  0.305138  0.990216  0.685077  1
  Dy  Dy6  1  0.694862  0.379938  0.685077  1
  Dy  Dy7  1  0.694862  0.009784  0.314923  1
  Dy  Dy8  1  0.199320  0.214396  0.413716  1
  Dy  Dy9  1  0.800680  0.785604  0.586284  1
  Dy  Dy10  1  0.199320  0.785604  0.984923  1
  Dy  Dy11  1  0.800680  0.214396  0.015077  1
  Co  Co12  1  0.500000  0.612069  0.112069  1
  Co  Co13  1  0.500000  0.387931  0.887931  1
  Co  Co14  1  0.377935  0.000000  0.377935  1
  Co  Co15  1  0.622065  0.000000  0.622065  1
  Sn  Sn16  1  0.000000  0.500000  0.500000  1
  Pt  Pt17  1  0.000000  0.000000  0.000000  1
