# generated using pymatgen
data_Hf8ZrIn14Co6Re
_symmetry_space_group_name_H-M   'P 1'
_cell_length_a   9.42744760
_cell_length_b   9.42744853
_cell_length_c   9.42744800
_cell_angle_alpha   60.00000187
_cell_angle_beta   59.99999860
_cell_angle_gamma   60.00000638
_symmetry_Int_Tables_number   1
_chemical_formula_structural   Hf8ZrIn14Co6Re
_chemical_formula_sum   'Hf8 Zr1 In14 Co6 Re1'
_cell_volume   592.47150475
_cell_formula_units_Z   1
loop_
 _symmetry_equiv_pos_site_id
 _symmetry_equiv_pos_as_xyz
  1  'x, y, z'
loop_
 _atom_site_type_symbol
 _atom_site_label
 _atom_site_symmetry_multiplicity
 _atom_site_fract_x
 _atom_site_fract_y
 _atom_site_fract_z
 _atom_site_occupancy
  Hf  Hf0  1  0.120365  0.638906  0.120365  1
  Hf  Hf1  1  0.361094  0.879635  0.879635  1
  Hf  Hf2  1  0.879635  0.879635  0.879635  1
  Hf  Hf3  1  0.638906  0.120365  0.120365  1
  Hf  Hf4  1  0.879635  0.879635  0.361094  1
  Hf  Hf5  1  0.120365  0.120365  0.120365  1
  Hf  Hf6  1  0.879635  0.361094  0.879635  1
  Hf  Hf7  1  0.120365  0.120365  0.638906  1
  Zr  Zr8  1  0.500000  0.500000  0.500000  1
  In  In9  1  0.500000  0.842089  0.157911  1
  In  In10  1  0.500000  0.842089  0.500000  1
  In  In11  1  0.500000  0.157911  0.500000  1
  In  In12  1  0.500000  0.500000  0.842089  1
  In  In13  1  0.157911  0.500000  0.500000  1
  In  In14  1  0.842089  0.157911  0.500000  1
  In  In15  1  0.157911  0.842089  0.500000  1
  In  In16  1  0.500000  0.157911  0.842089  1
  In  In17  1  0.157911  0.500000  0.842089  1
  In  In18  1  0.500000  0.500000  0.157911  1
  In  In19  1  0.842089  0.500000  0.500000  1
  In  In20  1  0.842089  0.500000  0.157911  1
  In  In21  1  0.250000  0.250000  0.250000  1
  In  In22  1  0.750000  0.750000  0.750000  1
  Co  Co23  1  0.777739  0.777739  0.222261  1
  Co  Co24  1  0.222261  0.777739  0.222261  1
  Co  Co25  1  0.222261  0.777739  0.777739  1
  Co  Co26  1  0.222261  0.222261  0.777739  1
  Co  Co27  1  0.777739  0.222261  0.777739  1
  Co  Co28  1  0.777739  0.222261  0.222261  1
  Re  Re29  1  0.000000  0.000000  0.000000  1
