# generated using pymatgen
data_Ce3TmLu4(ReB6)4
_symmetry_space_group_name_H-M   'P 1'
_cell_length_a   3.68311600
_cell_length_b   9.12993696
_cell_length_c   11.52302100
_cell_angle_alpha   90.05937442
_cell_angle_beta   90.00000000
_cell_angle_gamma   90.00000000
_symmetry_Int_Tables_number   1
_chemical_formula_structural   Ce3TmLu4(ReB6)4
_chemical_formula_sum   'Ce3 Tm1 Lu4 Re4 B24'
_cell_volume   387.48000471
_cell_formula_units_Z   1
loop_
 _symmetry_equiv_pos_site_id
 _symmetry_equiv_pos_as_xyz
  1  'x, y, z'
loop_
 _atom_site_type_symbol
 _atom_site_label
 _atom_site_symmetry_multiplicity
 _atom_site_fract_x
 _atom_site_fract_y
 _atom_site_fract_z
 _atom_site_occupancy
  Ce  Ce0  1  0.000000  0.321326  0.414497  1
  Ce  Ce1  1  0.000000  0.678209  0.586474  1
  Ce  Ce2  1  0.000000  0.823335  0.085264  1
  Tm  Tm3  1  0.000000  0.177870  0.913899  1
  Lu  Lu4  1  0.000000  0.945048  0.372224  1
  Lu  Lu5  1  0.000000  0.055901  0.628632  1
  Lu  Lu6  1  0.000000  0.443256  0.127333  1
  Lu  Lu7  1  0.000000  0.555323  0.871933  1
  Re  Re8  1  0.000000  0.639348  0.319987  1
  Re  Re9  1  0.000000  0.361123  0.679826  1
  Re  Re10  1  0.000000  0.139381  0.179606  1
  Re  Re11  1  0.000000  0.860600  0.820452  1
  B  B12  1  0.500000  0.554876  0.431383  1
  B  B13  1  0.500000  0.444847  0.569047  1
  B  B14  1  0.500000  0.054950  0.066831  1
  B  B15  1  0.500000  0.946457  0.932182  1
  B  B16  1  0.500000  0.750900  0.418166  1
  B  B17  1  0.500000  0.248831  0.582770  1
  B  B18  1  0.500000  0.250352  0.079931  1
  B  B19  1  0.500000  0.750162  0.918145  1
  B  B20  1  0.500000  0.792578  0.265531  1
  B  B21  1  0.500000  0.206510  0.735596  1
  B  B22  1  0.500000  0.292275  0.232978  1
  B  B23  1  0.500000  0.707881  0.766212  1
  B  B24  1  0.500000  0.630467  0.184844  1
  B  B25  1  0.500000  0.368263  0.816093  1
  B  B26  1  0.500000  0.130873  0.314214  1
  B  B27  1  0.500000  0.870198  0.685954  1
  B  B28  1  0.500000  0.983614  0.212436  1
  B  B29  1  0.500000  0.018636  0.787487  1
  B  B30  1  0.500000  0.482930  0.286197  1
  B  B31  1  0.500000  0.516303  0.714213  1
  B  B32  1  0.500000  0.599999  0.027567  1
  B  B33  1  0.500000  0.397204  0.971404  1
  B  B34  1  0.500000  0.102046  0.472209  1
  B  B35  1  0.500000  0.898130  0.528484  1
