# generated using pymatgen
data_Ho4Ti2Pb5
_symmetry_space_group_name_H-M   'P 1'
_cell_length_a   11.44322267
_cell_length_b   11.44322177
_cell_length_c   11.44322200
_cell_angle_alpha   148.59150506
_cell_angle_beta   131.27578457
_cell_angle_gamma   59.12561210
_symmetry_Int_Tables_number   1
_chemical_formula_structural   Ho4Ti2Pb5
_chemical_formula_sum   'Ho8 Ti4 Pb10'
_cell_volume   582.10485604
_cell_formula_units_Z   2
loop_
 _symmetry_equiv_pos_site_id
 _symmetry_equiv_pos_as_xyz
  1  'x, y, z'
loop_
 _atom_site_type_symbol
 _atom_site_label
 _atom_site_symmetry_multiplicity
 _atom_site_fract_x
 _atom_site_fract_y
 _atom_site_fract_z
 _atom_site_occupancy
  Ho  Ho0  1  0.669411  0.440851  0.228560  1
  Ho  Ho1  1  0.330589  0.559149  0.771440  1
  Ho  Ho2  1  0.212289  0.940851  0.271440  1
  Ho  Ho3  1  0.787711  0.059149  0.728560  1
  Ho  Ho4  1  0.254310  0.146261  0.108049  1
  Ho  Ho5  1  0.745690  0.853739  0.891951  1
  Ho  Ho6  1  0.038213  0.646261  0.391951  1
  Ho  Ho7  1  0.961787  0.353739  0.608049  1
  Ti  Ti8  1  0.303040  0.553040  0.250000  1
  Ti  Ti9  1  0.696960  0.446960  0.750000  1
  Ti  Ti10  1  0.696960  0.946960  0.250000  1
  Ti  Ti11  1  0.303040  0.053040  0.750000  1
  Pb  Pb12  1  0.586319  0.288201  0.298119  1
  Pb  Pb13  1  0.413681  0.711799  0.701881  1
  Pb  Pb14  1  0.990082  0.788201  0.201881  1
  Pb  Pb15  1  0.009918  0.211799  0.798119  1
  Pb  Pb16  1  0.000000  0.250000  0.250000  1
  Pb  Pb17  1  0.000000  0.750000  0.750000  1
  Pb  Pb18  1  0.484575  0.083297  0.401277  1
  Pb  Pb19  1  0.515425  0.916703  0.598723  1
  Pb  Pb20  1  0.682019  0.583297  0.098723  1
  Pb  Pb21  1  0.317981  0.416703  0.901277  1
