# generated using pymatgen
data_Cs6LuIn2IrBr18
_symmetry_space_group_name_H-M   'P 1'
_cell_length_a   7.93917600
_cell_length_b   7.93917628
_cell_length_c   20.00510700
_cell_angle_alpha   90.00000000
_cell_angle_beta   90.00000000
_cell_angle_gamma   119.99999051
_symmetry_Int_Tables_number   1
_chemical_formula_structural   Cs6LuIn2IrBr18
_chemical_formula_sum   'Cs6 Lu1 In2 Ir1 Br18'
_cell_volume   1091.99946736
_cell_formula_units_Z   1
loop_
 _symmetry_equiv_pos_site_id
 _symmetry_equiv_pos_as_xyz
  1  'x, y, z'
loop_
 _atom_site_type_symbol
 _atom_site_label
 _atom_site_symmetry_multiplicity
 _atom_site_fract_x
 _atom_site_fract_y
 _atom_site_fract_z
 _atom_site_occupancy
  Cs  Cs0  1  0.333333  0.666667  0.069119  1
  Cs  Cs1  1  0.666667  0.333333  0.932469  1
  Cs  Cs2  1  0.666667  0.333333  0.573480  1
  Cs  Cs3  1  0.333333  0.666667  0.435228  1
  Cs  Cs4  1  0.000000  0.000000  0.250786  1
  Cs  Cs5  1  0.000000  0.000000  0.745531  1
  Lu  Lu6  1  0.333333  0.666667  0.836199  1
  In  In7  1  0.666667  0.333333  0.345200  1
  In  In8  1  0.666667  0.333333  0.155293  1
  Ir  Ir9  1  0.333333  0.666667  0.668980  1
  Br  Br10  1  0.184423  0.368844  0.597385  1
  Br  Br11  1  0.831657  0.663314  0.411737  1
  Br  Br12  1  0.631156  0.815577  0.597385  1
  Br  Br13  1  0.831381  0.662762  0.088575  1
  Br  Br14  1  0.336686  0.168343  0.411737  1
  Br  Br15  1  0.168550  0.337099  0.906521  1
  Br  Br16  1  0.184423  0.815577  0.597385  1
  Br  Br17  1  0.337238  0.168619  0.088575  1
  Br  Br18  1  0.831657  0.168343  0.411737  1
  Br  Br19  1  0.662901  0.831450  0.906521  1
  Br  Br20  1  0.831381  0.168619  0.088575  1
  Br  Br21  1  0.168550  0.831450  0.906521  1
  Br  Br22  1  0.512794  0.025589  0.250152  1
  Br  Br23  1  0.487209  0.974417  0.741536  1
  Br  Br24  1  0.974411  0.487206  0.250152  1
  Br  Br25  1  0.025583  0.512791  0.741536  1
  Br  Br26  1  0.512794  0.487206  0.250152  1
  Br  Br27  1  0.487209  0.512791  0.741536  1
