# generated using pymatgen
data_Ca(SiPt)4
_symmetry_space_group_name_H-M   'P 1'
_cell_length_a   6.34564826
_cell_length_b   6.34564746
_cell_length_c   6.34564868
_cell_angle_alpha   97.86683885
_cell_angle_beta   97.86683775
_cell_angle_gamma   136.57355763
_symmetry_Int_Tables_number   1
_chemical_formula_structural   Ca(SiPt)4
_chemical_formula_sum   'Ca1 Si4 Pt4'
_cell_volume   163.18854282
_cell_formula_units_Z   1
loop_
 _symmetry_equiv_pos_site_id
 _symmetry_equiv_pos_as_xyz
  1  'x, y, z'
loop_
 _atom_site_type_symbol
 _atom_site_label
 _atom_site_symmetry_multiplicity
 _atom_site_fract_x
 _atom_site_fract_y
 _atom_site_fract_z
 _atom_site_occupancy
  Ca  Ca0  1  0.297854  0.297854  0.000000  1
  Si  Si1  1  0.384817  0.885047  0.269494  1
  Si  Si2  1  0.615552  0.115321  0.730506  1
  Si  Si3  1  0.115321  0.384817  0.499770  1
  Si  Si4  1  0.885047  0.615552  0.500230  1
  Pt  Pt5  1  0.174567  0.676391  0.850253  1
  Pt  Pt6  1  0.826138  0.324313  0.149747  1
  Pt  Pt7  1  0.324313  0.174567  0.498175  1
  Pt  Pt8  1  0.676391  0.826138  0.501825  1
