# generated using pymatgen
data_Tm3ScAu5
_symmetry_space_group_name_H-M   'P 1'
_cell_length_a   7.83291506
_cell_length_b   7.83291442
_cell_length_c   7.83291352
_cell_angle_alpha   66.50903891
_cell_angle_beta   66.50904253
_cell_angle_gamma   66.50903114
_symmetry_Int_Tables_number   1
_chemical_formula_structural   Tm3ScAu5
_chemical_formula_sum   'Tm6 Sc2 Au10'
_cell_volume   387.46246672
_cell_formula_units_Z   2
loop_
 _symmetry_equiv_pos_site_id
 _symmetry_equiv_pos_as_xyz
  1  'x, y, z'
loop_
 _atom_site_type_symbol
 _atom_site_label
 _atom_site_symmetry_multiplicity
 _atom_site_fract_x
 _atom_site_fract_y
 _atom_site_fract_z
 _atom_site_occupancy
  Tm  Tm0  1  0.891261  0.190077  0.617312  1
  Tm  Tm1  1  0.617312  0.891261  0.190077  1
  Tm  Tm2  1  0.190077  0.617312  0.891261  1
  Tm  Tm3  1  0.108739  0.809923  0.382688  1
  Tm  Tm4  1  0.382688  0.108739  0.809923  1
  Tm  Tm5  1  0.809923  0.382688  0.108739  1
  Sc  Sc6  1  0.659948  0.659948  0.659948  1
  Sc  Sc7  1  0.340052  0.340052  0.340052  1
  Au  Au8  1  0.000000  0.000000  0.000000  1
  Au  Au9  1  0.500000  0.500000  0.500000  1
  Au  Au10  1  0.809325  0.809325  0.809325  1
  Au  Au11  1  0.190675  0.190675  0.190675  1
  Au  Au12  1  0.936565  0.551241  0.317524  1
  Au  Au13  1  0.317524  0.936565  0.551241  1
  Au  Au14  1  0.551241  0.317524  0.936565  1
  Au  Au15  1  0.063435  0.448759  0.682476  1
  Au  Au16  1  0.682476  0.063435  0.448759  1
  Au  Au17  1  0.448759  0.682476  0.063435  1
