# generated using pymatgen
data_Tm2B8MoIr
_symmetry_space_group_name_H-M   'P 1'
_cell_length_a   3.57223100
_cell_length_b   5.97337546
_cell_length_c   11.56124867
_cell_angle_alpha   89.63039849
_cell_angle_beta   90.00000000
_cell_angle_gamma   90.00000000
_symmetry_Int_Tables_number   1
_chemical_formula_structural   Tm2B8MoIr
_chemical_formula_sum   'Tm4 B16 Mo2 Ir2'
_cell_volume   246.69199395
_cell_formula_units_Z   2
loop_
 _symmetry_equiv_pos_site_id
 _symmetry_equiv_pos_as_xyz
  1  'x, y, z'
loop_
 _atom_site_type_symbol
 _atom_site_label
 _atom_site_symmetry_multiplicity
 _atom_site_fract_x
 _atom_site_fract_y
 _atom_site_fract_z
 _atom_site_occupancy
  Tm  Tm0  1  0.500000  0.130245  0.148653  1
  Tm  Tm1  1  0.500000  0.869755  0.851347  1
  Tm  Tm2  1  0.500000  0.628161  0.349653  1
  Tm  Tm3  1  0.500000  0.371839  0.650347  1
  B  B4  1  0.000000  0.475893  0.191692  1
  B  B5  1  0.000000  0.524107  0.808308  1
  B  B6  1  0.000000  0.977046  0.304941  1
  B  B7  1  0.000000  0.022954  0.695059  1
  B  B8  1  0.000000  0.292202  0.311710  1
  B  B9  1  0.000000  0.707798  0.688290  1
  B  B10  1  0.000000  0.790840  0.186070  1
  B  B11  1  0.000000  0.209160  0.813930  1
  B  B12  1  0.000000  0.368366  0.467782  1
  B  B13  1  0.000000  0.631634  0.532218  1
  B  B14  1  0.000000  0.865107  0.030010  1
  B  B15  1  0.000000  0.134893  0.969990  1
  B  B16  1  0.000000  0.386640  0.047458  1
  B  B17  1  0.000000  0.613360  0.952542  1
  B  B18  1  0.000000  0.884983  0.452791  1
  B  B19  1  0.000000  0.115017  0.547209  1
  Mo  Mo20  1  0.500000  0.129032  0.413838  1
  Mo  Mo21  1  0.500000  0.870968  0.586162  1
  Ir  Ir22  1  0.500000  0.646414  0.094729  1
  Ir  Ir23  1  0.500000  0.353586  0.905271  1
