# generated using pymatgen
data_Tb2B10Pt
_symmetry_space_group_name_H-M   'P 1'
_cell_length_a   4.17263900
_cell_length_b   5.69670800
_cell_length_c   11.39315300
_cell_angle_alpha   90.00000000
_cell_angle_beta   90.00000000
_cell_angle_gamma   90.00000000
_symmetry_Int_Tables_number   1
_chemical_formula_structural   Tb2B10Pt
_chemical_formula_sum   'Tb4 B20 Pt2'
_cell_volume   270.81873280
_cell_formula_units_Z   2
loop_
 _symmetry_equiv_pos_site_id
 _symmetry_equiv_pos_as_xyz
  1  'x, y, z'
loop_
 _atom_site_type_symbol
 _atom_site_label
 _atom_site_symmetry_multiplicity
 _atom_site_fract_x
 _atom_site_fract_y
 _atom_site_fract_z
 _atom_site_occupancy
  Tb  Tb0  1  0.500000  0.184474  0.358697  1
  Tb  Tb1  1  0.500000  0.815526  0.641303  1
  Tb  Tb2  1  0.500000  0.315526  0.858697  1
  Tb  Tb3  1  0.500000  0.684474  0.141303  1
  B  B4  1  0.000000  0.383779  0.043958  1
  B  B5  1  0.000000  0.616221  0.956042  1
  B  B6  1  0.000000  0.116221  0.543958  1
  B  B7  1  0.000000  0.883779  0.456042  1
  B  B8  1  0.000000  0.359607  0.197876  1
  B  B9  1  0.000000  0.640393  0.802124  1
  B  B10  1  0.000000  0.140393  0.697876  1
  B  B11  1  0.000000  0.859607  0.302124  1
  B  B12  1  0.000000  0.052290  0.193560  1
  B  B13  1  0.000000  0.947710  0.806440  1
  B  B14  1  0.000000  0.447710  0.693560  1
  B  B15  1  0.000000  0.552290  0.306440  1
  B  B16  1  0.303103  0.218011  0.120794  1
  B  B17  1  0.696897  0.781989  0.879206  1
  B  B18  1  0.303103  0.781989  0.879206  1
  B  B19  1  0.696897  0.281989  0.620794  1
  B  B20  1  0.696897  0.218011  0.120794  1
  B  B21  1  0.303103  0.718011  0.379206  1
  B  B22  1  0.696897  0.718011  0.379206  1
  B  B23  1  0.303103  0.281989  0.620794  1
  Pt  Pt24  1  0.000000  0.000000  0.000000  1
  Pt  Pt25  1  0.000000  0.500000  0.500000  1
