# generated using pymatgen
data_AlAs(SeO3)4
_symmetry_space_group_name_H-M   'P 1'
_cell_length_a   7.94862400
_cell_length_b   7.92757708
_cell_length_c   7.93940225
_cell_angle_alpha   90.41734953
_cell_angle_beta   90.00000000
_cell_angle_gamma   90.00000000
_symmetry_Int_Tables_number   1
_chemical_formula_structural   AlAs(SeO3)4
_chemical_formula_sum   'Al2 As2 Se8 O24'
_cell_volume   500.27489746
_cell_formula_units_Z   2
loop_
 _symmetry_equiv_pos_site_id
 _symmetry_equiv_pos_as_xyz
  1  'x, y, z'
loop_
 _atom_site_type_symbol
 _atom_site_label
 _atom_site_symmetry_multiplicity
 _atom_site_fract_x
 _atom_site_fract_y
 _atom_site_fract_z
 _atom_site_occupancy
  Al  Al0  1  0.000000  0.000000  0.500000  1
  Al  Al1  1  0.500000  0.000000  0.000000  1
  As  As2  1  0.000000  0.500000  0.000000  1
  As  As3  1  0.500000  0.500000  0.500000  1
  Se  Se4  1  0.322201  0.675245  0.173777  1
  Se  Se5  1  0.822201  0.324755  0.326223  1
  Se  Se6  1  0.673113  0.827916  0.676533  1
  Se  Se7  1  0.173113  0.172084  0.823467  1
  Se  Se8  1  0.677799  0.324755  0.826223  1
  Se  Se9  1  0.177799  0.675245  0.673777  1
  Se  Se10  1  0.326887  0.172084  0.323467  1
  Se  Se11  1  0.826887  0.827916  0.176533  1
  O  O12  1  0.233084  0.517855  0.037095  1
  O  O13  1  0.733084  0.482145  0.462905  1
  O  O14  1  0.765997  0.957683  0.534724  1
  O  O15  1  0.265997  0.042317  0.965276  1
  O  O16  1  0.531822  0.963029  0.765741  1
  O  O17  1  0.467629  0.530991  0.265949  1
  O  O18  1  0.967629  0.469009  0.234051  1
  O  O19  1  0.031822  0.036971  0.734259  1
  O  O20  1  0.952674  0.237970  0.468296  1
  O  O21  1  0.521194  0.730406  0.530653  1
  O  O22  1  0.452674  0.762030  0.031704  1
  O  O23  1  0.021194  0.269594  0.969347  1
  O  O24  1  0.766916  0.482145  0.962905  1
  O  O25  1  0.266916  0.517855  0.537095  1
  O  O26  1  0.234003  0.042317  0.465276  1
  O  O27  1  0.734003  0.957683  0.034724  1
  O  O28  1  0.468178  0.036971  0.234259  1
  O  O29  1  0.532371  0.469009  0.734051  1
  O  O30  1  0.032371  0.530991  0.765949  1
  O  O31  1  0.968178  0.963029  0.265741  1
  O  O32  1  0.047326  0.762030  0.531704  1
  O  O33  1  0.478806  0.269594  0.469347  1
  O  O34  1  0.547326  0.237970  0.968296  1
  O  O35  1  0.978806  0.730406  0.030653  1
