# generated using pymatgen
data_Dy2NiSn5Rh2
_symmetry_space_group_name_H-M   'P 1'
_cell_length_a   13.37682105
_cell_length_b   13.37682256
_cell_length_c   7.23670800
_cell_angle_alpha   90.00000000
_cell_angle_beta   90.00000000
_cell_angle_gamma   160.98291884
_symmetry_Int_Tables_number   1
_chemical_formula_structural   Dy2NiSn5Rh2
_chemical_formula_sum   'Dy4 Ni2 Sn10 Rh4'
_cell_volume   421.95358939
_cell_formula_units_Z   2
loop_
 _symmetry_equiv_pos_site_id
 _symmetry_equiv_pos_as_xyz
  1  'x, y, z'
loop_
 _atom_site_type_symbol
 _atom_site_label
 _atom_site_symmetry_multiplicity
 _atom_site_fract_x
 _atom_site_fract_y
 _atom_site_fract_z
 _atom_site_occupancy
  Dy  Dy0  1  0.171568  0.828432  0.746709  1
  Dy  Dy1  1  0.828432  0.171568  0.246709  1
  Dy  Dy2  1  0.475842  0.524158  0.757900  1
  Dy  Dy3  1  0.524158  0.475842  0.257900  1
  Ni  Ni4  1  0.050352  0.949648  0.982482  1
  Ni  Ni5  1  0.949648  0.050352  0.482482  1
  Sn  Sn6  1  0.881295  0.118705  0.766659  1
  Sn  Sn7  1  0.118705  0.881295  0.266659  1
  Sn  Sn8  1  0.703726  0.296274  0.452861  1
  Sn  Sn9  1  0.296274  0.703726  0.952861  1
  Sn  Sn10  1  0.593926  0.406074  0.890033  1
  Sn  Sn11  1  0.406074  0.593926  0.390033  1
  Sn  Sn12  1  0.954416  0.045584  0.102074  1
  Sn  Sn13  1  0.045584  0.954416  0.602074  1
  Sn  Sn14  1  0.290961  0.709039  0.521352  1
  Sn  Sn15  1  0.709039  0.290961  0.021352  1
  Rh  Rh16  1  0.777592  0.222408  0.733698  1
  Rh  Rh17  1  0.222408  0.777592  0.233698  1
  Rh  Rh18  1  0.396107  0.603893  0.018235  1
  Rh  Rh19  1  0.603893  0.396107  0.518235  1
