# generated using pymatgen
data_Rb6Si2S7
_symmetry_space_group_name_H-M   'P 1'
_cell_length_a   8.29555063
_cell_length_b   11.04131900
_cell_length_c   13.35188734
_cell_angle_alpha   89.99990868
_cell_angle_beta   125.81518151
_cell_angle_gamma   90.00051021
_symmetry_Int_Tables_number   1
_chemical_formula_structural   Rb6Si2S7
_chemical_formula_sum   'Rb12 Si4 S14'
_cell_volume   991.70121729
_cell_formula_units_Z   2
loop_
 _symmetry_equiv_pos_site_id
 _symmetry_equiv_pos_as_xyz
  1  'x, y, z'
loop_
 _atom_site_type_symbol
 _atom_site_label
 _atom_site_symmetry_multiplicity
 _atom_site_fract_x
 _atom_site_fract_y
 _atom_site_fract_z
 _atom_site_occupancy
  Rb  Rb0  1  0.832107  0.271501  0.073932  1
  Rb  Rb1  1  0.983380  0.914811  0.079255  1
  Rb  Rb2  1  0.587292  0.957961  0.209016  1
  Rb  Rb3  1  0.438013  0.463142  0.302587  1
  Rb  Rb4  1  0.998242  0.412931  0.396984  1
  Rb  Rb5  1  0.200689  0.779124  0.424236  1
  Rb  Rb6  1  0.832107  0.728499  0.573931  1
  Rb  Rb7  1  0.983384  0.085189  0.579258  1
  Rb  Rb8  1  0.587290  0.042037  0.709014  1
  Rb  Rb9  1  0.438009  0.536856  0.802583  1
  Rb  Rb10  1  0.998240  0.587068  0.896983  1
  Rb  Rb11  1  0.200687  0.220875  0.924234  1
  Si  Si12  1  0.664457  0.617665  0.128657  1
  Si  Si13  1  0.323409  0.113997  0.361572  1
  Si  Si14  1  0.664454  0.382336  0.628650  1
  Si  Si15  1  0.323415  0.886001  0.861575  1
  S  S16  1  0.520983  0.445968  0.083582  1
  S  S17  1  0.903772  0.619526  0.111588  1
  S  S18  1  0.295439  0.178941  0.202910  1
  S  S19  1  0.752670  0.674525  0.306165  1
  S  S20  1  0.041608  0.072971  0.324506  1
  S  S21  1  0.527384  0.967947  0.442435  1
  S  S22  1  0.400758  0.264167  0.496184  1
  S  S23  1  0.520970  0.554029  0.583568  1
  S  S24  1  0.903782  0.380485  0.611591  1
  S  S25  1  0.295440  0.821061  0.702911  1
  S  S26  1  0.752670  0.325474  0.806158  1
  S  S27  1  0.041611  0.927020  0.824507  1
  S  S28  1  0.527385  0.032056  0.942439  1
  S  S29  1  0.400762  0.735828  0.996185  1
