# generated using pymatgen
data_Ta4Ir2PdSe12
_symmetry_space_group_name_H-M   'P 1'
_cell_length_a   7.38360937
_cell_length_b   7.38360936
_cell_length_c   19.55607133
_cell_angle_alpha   70.06762018
_cell_angle_beta   70.06762093
_cell_angle_gamma   27.38589634
_symmetry_Int_Tables_number   1
_chemical_formula_structural   Ta4Ir2PdSe12
_chemical_formula_sum   'Ta4 Ir2 Pd1 Se12'
_cell_volume   459.22910292
_cell_formula_units_Z   1
loop_
 _symmetry_equiv_pos_site_id
 _symmetry_equiv_pos_as_xyz
  1  'x, y, z'
loop_
 _atom_site_type_symbol
 _atom_site_label
 _atom_site_symmetry_multiplicity
 _atom_site_fract_x
 _atom_site_fract_y
 _atom_site_fract_z
 _atom_site_occupancy
  Ta  Ta0  1  0.623658  0.623658  0.847867  1
  Ta  Ta1  1  0.376342  0.376342  0.152133  1
  Ta  Ta2  1  0.747065  0.747065  0.592400  1
  Ta  Ta3  1  0.252935  0.252935  0.407600  1
  Ir  Ir4  1  0.228821  0.228821  0.716824  1
  Ir  Ir5  1  0.771179  0.771179  0.283176  1
  Pd  Pd6  1  0.000000  0.000000  0.000000  1
  Se  Se7  1  0.977201  0.977201  0.880642  1
  Se  Se8  1  0.022799  0.022799  0.119358  1
  Se  Se9  1  0.623693  0.623693  0.400276  1
  Se  Se10  1  0.376307  0.376307  0.599724  1
  Se  Se11  1  0.139468  0.139468  0.549284  1
  Se  Se12  1  0.860532  0.860532  0.450716  1
  Se  Se13  1  0.808779  0.808779  0.768143  1
  Se  Se14  1  0.191221  0.191221  0.231857  1
  Se  Se15  1  0.180098  0.180098  0.926194  1
  Se  Se16  1  0.819902  0.819902  0.073806  1
  Se  Se17  1  0.601057  0.601057  0.717198  1
  Se  Se18  1  0.398943  0.398943  0.282802  1
