# generated using pymatgen
data_K6YFeF12
_symmetry_space_group_name_H-M   'P 1'
_cell_length_a   6.53330303
_cell_length_b   6.26036471
_cell_length_c   10.92357230
_cell_angle_alpha   55.55362030
_cell_angle_beta   90.53517544
_cell_angle_gamma   89.85286856
_symmetry_Int_Tables_number   1
_chemical_formula_structural   K6YFeF12
_chemical_formula_sum   'K6 Y1 Fe1 F12'
_cell_volume   368.40987611
_cell_formula_units_Z   1
loop_
 _symmetry_equiv_pos_site_id
 _symmetry_equiv_pos_as_xyz
  1  'x, y, z'
loop_
 _atom_site_type_symbol
 _atom_site_label
 _atom_site_symmetry_multiplicity
 _atom_site_fract_x
 _atom_site_fract_y
 _atom_site_fract_z
 _atom_site_occupancy
  K  K0  1  0.945043  0.744898  0.739068  1
  K  K1  1  0.451967  0.288178  0.728161  1
  K  K2  1  0.054957  0.255102  0.260932  1
  K  K3  1  0.548033  0.711822  0.271839  1
  K  K4  1  0.000000  0.500000  0.500000  1
  K  K5  1  0.500000  0.500000  0.000000  1
  Y  Y6  1  0.000000  0.000000  0.000000  1
  Fe  Fe7  1  0.500000  0.000000  0.500000  1
  F  F8  1  0.941420  0.885219  0.227737  1
  F  F9  1  0.450298  0.104200  0.295225  1
  F  F10  1  0.058580  0.114781  0.772263  1
  F  F11  1  0.549702  0.895800  0.704775  1
  F  F12  1  0.724928  0.248890  0.919273  1
  F  F13  1  0.254332  0.776415  0.560832  1
  F  F14  1  0.275072  0.751110  0.080727  1
  F  F15  1  0.745668  0.223585  0.439168  1
  F  F16  1  0.326398  0.293094  0.460560  1
  F  F17  1  0.825019  0.662201  0.051955  1
  F  F18  1  0.673602  0.706906  0.539440  1
  F  F19  1  0.174981  0.337799  0.948045  1
