# generated using pymatgen
data_K4Zr6BI18
_symmetry_space_group_name_H-M   'P 1'
_cell_length_a   11.13167092
_cell_length_b   11.35970735
_cell_length_c   11.46919639
_cell_angle_alpha   118.81594061
_cell_angle_beta   100.01437266
_cell_angle_gamma   103.98529835
_symmetry_Int_Tables_number   1
_chemical_formula_structural   K4Zr6BI18
_chemical_formula_sum   'K4 Zr6 B1 I18'
_cell_volume   1158.90519343
_cell_formula_units_Z   1
loop_
 _symmetry_equiv_pos_site_id
 _symmetry_equiv_pos_as_xyz
  1  'x, y, z'
loop_
 _atom_site_type_symbol
 _atom_site_label
 _atom_site_symmetry_multiplicity
 _atom_site_fract_x
 _atom_site_fract_y
 _atom_site_fract_z
 _atom_site_occupancy
  K  K0  1  0.185902  0.724208  0.564145  1
  K  K1  1  0.847780  0.961528  0.772992  1
  K  K2  1  0.152220  0.038472  0.227008  1
  K  K3  1  0.814098  0.275792  0.435855  1
  Zr  Zr4  1  0.358433  0.447817  0.780923  1
  Zr  Zr5  1  0.368149  0.620906  0.127295  1
  Zr  Zr6  1  0.637579  0.727710  0.041932  1
  Zr  Zr7  1  0.641567  0.552183  0.219077  1
  Zr  Zr8  1  0.362421  0.272290  0.958068  1
  Zr  Zr9  1  0.631851  0.379094  0.872705  1
  B  B10  1  0.500000  0.500000  0.000000  1
  I  I11  1  0.822666  0.422988  0.110623  1
  I  I12  1  0.514315  0.705922  0.411059  1
  I  I13  1  0.176495  0.974369  0.899296  1
  I  I14  1  0.177334  0.577012  0.889377  1
  I  I15  1  0.830028  0.834647  0.312297  1
  I  I16  1  0.503447  0.294267  0.210664  1
  I  I17  1  0.799198  0.223421  0.710444  1
  I  I18  1  0.169972  0.165353  0.687703  1
  I  I19  1  0.507747  0.912409  0.198563  1
  I  I20  1  0.819458  0.628761  0.902850  1
  I  I21  1  0.200802  0.776579  0.289556  1
  I  I22  1  0.165834  0.378235  0.495477  1
  I  I23  1  0.496553  0.705733  0.789336  1
  I  I24  1  0.823505  0.025631  0.100704  1
  I  I25  1  0.485685  0.294078  0.588941  1
  I  I26  1  0.180542  0.371239  0.097150  1
  I  I27  1  0.834166  0.621765  0.504523  1
  I  I28  1  0.492253  0.087591  0.801437  1
