# generated using pymatgen
data_Nb6Al3Ga(FeN)2
_symmetry_space_group_name_H-M   'P 1'
_cell_length_a   8.20383812
_cell_length_b   8.20383753
_cell_length_c   8.21589900
_cell_angle_alpha   59.95135754
_cell_angle_beta   59.95135989
_cell_angle_gamma   59.93558216
_symmetry_Int_Tables_number   1
_chemical_formula_structural   Nb6Al3Ga(FeN)2
_chemical_formula_sum   'Nb12 Al6 Ga2 Fe4 N4'
_cell_volume   390.51972135
_cell_formula_units_Z   2
loop_
 _symmetry_equiv_pos_site_id
 _symmetry_equiv_pos_as_xyz
  1  'x, y, z'
loop_
 _atom_site_type_symbol
 _atom_site_label
 _atom_site_symmetry_multiplicity
 _atom_site_fract_x
 _atom_site_fract_y
 _atom_site_fract_z
 _atom_site_occupancy
  Nb  Nb0  1  0.806148  0.806148  0.193852  1
  Nb  Nb1  1  0.193612  0.193612  0.806388  1
  Nb  Nb2  1  0.806172  0.193875  0.806258  1
  Nb  Nb3  1  0.193875  0.806172  0.193696  1
  Nb  Nb4  1  0.193875  0.806172  0.806258  1
  Nb  Nb5  1  0.806172  0.193875  0.193696  1
  Nb  Nb6  1  0.443352  0.443352  0.056648  1
  Nb  Nb7  1  0.055437  0.055437  0.444563  1
  Nb  Nb8  1  0.443596  0.057092  0.443898  1
  Nb  Nb9  1  0.057092  0.443596  0.055413  1
  Nb  Nb10  1  0.057092  0.443596  0.443898  1
  Nb  Nb11  1  0.443596  0.057092  0.055413  1
  Al  Al12  1  0.746926  0.417819  0.417629  1
  Al  Al13  1  0.417819  0.746926  0.417629  1
  Al  Al14  1  0.417888  0.417888  0.746469  1
  Al  Al15  1  0.417888  0.417888  0.417757  1
  Al  Al16  1  0.503518  0.831826  0.832327  1
  Al  Al17  1  0.831826  0.503518  0.832327  1
  Ga  Ga18  1  0.833160  0.833160  0.498789  1
  Ga  Ga19  1  0.833160  0.833160  0.834888  1
  Fe  Fe20  1  0.126267  0.623802  0.624965  1
  Fe  Fe21  1  0.623802  0.126267  0.624965  1
  Fe  Fe22  1  0.624220  0.624220  0.125637  1
  Fe  Fe23  1  0.624220  0.624220  0.625923  1
  N  N24  1  0.625082  0.124391  0.125264  1
  N  N25  1  0.124391  0.625082  0.125264  1
  N  N26  1  0.124907  0.124907  0.624404  1
  N  N27  1  0.124907  0.124907  0.125782  1
