# generated using pymatgen
data_Ca3La8Tb9Si16
_symmetry_space_group_name_H-M   'P 1'
_cell_length_a   7.89917361
_cell_length_b   7.89917361
_cell_length_c   14.55220777
_cell_angle_alpha   89.85982026
_cell_angle_beta   90.14017974
_cell_angle_gamma   89.94369418
_symmetry_Int_Tables_number   1
_chemical_formula_structural   Ca3La8Tb9Si16
_chemical_formula_sum   'Ca3 La8 Tb9 Si16'
_cell_volume   908.00741000
_cell_formula_units_Z   1
loop_
 _symmetry_equiv_pos_site_id
 _symmetry_equiv_pos_as_xyz
  1  'x, y, z'
loop_
 _atom_site_type_symbol
 _atom_site_label
 _atom_site_symmetry_multiplicity
 _atom_site_fract_x
 _atom_site_fract_y
 _atom_site_fract_z
 _atom_site_occupancy
  Ca  Ca0  1  0.685924  0.685924  0.500000  1
  Ca  Ca1  1  0.814698  0.186386  0.750354  1
  Ca  Ca2  1  0.186386  0.814698  0.249646  1
  La  La3  1  0.990088  0.638287  0.042230  1
  La  La4  1  0.009352  0.362241  0.542170  1
  La  La5  1  0.638287  0.990088  0.957770  1
  La  La6  1  0.138554  0.508228  0.791970  1
  La  La7  1  0.862854  0.491404  0.292838  1
  La  La8  1  0.508228  0.138554  0.208030  1
  La  La9  1  0.491404  0.862854  0.707162  1
  La  La10  1  0.362241  0.009352  0.457830  1
  Tb  Tb11  1  0.365123  0.493654  0.375376  1
  Tb  Tb12  1  0.867131  0.007316  0.374405  1
  Tb  Tb13  1  0.991427  0.134418  0.126370  1
  Tb  Tb14  1  0.007316  0.867131  0.625595  1
  Tb  Tb15  1  0.632913  0.507310  0.875256  1
  Tb  Tb16  1  0.493654  0.365123  0.624624  1
  Tb  Tb17  1  0.507310  0.632913  0.124744  1
  Tb  Tb18  1  0.134418  0.991427  0.873630  1
  Tb  Tb19  1  0.312245  0.312245  0.000000  1
  Si  Si20  1  0.076253  0.712277  0.441302  1
  Si  Si21  1  0.931791  0.289692  0.941803  1
  Si  Si22  1  0.712277  0.076253  0.558698  1
  Si  Si23  1  0.212346  0.423651  0.188357  1
  Si  Si24  1  0.787966  0.575983  0.690631  1
  Si  Si25  1  0.423651  0.212346  0.811643  1
  Si  Si26  1  0.575983  0.787966  0.309369  1
  Si  Si27  1  0.289692  0.931791  0.058197  1
  Si  Si28  1  0.847268  0.788638  0.810835  1
  Si  Si29  1  0.152353  0.211737  0.311111  1
  Si  Si30  1  0.788638  0.847268  0.189165  1
  Si  Si31  1  0.290222  0.653660  0.560281  1
  Si  Si32  1  0.703133  0.343478  0.058313  1
  Si  Si33  1  0.653660  0.290222  0.439719  1
  Si  Si34  1  0.343478  0.703133  0.941687  1
  Si  Si35  1  0.211737  0.152353  0.688889  1
