# generated using pymatgen
data_YTl(CuO2)4
_symmetry_space_group_name_H-M   'P 1'
_cell_length_a   6.29681068
_cell_length_b   6.29680946
_cell_length_c   6.29681000
_cell_angle_alpha   125.66492772
_cell_angle_beta   125.66491978
_cell_angle_gamma   80.43956090
_symmetry_Int_Tables_number   1
_chemical_formula_structural   YTl(CuO2)4
_chemical_formula_sum   'Y1 Tl1 Cu4 O8'
_cell_volume   158.97641622
_cell_formula_units_Z   1
loop_
 _symmetry_equiv_pos_site_id
 _symmetry_equiv_pos_as_xyz
  1  'x, y, z'
loop_
 _atom_site_type_symbol
 _atom_site_label
 _atom_site_symmetry_multiplicity
 _atom_site_fract_x
 _atom_site_fract_y
 _atom_site_fract_z
 _atom_site_occupancy
  Y  Y0  1  0.750000  0.250000  0.500000  1
  Tl  Tl1  1  0.000000  0.000000  0.000000  1
  Cu  Cu2  1  0.874509  0.626583  0.251944  1
  Cu  Cu3  1  0.374639  0.622565  0.748056  1
  Cu  Cu4  1  0.377435  0.125491  0.752074  1
  Cu  Cu5  1  0.373417  0.625361  0.247926  1
  O  O6  1  0.352221  0.985595  0.938070  1
  O  O7  1  0.047525  0.414151  0.061930  1
  O  O8  1  0.695183  0.841624  0.432953  1
  O  O9  1  0.408671  0.262231  0.567047  1
  O  O10  1  0.158376  0.591329  0.853560  1
  O  O11  1  0.737769  0.304817  0.146440  1
  O  O12  1  0.585849  0.647779  0.633374  1
  O  O13  1  0.014405  0.952475  0.366626  1
