# generated using pymatgen
data_Cd2ReBi2Rh3O14
_symmetry_space_group_name_H-M   'P 1'
_cell_length_a   7.32873460
_cell_length_b   7.26104412
_cell_length_c   7.15138900
_cell_angle_alpha   60.49831543
_cell_angle_beta   60.79730388
_cell_angle_gamma   61.33501290
_symmetry_Int_Tables_number   1
_chemical_formula_structural   Cd2ReBi2Rh3O14
_chemical_formula_sum   'Cd2 Re1 Bi2 Rh3 O14'
_cell_volume   274.38375348
_cell_formula_units_Z   1
loop_
 _symmetry_equiv_pos_site_id
 _symmetry_equiv_pos_as_xyz
  1  'x, y, z'
loop_
 _atom_site_type_symbol
 _atom_site_label
 _atom_site_symmetry_multiplicity
 _atom_site_fract_x
 _atom_site_fract_y
 _atom_site_fract_z
 _atom_site_occupancy
  Cd  Cd0  1  0.125000  0.125000  0.125000  1
  Cd  Cd1  1  0.125000  0.125000  0.625000  1
  Re  Re2  1  0.125000  0.625000  0.625000  1
  Bi  Bi3  1  0.125000  0.625000  0.125000  1
  Bi  Bi4  1  0.625000  0.125000  0.125000  1
  Rh  Rh5  1  0.625000  0.625000  0.625000  1
  Rh  Rh6  1  0.625000  0.625000  0.125000  1
  Rh  Rh7  1  0.625000  0.125000  0.625000  1
  O  O8  1  0.245410  0.243396  0.255597  1
  O  O9  1  0.299237  0.691625  0.307748  1
  O  O10  1  0.941899  0.924186  0.566957  1
  O  O11  1  0.532820  0.960518  0.543603  1
  O  O12  1  0.716530  0.706584  0.288443  1
  O  O13  1  0.950763  0.558375  0.548610  1
  O  O14  1  0.717180  0.289482  0.706397  1
  O  O15  1  0.308101  0.325814  0.683043  1
  O  O16  1  0.717180  0.289482  0.286940  1
  O  O17  1  0.299237  0.691625  0.701390  1
  O  O18  1  0.950763  0.558375  0.942252  1
  O  O19  1  0.533470  0.543416  0.961557  1
  O  O20  1  0.004590  0.006604  0.994403  1
  O  O21  1  0.532820  0.960518  0.963060  1
