# generated using pymatgen
data_YbDy2Mg3AgPb2
_symmetry_space_group_name_H-M   'P 1'
_cell_length_a   7.63536536
_cell_length_b   7.63536578
_cell_length_c   4.58746500
_cell_angle_alpha   90.00000000
_cell_angle_beta   90.00000000
_cell_angle_gamma   120.22987663
_symmetry_Int_Tables_number   1
_chemical_formula_structural   YbDy2Mg3AgPb2
_chemical_formula_sum   'Yb1 Dy2 Mg3 Ag1 Pb2'
_cell_volume   231.07470301
_cell_formula_units_Z   1
loop_
 _symmetry_equiv_pos_site_id
 _symmetry_equiv_pos_as_xyz
  1  'x, y, z'
loop_
 _atom_site_type_symbol
 _atom_site_label
 _atom_site_symmetry_multiplicity
 _atom_site_fract_x
 _atom_site_fract_y
 _atom_site_fract_z
 _atom_site_occupancy
  Yb  Yb0  1  0.413748  0.413748  0.500000  1
  Dy  Dy1  1  0.586253  0.002328  0.500000  1
  Dy  Dy2  1  0.002328  0.586253  0.500000  1
  Mg  Mg3  1  0.768073  0.768073  0.000000  1
  Mg  Mg4  1  0.233530  0.999162  0.000000  1
  Mg  Mg5  1  0.999162  0.233530  0.000000  1
  Ag  Ag6  1  0.996491  0.996491  0.500000  1
  Pb  Pb7  1  0.669006  0.331409  0.000000  1
  Pb  Pb8  1  0.331409  0.669006  0.000000  1
