# generated using pymatgen
data_Sc6Co2Sn6PtRh3
_symmetry_space_group_name_H-M   'P 1'
_cell_length_a   7.50083900
_cell_length_b   7.50083964
_cell_length_c   6.88347600
_cell_angle_alpha   90.00000000
_cell_angle_beta   90.00000000
_cell_angle_gamma   120.00000276
_symmetry_Int_Tables_number   1
_chemical_formula_structural   Sc6Co2Sn6PtRh3
_chemical_formula_sum   'Sc6 Co2 Sn6 Pt1 Rh3'
_cell_volume   335.39620703
_cell_formula_units_Z   1
loop_
 _symmetry_equiv_pos_site_id
 _symmetry_equiv_pos_as_xyz
  1  'x, y, z'
loop_
 _atom_site_type_symbol
 _atom_site_label
 _atom_site_symmetry_multiplicity
 _atom_site_fract_x
 _atom_site_fract_y
 _atom_site_fract_z
 _atom_site_occupancy
  Sc  Sc0  1  0.396313  0.999207  0.249423  1
  Sc  Sc1  1  0.602894  0.603687  0.249423  1
  Sc  Sc2  1  0.000793  0.397106  0.249423  1
  Sc  Sc3  1  0.395029  0.997160  0.750642  1
  Sc  Sc4  1  0.602131  0.604971  0.750642  1
  Sc  Sc5  1  0.002840  0.397869  0.750642  1
  Co  Co6  1  0.000000  0.000000  0.767556  1
  Co  Co7  1  0.000000  0.000000  0.232308  1
  Sn  Sn8  1  0.271374  0.270521  0.999938  1
  Sn  Sn9  1  0.999146  0.728626  0.999938  1
  Sn  Sn10  1  0.003855  0.744689  0.499982  1
  Sn  Sn11  1  0.740834  0.996145  0.499982  1
  Sn  Sn12  1  0.255311  0.259166  0.499982  1
  Sn  Sn13  1  0.729479  0.000854  0.999938  1
  Pt  Pt14  1  0.666667  0.333333  0.501936  1
  Rh  Rh15  1  0.666667  0.333333  0.998223  1
  Rh  Rh16  1  0.333333  0.666667  0.498805  1
  Rh  Rh17  1  0.333333  0.666667  0.001218  1
