# generated using pymatgen
data_La2Er(InIr6)3
_symmetry_space_group_name_H-M   'P 1'
_cell_length_a   8.96354039
_cell_length_b   8.96354039
_cell_length_c   5.23116300
_cell_angle_alpha   90.00000000
_cell_angle_beta   90.00000000
_cell_angle_gamma   89.80946442
_symmetry_Int_Tables_number   1
_chemical_formula_structural   La2Er(InIr6)3
_chemical_formula_sum   'La2 Er1 In3 Ir18'
_cell_volume   420.29576195
_cell_formula_units_Z   1
loop_
 _symmetry_equiv_pos_site_id
 _symmetry_equiv_pos_as_xyz
  1  'x, y, z'
loop_
 _atom_site_type_symbol
 _atom_site_label
 _atom_site_symmetry_multiplicity
 _atom_site_fract_x
 _atom_site_fract_y
 _atom_site_fract_z
 _atom_site_occupancy
  La  La0  1  0.499205  0.504345  0.000000  1
  La  La1  1  0.004345  0.999205  0.000000  1
  Er  Er2  1  0.618464  0.118464  0.000000  1
  In  In3  1  0.377717  0.877717  0.000000  1
  In  In4  1  0.120567  0.378990  0.000000  1
  In  In5  1  0.878990  0.620567  0.000000  1
  Ir  Ir6  1  0.498598  0.998598  0.500000  1
  Ir  Ir7  1  0.001923  0.501923  0.500000  1
  Ir  Ir8  1  0.703733  0.556191  0.500000  1
  Ir  Ir9  1  0.296542  0.441458  0.500000  1
  Ir  Ir10  1  0.203567  0.942410  0.500000  1
  Ir  Ir11  1  0.793665  0.059587  0.500000  1
  Ir  Ir12  1  0.442410  0.703567  0.500000  1
  Ir  Ir13  1  0.559587  0.293665  0.500000  1
  Ir  Ir14  1  0.056191  0.203733  0.500000  1
  Ir  Ir15  1  0.941458  0.796542  0.500000  1
  Ir  Ir16  1  0.822372  0.322372  0.755215  1
  Ir  Ir17  1  0.180064  0.680064  0.756752  1
  Ir  Ir18  1  0.318924  0.180159  0.755714  1
  Ir  Ir19  1  0.680159  0.818924  0.755714  1
  Ir  Ir20  1  0.180064  0.680064  0.243248  1
  Ir  Ir21  1  0.822372  0.322372  0.244785  1
  Ir  Ir22  1  0.680159  0.818924  0.244286  1
  Ir  Ir23  1  0.318924  0.180159  0.244286  1
