# generated using pymatgen
data_Lu4TaTi3Ir4
_symmetry_space_group_name_H-M   'P 1'
_cell_length_a   4.41046200
_cell_length_b   6.82985049
_cell_length_c   7.91012159
_cell_angle_alpha   90.11700981
_cell_angle_beta   90.00000000
_cell_angle_gamma   90.00000000
_symmetry_Int_Tables_number   1
_chemical_formula_structural   Lu4TaTi3Ir4
_chemical_formula_sum   'Lu4 Ta1 Ti3 Ir4'
_cell_volume   238.27448258
_cell_formula_units_Z   1
loop_
 _symmetry_equiv_pos_site_id
 _symmetry_equiv_pos_as_xyz
  1  'x, y, z'
loop_
 _atom_site_type_symbol
 _atom_site_label
 _atom_site_symmetry_multiplicity
 _atom_site_fract_x
 _atom_site_fract_y
 _atom_site_fract_z
 _atom_site_occupancy
  Lu  Lu0  1  0.750000  0.483593  0.815382  1
  Lu  Lu1  1  0.250000  0.017179  0.320065  1
  Lu  Lu2  1  0.750000  0.984711  0.680363  1
  Lu  Lu3  1  0.250000  0.511539  0.183283  1
  Ta  Ta4  1  0.750000  0.853707  0.072708  1
  Ti  Ti5  1  0.250000  0.642791  0.570255  1
  Ti  Ti6  1  0.250000  0.144722  0.927364  1
  Ti  Ti7  1  0.750000  0.359043  0.430440  1
  Ir  Ir8  1  0.250000  0.778508  0.905852  1
  Ir  Ir9  1  0.250000  0.277458  0.597111  1
  Ir  Ir10  1  0.750000  0.723256  0.401733  1
  Ir  Ir11  1  0.750000  0.223494  0.095443  1
