# generated using pymatgen
data_TaTi3AlGaC2
_symmetry_space_group_name_H-M   'P 1'
_cell_length_a   3.07178500
_cell_length_b   3.07178588
_cell_length_c   13.70675000
_cell_angle_alpha   90.00000000
_cell_angle_beta   90.00000000
_cell_angle_gamma   120.00002278
_symmetry_Int_Tables_number   1
_chemical_formula_structural   TaTi3AlGaC2
_chemical_formula_sum   'Ta1 Ti3 Al1 Ga1 C2'
_cell_volume   112.00741629
_cell_formula_units_Z   1
loop_
 _symmetry_equiv_pos_site_id
 _symmetry_equiv_pos_as_xyz
  1  'x, y, z'
loop_
 _atom_site_type_symbol
 _atom_site_label
 _atom_site_symmetry_multiplicity
 _atom_site_fract_x
 _atom_site_fract_y
 _atom_site_fract_z
 _atom_site_occupancy
  Ta  Ta0  1  0.333333  0.666667  0.087177  1
  Ti  Ti1  1  0.333333  0.666667  0.418059  1
  Ti  Ti2  1  0.666667  0.333333  0.586257  1
  Ti  Ti3  1  0.666667  0.333333  0.910595  1
  Al  Al4  1  0.666667  0.333333  0.253896  1
  Ga  Ga5  1  0.333333  0.666667  0.747622  1
  C  C6  1  0.000000  0.000000  0.502821  1
  C  C7  1  0.000000  0.000000  0.993571  1
