# generated using pymatgen
data_SmBPt3
_symmetry_space_group_name_H-M   'P 1'
_cell_length_a   4.02945700
_cell_length_b   4.02945700
_cell_length_c   5.07524900
_cell_angle_alpha   90.00000000
_cell_angle_beta   90.00000000
_cell_angle_gamma   90.00000000
_symmetry_Int_Tables_number   1
_chemical_formula_structural   SmBPt3
_chemical_formula_sum   'Sm1 B1 Pt3'
_cell_volume   82.40440075
_cell_formula_units_Z   1
loop_
 _symmetry_equiv_pos_site_id
 _symmetry_equiv_pos_as_xyz
  1  'x, y, z'
loop_
 _atom_site_type_symbol
 _atom_site_label
 _atom_site_symmetry_multiplicity
 _atom_site_fract_x
 _atom_site_fract_y
 _atom_site_fract_z
 _atom_site_occupancy
  Sm  Sm0  1  0.000000  0.000000  0.985432  1
  B  B1  1  0.500000  0.500000  0.687114  1
  Pt  Pt2  1  0.000000  0.500000  0.501183  1
  Pt  Pt3  1  0.500000  0.500000  0.097688  1
  Pt  Pt4  1  0.500000  0.000000  0.501183  1
