# generated using pymatgen
data_Li2Cu3PtO8
_symmetry_space_group_name_H-M   'P 1'
_cell_length_a   6.08106405
_cell_length_b   6.08106421
_cell_length_c   6.08106452
_cell_angle_alpha   58.05999275
_cell_angle_beta   58.05999554
_cell_angle_gamma   58.05999114
_symmetry_Int_Tables_number   1
_chemical_formula_structural   Li2Cu3PtO8
_chemical_formula_sum   'Li2 Cu3 Pt1 O8'
_cell_volume   151.93587305
_cell_formula_units_Z   1
loop_
 _symmetry_equiv_pos_site_id
 _symmetry_equiv_pos_as_xyz
  1  'x, y, z'
loop_
 _atom_site_type_symbol
 _atom_site_label
 _atom_site_symmetry_multiplicity
 _atom_site_fract_x
 _atom_site_fract_y
 _atom_site_fract_z
 _atom_site_occupancy
  Li  Li0  1  0.130116  0.130116  0.130116  1
  Li  Li1  1  0.869884  0.869884  0.869884  1
  Cu  Cu2  1  0.500000  0.000000  0.500000  1
  Cu  Cu3  1  0.000000  0.500000  0.500000  1
  Cu  Cu4  1  0.500000  0.500000  0.000000  1
  Pt  Pt5  1  0.500000  0.500000  0.500000  1
  O  O6  1  0.268326  0.268326  0.268326  1
  O  O7  1  0.262835  0.262835  0.715592  1
  O  O8  1  0.715592  0.262835  0.262835  1
  O  O9  1  0.262835  0.715592  0.262835  1
  O  O10  1  0.737165  0.284408  0.737165  1
  O  O11  1  0.284408  0.737165  0.737165  1
  O  O12  1  0.737165  0.737165  0.284408  1
  O  O13  1  0.731674  0.731674  0.731674  1
