# generated using pymatgen
data_Nd4CdInSi4
_symmetry_space_group_name_H-M   'P 1'
_cell_length_a   7.36391000
_cell_length_b   7.36391000
_cell_length_c   4.36952500
_cell_angle_alpha   90.00000000
_cell_angle_beta   90.00000000
_cell_angle_gamma   90.00000000
_symmetry_Int_Tables_number   1
_chemical_formula_structural   Nd4CdInSi4
_chemical_formula_sum   'Nd4 Cd1 In1 Si4'
_cell_volume   236.94697713
_cell_formula_units_Z   1
loop_
 _symmetry_equiv_pos_site_id
 _symmetry_equiv_pos_as_xyz
  1  'x, y, z'
loop_
 _atom_site_type_symbol
 _atom_site_label
 _atom_site_symmetry_multiplicity
 _atom_site_fract_x
 _atom_site_fract_y
 _atom_site_fract_z
 _atom_site_occupancy
  Nd  Nd0  1  0.680651  0.179346  0.500000  1
  Nd  Nd1  1  0.319349  0.820654  0.500000  1
  Nd  Nd2  1  0.179346  0.319349  0.500000  1
  Nd  Nd3  1  0.820654  0.680651  0.500000  1
  Cd  Cd4  1  0.500000  0.500000  0.000000  1
  In  In5  1  0.000000  0.000000  0.000000  1
  Si  Si6  1  0.117196  0.612149  0.000000  1
  Si  Si7  1  0.882804  0.387851  0.000000  1
  Si  Si8  1  0.612149  0.882804  0.000000  1
  Si  Si9  1  0.387851  0.117196  0.000000  1
