# generated using pymatgen
data_Pr2Fe2(Re5C)3
_symmetry_space_group_name_H-M   'P 1'
_cell_length_a   6.99693258
_cell_length_b   6.99693357
_cell_length_c   6.99611502
_cell_angle_alpha   82.71092228
_cell_angle_beta   82.71092560
_cell_angle_gamma   83.06267367
_symmetry_Int_Tables_number   1
_chemical_formula_structural   Pr2Fe2(Re5C)3
_chemical_formula_sum   'Pr2 Fe2 Re15 C3'
_cell_volume   335.08285528
_cell_formula_units_Z   1
loop_
 _symmetry_equiv_pos_site_id
 _symmetry_equiv_pos_as_xyz
  1  'x, y, z'
loop_
 _atom_site_type_symbol
 _atom_site_label
 _atom_site_symmetry_multiplicity
 _atom_site_fract_x
 _atom_site_fract_y
 _atom_site_fract_z
 _atom_site_occupancy
  Pr  Pr0  1  0.648475  0.648475  0.648539  1
  Pr  Pr1  1  0.351525  0.351525  0.351461  1
  Fe  Fe2  1  0.500000  0.000000  0.000000  1
  Fe  Fe3  1  0.000000  0.500000  0.000000  1
  Re  Re4  1  0.000000  0.000000  0.500000  1
  Re  Re5  1  0.722110  0.277890  0.000000  1
  Re  Re6  1  0.000310  0.718699  0.275171  1
  Re  Re7  1  0.281301  0.999690  0.724829  1
  Re  Re8  1  0.999690  0.281301  0.724829  1
  Re  Re9  1  0.718699  0.000310  0.275171  1
  Re  Re10  1  0.277890  0.722110  0.000000  1
  Re  Re11  1  0.350072  0.861658  0.342668  1
  Re  Re12  1  0.344540  0.344540  0.865443  1
  Re  Re13  1  0.861658  0.350072  0.342668  1
  Re  Re14  1  0.649928  0.138342  0.657332  1
  Re  Re15  1  0.655460  0.655460  0.134557  1
  Re  Re16  1  0.138342  0.649928  0.657332  1
  Re  Re17  1  0.899424  0.899424  0.902810  1
  Re  Re18  1  0.100576  0.100576  0.097190  1
  C  C19  1  0.500000  0.500000  0.000000  1
  C  C20  1  0.000000  0.500000  0.500000  1
  C  C21  1  0.500000  0.000000  0.500000  1
