# generated using pymatgen
data_Y3Tc(Ni4P3)2
_symmetry_space_group_name_H-M   'P 1'
_cell_length_a   3.76157800
_cell_length_b   10.54221400
_cell_length_c   12.34760400
_cell_angle_alpha   90.00000000
_cell_angle_beta   90.00000000
_cell_angle_gamma   90.00000000
_symmetry_Int_Tables_number   1
_chemical_formula_structural   Y3Tc(Ni4P3)2
_chemical_formula_sum   'Y6 Tc2 Ni16 P12'
_cell_volume   489.64868489
_cell_formula_units_Z   2
loop_
 _symmetry_equiv_pos_site_id
 _symmetry_equiv_pos_as_xyz
  1  'x, y, z'
loop_
 _atom_site_type_symbol
 _atom_site_label
 _atom_site_symmetry_multiplicity
 _atom_site_fract_x
 _atom_site_fract_y
 _atom_site_fract_z
 _atom_site_occupancy
  Y  Y0  1  0.751830  0.000000  0.476672  1
  Y  Y1  1  0.251830  0.500000  0.523328  1
  Y  Y2  1  0.251792  0.684534  0.792284  1
  Y  Y3  1  0.251792  0.315466  0.792284  1
  Y  Y4  1  0.751792  0.815466  0.207716  1
  Y  Y5  1  0.751792  0.184534  0.207716  1
  Tc  Tc6  1  0.251799  0.000000  0.845423  1
  Tc  Tc7  1  0.751799  0.500000  0.154577  1
  Ni  Ni8  1  0.751860  0.000000  0.016370  1
  Ni  Ni9  1  0.251860  0.500000  0.983630  1
  Ni  Ni10  1  0.251913  0.196976  0.571637  1
  Ni  Ni11  1  0.251913  0.803024  0.571637  1
  Ni  Ni12  1  0.751913  0.303024  0.428363  1
  Ni  Ni13  1  0.751913  0.696976  0.428363  1
  Ni  Ni14  1  0.251833  0.619820  0.289809  1
  Ni  Ni15  1  0.251833  0.380180  0.289809  1
  Ni  Ni16  1  0.751833  0.880180  0.710191  1
  Ni  Ni17  1  0.751833  0.119820  0.710191  1
  Ni  Ni18  1  0.251822  0.168433  0.013045  1
  Ni  Ni19  1  0.251822  0.831567  0.013045  1
  Ni  Ni20  1  0.751822  0.331567  0.986955  1
  Ni  Ni21  1  0.751822  0.668433  0.986955  1
  Ni  Ni22  1  0.251864  0.000000  0.299233  1
  Ni  Ni23  1  0.751864  0.500000  0.700767  1
  P  P24  1  0.251840  0.186447  0.385857  1
  P  P25  1  0.251840  0.813553  0.385857  1
  P  P26  1  0.751840  0.313553  0.614143  1
  P  P27  1  0.751840  0.686447  0.614143  1
  P  P28  1  0.251808  0.000000  0.123008  1
  P  P29  1  0.751808  0.500000  0.876992  1
  P  P30  1  0.251734  0.651355  0.107283  1
  P  P31  1  0.251734  0.348645  0.107283  1
  P  P32  1  0.751734  0.848645  0.892717  1
  P  P33  1  0.751734  0.151355  0.892717  1
  P  P34  1  0.251774  0.000000  0.652640  1
  P  P35  1  0.751774  0.500000  0.347360  1
