# generated using pymatgen
data_DyEr3FeSi4Ir
_symmetry_space_group_name_H-M   'P 1'
_cell_length_a   5.63629599
_cell_length_b   5.63629631
_cell_length_c   9.97541340
_cell_angle_alpha   63.12906933
_cell_angle_beta   63.12906708
_cell_angle_gamma   43.36566881
_symmetry_Int_Tables_number   1
_chemical_formula_structural   DyEr3FeSi4Ir
_chemical_formula_sum   'Dy1 Er3 Fe1 Si4 Ir1'
_cell_volume   190.12362747
_cell_formula_units_Z   1
loop_
 _symmetry_equiv_pos_site_id
 _symmetry_equiv_pos_as_xyz
  1  'x, y, z'
loop_
 _atom_site_type_symbol
 _atom_site_label
 _atom_site_symmetry_multiplicity
 _atom_site_fract_x
 _atom_site_fract_y
 _atom_site_fract_z
 _atom_site_occupancy
  Dy  Dy0  1  0.186297  0.186297  0.890969  1
  Er  Er1  1  0.004826  0.004826  0.323558  1
  Er  Er2  1  0.997436  0.997436  0.673133  1
  Er  Er3  1  0.814168  0.814168  0.107621  1
  Fe  Fe4  1  0.272411  0.272411  0.378711  1
  Si  Si5  1  0.651443  0.651443  0.430052  1
  Si  Si6  1  0.359401  0.359401  0.558277  1
  Si  Si7  1  0.499529  0.499529  0.129905  1
  Si  Si8  1  0.487619  0.487619  0.879503  1
  Ir  Ir9  1  0.726868  0.726868  0.628271  1
