# generated using pymatgen
data_DyErU8(Re3C8)2
_symmetry_space_group_name_H-M   'P 1'
_cell_length_a   11.36038815
_cell_length_b   11.36038815
_cell_length_c   3.27013100
_cell_angle_alpha   90.00000000
_cell_angle_beta   90.00000000
_cell_angle_gamma   90.01831788
_symmetry_Int_Tables_number   1
_chemical_formula_structural   DyErU8(Re3C8)2
_chemical_formula_sum   'Dy1 Er1 U8 Re6 C16'
_cell_volume   422.03791459
_cell_formula_units_Z   1
loop_
 _symmetry_equiv_pos_site_id
 _symmetry_equiv_pos_as_xyz
  1  'x, y, z'
loop_
 _atom_site_type_symbol
 _atom_site_label
 _atom_site_symmetry_multiplicity
 _atom_site_fract_x
 _atom_site_fract_y
 _atom_site_fract_z
 _atom_site_occupancy
  Dy  Dy0  1  0.500000  0.000000  0.000000  1
  Er  Er1  1  0.000000  0.500000  0.000000  1
  U  U2  1  0.270703  0.542124  0.500000  1
  U  U3  1  0.729297  0.457876  0.500000  1
  U  U4  1  0.542285  0.728725  0.500000  1
  U  U5  1  0.771275  0.957715  0.500000  1
  U  U6  1  0.228725  0.042285  0.500000  1
  U  U7  1  0.957876  0.229297  0.500000  1
  U  U8  1  0.457715  0.271275  0.500000  1
  U  U9  1  0.042124  0.770703  0.500000  1
  Re  Re10  1  0.202622  0.297378  0.000000  1
  Re  Re11  1  0.703494  0.203494  0.000000  1
  Re  Re12  1  0.296506  0.796506  0.000000  1
  Re  Re13  1  0.500000  0.500000  0.000000  1
  Re  Re14  1  0.797378  0.702622  0.000000  1
  Re  Re15  1  0.000000  0.000000  0.000000  1
  C  C16  1  0.347016  0.402897  0.000000  1
  C  C17  1  0.619189  0.119189  0.500000  1
  C  C18  1  0.902897  0.847016  0.000000  1
  C  C19  1  0.655749  0.844251  0.000000  1
  C  C20  1  0.344251  0.155749  0.000000  1
  C  C21  1  0.117811  0.382189  0.500000  1
  C  C22  1  0.152641  0.902556  0.000000  1
  C  C23  1  0.845422  0.345422  0.000000  1
  C  C24  1  0.652984  0.597103  0.000000  1
  C  C25  1  0.597444  0.347359  0.000000  1
  C  C26  1  0.882189  0.617811  0.500000  1
  C  C27  1  0.847359  0.097444  0.000000  1
  C  C28  1  0.380811  0.880811  0.500000  1
  C  C29  1  0.154578  0.654578  0.000000  1
  C  C30  1  0.097103  0.152984  0.000000  1
  C  C31  1  0.402556  0.652641  0.000000  1
