# generated using pymatgen
data_Hf12FeTc6Ir5
_symmetry_space_group_name_H-M   'P 1'
_cell_length_a   4.58976200
_cell_length_b   6.48365500
_cell_length_c   13.83150500
_cell_angle_alpha   90.00000000
_cell_angle_beta   90.00000414
_cell_angle_gamma   90.00000000
_symmetry_Int_Tables_number   1
_chemical_formula_structural   Hf12FeTc6Ir5
_chemical_formula_sum   'Hf12 Fe1 Tc6 Ir5'
_cell_volume   411.60391954
_cell_formula_units_Z   1
loop_
 _symmetry_equiv_pos_site_id
 _symmetry_equiv_pos_as_xyz
  1  'x, y, z'
loop_
 _atom_site_type_symbol
 _atom_site_label
 _atom_site_symmetry_multiplicity
 _atom_site_fract_x
 _atom_site_fract_y
 _atom_site_fract_z
 _atom_site_occupancy
  Hf  Hf0  1  0.500001  0.255682  0.000000  1
  Hf  Hf1  1  0.500001  0.744318  0.000000  1
  Hf  Hf2  1  0.999993  0.252356  0.163299  1
  Hf  Hf3  1  0.999993  0.747645  0.163299  1
  Hf  Hf4  1  0.499995  0.249855  0.332687  1
  Hf  Hf5  1  0.499995  0.750145  0.332687  1
  Hf  Hf6  1  0.000000  0.249707  0.500000  1
  Hf  Hf7  1  0.000000  0.750293  0.500000  1
  Hf  Hf8  1  0.500004  0.249855  0.667313  1
  Hf  Hf9  1  0.500004  0.750145  0.667313  1
  Hf  Hf10  1  0.000007  0.252356  0.836701  1
  Hf  Hf11  1  0.000007  0.747645  0.836701  1
  Fe  Fe12  1  0.000000  0.499999  0.000000  1
  Tc  Tc13  1  0.000000  0.000000  0.000000  1
  Tc  Tc14  1  0.499989  0.499999  0.166737  1
  Tc  Tc15  1  0.999996  0.000000  0.333133  1
  Tc  Tc16  1  0.500001  0.499999  0.500000  1
  Tc  Tc17  1  0.000004  0.000000  0.666867  1
  Tc  Tc18  1  0.500011  0.499999  0.833262  1
  Ir  Ir19  1  0.499993  0.000000  0.166543  1
  Ir  Ir20  1  0.999994  0.499999  0.333403  1
  Ir  Ir21  1  0.500001  0.000000  0.500000  1
  Ir  Ir22  1  0.000006  0.499999  0.666598  1
  Ir  Ir23  1  0.500006  0.000000  0.833457  1
