# generated using pymatgen
data_Nd3Er3Zn2(SiRh3)4
_symmetry_space_group_name_H-M   'P 1'
_cell_length_a   5.61524100
_cell_length_b   5.61524044
_cell_length_c   15.29765200
_cell_angle_alpha   90.00000000
_cell_angle_beta   90.00000000
_cell_angle_gamma   119.99999739
_symmetry_Int_Tables_number   1
_chemical_formula_structural   Nd3Er3Zn2(SiRh3)4
_chemical_formula_sum   'Nd3 Er3 Zn2 Si4 Rh12'
_cell_volume   417.72664510
_cell_formula_units_Z   1
loop_
 _symmetry_equiv_pos_site_id
 _symmetry_equiv_pos_as_xyz
  1  'x, y, z'
loop_
 _atom_site_type_symbol
 _atom_site_label
 _atom_site_symmetry_multiplicity
 _atom_site_fract_x
 _atom_site_fract_y
 _atom_site_fract_z
 _atom_site_occupancy
  Nd  Nd0  1  0.333333  0.666667  0.537126  1
  Nd  Nd1  1  0.333333  0.666667  0.751088  1
  Nd  Nd2  1  0.666667  0.333333  0.248984  1
  Er  Er3  1  0.666667  0.333333  0.462599  1
  Er  Er4  1  0.666667  0.333333  0.034903  1
  Er  Er5  1  0.333333  0.666667  0.965227  1
  Zn  Zn6  1  0.000000  0.000000  0.000118  1
  Zn  Zn7  1  0.000000  0.000000  0.499691  1
  Si  Si8  1  0.000000  0.000000  0.248874  1
  Si  Si9  1  0.000000  0.000000  0.751042  1
  Si  Si10  1  0.333333  0.666667  0.249665  1
  Si  Si11  1  0.666667  0.333333  0.750834  1
  Rh  Rh12  1  0.168019  0.336037  0.132974  1
  Rh  Rh13  1  0.832079  0.664157  0.866856  1
  Rh  Rh14  1  0.663963  0.831981  0.132974  1
  Rh  Rh15  1  0.832079  0.664159  0.634965  1
  Rh  Rh16  1  0.335843  0.167921  0.866856  1
  Rh  Rh17  1  0.167122  0.334245  0.365155  1
  Rh  Rh18  1  0.168019  0.831981  0.132974  1
  Rh  Rh19  1  0.335841  0.167921  0.634965  1
  Rh  Rh20  1  0.832079  0.167921  0.866856  1
  Rh  Rh21  1  0.665755  0.832878  0.365155  1
  Rh  Rh22  1  0.832079  0.167921  0.634965  1
  Rh  Rh23  1  0.167122  0.832878  0.365155  1
