# generated using pymatgen
data_Ta4Re3B4Ru
_symmetry_space_group_name_H-M   'P 1'
_cell_length_a   3.16450800
_cell_length_b   9.09404831
_cell_length_c   15.75565403
_cell_angle_alpha   89.93439600
_cell_angle_beta   90.00000000
_cell_angle_gamma   90.00000000
_symmetry_Int_Tables_number   1
_chemical_formula_structural   Ta4Re3B4Ru
_chemical_formula_sum   'Ta12 Re9 B12 Ru3'
_cell_volume   453.41888633
_cell_formula_units_Z   3
loop_
 _symmetry_equiv_pos_site_id
 _symmetry_equiv_pos_as_xyz
  1  'x, y, z'
loop_
 _atom_site_type_symbol
 _atom_site_label
 _atom_site_symmetry_multiplicity
 _atom_site_fract_x
 _atom_site_fract_y
 _atom_site_fract_z
 _atom_site_occupancy
  Ta  Ta0  1  0.000000  0.803411  0.494126  1
  Ta  Ta1  1  0.000000  0.196139  0.506207  1
  Ta  Ta2  1  0.000000  0.303472  0.006475  1
  Ta  Ta3  1  0.000000  0.695994  0.993315  1
  Ta  Ta4  1  0.000000  0.517311  0.593589  1
  Ta  Ta5  1  0.000000  0.482285  0.404630  1
  Ta  Ta6  1  0.000000  0.018093  0.905140  1
  Ta  Ta7  1  0.000000  0.982712  0.095166  1
  Ta  Ta8  1  0.000000  0.682763  0.205720  1
  Ta  Ta9  1  0.000000  0.320014  0.793717  1
  Ta  Ta10  1  0.000000  0.182411  0.294372  1
  Ta  Ta11  1  0.000000  0.816530  0.705415  1
  Re  Re12  1  0.500000  0.716864  0.356793  1
  Re  Re13  1  0.500000  0.282317  0.642705  1
  Re  Re14  1  0.500000  0.216495  0.143600  1
  Re  Re15  1  0.500000  0.784795  0.857605  1
  Re  Re16  1  0.500000  0.518643  0.096494  1
  Re  Re17  1  0.500000  0.481708  0.906409  1
  Re  Re18  1  0.500000  0.018199  0.403902  1
  Re  Re19  1  0.500000  0.982683  0.595107  1
  Re  Re20  1  0.500000  0.567264  0.732025  1
  B  B21  1  0.500000  0.604543  0.492733  1
  B  B22  1  0.500000  0.394846  0.505625  1
  B  B23  1  0.500000  0.104407  0.006295  1
  B  B24  1  0.500000  0.895999  0.994202  1
  B  B25  1  0.000000  0.609826  0.832902  1
  B  B26  1  0.000000  0.388498  0.165753  1
  B  B27  1  0.000000  0.110517  0.666225  1
  B  B28  1  0.000000  0.889042  0.334334  1
  B  B29  1  0.500000  0.717341  0.602903  1
  B  B30  1  0.500000  0.280743  0.398220  1
  B  B31  1  0.500000  0.219620  0.898648  1
  B  B32  1  0.500000  0.781412  0.101320  1
  Ru  Ru33  1  0.500000  0.432329  0.268271  1
  Ru  Ru34  1  0.500000  0.069030  0.768227  1
  Ru  Ru35  1  0.500000  0.931740  0.231831  1
