# generated using pymatgen
data_Hf3Cr2TcP3
_symmetry_space_group_name_H-M   'P 1'
_cell_length_a   6.68749999
_cell_length_b   6.72963768
_cell_length_c   3.38102200
_cell_angle_alpha   90.00000000
_cell_angle_beta   90.00000000
_cell_angle_gamma   120.20863479
_symmetry_Int_Tables_number   1
_chemical_formula_structural   Hf3Cr2TcP3
_chemical_formula_sum   'Hf3 Cr2 Tc1 P3'
_cell_volume   131.49741797
_cell_formula_units_Z   1
loop_
 _symmetry_equiv_pos_site_id
 _symmetry_equiv_pos_as_xyz
  1  'x, y, z'
loop_
 _atom_site_type_symbol
 _atom_site_label
 _atom_site_symmetry_multiplicity
 _atom_site_fract_x
 _atom_site_fract_y
 _atom_site_fract_z
 _atom_site_occupancy
  Hf  Hf0  1  0.407656  0.406370  0.500000  1
  Hf  Hf1  1  0.592344  0.998715  0.500000  1
  Hf  Hf2  1  0.000000  0.600031  0.500000  1
  Cr  Cr3  1  0.249755  0.000267  0.000000  1
  Cr  Cr4  1  0.750245  0.750511  0.000000  1
  Tc  Tc5  1  0.000000  0.248581  0.000000  1
  P  P6  1  0.663664  0.334766  0.000000  1
  P  P7  1  0.336336  0.671103  0.000000  1
  P  P8  1  0.000000  0.989657  0.500000  1
