# generated using pymatgen
data_Sc2Nb2As3PRh4
_symmetry_space_group_name_H-M   'P 1'
_cell_length_a   3.89116900
_cell_length_b   6.49301192
_cell_length_c   7.52369980
_cell_angle_alpha   89.70402889
_cell_angle_beta   90.00000000
_cell_angle_gamma   90.00000000
_symmetry_Int_Tables_number   1
_chemical_formula_structural   Sc2Nb2As3PRh4
_chemical_formula_sum   'Sc2 Nb2 As3 P1 Rh4'
_cell_volume   190.08679898
_cell_formula_units_Z   1
loop_
 _symmetry_equiv_pos_site_id
 _symmetry_equiv_pos_as_xyz
  1  'x, y, z'
loop_
 _atom_site_type_symbol
 _atom_site_label
 _atom_site_symmetry_multiplicity
 _atom_site_fract_x
 _atom_site_fract_y
 _atom_site_fract_z
 _atom_site_occupancy
  Sc  Sc0  1  0.250000  0.023049  0.821894  1
  Sc  Sc1  1  0.250000  0.534402  0.683826  1
  Nb  Nb2  1  0.750000  0.965228  0.178362  1
  Nb  Nb3  1  0.750000  0.470514  0.315157  1
  As  As4  1  0.250000  0.758620  0.370725  1
  As  As5  1  0.250000  0.258422  0.126243  1
  As  As6  1  0.750000  0.245993  0.618014  1
  P  P7  1  0.750000  0.742829  0.884944  1
  Rh  Rh8  1  0.250000  0.140517  0.439582  1
  Rh  Rh9  1  0.250000  0.649492  0.050181  1
  Rh  Rh10  1  0.750000  0.849321  0.575060  1
  Rh  Rh11  1  0.750000  0.361616  0.936013  1
