# generated using pymatgen
data_Tb15Er5Sn13Pb3
_symmetry_space_group_name_H-M   'P 1'
_cell_length_a   8.05903530
_cell_length_b   8.20868727
_cell_length_c   15.53894980
_cell_angle_alpha   90.21651956
_cell_angle_beta   89.93120002
_cell_angle_gamma   90.05402041
_symmetry_Int_Tables_number   1
_chemical_formula_structural   Tb15Er5Sn13Pb3
_chemical_formula_sum   'Tb15 Er5 Sn13 Pb3'
_cell_volume   1027.95671236
_cell_formula_units_Z   1
loop_
 _symmetry_equiv_pos_site_id
 _symmetry_equiv_pos_as_xyz
  1  'x, y, z'
loop_
 _atom_site_type_symbol
 _atom_site_label
 _atom_site_symmetry_multiplicity
 _atom_site_fract_x
 _atom_site_fract_y
 _atom_site_fract_z
 _atom_site_occupancy
  Tb  Tb0  1  0.868336  0.661218  0.624035  1
  Tb  Tb1  1  0.631975  0.160953  0.376249  1
  Tb  Tb2  1  0.133290  0.339531  0.121681  1
  Tb  Tb3  1  0.635215  0.162694  0.122430  1
  Tb  Tb4  1  0.134698  0.337265  0.377578  1
  Tb  Tb5  1  0.365632  0.837434  0.622892  1
  Tb  Tb6  1  0.867446  0.662749  0.878168  1
  Tb  Tb7  1  0.521203  0.322764  0.902108  1
  Tb  Tb8  1  0.025159  0.179300  0.599421  1
  Tb  Tb9  1  0.475887  0.679896  0.401396  1
  Tb  Tb10  1  0.976577  0.818430  0.097985  1
  Tb  Tb11  1  0.481284  0.677299  0.096641  1
  Tb  Tb12  1  0.982523  0.822013  0.400764  1
  Tb  Tb13  1  0.517289  0.321761  0.599454  1
  Tb  Tb14  1  0.017522  0.180594  0.901660  1
  Er  Er15  1  0.366038  0.836553  0.876236  1
  Er  Er16  1  0.198922  0.502888  0.750792  1
  Er  Er17  1  0.697674  0.997264  0.751719  1
  Er  Er18  1  0.802291  0.497224  0.248363  1
  Er  Er19  1  0.302022  0.002615  0.251172  1
  Sn  Sn20  1  0.208024  0.538770  0.957328  1
  Sn  Sn21  1  0.703956  0.962899  0.957330  1
  Sn  Sn22  1  0.206938  0.536455  0.542898  1
  Sn  Sn23  1  0.292998  0.036731  0.457953  1
  Sn  Sn24  1  0.793446  0.463190  0.041887  1
  Sn  Sn25  1  0.563324  0.619518  0.750564  1
  Sn  Sn26  1  0.063433  0.882027  0.750567  1
  Sn  Sn27  1  0.436684  0.382107  0.249593  1
  Sn  Sn28  1  0.937234  0.118584  0.249325  1
  Sn  Sn29  1  0.329732  0.147924  0.751468  1
  Sn  Sn30  1  0.828897  0.351421  0.750107  1
  Sn  Sn31  1  0.670277  0.850520  0.249532  1
  Sn  Sn32  1  0.171194  0.648385  0.249385  1
  Pb  Pb33  1  0.291968  0.035095  0.041082  1
  Pb  Pb34  1  0.791727  0.463394  0.458341  1
  Pb  Pb35  1  0.709190  0.962533  0.541896  1
