# generated using pymatgen
data_Y2B8IrPt
_symmetry_space_group_name_H-M   'P 1'
_cell_length_a   7.04147492
_cell_length_b   7.04147395
_cell_length_c   7.04147565
_cell_angle_alpha   111.78876401
_cell_angle_beta   111.61837822
_cell_angle_gamma   105.09329652
_symmetry_Int_Tables_number   1
_chemical_formula_structural   Y2B8IrPt
_chemical_formula_sum   'Y4 B16 Ir2 Pt2'
_cell_volume   267.59700411
_cell_formula_units_Z   2
loop_
 _symmetry_equiv_pos_site_id
 _symmetry_equiv_pos_as_xyz
  1  'x, y, z'
loop_
 _atom_site_type_symbol
 _atom_site_label
 _atom_site_symmetry_multiplicity
 _atom_site_fract_x
 _atom_site_fract_y
 _atom_site_fract_z
 _atom_site_occupancy
  Y  Y0  1  0.788289  0.788289  0.000000  1
  Y  Y1  1  0.211711  0.211711  0.000000  1
  Y  Y2  1  0.743610  0.243610  0.500000  1
  Y  Y3  1  0.256390  0.756390  0.500000  1
  B  B4  1  0.266029  0.107424  0.373453  1
  B  B5  1  0.733971  0.892576  0.626547  1
  B  B6  1  0.266029  0.892576  0.158605  1
  B  B7  1  0.733971  0.107424  0.841395  1
  B  B8  1  0.106568  0.738477  0.845045  1
  B  B9  1  0.893432  0.261523  0.154955  1
  B  B10  1  0.106568  0.261523  0.368091  1
  B  B11  1  0.893432  0.738477  0.631909  1
  B  B12  1  0.110907  0.108478  0.524082  1
  B  B13  1  0.584396  0.586825  0.475918  1
  B  B14  1  0.110907  0.586825  0.002429  1
  B  B15  1  0.584396  0.108478  0.997571  1
  B  B16  1  0.889093  0.891522  0.475918  1
  B  B17  1  0.415604  0.413175  0.524082  1
  B  B18  1  0.889093  0.413175  0.997571  1
  B  B19  1  0.415604  0.891522  0.002429  1
  Ir  Ir20  1  0.500000  0.739631  0.239631  1
  Ir  Ir21  1  0.500000  0.260369  0.760369  1
  Pt  Pt22  1  0.255031  0.500000  0.755031  1
  Pt  Pt23  1  0.744969  0.500000  0.244969  1
