# generated using pymatgen
data_Sr6TeIrO12
_symmetry_space_group_name_H-M   'P 1'
_cell_length_a   6.12583511
_cell_length_b   5.89834032
_cell_length_c   10.32073256
_cell_angle_alpha   54.99076529
_cell_angle_beta   90.17296952
_cell_angle_gamma   89.97766080
_symmetry_Int_Tables_number   1
_chemical_formula_structural   Sr6TeIrO12
_chemical_formula_sum   'Sr6 Te1 Ir1 O12'
_cell_volume   305.43423616
_cell_formula_units_Z   1
loop_
 _symmetry_equiv_pos_site_id
 _symmetry_equiv_pos_as_xyz
  1  'x, y, z'
loop_
 _atom_site_type_symbol
 _atom_site_label
 _atom_site_symmetry_multiplicity
 _atom_site_fract_x
 _atom_site_fract_y
 _atom_site_fract_z
 _atom_site_occupancy
  Sr  Sr0  1  0.500000  0.500000  0.500000  1
  Sr  Sr1  1  0.949438  0.734474  0.251850  1
  Sr  Sr2  1  0.452761  0.270417  0.243675  1
  Sr  Sr3  1  0.000000  0.500000  0.000000  1
  Sr  Sr4  1  0.547239  0.729583  0.756325  1
  Sr  Sr5  1  0.050562  0.265526  0.748150  1
  Te  Te6  1  0.000000  0.000000  0.500000  1
  Ir  Ir7  1  0.500000  0.000000  0.000000  1
  O  O8  1  0.452171  0.118661  0.781139  1
  O  O9  1  0.237101  0.766237  0.063743  1
  O  O10  1  0.177093  0.312509  0.456358  1
  O  O11  1  0.677852  0.687280  0.042859  1
  O  O12  1  0.737254  0.235079  0.435073  1
  O  O13  1  0.952263  0.882243  0.718524  1
  O  O14  1  0.047737  0.117757  0.281476  1
  O  O15  1  0.262746  0.764921  0.564927  1
  O  O16  1  0.322148  0.312720  0.957141  1
  O  O17  1  0.822907  0.687491  0.543642  1
  O  O18  1  0.762899  0.233763  0.936257  1
  O  O19  1  0.547829  0.881339  0.218861  1
