# generated using pymatgen
data_Dy4Nb4Fe11Ni5P12
_symmetry_space_group_name_H-M   'P 1'
_cell_length_a   3.70661900
_cell_length_b   10.48297280
_cell_length_c   12.22346201
_cell_angle_alpha   89.95423079
_cell_angle_beta   90.00000000
_cell_angle_gamma   90.00000000
_symmetry_Int_Tables_number   1
_chemical_formula_structural   Dy4Nb4Fe11Ni5P12
_chemical_formula_sum   'Dy4 Nb4 Fe11 Ni5 P12'
_cell_volume   474.95940880
_cell_formula_units_Z   1
loop_
 _symmetry_equiv_pos_site_id
 _symmetry_equiv_pos_as_xyz
  1  'x, y, z'
loop_
 _atom_site_type_symbol
 _atom_site_label
 _atom_site_symmetry_multiplicity
 _atom_site_fract_x
 _atom_site_fract_y
 _atom_site_fract_z
 _atom_site_occupancy
  Dy  Dy0  1  0.250000  0.584646  0.710428  1
  Dy  Dy1  1  0.250000  0.914484  0.210734  1
  Dy  Dy2  1  0.750000  0.416439  0.289682  1
  Dy  Dy3  1  0.750000  0.084295  0.789896  1
  Nb  Nb4  1  0.250000  0.702862  0.991880  1
  Nb  Nb5  1  0.250000  0.797251  0.492523  1
  Nb  Nb6  1  0.750000  0.294668  0.007315  1
  Nb  Nb7  1  0.750000  0.203566  0.508672  1
  Fe  Fe8  1  0.250000  0.284764  0.671261  1
  Fe  Fe9  1  0.750000  0.784346  0.830015  1
  Fe  Fe10  1  0.750000  0.715775  0.329796  1
  Fe  Fe11  1  0.250000  0.883135  0.700371  1
  Fe  Fe12  1  0.250000  0.617088  0.201478  1
  Fe  Fe13  1  0.750000  0.118672  0.296783  1
  Fe  Fe14  1  0.750000  0.382470  0.799558  1
  Fe  Fe15  1  0.250000  0.464416  0.933615  1
  Fe  Fe16  1  0.250000  0.035562  0.432536  1
  Fe  Fe17  1  0.750000  0.535110  0.066433  1
  Fe  Fe18  1  0.750000  0.965144  0.565878  1
  Ni  Ni19  1  0.250000  0.410485  0.484953  1
  Ni  Ni20  1  0.250000  0.087342  0.987929  1
  Ni  Ni21  1  0.750000  0.588082  0.514374  1
  Ni  Ni22  1  0.750000  0.909198  0.013740  1
  Ni  Ni23  1  0.250000  0.220615  0.171544  1
  P  P24  1  0.250000  0.428794  0.112275  1
  P  P25  1  0.250000  0.075176  0.613541  1
  P  P26  1  0.750000  0.575728  0.886103  1
  P  P27  1  0.750000  0.925160  0.386126  1
  P  P28  1  0.250000  0.276279  0.853748  1
  P  P29  1  0.250000  0.223541  0.355561  1
  P  P30  1  0.750000  0.722386  0.147362  1
  P  P31  1  0.750000  0.777738  0.647848  1
  P  P32  1  0.250000  0.594744  0.382483  1
  P  P33  1  0.250000  0.904395  0.881017  1
  P  P34  1  0.750000  0.405982  0.618162  1
  P  P35  1  0.750000  0.089661  0.114382  1
