# generated using pymatgen
data_HoTm9GaBi5
_symmetry_space_group_name_H-M   'P 1'
_cell_length_a   8.09446700
_cell_length_b   9.36391900
_cell_length_c   11.85437200
_cell_angle_alpha   90.00000000
_cell_angle_beta   90.00000000
_cell_angle_gamma   90.00000000
_symmetry_Int_Tables_number   1
_chemical_formula_structural   HoTm9GaBi5
_chemical_formula_sum   'Ho2 Tm18 Ga2 Bi10'
_cell_volume   898.51318985
_cell_formula_units_Z   2
loop_
 _symmetry_equiv_pos_site_id
 _symmetry_equiv_pos_as_xyz
  1  'x, y, z'
loop_
 _atom_site_type_symbol
 _atom_site_label
 _atom_site_symmetry_multiplicity
 _atom_site_fract_x
 _atom_site_fract_y
 _atom_site_fract_z
 _atom_site_occupancy
  Ho  Ho0  1  0.687576  0.750000  0.781219  1
  Ho  Ho1  1  0.187576  0.750000  0.718781  1
  Tm  Tm2  1  0.349445  0.750000  0.217496  1
  Tm  Tm3  1  0.849445  0.750000  0.282504  1
  Tm  Tm4  1  0.645496  0.250000  0.793348  1
  Tm  Tm5  1  0.145496  0.250000  0.706652  1
  Tm  Tm6  1  0.691006  0.550252  0.059358  1
  Tm  Tm7  1  0.191006  0.949748  0.440642  1
  Tm  Tm8  1  0.315646  0.071816  0.944215  1
  Tm  Tm9  1  0.815646  0.428184  0.555785  1
  Tm  Tm10  1  0.315646  0.428184  0.944215  1
  Tm  Tm11  1  0.815646  0.071816  0.555785  1
  Tm  Tm12  1  0.691006  0.949748  0.059358  1
  Tm  Tm13  1  0.191006  0.550252  0.440642  1
  Tm  Tm14  1  0.463530  0.250000  0.489623  1
  Tm  Tm15  1  0.963530  0.250000  0.010377  1
  Tm  Tm16  1  0.520400  0.750000  0.509730  1
  Tm  Tm17  1  0.020400  0.750000  0.990270  1
  Tm  Tm18  1  0.321419  0.250000  0.214144  1
  Tm  Tm19  1  0.821419  0.250000  0.285856  1
  Ga  Ga20  1  0.591618  0.250000  0.040515  1
  Ga  Ga21  1  0.091618  0.250000  0.459485  1
  Bi  Bi22  1  0.404948  0.750000  0.958837  1
  Bi  Bi23  1  0.904948  0.750000  0.541163  1
  Bi  Bi24  1  0.563633  0.998128  0.323982  1
  Bi  Bi25  1  0.063633  0.501872  0.176018  1
  Bi  Bi26  1  0.437500  0.495786  0.675231  1
  Bi  Bi27  1  0.937500  0.004214  0.824769  1
  Bi  Bi28  1  0.437500  0.004214  0.675231  1
  Bi  Bi29  1  0.937500  0.495786  0.824769  1
  Bi  Bi30  1  0.563633  0.501872  0.323982  1
  Bi  Bi31  1  0.063633  0.998128  0.176018  1
