# generated using pymatgen
data_Th4Hg2PdPt3
_symmetry_space_group_name_H-M   'P 1'
_cell_length_a   7.96964000
_cell_length_b   7.96963913
_cell_length_c   3.76972400
_cell_angle_alpha   90.00000000
_cell_angle_beta   90.00000000
_cell_angle_gamma   90.21117770
_symmetry_Int_Tables_number   1
_chemical_formula_structural   Th4Hg2PdPt3
_chemical_formula_sum   'Th4 Hg2 Pd1 Pt3'
_cell_volume   239.43297715
_cell_formula_units_Z   1
loop_
 _symmetry_equiv_pos_site_id
 _symmetry_equiv_pos_as_xyz
  1  'x, y, z'
loop_
 _atom_site_type_symbol
 _atom_site_label
 _atom_site_symmetry_multiplicity
 _atom_site_fract_x
 _atom_site_fract_y
 _atom_site_fract_z
 _atom_site_occupancy
  Th  Th0  1  0.328294  0.176524  0.500001  1
  Th  Th1  1  0.826003  0.326003  0.500001  1
  Th  Th2  1  0.170663  0.670663  0.500001  1
  Th  Th3  1  0.676524  0.828294  0.500001  1
  Hg  Hg4  1  0.003903  0.999353  0.000000  1
  Hg  Hg5  1  0.499353  0.503903  0.000000  1
  Pd  Pd6  1  0.369499  0.869499  0.000000  1
  Pt  Pt7  1  0.625422  0.125424  0.000000  1
  Pt  Pt8  1  0.128532  0.371810  0.000000  1
  Pt  Pt9  1  0.871810  0.628530  0.000000  1
