# generated using pymatgen
data_CeEr2AlIn2Ir3
_symmetry_space_group_name_H-M   'P 1'
_cell_length_a   7.42663410
_cell_length_b   7.52336976
_cell_length_c   3.89964700
_cell_angle_alpha   90.00000000
_cell_angle_beta   90.00000000
_cell_angle_gamma   120.43181476
_symmetry_Int_Tables_number   1
_chemical_formula_structural   CeEr2AlIn2Ir3
_chemical_formula_sum   'Ce1 Er2 Al1 In2 Ir3'
_cell_volume   187.86857621
_cell_formula_units_Z   1
loop_
 _symmetry_equiv_pos_site_id
 _symmetry_equiv_pos_as_xyz
  1  'x, y, z'
loop_
 _atom_site_type_symbol
 _atom_site_label
 _atom_site_symmetry_multiplicity
 _atom_site_fract_x
 _atom_site_fract_y
 _atom_site_fract_z
 _atom_site_occupancy
  Ce  Ce0  1  0.000000  0.566882  0.000000  1
  Er  Er1  1  0.400738  0.408297  0.000000  1
  Er  Er2  1  0.599262  0.007559  0.000000  1
  Al  Al3  1  0.000000  0.244024  0.500000  1
  In  In4  1  0.744171  0.747142  0.500000  1
  In  In5  1  0.255829  0.002972  0.500000  1
  Ir  Ir6  1  0.000000  0.031353  0.000000  1
  Ir  Ir7  1  0.312060  0.651917  0.500000  1
  Ir  Ir8  1  0.687940  0.339856  0.500000  1
