# generated using pymatgen
data_Ce8ZrSi16Mo11
_symmetry_space_group_name_H-M   'P 1'
_cell_length_a   7.00346600
_cell_length_b   7.00346500
_cell_length_c   13.00564649
_cell_angle_alpha   89.96039729
_cell_angle_beta   90.03960695
_cell_angle_gamma   90.17552458
_symmetry_Int_Tables_number   1
_chemical_formula_structural   Ce8ZrSi16Mo11
_chemical_formula_sum   'Ce8 Zr1 Si16 Mo11'
_cell_volume   637.90453200
_cell_formula_units_Z   1
loop_
 _symmetry_equiv_pos_site_id
 _symmetry_equiv_pos_as_xyz
  1  'x, y, z'
loop_
 _atom_site_type_symbol
 _atom_site_label
 _atom_site_symmetry_multiplicity
 _atom_site_fract_x
 _atom_site_fract_y
 _atom_site_fract_z
 _atom_site_occupancy
  Ce  Ce0  1  0.998225  0.667740  0.030492  1
  Ce  Ce1  1  0.998701  0.335501  0.530381  1
  Ce  Ce2  1  0.667740  0.998225  0.969508  1
  Ce  Ce3  1  0.162553  0.501842  0.777646  1
  Ce  Ce4  1  0.835310  0.501810  0.282066  1
  Ce  Ce5  1  0.501842  0.162553  0.222354  1
  Ce  Ce6  1  0.501810  0.835310  0.717934  1
  Ce  Ce7  1  0.335501  0.998701  0.469619  1
  Zr  Zr8  1  0.330961  0.330961  0.000000  1
  Si  Si9  1  0.033489  0.716783  0.435515  1
  Si  Si10  1  0.956816  0.288053  0.930893  1
  Si  Si11  1  0.716783  0.033489  0.564485  1
  Si  Si12  1  0.214987  0.470261  0.190361  1
  Si  Si13  1  0.781525  0.533990  0.684145  1
  Si  Si14  1  0.470261  0.214987  0.809639  1
  Si  Si15  1  0.533990  0.781525  0.315855  1
  Si  Si16  1  0.288053  0.956816  0.069107  1
  Si  Si17  1  0.879664  0.802482  0.813344  1
  Si  Si18  1  0.119895  0.198543  0.313759  1
  Si  Si19  1  0.802482  0.879664  0.186656  1
  Si  Si20  1  0.301130  0.620338  0.563326  1
  Si  Si21  1  0.707596  0.376689  0.065030  1
  Si  Si22  1  0.620338  0.301130  0.436674  1
  Si  Si23  1  0.376689  0.707596  0.934970  1
  Si  Si24  1  0.198543  0.119895  0.686241  1
  Mo  Mo25  1  0.330470  0.495416  0.378282  1
  Mo  Mo26  1  0.831020  0.004132  0.374542  1
  Mo  Mo27  1  0.999980  0.167468  0.124930  1
  Mo  Mo28  1  0.004132  0.831020  0.625458  1
  Mo  Mo29  1  0.664905  0.504393  0.875605  1
  Mo  Mo30  1  0.495416  0.330470  0.621718  1
  Mo  Mo31  1  0.504393  0.664905  0.124395  1
  Mo  Mo32  1  0.167468  0.999980  0.875070  1
  Mo  Mo33  1  0.667513  0.667513  0.500000  1
  Mo  Mo34  1  0.832170  0.167648  0.747584  1
  Mo  Mo35  1  0.167648  0.832170  0.252416  1
