# generated using pymatgen
data_Ho3Er(Tm2Ir)4
_symmetry_space_group_name_H-M   'P 1'
_cell_length_a   6.32510301
_cell_length_b   7.21526935
_cell_length_c   9.07583100
_cell_angle_alpha   90.00000000
_cell_angle_beta   90.00000000
_cell_angle_gamma   89.98542924
_symmetry_Int_Tables_number   1
_chemical_formula_structural   Ho3Er(Tm2Ir)4
_chemical_formula_sum   'Ho3 Er1 Tm8 Ir4'
_cell_volume   414.19660720
_cell_formula_units_Z   1
loop_
 _symmetry_equiv_pos_site_id
 _symmetry_equiv_pos_as_xyz
  1  'x, y, z'
loop_
 _atom_site_type_symbol
 _atom_site_label
 _atom_site_symmetry_multiplicity
 _atom_site_fract_x
 _atom_site_fract_y
 _atom_site_fract_z
 _atom_site_occupancy
  Ho  Ho0  1  0.871528  0.533080  0.250000  1
  Ho  Ho1  1  0.628730  0.033175  0.250000  1
  Ho  Ho2  1  0.128606  0.466851  0.750000  1
  Er  Er3  1  0.371166  0.966463  0.750000  1
  Tm  Tm4  1  0.328485  0.677787  0.061910  1
  Tm  Tm5  1  0.171957  0.177202  0.438237  1
  Tm  Tm6  1  0.671565  0.322321  0.562137  1
  Tm  Tm7  1  0.827722  0.822724  0.937867  1
  Tm  Tm8  1  0.671565  0.322321  0.937863  1
  Tm  Tm9  1  0.827722  0.822724  0.562133  1
  Tm  Tm10  1  0.328485  0.677787  0.438090  1
  Tm  Tm11  1  0.171957  0.177202  0.061763  1
  Ir  Ir12  1  0.045491  0.883513  0.250000  1
  Ir  Ir13  1  0.454415  0.383437  0.250000  1
  Ir  Ir14  1  0.955617  0.116241  0.750000  1
  Ir  Ir15  1  0.544985  0.617175  0.750000  1
