# generated using pymatgen
data_GaCoAg2F7
_symmetry_space_group_name_H-M   'P 1'
_cell_length_a   7.53949574
_cell_length_b   7.53949565
_cell_length_c   7.53949561
_cell_angle_alpha   121.11457811
_cell_angle_beta   117.09741956
_cell_angle_gamma   91.58982346
_symmetry_Int_Tables_number   1
_chemical_formula_structural   GaCoAg2F7
_chemical_formula_sum   'Ga2 Co2 Ag4 F14'
_cell_volume   306.55937727
_cell_formula_units_Z   2
loop_
 _symmetry_equiv_pos_site_id
 _symmetry_equiv_pos_as_xyz
  1  'x, y, z'
loop_
 _atom_site_type_symbol
 _atom_site_label
 _atom_site_symmetry_multiplicity
 _atom_site_fract_x
 _atom_site_fract_y
 _atom_site_fract_z
 _atom_site_occupancy
  Ga  Ga0  1  0.500000  0.000000  0.500000  1
  Ga  Ga1  1  0.000000  0.500000  0.500000  1
  Co  Co2  1  0.000000  0.000000  0.500000  1
  Co  Co3  1  0.000000  0.500000  0.000000  1
  Ag  Ag4  1  0.000000  0.000000  0.000000  1
  Ag  Ag5  1  0.500000  0.500000  0.000000  1
  Ag  Ag6  1  0.500000  0.000000  0.000000  1
  Ag  Ag7  1  0.500000  0.500000  0.500000  1
  F  F8  1  0.372858  0.089801  0.283057  1
  F  F9  1  0.693256  0.410199  0.283057  1
  F  F10  1  0.684447  0.300953  0.758440  1
  F  F11  1  0.957486  0.199047  0.383494  1
  F  F12  1  0.957486  0.573992  0.758440  1
  F  F13  1  0.684447  0.926008  0.383494  1
  F  F14  1  0.315553  0.073992  0.616506  1
  F  F15  1  0.042514  0.426008  0.241560  1
  F  F16  1  0.042514  0.800953  0.616506  1
  F  F17  1  0.315553  0.699047  0.241560  1
  F  F18  1  0.893379  0.750000  0.143379  1
  F  F19  1  0.627142  0.910199  0.716943  1
  F  F20  1  0.306744  0.589801  0.716943  1
  F  F21  1  0.106621  0.250000  0.856621  1
