# generated using pymatgen
data_Tb5Er5Tl7InPd4
_symmetry_space_group_name_H-M   'P 1'
_cell_length_a   3.62528800
_cell_length_b   8.25503514
_cell_length_c   18.34411106
_cell_angle_alpha   89.93055917
_cell_angle_beta   90.00000000
_cell_angle_gamma   90.00000000
_symmetry_Int_Tables_number   1
_chemical_formula_structural   Tb5Er5Tl7InPd4
_chemical_formula_sum   'Tb5 Er5 Tl7 In1 Pd4'
_cell_volume   548.98160392
_cell_formula_units_Z   1
loop_
 _symmetry_equiv_pos_site_id
 _symmetry_equiv_pos_as_xyz
  1  'x, y, z'
loop_
 _atom_site_type_symbol
 _atom_site_label
 _atom_site_symmetry_multiplicity
 _atom_site_fract_x
 _atom_site_fract_y
 _atom_site_fract_z
 _atom_site_occupancy
  Tb  Tb0  1  0.000000  0.500984  0.499837  1
  Tb  Tb1  1  0.000000  0.999882  0.998692  1
  Tb  Tb2  1  0.000000  0.739846  0.283276  1
  Tb  Tb3  1  0.000000  0.261405  0.716483  1
  Tb  Tb4  1  0.000000  0.760481  0.783815  1
  Er  Er5  1  0.000000  0.239690  0.217022  1
  Er  Er6  1  0.000000  0.615836  0.086621  1
  Er  Er7  1  0.000000  0.381392  0.914552  1
  Er  Er8  1  0.000000  0.883761  0.586721  1
  Er  Er9  1  0.000000  0.117556  0.413139  1
  Tl  Tl10  1  0.500000  0.703493  0.935678  1
  Tl  Tl11  1  0.500000  0.295341  0.064792  1
  Tl  Tl12  1  0.500000  0.798711  0.436140  1
  Tl  Tl13  1  0.500000  0.202649  0.563374  1
  Tl  Tl14  1  0.500000  0.586437  0.650670  1
  Tl  Tl15  1  0.500000  0.414132  0.349579  1
  Tl  Tl16  1  0.500000  0.915010  0.149904  1
  In  In17  1  0.500000  0.087243  0.848239  1
  Pd  Pd18  1  0.500000  0.522507  0.196404  1
  Pd  Pd19  1  0.500000  0.470116  0.804658  1
  Pd  Pd20  1  0.500000  0.974867  0.697348  1
  Pd  Pd21  1  0.500000  0.028660  0.303054  1
