# generated using pymatgen
data_Tb(ThH5)3
_symmetry_space_group_name_H-M   'P 1'
_cell_length_a   7.84253266
_cell_length_b   7.84126892
_cell_length_c   7.80987061
_cell_angle_alpha   109.45355381
_cell_angle_beta   109.46012898
_cell_angle_gamma   109.66545642
_symmetry_Int_Tables_number   1
_chemical_formula_structural   Tb(ThH5)3
_chemical_formula_sum   'Tb2 Th6 H30'
_cell_volume   368.95473686
_cell_formula_units_Z   2
loop_
 _symmetry_equiv_pos_site_id
 _symmetry_equiv_pos_as_xyz
  1  'x, y, z'
loop_
 _atom_site_type_symbol
 _atom_site_label
 _atom_site_symmetry_multiplicity
 _atom_site_fract_x
 _atom_site_fract_y
 _atom_site_fract_z
 _atom_site_occupancy
  Tb  Tb0  1  0.913672  0.914852  0.915397  1
  Tb  Tb1  1  0.498275  0.999455  0.084603  1
  Th  Th2  1  0.994557  0.080735  0.495550  1
  Th  Th3  1  0.085589  0.504055  0.000798  1
  Th  Th4  1  0.999007  0.585185  0.504450  1
  Th  Th5  1  0.584790  0.503257  0.999202  1
  Th  Th6  1  0.503634  0.998711  0.587618  1
  Th  Th7  1  0.416016  0.411093  0.412382  1
  H  H8  1  0.652299  0.966986  0.372154  1
  H  H9  1  0.218236  0.315715  0.845607  1
  H  H10  1  0.185858  0.403788  0.532980  1
  H  H11  1  0.096207  0.281575  0.126705  1
  H  H12  1  0.282188  0.124246  0.094446  1
  H  H13  1  0.125904  0.094614  0.278919  1
  H  H14  1  0.469502  0.154870  0.873295  1
  H  H15  1  0.719761  0.349102  0.814993  1
  H  H16  1  0.627780  0.380073  0.251621  1
  H  H17  1  0.249839  0.624842  0.375131  1
  H  H18  1  0.750899  0.872800  0.127644  1
  H  H19  1  0.123255  0.745156  0.872356  1
  H  H20  1  0.374708  0.249711  0.624869  1
  H  H21  1  0.876159  0.128452  0.748379  1
  H  H22  1  0.780144  0.594831  0.627846  1
  H  H23  1  0.316962  0.847097  0.221080  1
  H  H24  1  0.374184  0.657159  0.968678  1
  H  H25  1  0.966663  0.370640  0.652141  1
  H  H26  1  0.533975  0.184964  0.405802  1
  H  H27  1  0.404768  0.534109  0.185007  1
  H  H28  1  0.842142  0.218394  0.313429  1
  H  H29  1  0.905506  0.688481  0.031322  1
  H  H30  1  0.814521  0.718498  0.347859  1
  H  H31  1  0.152878  0.870808  0.467020  1
  H  H32  1  0.687742  0.029800  0.905554  1
  H  H33  1  0.346986  0.815695  0.721081  1
  H  H34  1  0.872629  0.470108  0.154393  1
  H  H35  1  0.628172  0.779162  0.594198  1
  H  H36  1  0.595881  0.626016  0.778920  1
  H  H37  1  0.028713  0.904965  0.686571  1
