# generated using pymatgen
data_Sr8GaTc3O16
_symmetry_space_group_name_H-M   'P 1'
_cell_length_a   5.57233643
_cell_length_b   8.92348811
_cell_length_c   8.92353192
_cell_angle_alpha   88.44390513
_cell_angle_beta   71.84642101
_cell_angle_gamma   108.15619215
_symmetry_Int_Tables_number   1
_chemical_formula_structural   Sr8GaTc3O16
_chemical_formula_sum   'Sr8 Ga1 Tc3 O16'
_cell_volume   396.82961352
_cell_formula_units_Z   1
loop_
 _symmetry_equiv_pos_site_id
 _symmetry_equiv_pos_as_xyz
  1  'x, y, z'
loop_
 _atom_site_type_symbol
 _atom_site_label
 _atom_site_symmetry_multiplicity
 _atom_site_fract_x
 _atom_site_fract_y
 _atom_site_fract_z
 _atom_site_occupancy
  Sr  Sr0  1  0.254173  0.400930  0.891193  1
  Sr  Sr1  1  0.999985  0.644303  0.644180  1
  Sr  Sr2  1  0.745684  0.890922  0.401032  1
  Sr  Sr3  1  0.500063  0.150744  0.150628  1
  Sr  Sr4  1  0.000115  0.355794  0.355721  1
  Sr  Sr5  1  0.745793  0.599111  0.108924  1
  Sr  Sr6  1  0.499913  0.849200  0.849433  1
  Sr  Sr7  1  0.254230  0.108924  0.598959  1
  Ga  Ga8  1  0.500015  0.500016  0.499969  1
  Tc  Tc9  1  0.252202  0.751917  0.248140  1
  Tc  Tc10  1  0.000057  0.000053  0.999960  1
  Tc  Tc11  1  0.747791  0.248089  0.751852  1
  O  O12  1  0.251226  0.589395  0.086728  1
  O  O13  1  0.999750  0.836960  0.837413  1
  O  O14  1  0.749288  0.087110  0.588982  1
  O  O15  1  0.499652  0.341309  0.341632  1
  O  O16  1  0.000303  0.163111  0.162534  1
  O  O17  1  0.748770  0.410626  0.913238  1
  O  O18  1  0.500313  0.658671  0.658372  1
  O  O19  1  0.250717  0.912876  0.411045  1
  O  O20  1  0.876932  0.125353  0.874415  1
  O  O21  1  0.619208  0.371271  0.628846  1
  O  O22  1  0.380735  0.628673  0.371165  1
  O  O23  1  0.123105  0.874675  0.125595  1
  O  O24  1  0.375754  0.123238  0.876461  1
  O  O25  1  0.118842  0.374794  0.625533  1
  O  O26  1  0.881138  0.625158  0.374507  1
  O  O27  1  0.624245  0.876776  0.123542  1
