# generated using pymatgen
data_Co2Mo3AsN
_symmetry_space_group_name_H-M   'P 1'
_cell_length_a   7.87057621
_cell_length_b   7.86889137
_cell_length_c   7.87075319
_cell_angle_alpha   60.01004974
_cell_angle_beta   60.02153581
_cell_angle_gamma   60.00987039
_symmetry_Int_Tables_number   1
_chemical_formula_structural   Co2Mo3AsN
_chemical_formula_sum   'Co8 Mo12 As4 N4'
_cell_volume   344.79217065
_cell_formula_units_Z   4
loop_
 _symmetry_equiv_pos_site_id
 _symmetry_equiv_pos_as_xyz
  1  'x, y, z'
loop_
 _atom_site_type_symbol
 _atom_site_label
 _atom_site_symmetry_multiplicity
 _atom_site_fract_x
 _atom_site_fract_y
 _atom_site_fract_z
 _atom_site_occupancy
  Co  Co0  1  0.252475  0.915793  0.915895  1
  Co  Co1  1  0.916017  0.252158  0.915947  1
  Co  Co2  1  0.916004  0.915843  0.915957  1
  Co  Co3  1  0.915948  0.915809  0.252414  1
  Co  Co4  1  0.997500  0.334248  0.334144  1
  Co  Co5  1  0.334304  0.334298  0.997259  1
  Co  Co6  1  0.334277  0.997462  0.334140  1
  Co  Co7  1  0.334306  0.334319  0.334196  1
  Mo  Mo8  1  0.692490  0.307518  0.692460  1
  Mo  Mo9  1  0.557713  0.557632  0.942322  1
  Mo  Mo10  1  0.557579  0.942429  0.557571  1
  Mo  Mo11  1  0.942186  0.942193  0.557861  1
  Mo  Mo12  1  0.942233  0.557729  0.557803  1
  Mo  Mo13  1  0.942118  0.557895  0.942116  1
  Mo  Mo14  1  0.692536  0.307478  0.307493  1
  Mo  Mo15  1  0.307399  0.692615  0.307402  1
  Mo  Mo16  1  0.307372  0.307357  0.692645  1
  Mo  Mo17  1  0.307448  0.692557  0.692541  1
  Mo  Mo18  1  0.692428  0.692408  0.307578  1
  Mo  Mo19  1  0.557772  0.942288  0.942270  1
  As  As20  1  0.624963  0.125039  0.124989  1
  As  As21  1  0.125006  0.125058  0.624889  1
  As  As22  1  0.125040  0.624841  0.125041  1
  As  As23  1  0.125069  0.125072  0.125032  1
  N  N24  1  0.624870  0.625015  0.625003  1
  N  N25  1  0.125330  0.624856  0.624852  1
  N  N26  1  0.624824  0.125152  0.624957  1
  N  N27  1  0.624795  0.624941  0.125224  1
