# generated using pymatgen
data_Ti3GeMo2P2Ru
_symmetry_space_group_name_H-M   'P 1'
_cell_length_a   6.80228885
_cell_length_b   6.79983657
_cell_length_c   3.31200300
_cell_angle_alpha   90.00000000
_cell_angle_beta   90.00000000
_cell_angle_gamma   120.58905603
_symmetry_Int_Tables_number   1
_chemical_formula_structural   Ti3GeMo2P2Ru
_chemical_formula_sum   'Ti3 Ge1 Mo2 P2 Ru1'
_cell_volume   131.87616904
_cell_formula_units_Z   1
loop_
 _symmetry_equiv_pos_site_id
 _symmetry_equiv_pos_as_xyz
  1  'x, y, z'
loop_
 _atom_site_type_symbol
 _atom_site_label
 _atom_site_symmetry_multiplicity
 _atom_site_fract_x
 _atom_site_fract_y
 _atom_site_fract_z
 _atom_site_occupancy
  Ti  Ti0  1  0.385557  0.398016  0.500000  1
  Ti  Ti1  1  0.593306  0.997800  0.500000  1
  Ti  Ti2  1  0.025811  0.604556  0.500000  1
  Ge  Ge3  1  0.669628  0.342880  0.000000  1
  Mo  Mo4  1  0.007022  0.255967  0.000000  1
  Mo  Mo5  1  0.248231  0.990345  0.000000  1
  P  P6  1  0.990495  0.989860  0.500000  1
  P  P7  1  0.340820  0.669708  0.000000  1
  Ru  Ru8  1  0.739131  0.750870  0.000000  1
