# generated using pymatgen
data_Nd4B4BrCl4
_symmetry_space_group_name_H-M   'P 1'
_cell_length_a   10.67316623
_cell_length_b   10.67316586
_cell_length_c   9.58506929
_cell_angle_alpha   52.20695041
_cell_angle_beta   52.20695097
_cell_angle_gamma   23.24396031
_symmetry_Int_Tables_number   1
_chemical_formula_structural   Nd4B4BrCl4
_chemical_formula_sum   'Nd4 B4 Br1 Cl4'
_cell_volume   336.16182849
_cell_formula_units_Z   1
loop_
 _symmetry_equiv_pos_site_id
 _symmetry_equiv_pos_as_xyz
  1  'x, y, z'
loop_
 _atom_site_type_symbol
 _atom_site_label
 _atom_site_symmetry_multiplicity
 _atom_site_fract_x
 _atom_site_fract_y
 _atom_site_fract_z
 _atom_site_occupancy
  Nd  Nd0  1  0.148286  0.148286  0.778666  1
  Nd  Nd1  1  0.516857  0.516857  0.230881  1
  Nd  Nd2  1  0.483143  0.483143  0.769119  1
  Nd  Nd3  1  0.851714  0.851714  0.221334  1
  B  B4  1  0.005005  0.005005  0.092912  1
  B  B5  1  0.686813  0.313187  0.000000  1
  B  B6  1  0.994995  0.994995  0.907088  1
  B  B7  1  0.313187  0.686813  0.000000  1
  Br  Br8  1  0.000000  0.000000  0.500000  1
  Cl  Cl9  1  0.311215  0.311215  0.078526  1
  Cl  Cl10  1  0.332240  0.332240  0.462592  1
  Cl  Cl11  1  0.667760  0.667760  0.537408  1
  Cl  Cl12  1  0.688785  0.688785  0.921474  1
