# generated using pymatgen
data_Sc8Nb11Si16Ir
_symmetry_space_group_name_H-M   'P 1'
_cell_length_a   6.65792237
_cell_length_b   6.93507720
_cell_length_c   13.07906200
_cell_angle_alpha   90.00000000
_cell_angle_beta   90.00000000
_cell_angle_gamma   90.58755575
_symmetry_Int_Tables_number   1
_chemical_formula_structural   Sc8Nb11Si16Ir
_chemical_formula_sum   'Sc8 Nb11 Si16 Ir1'
_cell_volume   603.87046571
_cell_formula_units_Z   1
loop_
 _symmetry_equiv_pos_site_id
 _symmetry_equiv_pos_as_xyz
  1  'x, y, z'
loop_
 _atom_site_type_symbol
 _atom_site_label
 _atom_site_symmetry_multiplicity
 _atom_site_fract_x
 _atom_site_fract_y
 _atom_site_fract_z
 _atom_site_occupancy
  Sc  Sc0  1  0.495810  0.676243  0.592810  1
  Sc  Sc1  1  0.002018  0.827336  0.906917  1
  Sc  Sc2  1  0.498061  0.326246  0.095029  1
  Sc  Sc3  1  0.999547  0.173758  0.403845  1
  Sc  Sc4  1  0.498061  0.326246  0.404971  1
  Sc  Sc5  1  0.999547  0.173758  0.096155  1
  Sc  Sc6  1  0.495810  0.676243  0.907190  1
  Sc  Sc7  1  0.002018  0.827336  0.593083  1
  Nb  Nb8  1  0.671025  0.169930  0.627910  1
  Nb  Nb9  1  0.162832  0.324028  0.872671  1
  Nb  Nb10  1  0.335888  0.826302  0.124616  1
  Nb  Nb11  1  0.835403  0.673258  0.377511  1
  Nb  Nb12  1  0.335888  0.826302  0.375384  1
  Nb  Nb13  1  0.835403  0.673258  0.122489  1
  Nb  Nb14  1  0.671025  0.169930  0.872090  1
  Nb  Nb15  1  0.162832  0.324028  0.627329  1
  Nb  Nb16  1  0.341083  0.998223  0.750000  1
  Nb  Nb17  1  0.162282  0.505967  0.250000  1
  Nb  Nb18  1  0.661567  0.994403  0.250000  1
  Si  Si19  1  0.669523  0.967307  0.460373  1
  Si  Si20  1  0.168474  0.533084  0.037871  1
  Si  Si21  1  0.333688  0.034978  0.959394  1
  Si  Si22  1  0.831187  0.465844  0.543283  1
  Si  Si23  1  0.333688  0.034978  0.540606  1
  Si  Si24  1  0.831187  0.465844  0.956717  1
  Si  Si25  1  0.669523  0.967307  0.039627  1
  Si  Si26  1  0.168474  0.533084  0.462129  1
  Si  Si27  1  0.471417  0.389080  0.750000  1
  Si  Si28  1  0.965909  0.101780  0.750000  1
  Si  Si29  1  0.538799  0.612917  0.250000  1
  Si  Si30  1  0.037426  0.886197  0.250000  1
  Si  Si31  1  0.705744  0.855811  0.750000  1
  Si  Si32  1  0.194986  0.633521  0.750000  1
  Si  Si33  1  0.294672  0.137977  0.250000  1
  Si  Si34  1  0.792785  0.363309  0.250000  1
  Ir  Ir35  1  0.826421  0.524188  0.750000  1
