# generated using pymatgen
data_LiUCl6
_symmetry_space_group_name_H-M   'P 1'
_cell_length_a   10.10499062
_cell_length_b   10.10499007
_cell_length_c   10.10499171
_cell_angle_alpha   82.16405721
_cell_angle_beta   82.16406022
_cell_angle_gamma   82.16405576
_symmetry_Int_Tables_number   1
_chemical_formula_structural   LiUCl6
_chemical_formula_sum   'Li4 U4 Cl24'
_cell_volume   1005.33466847
_cell_formula_units_Z   4
loop_
 _symmetry_equiv_pos_site_id
 _symmetry_equiv_pos_as_xyz
  1  'x, y, z'
loop_
 _atom_site_type_symbol
 _atom_site_label
 _atom_site_symmetry_multiplicity
 _atom_site_fract_x
 _atom_site_fract_y
 _atom_site_fract_z
 _atom_site_occupancy
  Li  Li0  1  0.339057  0.339057  0.339057  1
  Li  Li1  1  0.166202  0.670857  0.166653  1
  Li  Li2  1  0.166653  0.166202  0.670857  1
  Li  Li3  1  0.670857  0.166653  0.166202  1
  U  U4  1  0.501265  0.996445  0.501048  1
  U  U5  1  0.998918  0.998918  0.998918  1
  U  U6  1  0.501048  0.501265  0.996445  1
  U  U7  1  0.996445  0.501048  0.501265  1
  Cl  Cl8  1  0.938282  0.263516  0.578046  1
  Cl  Cl9  1  0.422542  0.772690  0.569066  1
  Cl  Cl10  1  0.081414  0.225509  0.911815  1
  Cl  Cl11  1  0.569066  0.422542  0.772690  1
  Cl  Cl12  1  0.911815  0.081414  0.225509  1
  Cl  Cl13  1  0.411642  0.077898  0.727284  1
  Cl  Cl14  1  0.578046  0.938282  0.263516  1
  Cl  Cl15  1  0.096625  0.430094  0.265711  1
  Cl  Cl16  1  0.235273  0.409127  0.572265  1
  Cl  Cl17  1  0.225509  0.911815  0.081414  1
  Cl  Cl18  1  0.572265  0.235273  0.409127  1
  Cl  Cl19  1  0.937589  0.762734  0.076519  1
  Cl  Cl20  1  0.772690  0.569066  0.422542  1
  Cl  Cl21  1  0.726214  0.923048  0.574612  1
  Cl  Cl22  1  0.430094  0.265711  0.096625  1
  Cl  Cl23  1  0.265711  0.096625  0.430094  1
  Cl  Cl24  1  0.409127  0.572265  0.235273  1
  Cl  Cl25  1  0.762734  0.076519  0.937589  1
  Cl  Cl26  1  0.077898  0.727284  0.411642  1
  Cl  Cl27  1  0.574612  0.726214  0.923048  1
  Cl  Cl28  1  0.923047  0.574612  0.726214  1
  Cl  Cl29  1  0.727284  0.411642  0.077898  1
  Cl  Cl30  1  0.263516  0.578046  0.938282  1
  Cl  Cl31  1  0.076519  0.937589  0.762734  1
