# generated using pymatgen
data_Tm4Re6TcW
_symmetry_space_group_name_H-M   'P 1'
_cell_length_a   5.41080800
_cell_length_b   5.41080871
_cell_length_c   8.82802300
_cell_angle_alpha   90.00000000
_cell_angle_beta   90.00000000
_cell_angle_gamma   119.99999567
_symmetry_Int_Tables_number   1
_chemical_formula_structural   Tm4Re6TcW
_chemical_formula_sum   'Tm4 Re6 Tc1 W1'
_cell_volume   223.83005959
_cell_formula_units_Z   1
loop_
 _symmetry_equiv_pos_site_id
 _symmetry_equiv_pos_as_xyz
  1  'x, y, z'
loop_
 _atom_site_type_symbol
 _atom_site_label
 _atom_site_symmetry_multiplicity
 _atom_site_fract_x
 _atom_site_fract_y
 _atom_site_fract_z
 _atom_site_occupancy
  Tm  Tm0  1  0.333333  0.666667  0.435615  1
  Tm  Tm1  1  0.666667  0.333333  0.564385  1
  Tm  Tm2  1  0.666667  0.333333  0.938026  1
  Tm  Tm3  1  0.333333  0.666667  0.061974  1
  Re  Re4  1  0.828245  0.171755  0.250232  1
  Re  Re5  1  0.828245  0.656489  0.250232  1
  Re  Re6  1  0.343511  0.171755  0.250232  1
  Re  Re7  1  0.171755  0.828245  0.749768  1
  Re  Re8  1  0.171755  0.343511  0.749768  1
  Re  Re9  1  0.656489  0.828245  0.749768  1
  Tc  Tc10  1  0.000000  0.000000  0.000000  1
  W  W11  1  0.000000  0.000000  0.500000  1
