# generated using pymatgen
data_Ho3Lu5Hg4
_symmetry_space_group_name_H-M   'P 1'
_cell_length_a   5.03488800
_cell_length_b   6.99675410
_cell_length_c   9.07109619
_cell_angle_alpha   90.07400732
_cell_angle_beta   90.00000000
_cell_angle_gamma   90.00000000
_symmetry_Int_Tables_number   1
_chemical_formula_structural   Ho3Lu5Hg4
_chemical_formula_sum   'Ho3 Lu5 Hg4'
_cell_volume   319.55516020
_cell_formula_units_Z   1
loop_
 _symmetry_equiv_pos_site_id
 _symmetry_equiv_pos_as_xyz
  1  'x, y, z'
loop_
 _atom_site_type_symbol
 _atom_site_label
 _atom_site_symmetry_multiplicity
 _atom_site_fract_x
 _atom_site_fract_y
 _atom_site_fract_z
 _atom_site_occupancy
  Ho  Ho0  1  0.250000  0.484190  0.193288  1
  Ho  Ho1  1  0.750000  0.015563  0.693293  1
  Ho  Ho2  1  0.750000  0.515101  0.806884  1
  Lu  Lu3  1  0.250000  0.833519  0.926435  1
  Lu  Lu4  1  0.250000  0.332916  0.572377  1
  Lu  Lu5  1  0.750000  0.166022  0.076134  1
  Lu  Lu6  1  0.750000  0.668669  0.425310  1
  Lu  Lu7  1  0.250000  0.984016  0.307366  1
  Hg  Hg8  1  0.250000  0.259931  0.897298  1
  Hg  Hg9  1  0.250000  0.760762  0.600659  1
  Hg  Hg10  1  0.750000  0.740239  0.102592  1
  Hg  Hg11  1  0.750000  0.239070  0.398365  1
