# generated using pymatgen
data_Pr2CuPt3O8
_symmetry_space_group_name_H-M   'P 1'
_cell_length_a   6.38701483
_cell_length_b   6.69446291
_cell_length_c   6.64764143
_cell_angle_alpha   124.70130968
_cell_angle_beta   127.59630501
_cell_angle_gamma   78.10824956
_symmetry_Int_Tables_number   1
_chemical_formula_structural   Pr2CuPt3O8
_chemical_formula_sum   'Pr2 Cu1 Pt3 O8'
_cell_volume   180.74564670
_cell_formula_units_Z   1
loop_
 _symmetry_equiv_pos_site_id
 _symmetry_equiv_pos_as_xyz
  1  'x, y, z'
loop_
 _atom_site_type_symbol
 _atom_site_label
 _atom_site_symmetry_multiplicity
 _atom_site_fract_x
 _atom_site_fract_y
 _atom_site_fract_z
 _atom_site_occupancy
  Pr  Pr0  1  0.987461  0.994340  0.987514  1
  Pr  Pr1  1  0.762539  0.255660  0.512486  1
  Cu  Cu2  1  0.375000  0.625000  0.250000  1
  Pt  Pt3  1  0.375000  0.125000  0.750000  1
  Pt  Pt4  1  0.375000  0.625000  0.750000  1
  Pt  Pt5  1  0.875000  0.625000  0.250000  1
  O  O6  1  0.747403  0.312162  0.162201  1
  O  O7  1  0.165998  0.615096  0.883650  1
  O  O8  1  0.002597  0.937838  0.337799  1
  O  O9  1  0.584002  0.634904  0.616350  1
  O  O10  1  0.057909  0.408860  0.057261  1
  O  O11  1  0.361354  0.992966  0.953098  1
  O  O12  1  0.388646  0.257034  0.546902  1
  O  O13  1  0.692091  0.841140  0.442739  1
