# generated using pymatgen
data_SrYb11(SiIr)8
_symmetry_space_group_name_H-M   'P 1'
_cell_length_a   5.70095691
_cell_length_b   7.59640347
_cell_length_c   13.32157100
_cell_angle_alpha   89.84390802
_cell_angle_beta   90.37160890
_cell_angle_gamma   90.45290819
_symmetry_Int_Tables_number   1
_chemical_formula_structural   SrYb11(SiIr)8
_chemical_formula_sum   'Sr1 Yb11 Si8 Ir8'
_cell_volume   576.88197671
_cell_formula_units_Z   1
loop_
 _symmetry_equiv_pos_site_id
 _symmetry_equiv_pos_as_xyz
  1  'x, y, z'
loop_
 _atom_site_type_symbol
 _atom_site_label
 _atom_site_symmetry_multiplicity
 _atom_site_fract_x
 _atom_site_fract_y
 _atom_site_fract_z
 _atom_site_occupancy
  Sr  Sr0  1  0.867653  0.893234  0.099464  1
  Yb  Yb1  1  0.634602  0.230173  0.251907  1
  Yb  Yb2  1  0.364906  0.770976  0.749023  1
  Yb  Yb3  1  0.365211  0.727860  0.251689  1
  Yb  Yb4  1  0.634763  0.270665  0.748998  1
  Yb  Yb5  1  0.138008  0.392122  0.098045  1
  Yb  Yb6  1  0.858998  0.605060  0.900340  1
  Yb  Yb7  1  0.861688  0.607895  0.598096  1
  Yb  Yb8  1  0.860265  0.893880  0.402377  1
  Yb  Yb9  1  0.138588  0.393292  0.403454  1
  Yb  Yb10  1  0.139611  0.107336  0.598465  1
  Yb  Yb11  1  0.141678  0.107720  0.899287  1
  Si  Si12  1  0.161528  0.084948  0.252424  1
  Si  Si13  1  0.845041  0.919325  0.749553  1
  Si  Si14  1  0.843428  0.576683  0.251267  1
  Si  Si15  1  0.155084  0.418435  0.749200  1
  Si  Si16  1  0.591082  0.250873  0.997126  1
  Si  Si17  1  0.405030  0.749482  0.999360  1
  Si  Si18  1  0.407906  0.749366  0.500279  1
  Si  Si19  1  0.592079  0.250508  0.501193  1
  Ir  Ir20  1  0.364316  0.030655  0.092765  1
  Ir  Ir21  1  0.632845  0.974080  0.904138  1
  Ir  Ir22  1  0.641110  0.972745  0.592280  1
  Ir  Ir23  1  0.639575  0.526925  0.408443  1
  Ir  Ir24  1  0.360762  0.026902  0.408964  1
  Ir  Ir25  1  0.360477  0.472958  0.592532  1
  Ir  Ir26  1  0.359450  0.473620  0.906632  1
  Ir  Ir27  1  0.634314  0.522283  0.092697  1
