# generated using pymatgen
data_LaPr3Al6ZnSi4Pt5
_symmetry_space_group_name_H-M   'P 1'
_cell_length_a   8.49088011
_cell_length_b   8.48580580
_cell_length_c   8.48580500
_cell_angle_alpha   137.99224421
_cell_angle_beta   103.52173188
_cell_angle_gamma   91.31666254
_symmetry_Int_Tables_number   1
_chemical_formula_structural   LaPr3Al6ZnSi4Pt5
_chemical_formula_sum   'La1 Pr3 Al6 Zn1 Si4 Pt5'
_cell_volume   379.22221521
_cell_formula_units_Z   1
loop_
 _symmetry_equiv_pos_site_id
 _symmetry_equiv_pos_as_xyz
  1  'x, y, z'
loop_
 _atom_site_type_symbol
 _atom_site_label
 _atom_site_symmetry_multiplicity
 _atom_site_fract_x
 _atom_site_fract_y
 _atom_site_fract_z
 _atom_site_occupancy
  La  La0  1  0.871112  0.629032  0.243443  1
  Pr  Pr1  1  0.129697  0.373066  0.757972  1
  Pr  Pr2  1  0.385129  0.126783  0.256679  1
  Pr  Pr3  1  0.614746  0.871668  0.741926  1
  Al  Al4  1  0.498629  0.749207  0.249672  1
  Al  Al5  1  0.498775  0.249159  0.749458  1
  Al  Al6  1  0.243419  0.993639  0.751335  1
  Al  Al7  1  0.757456  0.507604  0.749504  1
  Al  Al8  1  0.761910  0.012374  0.249806  1
  Al  Al9  1  0.239139  0.487666  0.249518  1
  Zn  Zn10  1  0.000103  0.749805  0.749743  1
  Si  Si11  1  0.030606  0.889658  0.148883  1
  Si  Si12  1  0.969908  0.118511  0.858443  1
  Si  Si13  1  0.739349  0.380719  0.351167  1
  Si  Si14  1  0.260866  0.611190  0.641563  1
  Pt  Pt15  1  0.000346  0.251037  0.251000  1
  Pt  Pt16  1  0.241369  0.867147  0.372319  1
  Pt  Pt17  1  0.756824  0.129984  0.624627  1
  Pt  Pt18  1  0.495186  0.369444  0.127714  1
  Pt  Pt19  1  0.505429  0.632308  0.875229  1
