# generated using pymatgen
data_Nd3Al3NiPd2
_symmetry_space_group_name_H-M   'P 1'
_cell_length_a   7.18650300
_cell_length_b   7.18650311
_cell_length_c   4.14034800
_cell_angle_alpha   90.00000000
_cell_angle_beta   90.00000000
_cell_angle_gamma   120.00000410
_symmetry_Int_Tables_number   1
_chemical_formula_structural   Nd3Al3NiPd2
_chemical_formula_sum   'Nd3 Al3 Ni1 Pd2'
_cell_volume   185.18367065
_cell_formula_units_Z   1
loop_
 _symmetry_equiv_pos_site_id
 _symmetry_equiv_pos_as_xyz
  1  'x, y, z'
loop_
 _atom_site_type_symbol
 _atom_site_label
 _atom_site_symmetry_multiplicity
 _atom_site_fract_x
 _atom_site_fract_y
 _atom_site_fract_z
 _atom_site_occupancy
  Nd  Nd0  1  0.000000  0.409872  0.500000  1
  Nd  Nd1  1  0.590128  0.590128  0.500000  1
  Nd  Nd2  1  0.409872  0.000000  0.500000  1
  Al  Al3  1  0.000000  0.775636  0.000000  1
  Al  Al4  1  0.224364  0.224364  0.000000  1
  Al  Al5  1  0.775636  0.000000  0.000000  1
  Ni  Ni6  1  0.000000  0.000000  0.500000  1
  Pd  Pd7  1  0.333333  0.666667  0.000000  1
  Pd  Pd8  1  0.666667  0.333333  0.000000  1
