# generated using pymatgen
data_K(CeSe2)3
_symmetry_space_group_name_H-M   'P 1'
_cell_length_a   7.00646007
_cell_length_b   7.00646148
_cell_length_c   9.18080300
_cell_angle_alpha   97.32613312
_cell_angle_beta   97.32613460
_cell_angle_gamma   120.00869061
_symmetry_Int_Tables_number   1
_chemical_formula_structural   K(CeSe2)3
_chemical_formula_sum   'K1 Ce3 Se6'
_cell_volume   377.36589627
_cell_formula_units_Z   1
loop_
 _symmetry_equiv_pos_site_id
 _symmetry_equiv_pos_as_xyz
  1  'x, y, z'
loop_
 _atom_site_type_symbol
 _atom_site_label
 _atom_site_symmetry_multiplicity
 _atom_site_fract_x
 _atom_site_fract_y
 _atom_site_fract_z
 _atom_site_occupancy
  K  K0  1  0.000000  0.000000  0.500000  1
  Ce  Ce1  1  0.833391  0.166610  0.000000  1
  Ce  Ce2  1  0.500001  0.500001  0.000000  1
  Ce  Ce3  1  0.166610  0.833391  0.000000  1
  Se  Se4  1  0.230496  0.230496  0.188602  1
  Se  Se5  1  0.895636  0.563702  0.188389  1
  Se  Se6  1  0.563702  0.895636  0.188389  1
  Se  Se7  1  0.436297  0.104364  0.811610  1
  Se  Se8  1  0.104364  0.436297  0.811610  1
  Se  Se9  1  0.769505  0.769505  0.811397  1
