# generated using pymatgen
data_Y2ReB8Rh
_symmetry_space_group_name_H-M   'P 1'
_cell_length_a   3.59864200
_cell_length_b   5.97512239
_cell_length_c   11.57681250
_cell_angle_alpha   90.29181212
_cell_angle_beta   90.00000000
_cell_angle_gamma   90.00000000
_symmetry_Int_Tables_number   1
_chemical_formula_structural   Y2ReB8Rh
_chemical_formula_sum   'Y4 Re2 B16 Rh2'
_cell_volume   248.92517250
_cell_formula_units_Z   2
loop_
 _symmetry_equiv_pos_site_id
 _symmetry_equiv_pos_as_xyz
  1  'x, y, z'
loop_
 _atom_site_type_symbol
 _atom_site_label
 _atom_site_symmetry_multiplicity
 _atom_site_fract_x
 _atom_site_fract_y
 _atom_site_fract_z
 _atom_site_occupancy
  Y  Y0  1  0.000000  0.128058  0.150854  1
  Y  Y1  1  0.000000  0.871942  0.849146  1
  Y  Y2  1  0.000000  0.628249  0.352359  1
  Y  Y3  1  0.000000  0.371751  0.647641  1
  Re  Re4  1  0.000000  0.632568  0.088181  1
  Re  Re5  1  0.000000  0.367432  0.911819  1
  B  B6  1  0.500000  0.475601  0.192200  1
  B  B7  1  0.500000  0.524399  0.807800  1
  B  B8  1  0.500000  0.976656  0.307083  1
  B  B9  1  0.500000  0.023344  0.692917  1
  B  B10  1  0.500000  0.288751  0.314021  1
  B  B11  1  0.500000  0.711249  0.685979  1
  B  B12  1  0.500000  0.788079  0.185781  1
  B  B13  1  0.500000  0.211921  0.814219  1
  B  B14  1  0.500000  0.363232  0.469228  1
  B  B15  1  0.500000  0.636768  0.530772  1
  B  B16  1  0.500000  0.863690  0.030954  1
  B  B17  1  0.500000  0.136310  0.969046  1
  B  B18  1  0.500000  0.386861  0.046755  1
  B  B19  1  0.500000  0.613139  0.953245  1
  B  B20  1  0.500000  0.886865  0.452744  1
  B  B21  1  0.500000  0.113135  0.547256  1
  Rh  Rh22  1  0.000000  0.140297  0.405500  1
  Rh  Rh23  1  0.000000  0.859703  0.594500  1
