# generated using pymatgen
data_YTh(Ga2Rh3)2
_symmetry_space_group_name_H-M   'P 1'
_cell_length_a   6.79553751
_cell_length_b   6.79553721
_cell_length_c   6.79553831
_cell_angle_alpha   130.56583574
_cell_angle_beta   112.02768558
_cell_angle_gamma   88.54591408
_symmetry_Int_Tables_number   1
_chemical_formula_structural   YTh(Ga2Rh3)2
_chemical_formula_sum   'Y1 Th1 Ga4 Rh6'
_cell_volume   210.07947079
_cell_formula_units_Z   1
loop_
 _symmetry_equiv_pos_site_id
 _symmetry_equiv_pos_as_xyz
  1  'x, y, z'
loop_
 _atom_site_type_symbol
 _atom_site_label
 _atom_site_symmetry_multiplicity
 _atom_site_fract_x
 _atom_site_fract_y
 _atom_site_fract_z
 _atom_site_occupancy
  Y  Y0  1  0.750000  0.441616  0.691616  1
  Th  Th1  1  0.250000  0.566355  0.316355  1
  Ga  Ga2  1  0.075189  0.878180  0.802991  1
  Ga  Ga3  1  0.910455  0.111926  0.201471  1
  Ga  Ga4  1  0.589545  0.791015  0.201471  1
  Ga  Ga5  1  0.424811  0.227803  0.802991  1
  Rh  Rh6  1  0.719347  0.995182  0.718032  1
  Rh  Rh7  1  0.222849  0.498684  0.718032  1
  Rh  Rh8  1  0.277151  0.995182  0.275836  1
  Rh  Rh9  1  0.780653  0.498684  0.275836  1
  Rh  Rh10  1  0.008666  0.997685  0.506351  1
  Rh  Rh11  1  0.491334  0.997685  0.989020  1
