# generated using pymatgen
data_Dy4GaReRu6
_symmetry_space_group_name_H-M   'P 1'
_cell_length_a   5.20057073
_cell_length_b   5.43506416
_cell_length_c   8.89131200
_cell_angle_alpha   90.00000000
_cell_angle_beta   90.00000000
_cell_angle_gamma   119.93059245
_symmetry_Int_Tables_number   1
_chemical_formula_structural   Dy4GaReRu6
_chemical_formula_sum   'Dy4 Ga1 Re1 Ru6'
_cell_volume   217.79880042
_cell_formula_units_Z   1
loop_
 _symmetry_equiv_pos_site_id
 _symmetry_equiv_pos_as_xyz
  1  'x, y, z'
loop_
 _atom_site_type_symbol
 _atom_site_label
 _atom_site_symmetry_multiplicity
 _atom_site_fract_x
 _atom_site_fract_y
 _atom_site_fract_z
 _atom_site_occupancy
  Dy  Dy0  1  0.333479  0.669788  0.436843  1
  Dy  Dy1  1  0.657847  0.327303  0.565266  1
  Dy  Dy2  1  0.657847  0.327303  0.934734  1
  Dy  Dy3  1  0.333479  0.669788  0.063157  1
  Ga  Ga4  1  0.834316  0.168689  0.250000  1
  Re  Re5  1  0.669697  0.835674  0.750000  1
  Ru  Ru6  1  0.988854  0.987653  0.500233  1
  Ru  Ru7  1  0.988854  0.987653  0.999767  1
  Ru  Ru8  1  0.827607  0.660600  0.250000  1
  Ru  Ru9  1  0.349102  0.183701  0.250000  1
  Ru  Ru10  1  0.178326  0.832761  0.750000  1
  Ru  Ru11  1  0.180591  0.349088  0.750000  1
