# generated using pymatgen
data_Ac6Cr5Se16
_symmetry_space_group_name_H-M   'P 1'
_cell_length_a   9.81946745
_cell_length_b   9.81963390
_cell_length_c   11.81950993
_cell_angle_alpha   88.37430652
_cell_angle_beta   88.37635273
_cell_angle_gamma   142.19801959
_symmetry_Int_Tables_number   1
_chemical_formula_structural   Ac6Cr5Se16
_chemical_formula_sum   'Ac6 Cr5 Se16'
_cell_volume   695.86791813
_cell_formula_units_Z   1
loop_
 _symmetry_equiv_pos_site_id
 _symmetry_equiv_pos_as_xyz
  1  'x, y, z'
loop_
 _atom_site_type_symbol
 _atom_site_label
 _atom_site_symmetry_multiplicity
 _atom_site_fract_x
 _atom_site_fract_y
 _atom_site_fract_z
 _atom_site_occupancy
  Ac  Ac0  1  0.069712  0.403038  0.822933  1
  Ac  Ac1  1  0.403042  0.069717  0.822933  1
  Ac  Ac2  1  0.766452  0.766450  0.819585  1
  Ac  Ac3  1  0.846446  0.512851  0.150260  1
  Ac  Ac4  1  0.512852  0.846446  0.150261  1
  Ac  Ac5  1  0.210167  0.210161  0.154202  1
  Cr  Cr6  1  0.612807  0.813860  0.486493  1
  Cr  Cr7  1  0.813854  0.612833  0.486488  1
  Cr  Cr8  1  0.013222  0.412067  0.485789  1
  Cr  Cr9  1  0.412082  0.013213  0.485780  1
  Cr  Cr10  1  0.214858  0.214878  0.488773  1
  Se  Se11  1  0.930991  0.125751  0.609196  1
  Se  Se12  1  0.125794  0.931035  0.609207  1
  Se  Se13  1  0.529340  0.529369  0.601881  1
  Se  Se14  1  0.326086  0.728619  0.603330  1
  Se  Se15  1  0.728648  0.326081  0.603339  1
  Se  Se16  1  0.247314  0.247310  0.883749  1
  Se  Se17  1  0.027932  0.360981  0.090997  1
  Se  Se18  1  0.360982  0.027931  0.090996  1
  Se  Se19  1  0.695915  0.102484  0.368466  1
  Se  Se20  1  0.102501  0.695891  0.368459  1
  Se  Se21  1  0.901174  0.901198  0.371968  1
  Se  Se22  1  0.298170  0.497171  0.364522  1
  Se  Se23  1  0.497133  0.298142  0.364513  1
  Se  Se24  1  0.898666  0.565192  0.881829  1
  Se  Se25  1  0.565193  0.898663  0.881828  1
  Se  Se26  1  0.711269  0.711268  0.090227  1
