# generated using pymatgen
data_Tb20HgRu11
_symmetry_space_group_name_H-M   'P 1'
_cell_length_a   10.93786420
_cell_length_b   10.93786401
_cell_length_c   6.43773831
_cell_angle_alpha   90.08595640
_cell_angle_beta   90.08595871
_cell_angle_gamma   89.71978334
_symmetry_Int_Tables_number   1
_chemical_formula_structural   Tb20HgRu11
_chemical_formula_sum   'Tb20 Hg1 Ru11'
_cell_volume   770.17993258
_cell_formula_units_Z   1
loop_
 _symmetry_equiv_pos_site_id
 _symmetry_equiv_pos_as_xyz
  1  'x, y, z'
loop_
 _atom_site_type_symbol
 _atom_site_label
 _atom_site_symmetry_multiplicity
 _atom_site_fract_x
 _atom_site_fract_y
 _atom_site_fract_z
 _atom_site_occupancy
  Tb  Tb0  1  0.292842  0.088272  0.378486  1
  Tb  Tb1  1  0.290340  0.928094  0.875696  1
  Tb  Tb2  1  0.709296  0.088571  0.877039  1
  Tb  Tb3  1  0.709521  0.913320  0.379075  1
  Tb  Tb4  1  0.596979  0.798156  0.880367  1
  Tb  Tb5  1  0.588687  0.204253  0.376985  1
  Tb  Tb6  1  0.419274  0.799781  0.355324  1
  Tb  Tb7  1  0.414689  0.211426  0.876380  1
  Tb  Tb8  1  0.201844  0.403021  0.619633  1
  Tb  Tb9  1  0.200219  0.580726  0.144676  1
  Tb  Tb10  1  0.795747  0.411313  0.123015  1
  Tb  Tb11  1  0.788574  0.585311  0.623620  1
  Tb  Tb12  1  0.911728  0.707158  0.121514  1
  Tb  Tb13  1  0.911429  0.290704  0.622961  1
  Tb  Tb14  1  0.071906  0.709660  0.624304  1
  Tb  Tb15  1  0.086680  0.290479  0.120925  1
  Tb  Tb16  1  0.000560  0.000582  0.498246  1
  Tb  Tb17  1  0.999418  0.999440  0.001754  1
  Tb  Tb18  1  0.508514  0.495199  0.005497  1
  Tb  Tb19  1  0.504801  0.491486  0.494503  1
  Hg  Hg20  1  0.341566  0.658434  0.750000  1
  Ru  Ru21  1  0.847378  0.152622  0.250000  1
  Ru  Ru22  1  0.847594  0.847482  0.749636  1
  Ru  Ru23  1  0.152518  0.152406  0.750364  1
  Ru  Ru24  1  0.154363  0.845637  0.250000  1
  Ru  Ru25  1  0.653446  0.346554  0.750000  1
  Ru  Ru26  1  0.651685  0.651826  0.250894  1
  Ru  Ru27  1  0.348174  0.348315  0.249106  1
  Ru  Ru28  1  0.501642  0.001438  0.120973  1
  Ru  Ru29  1  0.500833  0.000812  0.625722  1
  Ru  Ru30  1  0.999188  0.499167  0.874278  1
  Ru  Ru31  1  0.998562  0.498358  0.379027  1
