# generated using pymatgen
data_Ho3Er3MnB14Os
_symmetry_space_group_name_H-M   'P 1'
_cell_length_a   7.98876393
_cell_length_b   7.98876376
_cell_length_c   9.26510609
_cell_angle_alpha   89.94574623
_cell_angle_beta   90.05425351
_cell_angle_gamma   154.93160279
_symmetry_Int_Tables_number   1
_chemical_formula_structural   Ho3Er3MnB14Os
_chemical_formula_sum   'Ho3 Er3 Mn1 B14 Os1'
_cell_volume   250.53458727
_cell_formula_units_Z   1
loop_
 _symmetry_equiv_pos_site_id
 _symmetry_equiv_pos_as_xyz
  1  'x, y, z'
loop_
 _atom_site_type_symbol
 _atom_site_label
 _atom_site_symmetry_multiplicity
 _atom_site_fract_x
 _atom_site_fract_y
 _atom_site_fract_z
 _atom_site_occupancy
  Ho  Ho0  1  0.894531  0.105469  0.443014  1
  Ho  Ho1  1  0.104909  0.895091  0.563836  1
  Ho  Ho2  1  0.244574  0.755426  0.249915  1
  Er  Er3  1  0.894625  0.105375  0.056610  1
  Er  Er4  1  0.104836  0.895164  0.936642  1
  Er  Er5  1  0.759228  0.240772  0.750069  1
  Mn  Mn6  1  0.947231  0.052769  0.750368  1
  B  B7  1  0.727264  0.272736  0.466764  1
  B  B8  1  0.272225  0.727775  0.534481  1
  B  B9  1  0.727321  0.272679  0.033176  1
  B  B10  1  0.272185  0.727815  0.965535  1
  B  B11  1  0.632006  0.367994  0.149835  1
  B  B12  1  0.369851  0.630149  0.846487  1
  B  B13  1  0.632010  0.367990  0.349882  1
  B  B14  1  0.369854  0.630146  0.653771  1
  B  B15  1  0.519854  0.480146  0.094892  1
  B  B16  1  0.478773  0.521227  0.901995  1
  B  B17  1  0.519905  0.480095  0.404643  1
  B  B18  1  0.478731  0.521269  0.598433  1
  B  B19  1  0.454907  0.545093  0.249687  1
  B  B20  1  0.541709  0.458291  0.750312  1
  Os  Os21  1  0.053469  0.946531  0.249652  1
