# generated using pymatgen
data_YEr(ZnSi)2
_symmetry_space_group_name_H-M   'P 1'
_cell_length_a   4.14930700
_cell_length_b   4.14930478
_cell_length_c   15.67822400
_cell_angle_alpha   90.00000000
_cell_angle_beta   90.00000000
_cell_angle_gamma   120.00000969
_symmetry_Int_Tables_number   1
_chemical_formula_structural   YEr(ZnSi)2
_chemical_formula_sum   'Y2 Er2 Zn4 Si4'
_cell_volume   233.76439284
_cell_formula_units_Z   2
loop_
 _symmetry_equiv_pos_site_id
 _symmetry_equiv_pos_as_xyz
  1  'x, y, z'
loop_
 _atom_site_type_symbol
 _atom_site_label
 _atom_site_symmetry_multiplicity
 _atom_site_fract_x
 _atom_site_fract_y
 _atom_site_fract_z
 _atom_site_occupancy
  Y  Y0  1  0.000000  0.000000  0.000000  1
  Y  Y1  1  0.000000  0.000000  0.500000  1
  Er  Er2  1  0.000000  0.000000  0.250000  1
  Er  Er3  1  0.000000  0.000000  0.750000  1
  Zn  Zn4  1  0.333333  0.666667  0.138831  1
  Zn  Zn5  1  0.666667  0.333333  0.861169  1
  Zn  Zn6  1  0.666667  0.333333  0.638831  1
  Zn  Zn7  1  0.333333  0.666667  0.361169  1
  Si  Si8  1  0.333333  0.666667  0.620099  1
  Si  Si9  1  0.666667  0.333333  0.379901  1
  Si  Si10  1  0.666667  0.333333  0.120099  1
  Si  Si11  1  0.333333  0.666667  0.879901  1
