# generated using pymatgen
data_Cs2HgSe2
_symmetry_space_group_name_H-M   'P 1'
_cell_length_a   9.02653312
_cell_length_b   9.02653324
_cell_length_c   9.02653370
_cell_angle_alpha   132.24051089
_cell_angle_beta   129.85856828
_cell_angle_gamma   71.75150032
_symmetry_Int_Tables_number   1
_chemical_formula_structural   Cs2HgSe2
_chemical_formula_sum   'Cs4 Hg2 Se4'
_cell_volume   408.90215610
_cell_formula_units_Z   2
loop_
 _symmetry_equiv_pos_site_id
 _symmetry_equiv_pos_as_xyz
  1  'x, y, z'
loop_
 _atom_site_type_symbol
 _atom_site_label
 _atom_site_symmetry_multiplicity
 _atom_site_fract_x
 _atom_site_fract_y
 _atom_site_fract_z
 _atom_site_occupancy
  Cs  Cs0  1  0.527356  0.855917  0.671439  1
  Cs  Cs1  1  0.472644  0.144083  0.328561  1
  Cs  Cs2  1  0.815521  0.644083  0.171439  1
  Cs  Cs3  1  0.184479  0.355917  0.828561  1
  Hg  Hg4  1  0.000000  0.250000  0.250000  1
  Hg  Hg5  1  0.000000  0.750000  0.750000  1
  Se  Se6  1  0.085625  0.898153  0.187472  1
  Se  Se7  1  0.710681  0.398153  0.312528  1
  Se  Se8  1  0.914375  0.101847  0.812528  1
  Se  Se9  1  0.289320  0.601847  0.687472  1
