# generated using pymatgen
data_Dy2Er6Cd2IrRu
_symmetry_space_group_name_H-M   'P 1'
_cell_length_a   9.57206840
_cell_length_b   9.57110694
_cell_length_c   9.60472305
_cell_angle_alpha   59.89038190
_cell_angle_beta   59.88046033
_cell_angle_gamma   59.74142124
_symmetry_Int_Tables_number   1
_chemical_formula_structural   Dy2Er6Cd2IrRu
_chemical_formula_sum   'Dy4 Er12 Cd4 Ir2 Ru2'
_cell_volume   619.91270264
_cell_formula_units_Z   2
loop_
 _symmetry_equiv_pos_site_id
 _symmetry_equiv_pos_as_xyz
  1  'x, y, z'
loop_
 _atom_site_type_symbol
 _atom_site_label
 _atom_site_symmetry_multiplicity
 _atom_site_fract_x
 _atom_site_fract_y
 _atom_site_fract_z
 _atom_site_occupancy
  Dy  Dy0  1  0.810440  0.188203  0.812774  1
  Dy  Dy1  1  0.188203  0.810440  0.188583  1
  Dy  Dy2  1  0.811803  0.811803  0.188197  1
  Dy  Dy3  1  0.188765  0.188765  0.811235  1
  Er  Er4  1  0.597668  0.597928  0.597860  1
  Er  Er5  1  0.597928  0.597668  0.206544  1
  Er  Er6  1  0.596926  0.208984  0.596982  1
  Er  Er7  1  0.208984  0.596926  0.597109  1
  Er  Er8  1  0.062126  0.437913  0.439175  1
  Er  Er9  1  0.437913  0.062126  0.060786  1
  Er  Er10  1  0.437999  0.062128  0.439290  1
  Er  Er11  1  0.062128  0.437999  0.060584  1
  Er  Er12  1  0.437861  0.437861  0.062139  1
  Er  Er13  1  0.060216  0.060216  0.439784  1
  Er  Er14  1  0.188331  0.810401  0.812353  1
  Er  Er15  1  0.810401  0.188331  0.188915  1
  Cd  Cd16  1  0.830397  0.830131  0.830319  1
  Cd  Cd17  1  0.830131  0.830397  0.509153  1
  Cd  Cd18  1  0.830241  0.508168  0.830930  1
  Cd  Cd19  1  0.508168  0.830241  0.830662  1
  Ir  Ir20  1  0.393204  0.826901  0.390064  1
  Ir  Ir21  1  0.826901  0.393204  0.389831  1
  Ru  Ru22  1  0.391765  0.391504  0.388178  1
  Ru  Ru23  1  0.391504  0.391765  0.828554  1
