# generated using pymatgen
data_Y3Ho9Co5Sb
_symmetry_space_group_name_H-M   'P 1'
_cell_length_a   8.25876537
_cell_length_b   8.25879297
_cell_length_c   8.24824670
_cell_angle_alpha   110.66513868
_cell_angle_beta   110.79065758
_cell_angle_gamma   107.03982127
_symmetry_Int_Tables_number   1
_chemical_formula_structural   Y3Ho9Co5Sb
_chemical_formula_sum   'Y3 Ho9 Co5 Sb1'
_cell_volume   432.20083128
_cell_formula_units_Z   1
loop_
 _symmetry_equiv_pos_site_id
 _symmetry_equiv_pos_as_xyz
  1  'x, y, z'
loop_
 _atom_site_type_symbol
 _atom_site_label
 _atom_site_symmetry_multiplicity
 _atom_site_fract_x
 _atom_site_fract_y
 _atom_site_fract_z
 _atom_site_occupancy
  Y  Y0  1  0.814202  0.711084  0.525282  1
  Y  Y1  1  0.185426  0.288498  0.473919  1
  Y  Y2  1  0.185651  0.710747  0.896394  1
  Ho  Ho3  1  0.815567  0.289300  0.104898  1
  Ho  Ho4  1  0.686935  0.378141  0.692176  1
  Ho  Ho5  1  0.312824  0.621425  0.308267  1
  Ho  Ho6  1  0.686864  0.995482  0.308298  1
  Ho  Ho7  1  0.314052  0.005288  0.692200  1
  Ho  Ho8  1  0.598369  0.791901  0.807432  1
  Ho  Ho9  1  0.402812  0.208931  0.193324  1
  Ho  Ho10  1  0.984375  0.790507  0.193310  1
  Ho  Ho11  1  0.015512  0.209054  0.807426  1
  Co  Co12  1  0.625857  0.000205  0.626076  1
  Co  Co13  1  0.374314  0.000156  0.374481  1
  Co  Co14  1  0.111118  0.611587  0.497913  1
  Co  Co15  1  0.886321  0.386793  0.497907  1
  Co  Co16  1  0.000011  0.000739  0.000744  1
  Sb  Sb17  1  0.499791  0.500162  0.999954  1
