# generated using pymatgen
data_Ca21Ga8Sn6I
_symmetry_space_group_name_H-M   'P 1'
_cell_length_a   11.48638990
_cell_length_b   11.48638960
_cell_length_c   11.48639000
_cell_angle_alpha   60.00000462
_cell_angle_beta   60.00000547
_cell_angle_gamma   59.99999947
_symmetry_Int_Tables_number   1
_chemical_formula_structural   Ca21Ga8Sn6I
_chemical_formula_sum   'Ca21 Ga8 Sn6 I1'
_cell_volume   1071.60736187
_cell_formula_units_Z   1
loop_
 _symmetry_equiv_pos_site_id
 _symmetry_equiv_pos_as_xyz
  1  'x, y, z'
loop_
 _atom_site_type_symbol
 _atom_site_label
 _atom_site_symmetry_multiplicity
 _atom_site_fract_x
 _atom_site_fract_y
 _atom_site_fract_z
 _atom_site_occupancy
  Ca  Ca0  1  0.869903  0.869903  0.390289  1
  Ca  Ca1  1  0.609711  0.130097  0.130097  1
  Ca  Ca2  1  0.869903  0.390289  0.869903  1
  Ca  Ca3  1  0.130097  0.130097  0.130097  1
  Ca  Ca4  1  0.390289  0.869903  0.869903  1
  Ca  Ca5  1  0.869903  0.869903  0.869903  1
  Ca  Ca6  1  0.166712  0.833288  0.500000  1
  Ca  Ca7  1  0.833288  0.500000  0.500000  1
  Ca  Ca8  1  0.130097  0.130097  0.609711  1
  Ca  Ca9  1  0.833288  0.166712  0.500000  1
  Ca  Ca10  1  0.166712  0.500000  0.500000  1
  Ca  Ca11  1  0.130097  0.609711  0.130097  1
  Ca  Ca12  1  0.500000  0.500000  0.166712  1
  Ca  Ca13  1  0.500000  0.166712  0.833288  1
  Ca  Ca14  1  0.500000  0.833288  0.166712  1
  Ca  Ca15  1  0.500000  0.500000  0.833288  1
  Ca  Ca16  1  0.500000  0.166712  0.500000  1
  Ca  Ca17  1  0.166712  0.500000  0.833288  1
  Ca  Ca18  1  0.000000  0.000000  0.000000  1
  Ca  Ca19  1  0.500000  0.833288  0.500000  1
  Ca  Ca20  1  0.833288  0.500000  0.166712  1
  Ga  Ga21  1  0.690898  0.927308  0.690898  1
  Ga  Ga22  1  0.690898  0.690898  0.927308  1
  Ga  Ga23  1  0.690898  0.690898  0.690898  1
  Ga  Ga24  1  0.309102  0.072692  0.309102  1
  Ga  Ga25  1  0.927308  0.690898  0.690898  1
  Ga  Ga26  1  0.309102  0.309102  0.072692  1
  Ga  Ga27  1  0.072692  0.309102  0.309102  1
  Ga  Ga28  1  0.309102  0.309102  0.309102  1
  Sn  Sn29  1  0.783765  0.216235  0.783765  1
  Sn  Sn30  1  0.783765  0.216235  0.216235  1
  Sn  Sn31  1  0.216235  0.783765  0.216235  1
  Sn  Sn32  1  0.216235  0.783765  0.783765  1
  Sn  Sn33  1  0.783765  0.783765  0.216235  1
  Sn  Sn34  1  0.216235  0.216235  0.783765  1
  I  I35  1  0.500000  0.500000  0.500000  1
