# generated using pymatgen
data_HfPt3(SeO3)8
_symmetry_space_group_name_H-M   'P 1'
_cell_length_a   8.21374875
_cell_length_b   8.21374832
_cell_length_c   8.21374851
_cell_angle_alpha   89.31337645
_cell_angle_beta   90.68662901
_cell_angle_gamma   90.68662972
_symmetry_Int_Tables_number   1
_chemical_formula_structural   HfPt3(SeO3)8
_chemical_formula_sum   'Hf1 Pt3 Se8 O24'
_cell_volume   554.02757669
_cell_formula_units_Z   1
loop_
 _symmetry_equiv_pos_site_id
 _symmetry_equiv_pos_as_xyz
  1  'x, y, z'
loop_
 _atom_site_type_symbol
 _atom_site_label
 _atom_site_symmetry_multiplicity
 _atom_site_fract_x
 _atom_site_fract_y
 _atom_site_fract_z
 _atom_site_occupancy
  Hf  Hf0  1  0.500000  0.500000  0.000000  1
  Pt  Pt1  1  0.500000  0.000000  0.500000  1
  Pt  Pt2  1  0.000000  0.000000  0.000000  1
  Pt  Pt3  1  0.000000  0.500000  0.500000  1
  Se  Se4  1  0.827528  0.172472  0.672472  1
  Se  Se5  1  0.172472  0.827528  0.327528  1
  Se  Se6  1  0.686901  0.680685  0.646120  1
  Se  Se7  1  0.146120  0.686901  0.819315  1
  Se  Se8  1  0.319315  0.146120  0.813099  1
  Se  Se9  1  0.853880  0.313099  0.180685  1
  Se  Se10  1  0.680685  0.853880  0.186901  1
  Se  Se11  1  0.313099  0.319315  0.353880  1
  O  O12  1  0.243845  0.466126  0.490313  1
  O  O13  1  0.990313  0.243845  0.033874  1
  O  O14  1  0.033238  0.743221  0.466583  1
  O  O15  1  0.444352  0.263743  0.932272  1
  O  O16  1  0.256779  0.966583  0.466762  1
  O  O17  1  0.567728  0.555648  0.763743  1
  O  O18  1  0.966583  0.033238  0.756779  1
  O  O19  1  0.555648  0.736257  0.067728  1
  O  O20  1  0.533874  0.990313  0.256155  1
  O  O21  1  0.466126  0.009687  0.743845  1
  O  O22  1  0.755698  0.988224  0.034992  1
  O  O23  1  0.263743  0.567728  0.944352  1
  O  O24  1  0.011776  0.534992  0.744302  1
  O  O25  1  0.033417  0.966762  0.243221  1
  O  O26  1  0.244302  0.011776  0.965008  1
  O  O27  1  0.432272  0.444352  0.236257  1
  O  O28  1  0.756155  0.533874  0.509687  1
  O  O29  1  0.988224  0.465008  0.255698  1
  O  O30  1  0.009687  0.756155  0.966126  1
  O  O31  1  0.465008  0.244302  0.488224  1
  O  O32  1  0.534992  0.755698  0.511776  1
  O  O33  1  0.966762  0.256779  0.533417  1
  O  O34  1  0.743221  0.033417  0.533238  1
  O  O35  1  0.736257  0.432272  0.055648  1
