# generated using pymatgen
data_SmDy7(Sc3Pt4)4
_symmetry_space_group_name_H-M   'P 1'
_cell_length_a   7.44222903
_cell_length_b   7.32187842
_cell_length_c   13.85196325
_cell_angle_alpha   89.84810131
_cell_angle_beta   90.01047922
_cell_angle_gamma   90.00129771
_symmetry_Int_Tables_number   1
_chemical_formula_structural   SmDy7(Sc3Pt4)4
_chemical_formula_sum   'Sm1 Dy7 Sc12 Pt16'
_cell_volume   754.80599598
_cell_formula_units_Z   1
loop_
 _symmetry_equiv_pos_site_id
 _symmetry_equiv_pos_as_xyz
  1  'x, y, z'
loop_
 _atom_site_type_symbol
 _atom_site_label
 _atom_site_symmetry_multiplicity
 _atom_site_fract_x
 _atom_site_fract_y
 _atom_site_fract_z
 _atom_site_occupancy
  Sm  Sm0  1  0.007376  0.175685  0.093983  1
  Dy  Dy1  1  0.993113  0.821351  0.903606  1
  Dy  Dy2  1  0.493633  0.676971  0.904446  1
  Dy  Dy3  1  0.992220  0.823159  0.594974  1
  Dy  Dy4  1  0.508155  0.323651  0.095329  1
  Dy  Dy5  1  0.007502  0.176688  0.404877  1
  Dy  Dy6  1  0.507408  0.323487  0.405624  1
  Dy  Dy7  1  0.492174  0.677063  0.595325  1
  Sc  Sc8  1  0.168888  0.495915  0.749467  1
  Sc  Sc9  1  0.831235  0.503528  0.250877  1
  Sc  Sc10  1  0.331943  0.996299  0.250694  1
  Sc  Sc11  1  0.668494  0.003658  0.749534  1
  Sc  Sc12  1  0.335079  0.160935  0.623936  1
  Sc  Sc13  1  0.663610  0.838344  0.376909  1
  Sc  Sc14  1  0.164182  0.661208  0.376517  1
  Sc  Sc15  1  0.662931  0.838016  0.124348  1
  Sc  Sc16  1  0.835966  0.338356  0.623698  1
  Sc  Sc17  1  0.336762  0.161632  0.876081  1
  Sc  Sc18  1  0.834676  0.339917  0.875002  1
  Sc  Sc19  1  0.164114  0.661489  0.124226  1
  Pt  Pt20  1  0.033568  0.127327  0.750230  1
  Pt  Pt21  1  0.965033  0.871108  0.251432  1
  Pt  Pt22  1  0.467027  0.627849  0.250522  1
  Pt  Pt23  1  0.533266  0.372970  0.749426  1
  Pt  Pt24  1  0.294166  0.854172  0.749932  1
  Pt  Pt25  1  0.703629  0.145571  0.251424  1
  Pt  Pt26  1  0.207722  0.355408  0.251660  1
  Pt  Pt27  1  0.793562  0.645526  0.749196  1
  Pt  Pt28  1  0.173974  0.455402  0.543367  1
  Pt  Pt29  1  0.825776  0.544836  0.457164  1
  Pt  Pt30  1  0.325524  0.955608  0.457019  1
  Pt  Pt31  1  0.824936  0.547683  0.041860  1
  Pt  Pt32  1  0.673473  0.044419  0.543485  1
  Pt  Pt33  1  0.175115  0.457916  0.955706  1
  Pt  Pt34  1  0.674254  0.043874  0.955650  1
  Pt  Pt35  1  0.329514  0.952977  0.042475  1
