# generated using pymatgen
data_Ho2Lu3CoRu
_symmetry_space_group_name_H-M   'P 1'
_cell_length_a   6.21511089
_cell_length_b   7.07817365
_cell_length_c   8.36296473
_cell_angle_alpha   96.80536266
_cell_angle_beta   112.52823298
_cell_angle_gamma   89.69242394
_symmetry_Int_Tables_number   1
_chemical_formula_structural   Ho2Lu3CoRu
_chemical_formula_sum   'Ho4 Lu6 Co2 Ru2'
_cell_volume   337.11046659
_cell_formula_units_Z   2
loop_
 _symmetry_equiv_pos_site_id
 _symmetry_equiv_pos_as_xyz
  1  'x, y, z'
loop_
 _atom_site_type_symbol
 _atom_site_label
 _atom_site_symmetry_multiplicity
 _atom_site_fract_x
 _atom_site_fract_y
 _atom_site_fract_z
 _atom_site_occupancy
  Ho  Ho0  1  0.526490  0.087891  0.813797  1
  Ho  Ho1  1  0.473510  0.912109  0.186203  1
  Ho  Ho2  1  0.702543  0.418121  0.190620  1
  Ho  Ho3  1  0.297457  0.581879  0.809380  1
  Lu  Lu4  1  0.289570  0.320440  0.432331  1
  Lu  Lu5  1  0.710430  0.679560  0.567669  1
  Lu  Lu6  1  0.856949  0.186156  0.564973  1
  Lu  Lu7  1  0.143051  0.813844  0.435027  1
  Lu  Lu8  1  0.077588  0.258882  0.000382  1
  Lu  Lu9  1  0.922412  0.741118  0.999618  1
  Co  Co10  1  0.324342  0.577172  0.227208  1
  Co  Co11  1  0.675658  0.422828  0.772792  1
  Ru  Ru12  1  0.102149  0.926315  0.783368  1
  Ru  Ru13  1  0.897851  0.073685  0.216632  1
