# generated using pymatgen
data_Li3Th8Si12Ag
_symmetry_space_group_name_H-M   'P 1'
_cell_length_a   10.99772203
_cell_length_b   9.30069404
_cell_length_c   8.31898012
_cell_angle_alpha   77.14886459
_cell_angle_beta   55.50291616
_cell_angle_gamma   47.48363969
_symmetry_Int_Tables_number   1
_chemical_formula_structural   Li3Th8Si12Ag
_chemical_formula_sum   'Li3 Th8 Si12 Ag1'
_cell_volume   498.58045181
_cell_formula_units_Z   1
loop_
 _symmetry_equiv_pos_site_id
 _symmetry_equiv_pos_as_xyz
  1  'x, y, z'
loop_
 _atom_site_type_symbol
 _atom_site_label
 _atom_site_symmetry_multiplicity
 _atom_site_fract_x
 _atom_site_fract_y
 _atom_site_fract_z
 _atom_site_occupancy
  Li  Li0  1  0.832776  0.166922  0.832668  1
  Li  Li1  1  0.167461  0.833046  0.166768  1
  Li  Li2  1  0.416980  0.083390  0.417275  1
  Th  Th3  1  0.381491  0.376412  0.617843  1
  Th  Th4  1  0.618780  0.623700  0.380706  1
  Th  Th5  1  0.871521  0.875918  0.628518  1
  Th  Th6  1  0.627301  0.624929  0.872398  1
  Th  Th7  1  0.872717  0.881514  0.125721  1
  Th  Th8  1  0.123283  0.122086  0.875396  1
  Th  Th9  1  0.377046  0.374427  0.126260  1
  Th  Th10  1  0.128347  0.120339  0.374671  1
  Si  Si11  1  0.667869  0.332366  0.668414  1
  Si  Si12  1  0.332412  0.667206  0.331886  1
  Si  Si13  1  0.579451  0.919989  0.579539  1
  Si  Si14  1  0.912044  0.588176  0.911972  1
  Si  Si15  1  0.328504  0.666060  0.839457  1
  Si  Si16  1  0.163938  0.838583  0.667652  1
  Si  Si17  1  0.838722  0.164817  0.329301  1
  Si  Si18  1  0.668196  0.331184  0.162309  1
  Si  Si19  1  0.917119  0.591438  0.420390  1
  Si  Si20  1  0.088836  0.405386  0.582044  1
  Si  Si21  1  0.421361  0.072303  0.915915  1
  Si  Si22  1  0.581948  0.922268  0.089920  1
  Ag  Ag23  1  0.081898  0.417543  0.082978  1
