# generated using pymatgen
data_Mg2Ag3RuO6
_symmetry_space_group_name_H-M   'P 1'
_cell_length_a   5.35934300
_cell_length_b   5.35934432
_cell_length_c   18.81822100
_cell_angle_alpha   90.00000000
_cell_angle_beta   90.00000000
_cell_angle_gamma   119.99998567
_symmetry_Int_Tables_number   1
_chemical_formula_structural   Mg2Ag3RuO6
_chemical_formula_sum   'Mg6 Ag9 Ru3 O18'
_cell_volume   468.09335063
_cell_formula_units_Z   3
loop_
 _symmetry_equiv_pos_site_id
 _symmetry_equiv_pos_as_xyz
  1  'x, y, z'
loop_
 _atom_site_type_symbol
 _atom_site_label
 _atom_site_symmetry_multiplicity
 _atom_site_fract_x
 _atom_site_fract_y
 _atom_site_fract_z
 _atom_site_occupancy
  Mg  Mg0  1  0.106707  0.893293  0.333333  1
  Mg  Mg1  1  0.106707  0.213413  0.666667  1
  Mg  Mg2  1  0.786587  0.893293  0.000000  1
  Mg  Mg3  1  0.773415  0.226585  0.333333  1
  Mg  Mg4  1  0.773415  0.546828  0.666667  1
  Mg  Mg5  1  0.453172  0.226585  0.000000  1
  Ag  Ag6  1  0.442688  0.221344  0.500000  1
  Ag  Ag7  1  0.778656  0.221344  0.833333  1
  Ag  Ag8  1  0.778656  0.557312  0.166667  1
  Ag  Ag9  1  0.114733  0.557367  0.500000  1
  Ag  Ag10  1  0.442633  0.557367  0.833333  1
  Ag  Ag11  1  0.442633  0.885267  0.166667  1
  Ag  Ag12  1  0.766519  0.883259  0.500000  1
  Ag  Ag13  1  0.116741  0.883259  0.833333  1
  Ag  Ag14  1  0.116741  0.233481  0.166667  1
  Ru  Ru15  1  0.440235  0.559765  0.333333  1
  Ru  Ru16  1  0.440235  0.880470  0.666667  1
  Ru  Ru17  1  0.119530  0.559765  0.000000  1
  O  O18  1  0.757072  0.559725  0.278310  1
  O  O19  1  0.440275  0.197348  0.611643  1
  O  O20  1  0.802652  0.242928  0.944977  1
  O  O21  1  0.757072  0.197348  0.721690  1
  O  O22  1  0.440275  0.242928  0.388357  1
  O  O23  1  0.802652  0.559725  0.055023  1
  O  O24  1  0.440288  0.877297  0.278415  1
  O  O25  1  0.122703  0.562991  0.611748  1
  O  O26  1  0.437009  0.559712  0.945082  1
  O  O27  1  0.440288  0.562991  0.721585  1
  O  O28  1  0.122703  0.559712  0.388252  1
  O  O29  1  0.437009  0.877297  0.054918  1
  O  O30  1  0.122774  0.242256  0.278404  1
  O  O31  1  0.757744  0.880517  0.611737  1
  O  O32  1  0.119483  0.877226  0.945070  1
  O  O33  1  0.122774  0.880517  0.721596  1
  O  O34  1  0.757744  0.877226  0.388263  1
  O  O35  1  0.119483  0.242256  0.054930  1
