# generated using pymatgen
data_Tb7Ce(CdPt)2
_symmetry_space_group_name_H-M   'P 1'
_cell_length_a   9.76777292
_cell_length_b   9.76777281
_cell_length_c   9.78796100
_cell_angle_alpha   59.93160329
_cell_angle_beta   59.93160367
_cell_angle_gamma   59.79445432
_symmetry_Int_Tables_number   1
_chemical_formula_structural   Tb7Ce(CdPt)2
_chemical_formula_sum   'Tb14 Ce2 Cd4 Pt4'
_cell_volume   658.62891610
_cell_formula_units_Z   2
loop_
 _symmetry_equiv_pos_site_id
 _symmetry_equiv_pos_as_xyz
  1  'x, y, z'
loop_
 _atom_site_type_symbol
 _atom_site_label
 _atom_site_symmetry_multiplicity
 _atom_site_fract_x
 _atom_site_fract_y
 _atom_site_fract_z
 _atom_site_occupancy
  Tb  Tb0  1  0.352312  0.943144  0.352272  1
  Tb  Tb1  1  0.943144  0.352312  0.352272  1
  Tb  Tb2  1  0.810475  0.189853  0.189805  1
  Tb  Tb3  1  0.189853  0.810475  0.809866  1
  Tb  Tb4  1  0.189853  0.810475  0.189805  1
  Tb  Tb5  1  0.810475  0.189853  0.809866  1
  Tb  Tb6  1  0.189576  0.189576  0.810424  1
  Tb  Tb7  1  0.809850  0.809850  0.190150  1
  Tb  Tb8  1  0.936697  0.564430  0.565343  1
  Tb  Tb9  1  0.564430  0.936697  0.933529  1
  Tb  Tb10  1  0.564430  0.936697  0.565343  1
  Tb  Tb11  1  0.936697  0.564430  0.933529  1
  Tb  Tb12  1  0.565327  0.565327  0.934673  1
  Tb  Tb13  1  0.935087  0.935087  0.564913  1
  Ce  Ce14  1  0.350783  0.350783  0.352439  1
  Ce  Ce15  1  0.350783  0.350783  0.945994  1
  Cd  Cd16  1  0.581698  0.581698  0.581902  1
  Cd  Cd17  1  0.581698  0.581698  0.254701  1
  Cd  Cd18  1  0.581975  0.254210  0.581907  1
  Cd  Cd19  1  0.254210  0.581975  0.581907  1
  Pt  Pt20  1  0.143153  0.143153  0.143470  1
  Pt  Pt21  1  0.143153  0.143153  0.570225  1
  Pt  Pt22  1  0.144334  0.570004  0.142831  1
  Pt  Pt23  1  0.570004  0.144334  0.142831  1
