# generated using pymatgen
data_BaIn6Ag3Pt
_symmetry_space_group_name_H-M   'P 1'
_cell_length_a   8.23811100
_cell_length_b   8.23811040
_cell_length_c   4.52017500
_cell_angle_alpha   90.00000000
_cell_angle_beta   90.00000000
_cell_angle_gamma   119.99999840
_symmetry_Int_Tables_number   1
_chemical_formula_structural   BaIn6Ag3Pt
_chemical_formula_sum   'Ba1 In6 Ag3 Pt1'
_cell_volume   265.66915515
_cell_formula_units_Z   1
loop_
 _symmetry_equiv_pos_site_id
 _symmetry_equiv_pos_as_xyz
  1  'x, y, z'
loop_
 _atom_site_type_symbol
 _atom_site_label
 _atom_site_symmetry_multiplicity
 _atom_site_fract_x
 _atom_site_fract_y
 _atom_site_fract_z
 _atom_site_occupancy
  Ba  Ba0  1  0.000000  0.000000  0.000000  1
  In  In1  1  0.529294  0.470706  0.000000  1
  In  In2  1  0.202586  0.797414  0.500000  1
  In  In3  1  0.529294  0.058587  0.000000  1
  In  In4  1  0.202586  0.405171  0.500000  1
  In  In5  1  0.941413  0.470706  0.000000  1
  In  In6  1  0.594829  0.797414  0.500000  1
  Ag  Ag7  1  0.792220  0.207780  0.500000  1
  Ag  Ag8  1  0.792220  0.584440  0.500000  1
  Ag  Ag9  1  0.415560  0.207780  0.500000  1
  Pt  Pt10  1  0.333333  0.666667  0.000000  1
