# generated using pymatgen
data_Nd20Si15Sb
_symmetry_space_group_name_H-M   'P 1'
_cell_length_a   7.89968347
_cell_length_b   7.92193578
_cell_length_c   15.27637107
_cell_angle_alpha   89.73170151
_cell_angle_beta   90.15932426
_cell_angle_gamma   90.07793086
_symmetry_Int_Tables_number   1
_chemical_formula_structural   Nd20Si15Sb
_chemical_formula_sum   'Nd20 Si15 Sb1'
_cell_volume   955.99225063
_cell_formula_units_Z   1
loop_
 _symmetry_equiv_pos_site_id
 _symmetry_equiv_pos_as_xyz
  1  'x, y, z'
loop_
 _atom_site_type_symbol
 _atom_site_label
 _atom_site_symmetry_multiplicity
 _atom_site_fract_x
 _atom_site_fract_y
 _atom_site_fract_z
 _atom_site_occupancy
  Nd  Nd0  1  0.481657  0.372798  0.125804  1
  Nd  Nd1  1  0.972053  0.135809  0.628062  1
  Nd  Nd2  1  0.871979  0.019424  0.876516  1
  Nd  Nd3  1  0.126548  0.980501  0.373200  1
  Nd  Nd4  1  0.521449  0.621217  0.627078  1
  Nd  Nd5  1  0.372191  0.480911  0.874537  1
  Nd  Nd6  1  0.630848  0.516505  0.371781  1
  Nd  Nd7  1  0.018897  0.873059  0.123332  1
  Nd  Nd8  1  0.628046  0.989685  0.443758  1
  Nd  Nd9  1  0.379392  0.011086  0.947822  1
  Nd  Nd10  1  0.987651  0.618607  0.553256  1
  Nd  Nd11  1  0.488480  0.878962  0.197291  1
  Nd  Nd12  1  0.517731  0.130503  0.704469  1
  Nd  Nd13  1  0.879254  0.488671  0.804314  1
  Nd  Nd14  1  0.119173  0.508558  0.300986  1
  Nd  Nd15  1  0.010593  0.378442  0.052845  1
  Nd  Nd16  1  0.308143  0.319167  0.498346  1
  Nd  Nd17  1  0.188537  0.806081  0.757024  1
  Nd  Nd18  1  0.809346  0.189679  0.248887  1
  Nd  Nd19  1  0.689903  0.690778  0.999761  1
  Si  Si20  1  0.711800  0.078389  0.060116  1
  Si  Si21  1  0.922227  0.284585  0.439671  1
  Si  Si22  1  0.423214  0.208800  0.309624  1
  Si  Si23  1  0.577221  0.787576  0.809624  1
  Si  Si24  1  0.212081  0.423302  0.689957  1
  Si  Si25  1  0.787124  0.578916  0.188625  1
  Si  Si26  1  0.076208  0.711694  0.942085  1
  Si  Si27  1  0.805218  0.830478  0.702070  1
  Si  Si28  1  0.195692  0.168775  0.201469  1
  Si  Si29  1  0.831001  0.805444  0.296706  1
  Si  Si30  1  0.331993  0.682699  0.441448  1
  Si  Si31  1  0.667811  0.304100  0.951537  1
  Si  Si32  1  0.692874  0.329999  0.545906  1
  Si  Si33  1  0.305236  0.669085  0.048392  1
  Si  Si34  1  0.169277  0.194954  0.798998  1
  Sb  Sb35  1  0.289153  0.930759  0.564703  1
