# generated using pymatgen
data_RbCaPbF7
_symmetry_space_group_name_H-M   'P 1'
_cell_length_a   6.73843342
_cell_length_b   6.73843433
_cell_length_c   8.77431400
_cell_angle_alpha   90.00000000
_cell_angle_beta   90.00000000
_cell_angle_gamma   116.95100693
_symmetry_Int_Tables_number   1
_chemical_formula_structural   RbCaPbF7
_chemical_formula_sum   'Rb2 Ca2 Pb2 F14'
_cell_volume   355.14116596
_cell_formula_units_Z   2
loop_
 _symmetry_equiv_pos_site_id
 _symmetry_equiv_pos_as_xyz
  1  'x, y, z'
loop_
 _atom_site_type_symbol
 _atom_site_label
 _atom_site_symmetry_multiplicity
 _atom_site_fract_x
 _atom_site_fract_y
 _atom_site_fract_z
 _atom_site_occupancy
  Rb  Rb0  1  0.000000  0.000000  0.000000  1
  Rb  Rb1  1  0.000000  0.000000  0.500000  1
  Ca  Ca2  1  0.308917  0.691083  0.750000  1
  Ca  Ca3  1  0.691083  0.308917  0.250000  1
  Pb  Pb4  1  0.693243  0.306757  0.750000  1
  Pb  Pb5  1  0.306757  0.693243  0.250000  1
  F  F6  1  0.507400  0.492600  0.750000  1
  F  F7  1  0.492600  0.507400  0.250000  1
  F  F8  1  0.700796  0.299204  0.991072  1
  F  F9  1  0.299204  0.700796  0.008928  1
  F  F10  1  0.299204  0.700796  0.491072  1
  F  F11  1  0.700796  0.299204  0.508928  1
  F  F12  1  0.671286  0.971119  0.750000  1
  F  F13  1  0.328714  0.028881  0.250000  1
  F  F14  1  0.028881  0.328714  0.750000  1
  F  F15  1  0.971119  0.671286  0.250000  1
  F  F16  1  0.341531  0.057546  0.750000  1
  F  F17  1  0.658469  0.942454  0.250000  1
  F  F18  1  0.942454  0.658469  0.750000  1
  F  F19  1  0.057546  0.341531  0.250000  1
