# generated using pymatgen
data_KRb2TaSe4
_symmetry_space_group_name_H-M   'P 1'
_cell_length_a   10.10162100
_cell_length_b   11.29088500
_cell_length_c   10.14746000
_cell_angle_alpha   90.00000000
_cell_angle_beta   90.00000000
_cell_angle_gamma   90.00000000
_symmetry_Int_Tables_number   1
_chemical_formula_structural   KRb2TaSe4
_chemical_formula_sum   'K4 Rb8 Ta4 Se16'
_cell_volume   1157.38114355
_cell_formula_units_Z   4
loop_
 _symmetry_equiv_pos_site_id
 _symmetry_equiv_pos_as_xyz
  1  'x, y, z'
loop_
 _atom_site_type_symbol
 _atom_site_label
 _atom_site_symmetry_multiplicity
 _atom_site_fract_x
 _atom_site_fract_y
 _atom_site_fract_z
 _atom_site_occupancy
  K  K0  1  0.865231  0.750000  0.076481  1
  K  K1  1  0.365232  0.750000  0.423519  1
  K  K2  1  0.634768  0.250000  0.576482  1
  K  K3  1  0.134768  0.250000  0.923518  1
  Rb  Rb4  1  0.447534  0.043729  0.206983  1
  Rb  Rb5  1  0.447534  0.456271  0.206983  1
  Rb  Rb6  1  0.947534  0.043729  0.293017  1
  Rb  Rb7  1  0.947534  0.456271  0.293017  1
  Rb  Rb8  1  0.052466  0.543729  0.706983  1
  Rb  Rb9  1  0.052466  0.956271  0.706983  1
  Rb  Rb10  1  0.552466  0.543729  0.793016  1
  Rb  Rb11  1  0.552466  0.956271  0.793016  1
  Ta  Ta12  1  0.719613  0.250000  0.015781  1
  Ta  Ta13  1  0.219612  0.250000  0.484219  1
  Ta  Ta14  1  0.780387  0.750000  0.515781  1
  Ta  Ta15  1  0.280388  0.750000  0.984218  1
  Se  Se16  1  0.162507  0.573672  0.048590  1
  Se  Se17  1  0.162507  0.926328  0.048590  1
  Se  Se18  1  0.499798  0.750000  0.082009  1
  Se  Se19  1  0.697676  0.250000  0.252688  1
  Se  Se20  1  0.197675  0.250000  0.247313  1
  Se  Se21  1  0.999798  0.750000  0.417991  1
  Se  Se22  1  0.662507  0.573672  0.451411  1
  Se  Se23  1  0.662507  0.926328  0.451411  1
  Se  Se24  1  0.337493  0.073672  0.548589  1
  Se  Se25  1  0.337493  0.426328  0.548589  1
  Se  Se26  1  0.000202  0.250000  0.582009  1
  Se  Se27  1  0.802324  0.750000  0.752687  1
  Se  Se28  1  0.302325  0.750000  0.747312  1
  Se  Se29  1  0.500202  0.250000  0.917991  1
  Se  Se30  1  0.837493  0.073672  0.951410  1
  Se  Se31  1  0.837493  0.426328  0.951410  1
