# generated using pymatgen
data_SrGa3SnPt
_symmetry_space_group_name_H-M   'P 1'
_cell_length_a   8.52426484
_cell_length_b   8.52426505
_cell_length_c   6.94483200
_cell_angle_alpha   90.00000000
_cell_angle_beta   90.00000000
_cell_angle_gamma   149.39575718
_symmetry_Int_Tables_number   1
_chemical_formula_structural   SrGa3SnPt
_chemical_formula_sum   'Sr2 Ga6 Sn2 Pt2'
_cell_volume   256.91124677
_cell_formula_units_Z   2
loop_
 _symmetry_equiv_pos_site_id
 _symmetry_equiv_pos_as_xyz
  1  'x, y, z'
loop_
 _atom_site_type_symbol
 _atom_site_label
 _atom_site_symmetry_multiplicity
 _atom_site_fract_x
 _atom_site_fract_y
 _atom_site_fract_z
 _atom_site_occupancy
  Sr  Sr0  1  0.123200  0.876800  0.750000  1
  Sr  Sr1  1  0.876800  0.123200  0.250000  1
  Ga  Ga2  1  0.312764  0.687236  0.945844  1
  Ga  Ga3  1  0.687236  0.312764  0.445844  1
  Ga  Ga4  1  0.687236  0.312764  0.054156  1
  Ga  Ga5  1  0.312764  0.687236  0.554156  1
  Ga  Ga6  1  0.069466  0.930534  0.250000  1
  Ga  Ga7  1  0.930534  0.069466  0.750000  1
  Sn  Sn8  1  0.500000  0.500000  0.500000  1
  Sn  Sn9  1  0.500000  0.500000  0.000000  1
  Pt  Pt10  1  0.778507  0.221493  0.750000  1
  Pt  Pt11  1  0.221493  0.778507  0.250000  1
