# generated using pymatgen
data_Yb5Pt2Pb
_symmetry_space_group_name_H-M   'P 1'
_cell_length_a   9.05093005
_cell_length_b   9.05093004
_cell_length_c   9.05092987
_cell_angle_alpha   129.15450926
_cell_angle_beta   129.15450499
_cell_angle_gamma   74.76209286
_symmetry_Int_Tables_number   1
_chemical_formula_structural   Yb5Pt2Pb
_chemical_formula_sum   'Yb10 Pt4 Pb2'
_cell_volume   434.31588832
_cell_formula_units_Z   2
loop_
 _symmetry_equiv_pos_site_id
 _symmetry_equiv_pos_as_xyz
  1  'x, y, z'
loop_
 _atom_site_type_symbol
 _atom_site_label
 _atom_site_symmetry_multiplicity
 _atom_site_fract_x
 _atom_site_fract_y
 _atom_site_fract_z
 _atom_site_occupancy
  Yb  Yb0  1  0.000000  0.000000  0.000000  1
  Yb  Yb1  1  0.500000  0.500000  0.000000  1
  Yb  Yb2  1  0.797491  0.297491  0.833029  1
  Yb  Yb3  1  0.202509  0.702509  0.166971  1
  Yb  Yb4  1  0.464462  0.964462  0.166971  1
  Yb  Yb5  1  0.297491  0.464462  0.500000  1
  Yb  Yb6  1  0.035538  0.202509  0.500000  1
  Yb  Yb7  1  0.535538  0.035538  0.833029  1
  Yb  Yb8  1  0.702509  0.535538  0.500000  1
  Yb  Yb9  1  0.964462  0.797491  0.500000  1
  Pt  Pt10  1  0.131792  0.631792  0.763585  1
  Pt  Pt11  1  0.868208  0.368208  0.236415  1
  Pt  Pt12  1  0.631792  0.868208  0.500000  1
  Pt  Pt13  1  0.368208  0.131792  0.500000  1
  Pb  Pb14  1  0.250000  0.250000  0.000000  1
  Pb  Pb15  1  0.750000  0.750000  0.000000  1
