# generated using pymatgen
data_Dy8TmLu7(Ga3Co)2
_symmetry_space_group_name_H-M   'P 1'
_cell_length_a   9.87179908
_cell_length_b   9.87179842
_cell_length_c   6.94611607
_cell_angle_alpha   90.01420127
_cell_angle_beta   89.98580215
_cell_angle_gamma   119.99926510
_symmetry_Int_Tables_number   1
_chemical_formula_structural   Dy8TmLu7(Ga3Co)2
_chemical_formula_sum   'Dy8 Tm1 Lu7 Ga6 Co2'
_cell_volume   586.23055706
_cell_formula_units_Z   1
loop_
 _symmetry_equiv_pos_site_id
 _symmetry_equiv_pos_as_xyz
  1  'x, y, z'
loop_
 _atom_site_type_symbol
 _atom_site_label
 _atom_site_symmetry_multiplicity
 _atom_site_fract_x
 _atom_site_fract_y
 _atom_site_fract_z
 _atom_site_occupancy
  Dy  Dy0  1  0.464147  0.535853  0.208433  1
  Dy  Dy1  1  0.071649  0.535645  0.208209  1
  Dy  Dy2  1  0.464355  0.928351  0.208209  1
  Dy  Dy3  1  0.535825  0.464175  0.708465  1
  Dy  Dy4  1  0.928153  0.463929  0.708582  1
  Dy  Dy5  1  0.536071  0.071847  0.708582  1
  Dy  Dy6  1  0.999901  0.000099  0.231363  1
  Dy  Dy7  1  0.999975  0.000025  0.731861  1
  Tm  Tm8  1  0.173719  0.826281  0.512870  1
  Lu  Lu9  1  0.652237  0.826113  0.512834  1
  Lu  Lu10  1  0.173887  0.347763  0.512834  1
  Lu  Lu11  1  0.826135  0.173865  0.012849  1
  Lu  Lu12  1  0.347757  0.173884  0.012841  1
  Lu  Lu13  1  0.826116  0.652243  0.012841  1
  Lu  Lu14  1  0.333429  0.666571  0.825359  1
  Lu  Lu15  1  0.666657  0.333343  0.325094  1
  Ga  Ga16  1  0.163708  0.836292  0.956729  1
  Ga  Ga17  1  0.672636  0.836320  0.956378  1
  Ga  Ga18  1  0.163680  0.327364  0.956378  1
  Ga  Ga19  1  0.836289  0.163711  0.456331  1
  Ga  Ga20  1  0.327641  0.164152  0.456279  1
  Ga  Ga21  1  0.835848  0.672359  0.456279  1
  Co  Co22  1  0.333526  0.666474  0.447577  1
  Co  Co23  1  0.666662  0.333338  0.947653  1
