# generated using pymatgen
data_TaNb3V2(P2Rh)2
_symmetry_space_group_name_H-M   'P 1'
_cell_length_a   3.52592800
_cell_length_b   6.44316563
_cell_length_c   7.54930216
_cell_angle_alpha   89.61278686
_cell_angle_beta   90.00000000
_cell_angle_gamma   90.00000000
_symmetry_Int_Tables_number   1
_chemical_formula_structural   TaNb3V2(P2Rh)2
_chemical_formula_sum   'Ta1 Nb3 V2 P4 Rh2'
_cell_volume   171.50217248
_cell_formula_units_Z   1
loop_
 _symmetry_equiv_pos_site_id
 _symmetry_equiv_pos_as_xyz
  1  'x, y, z'
loop_
 _atom_site_type_symbol
 _atom_site_label
 _atom_site_symmetry_multiplicity
 _atom_site_fract_x
 _atom_site_fract_y
 _atom_site_fract_z
 _atom_site_occupancy
  Ta  Ta0  1  0.250000  0.016075  0.334774  1
  Nb  Nb1  1  0.250000  0.541724  0.159162  1
  Nb  Nb2  1  0.750000  0.457918  0.841152  1
  Nb  Nb3  1  0.750000  0.985278  0.664693  1
  V  V4  1  0.750000  0.863447  0.061471  1
  V  V5  1  0.250000  0.136816  0.939898  1
  P  P6  1  0.250000  0.766414  0.862316  1
  P  P7  1  0.750000  0.232961  0.137755  1
  P  P8  1  0.750000  0.728688  0.367281  1
  P  P9  1  0.250000  0.272350  0.633065  1
  Rh  Rh10  1  0.250000  0.650936  0.566915  1
  Rh  Rh11  1  0.750000  0.347393  0.431517  1
