# generated using pymatgen
data_Sc8Cu3Ir4Os
_symmetry_space_group_name_H-M   'P 1'
_cell_length_a   6.43195300
_cell_length_b   4.58536400
_cell_length_c   9.17845500
_cell_angle_alpha   90.00000000
_cell_angle_beta   90.00138773
_cell_angle_gamma   90.00000000
_symmetry_Int_Tables_number   1
_chemical_formula_structural   Sc8Cu3Ir4Os
_chemical_formula_sum   'Sc8 Cu3 Ir4 Os1'
_cell_volume   270.69875737
_cell_formula_units_Z   1
loop_
 _symmetry_equiv_pos_site_id
 _symmetry_equiv_pos_as_xyz
  1  'x, y, z'
loop_
 _atom_site_type_symbol
 _atom_site_label
 _atom_site_symmetry_multiplicity
 _atom_site_fract_x
 _atom_site_fract_y
 _atom_site_fract_z
 _atom_site_occupancy
  Sc  Sc0  1  0.996577  0.750000  0.124980  1
  Sc  Sc1  1  0.503496  0.750000  0.125029  1
  Sc  Sc2  1  0.997766  0.249999  0.373020  1
  Sc  Sc3  1  0.502332  0.249999  0.373008  1
  Sc  Sc4  1  0.500883  0.750000  0.624990  1
  Sc  Sc5  1  0.999005  0.750000  0.625021  1
  Sc  Sc6  1  0.502202  0.249999  0.876994  1
  Sc  Sc7  1  0.997683  0.249999  0.877014  1
  Cu  Cu8  1  0.249992  0.750000  0.375021  1
  Cu  Cu9  1  0.750010  0.249999  0.625069  1
  Cu  Cu10  1  0.250003  0.750000  0.874888  1
  Ir  Ir11  1  0.250022  0.249999  0.125006  1
  Ir  Ir12  1  0.750048  0.750000  0.377705  1
  Ir  Ir13  1  0.249975  0.249999  0.624998  1
  Ir  Ir14  1  0.749948  0.750000  0.872274  1
  Os  Os15  1  0.750057  0.249999  0.124985  1
