# generated using pymatgen
data_Th2Ga9OsRh2
_symmetry_space_group_name_H-M   'P 1'
_cell_length_a   7.70200722
_cell_length_b   7.70201566
_cell_length_c   9.56146100
_cell_angle_alpha   90.00000000
_cell_angle_beta   90.00000000
_cell_angle_gamma   119.44500331
_symmetry_Int_Tables_number   1
_chemical_formula_structural   Th2Ga9OsRh2
_chemical_formula_sum   'Th4 Ga18 Os2 Rh4'
_cell_volume   493.92947243
_cell_formula_units_Z   2
loop_
 _symmetry_equiv_pos_site_id
 _symmetry_equiv_pos_as_xyz
  1  'x, y, z'
loop_
 _atom_site_type_symbol
 _atom_site_label
 _atom_site_symmetry_multiplicity
 _atom_site_fract_x
 _atom_site_fract_y
 _atom_site_fract_z
 _atom_site_occupancy
  Th  Th0  1  0.997840  0.675572  0.250000  1
  Th  Th1  1  0.002157  0.324434  0.750000  1
  Th  Th2  1  0.675570  0.997839  0.250000  1
  Th  Th3  1  0.324455  0.002161  0.750000  1
  Ga  Ga4  1  0.135058  0.135064  0.250000  1
  Ga  Ga5  1  0.864967  0.864962  0.750000  1
  Ga  Ga6  1  0.004923  0.336944  0.079331  1
  Ga  Ga7  1  0.995063  0.663059  0.920669  1
  Ga  Ga8  1  0.995063  0.663059  0.579331  1
  Ga  Ga9  1  0.336951  0.004935  0.420670  1
  Ga  Ga10  1  0.004923  0.336944  0.420669  1
  Ga  Ga11  1  0.663067  0.995066  0.579324  1
  Ga  Ga12  1  0.663067  0.995066  0.920676  1
  Ga  Ga13  1  0.336951  0.004935  0.079330  1
  Ga  Ga14  1  0.335151  0.335154  0.559824  1
  Ga  Ga15  1  0.664828  0.664835  0.440171  1
  Ga  Ga16  1  0.664828  0.664835  0.059829  1
  Ga  Ga17  1  0.335151  0.335154  0.940176  1
  Ga  Ga18  1  0.341442  0.546546  0.250000  1
  Ga  Ga19  1  0.658572  0.453473  0.750000  1
  Ga  Ga20  1  0.546538  0.341429  0.250000  1
  Ga  Ga21  1  0.453466  0.658553  0.750000  1
  Os  Os22  1  0.999998  0.999993  0.000007  1
  Os  Os23  1  0.999998  0.999993  0.499993  1
  Rh  Rh24  1  0.671443  0.328554  0.999997  1
  Rh  Rh25  1  0.328543  0.671445  0.999996  1
  Rh  Rh26  1  0.328543  0.671445  0.500004  1
  Rh  Rh27  1  0.671443  0.328554  0.500003  1
