# generated using pymatgen
data_Pr5Sm2Sn23Rh6
_symmetry_space_group_name_H-M   'P 1'
_cell_length_a   9.97635876
_cell_length_b   9.98680263
_cell_length_c   10.19690100
_cell_angle_alpha   90.00000000
_cell_angle_beta   90.07593028
_cell_angle_gamma   120.03464851
_symmetry_Int_Tables_number   1
_chemical_formula_structural   Pr5Sm2Sn23Rh6
_chemical_formula_sum   'Pr5 Sm2 Sn23 Rh6'
_cell_volume   879.51877571
_cell_formula_units_Z   1
loop_
 _symmetry_equiv_pos_site_id
 _symmetry_equiv_pos_as_xyz
  1  'x, y, z'
loop_
 _atom_site_type_symbol
 _atom_site_label
 _atom_site_symmetry_multiplicity
 _atom_site_fract_x
 _atom_site_fract_y
 _atom_site_fract_z
 _atom_site_occupancy
  Pr  Pr0  1  0.000000  0.000000  0.000000  1
  Pr  Pr1  1  0.477882  0.523278  0.308274  1
  Pr  Pr2  1  0.522118  0.476722  0.691726  1
  Pr  Pr3  1  0.477882  0.954604  0.308274  1
  Pr  Pr4  1  0.522118  0.045396  0.691726  1
  Sm  Sm5  1  0.043773  0.521887  0.306800  1
  Sm  Sm6  1  0.956227  0.478113  0.693200  1
  Sn  Sn7  1  0.351702  0.999768  0.999557  1
  Sn  Sn8  1  0.648298  0.000232  0.000443  1
  Sn  Sn9  1  0.000000  0.351836  0.000000  1
  Sn  Sn10  1  0.000000  0.648164  0.000000  1
  Sn  Sn11  1  0.648298  0.648066  0.000443  1
  Sn  Sn12  1  0.351702  0.351934  0.999557  1
  Sn  Sn13  1  0.333359  0.666680  0.820955  1
  Sn  Sn14  1  0.666641  0.333320  0.179045  1
  Sn  Sn15  1  0.000000  0.000000  0.500000  1
  Sn  Sn16  1  0.784279  0.223589  0.455102  1
  Sn  Sn17  1  0.215721  0.776411  0.544898  1
  Sn  Sn18  1  0.784279  0.560690  0.455102  1
  Sn  Sn19  1  0.215721  0.439310  0.544898  1
  Sn  Sn20  1  0.438498  0.219249  0.453971  1
  Sn  Sn21  1  0.561502  0.780751  0.546029  1
  Sn  Sn22  1  0.330009  0.665005  0.109176  1
  Sn  Sn23  1  0.669991  0.334995  0.890824  1
  Sn  Sn24  1  0.116796  0.881888  0.281480  1
  Sn  Sn25  1  0.883204  0.118112  0.718520  1
  Sn  Sn26  1  0.116796  0.234908  0.281480  1
  Sn  Sn27  1  0.883204  0.765092  0.718520  1
  Sn  Sn28  1  0.768372  0.884186  0.280390  1
  Sn  Sn29  1  0.231628  0.115814  0.719610  1
  Rh  Rh30  1  0.832480  0.170219  0.199111  1
  Rh  Rh31  1  0.167520  0.829781  0.800889  1
  Rh  Rh32  1  0.832480  0.662262  0.199111  1
  Rh  Rh33  1  0.167520  0.337738  0.800889  1
  Rh  Rh34  1  0.335155  0.167577  0.197580  1
  Rh  Rh35  1  0.664845  0.832423  0.802420  1
