# generated using pymatgen
data_LiB2Ir2Pt
_symmetry_space_group_name_H-M   'P 1'
_cell_length_a   6.85877566
_cell_length_b   6.06294513
_cell_length_c   5.52925061
_cell_angle_alpha   72.38556808
_cell_angle_beta   57.40757125
_cell_angle_gamma   52.13401542
_symmetry_Int_Tables_number   1
_chemical_formula_structural   LiB2Ir2Pt
_chemical_formula_sum   'Li2 B4 Ir4 Pt2'
_cell_volume   152.79759468
_cell_formula_units_Z   2
loop_
 _symmetry_equiv_pos_site_id
 _symmetry_equiv_pos_as_xyz
  1  'x, y, z'
loop_
 _atom_site_type_symbol
 _atom_site_label
 _atom_site_symmetry_multiplicity
 _atom_site_fract_x
 _atom_site_fract_y
 _atom_site_fract_z
 _atom_site_occupancy
  Li  Li0  1  0.125000  0.625000  0.625000  1
  Li  Li1  1  0.625000  0.125000  0.625000  1
  B  B2  1  0.439472  0.040763  0.422929  1
  B  B3  1  0.209237  0.810528  0.153164  1
  B  B4  1  0.040763  0.439472  0.096836  1
  B  B5  1  0.810528  0.209237  0.827071  1
  Ir  Ir6  1  0.380684  0.380684  0.119316  1
  Ir  Ir7  1  0.869316  0.869316  0.130684  1
  Ir  Ir8  1  0.138198  0.138198  0.861802  1
  Ir  Ir9  1  0.111802  0.111802  0.388198  1
  Pt  Pt10  1  0.625000  0.625000  0.625000  1
  Pt  Pt11  1  0.625000  0.625000  0.125000  1
