# generated using pymatgen
data_NaHo(ReH9)2
_symmetry_space_group_name_H-M   'P 1'
_cell_length_a   5.18772311
_cell_length_b   5.18765206
_cell_length_c   8.43602689
_cell_angle_alpha   92.25615214
_cell_angle_beta   87.74348058
_cell_angle_gamma   125.38196234
_symmetry_Int_Tables_number   1
_chemical_formula_structural   NaHo(ReH9)2
_chemical_formula_sum   'Na1 Ho1 Re2 H18'
_cell_volume   184.91906178
_cell_formula_units_Z   1
loop_
 _symmetry_equiv_pos_site_id
 _symmetry_equiv_pos_as_xyz
  1  'x, y, z'
loop_
 _atom_site_type_symbol
 _atom_site_label
 _atom_site_symmetry_multiplicity
 _atom_site_fract_x
 _atom_site_fract_y
 _atom_site_fract_z
 _atom_site_occupancy
  Na  Na0  1  0.000000  0.000000  0.000000  1
  Ho  Ho1  1  0.000000  0.000000  0.500000  1
  Re  Re2  1  0.339348  0.660680  0.725904  1
  Re  Re3  1  0.660652  0.339320  0.274096  1
  H  H4  1  0.387116  0.612955  0.526685  1
  H  H5  1  0.612884  0.387045  0.473315  1
  H  H6  1  0.418262  0.581714  0.900447  1
  H  H7  1  0.581738  0.418286  0.099553  1
  H  H8  1  0.470921  0.957329  0.860754  1
  H  H9  1  0.957332  0.470880  0.139263  1
  H  H10  1  0.602688  0.022003  0.653067  1
  H  H11  1  0.021954  0.602584  0.346961  1
  H  H12  1  0.529079  0.042671  0.139246  1
  H  H13  1  0.042668  0.529120  0.860737  1
  H  H14  1  0.397312  0.977997  0.346933  1
  H  H15  1  0.978046  0.397416  0.653039  1
  H  H16  1  0.704250  0.724953  0.722340  1
  H  H17  1  0.725013  0.704256  0.277666  1
  H  H18  1  0.295750  0.275047  0.277660  1
  H  H19  1  0.274987  0.295744  0.722334  1
  H  H20  1  0.157336  0.842812  0.694606  1
  H  H21  1  0.842664  0.157188  0.305394  1
