# generated using pymatgen
data_Be9SiRh2
_symmetry_space_group_name_H-M   'P 1'
_cell_length_a   4.32859051
_cell_length_b   4.25440006
_cell_length_c   6.91805260
_cell_angle_alpha   89.99999746
_cell_angle_beta   89.74894832
_cell_angle_gamma   119.43462550
_symmetry_Int_Tables_number   1
_chemical_formula_structural   Be9SiRh2
_chemical_formula_sum   'Be9 Si1 Rh2'
_cell_volume   110.95323087
_cell_formula_units_Z   1
loop_
 _symmetry_equiv_pos_site_id
 _symmetry_equiv_pos_as_xyz
  1  'x, y, z'
loop_
 _atom_site_type_symbol
 _atom_site_label
 _atom_site_symmetry_multiplicity
 _atom_site_fract_x
 _atom_site_fract_y
 _atom_site_fract_z
 _atom_site_occupancy
  Be  Be0  1  0.840808  0.171187  0.053412  1
  Be  Be1  1  0.840807  0.669620  0.053412  1
  Be  Be2  1  0.981475  0.990737  0.308848  1
  Be  Be3  1  0.681783  0.340891  0.379563  1
  Be  Be4  1  0.167375  0.335061  0.552382  1
  Be  Be5  1  0.167374  0.832317  0.552382  1
  Be  Be6  1  0.660759  0.830380  0.553624  1
  Be  Be7  1  0.986287  0.993144  0.794960  1
  Be  Be8  1  0.327703  0.663850  0.839748  1
  Si  Si9  1  0.341384  0.170692  0.052936  1
  Rh  Rh10  1  0.337403  0.668701  0.239868  1
  Rh  Rh11  1  0.666844  0.333422  0.746999  1
