# generated using pymatgen
data_Ru3RhO8
_symmetry_space_group_name_H-M   'P 1'
_cell_length_a   5.52963213
_cell_length_b   4.54626315
_cell_length_c   5.53097753
_cell_angle_alpha   89.78898852
_cell_angle_beta   110.91517849
_cell_angle_gamma   90.20686934
_symmetry_Int_Tables_number   1
_chemical_formula_structural   Ru3RhO8
_chemical_formula_sum   'Ru3 Rh1 O8'
_cell_volume   129.88124362
_cell_formula_units_Z   1
loop_
 _symmetry_equiv_pos_site_id
 _symmetry_equiv_pos_as_xyz
  1  'x, y, z'
loop_
 _atom_site_type_symbol
 _atom_site_label
 _atom_site_symmetry_multiplicity
 _atom_site_fract_x
 _atom_site_fract_y
 _atom_site_fract_z
 _atom_site_occupancy
  Ru  Ru0  1  0.249996  0.499991  0.249997  1
  Ru  Ru1  1  0.750003  0.500017  0.750004  1
  Ru  Ru2  1  0.250005  0.000013  0.750010  1
  Rh  Rh3  1  0.749995  0.999958  0.249979  1
  O  O4  1  0.399725  0.803391  0.094794  1
  O  O5  1  0.905395  0.688991  0.094513  1
  O  O6  1  0.100278  0.196589  0.405201  1
  O  O7  1  0.594603  0.310986  0.405498  1
  O  O8  1  0.402880  0.696399  0.597352  1
  O  O9  1  0.905182  0.803374  0.600324  1
  O  O10  1  0.097119  0.303629  0.902636  1
  O  O11  1  0.594818  0.196656  0.899692  1
