# generated using pymatgen
data_Rb2Lu7BBr18
_symmetry_space_group_name_H-M   'P 1'
_cell_length_a   10.49205012
_cell_length_b   10.49626143
_cell_length_c   11.33065360
_cell_angle_alpha   117.56776150
_cell_angle_beta   62.40339285
_cell_angle_gamma   120.11246226
_symmetry_Int_Tables_number   1
_chemical_formula_structural   Rb2Lu7BBr18
_chemical_formula_sum   'Rb2 Lu7 B1 Br18'
_cell_volume   912.38913852
_cell_formula_units_Z   1
loop_
 _symmetry_equiv_pos_site_id
 _symmetry_equiv_pos_as_xyz
  1  'x, y, z'
loop_
 _atom_site_type_symbol
 _atom_site_label
 _atom_site_symmetry_multiplicity
 _atom_site_fract_x
 _atom_site_fract_y
 _atom_site_fract_z
 _atom_site_occupancy
  Rb  Rb0  1  0.221611  0.777635  0.333775  1
  Rb  Rb1  1  0.778457  0.222385  0.666220  1
  Lu  Lu2  1  0.778943  0.104785  0.154155  1
  Lu  Lu3  1  0.893127  0.827604  0.154302  1
  Lu  Lu4  1  0.172743  0.220721  0.153787  1
  Lu  Lu5  1  0.500054  0.500017  0.499971  1
  Lu  Lu6  1  0.827237  0.779274  0.846206  1
  Lu  Lu7  1  0.106877  0.172425  0.845690  1
  Lu  Lu8  1  0.221061  0.895210  0.845838  1
  B  B9  1  0.999996  0.000002  0.999999  1
  Br  Br10  1  0.284533  0.425605  0.008559  1
  Br  Br11  1  0.575707  0.868895  0.006442  1
  Br  Br12  1  0.130364  0.715682  0.007621  1
  Br  Br13  1  0.945063  0.346808  0.333497  1
  Br  Br14  1  0.068663  0.054838  0.333619  1
  Br  Br15  1  0.652172  0.932364  0.336321  1
  Br  Br16  1  0.525099  0.213486  0.333335  1
  Br  Br17  1  0.785272  0.644733  0.333805  1
  Br  Br18  1  0.355218  0.475388  0.333389  1
  Br  Br19  1  0.644735  0.524598  0.666653  1
  Br  Br20  1  0.214741  0.355272  0.666202  1
  Br  Br21  1  0.474860  0.786505  0.666683  1
  Br  Br22  1  0.347821  0.067637  0.663681  1
  Br  Br23  1  0.931319  0.945139  0.666377  1
  Br  Br24  1  0.054927  0.653182  0.666504  1
  Br  Br25  1  0.869615  0.284321  0.992391  1
  Br  Br26  1  0.424288  0.131095  0.993555  1
  Br  Br27  1  0.715491  0.574387  0.991419  1
