# generated using pymatgen
data_Y4Al18Cu2Ru3Rh
_symmetry_space_group_name_H-M   'P 1'
_cell_length_a   7.58000083
_cell_length_b   7.58000033
_cell_length_c   9.46680084
_cell_angle_alpha   90.04454412
_cell_angle_beta   90.04454349
_cell_angle_gamma   119.58496470
_symmetry_Int_Tables_number   1
_chemical_formula_structural   Y4Al18Cu2Ru3Rh
_chemical_formula_sum   'Y4 Al18 Cu2 Ru3 Rh1'
_cell_volume   473.01288921
_cell_formula_units_Z   1
loop_
 _symmetry_equiv_pos_site_id
 _symmetry_equiv_pos_as_xyz
  1  'x, y, z'
loop_
 _atom_site_type_symbol
 _atom_site_label
 _atom_site_symmetry_multiplicity
 _atom_site_fract_x
 _atom_site_fract_y
 _atom_site_fract_z
 _atom_site_occupancy
  Y  Y0  1  0.995088  0.673195  0.249417  1
  Y  Y1  1  0.005659  0.327778  0.750563  1
  Y  Y2  1  0.672222  0.994341  0.249437  1
  Y  Y3  1  0.326805  0.004912  0.750583  1
  Al  Al4  1  0.130713  0.130026  0.249742  1
  Al  Al5  1  0.869974  0.869287  0.750258  1
  Al  Al6  1  0.000979  0.340096  0.074808  1
  Al  Al7  1  0.999305  0.659496  0.925324  1
  Al  Al8  1  0.000193  0.661838  0.575726  1
  Al  Al9  1  0.338162  0.999807  0.424274  1
  Al  Al10  1  0.001588  0.339800  0.424666  1
  Al  Al11  1  0.660200  0.998412  0.575334  1
  Al  Al12  1  0.659904  0.999021  0.925192  1
  Al  Al13  1  0.340504  0.000695  0.074676  1
  Al  Al14  1  0.335874  0.338182  0.549755  1
  Al  Al15  1  0.661818  0.664126  0.450245  1
  Al  Al16  1  0.662259  0.661823  0.048094  1
  Al  Al17  1  0.338177  0.337741  0.951906  1
  Al  Al18  1  0.337551  0.551097  0.249892  1
  Al  Al19  1  0.663260  0.449748  0.751109  1
  Al  Al20  1  0.550252  0.336740  0.248891  1
  Al  Al21  1  0.448903  0.662449  0.750108  1
  Cu  Cu22  1  0.000309  0.999691  0.000000  1
  Cu  Cu23  1  0.000415  0.999585  0.500000  1
  Ru  Ru24  1  0.672305  0.327695  0.000000  1
  Ru  Ru25  1  0.328188  0.671812  0.000000  1
  Ru  Ru26  1  0.327563  0.672437  0.500000  1
  Rh  Rh27  1  0.671828  0.328172  0.500000  1
