# generated using pymatgen
data_Dy4Tm12MgNi4Hg3
_symmetry_space_group_name_H-M   'P 1'
_cell_length_a   9.43653411
_cell_length_b   9.41880766
_cell_length_c   9.41880700
_cell_angle_alpha   59.99999880
_cell_angle_beta   60.06211938
_cell_angle_gamma   60.06211723
_symmetry_Int_Tables_number   1
_chemical_formula_structural   Dy4Tm12MgNi4Hg3
_chemical_formula_sum   'Dy4 Tm12 Mg1 Ni4 Hg3'
_cell_volume   592.51106864
_cell_formula_units_Z   1
loop_
 _symmetry_equiv_pos_site_id
 _symmetry_equiv_pos_as_xyz
  1  'x, y, z'
loop_
 _atom_site_type_symbol
 _atom_site_label
 _atom_site_symmetry_multiplicity
 _atom_site_fract_x
 _atom_site_fract_y
 _atom_site_fract_z
 _atom_site_occupancy
  Dy  Dy0  1  0.599728  0.598689  0.598689  1
  Dy  Dy1  1  0.599728  0.598689  0.202894  1
  Dy  Dy2  1  0.599728  0.202894  0.598689  1
  Dy  Dy3  1  0.192742  0.602419  0.602419  1
  Tm  Tm4  1  0.060184  0.438589  0.438589  1
  Tm  Tm5  1  0.434736  0.064336  0.064336  1
  Tm  Tm6  1  0.434736  0.064336  0.436593  1
  Tm  Tm7  1  0.060184  0.438589  0.062638  1
  Tm  Tm8  1  0.434736  0.436593  0.064336  1
  Tm  Tm9  1  0.060184  0.062638  0.438589  1
  Tm  Tm10  1  0.184747  0.815060  0.815060  1
  Tm  Tm11  1  0.814074  0.185444  0.185444  1
  Tm  Tm12  1  0.814074  0.185444  0.815038  1
  Tm  Tm13  1  0.184747  0.815060  0.185133  1
  Tm  Tm14  1  0.814074  0.815038  0.185444  1
  Tm  Tm15  1  0.184747  0.185133  0.815060  1
  Mg  Mg16  1  0.533283  0.822239  0.822239  1
  Ni  Ni17  1  0.388966  0.393396  0.393396  1
  Ni  Ni18  1  0.388966  0.393396  0.824241  1
  Ni  Ni19  1  0.388966  0.824241  0.393396  1
  Ni  Ni20  1  0.823317  0.392228  0.392228  1
  Hg  Hg21  1  0.834451  0.837480  0.837480  1
  Hg  Hg22  1  0.834451  0.837480  0.490589  1
  Hg  Hg23  1  0.834451  0.490589  0.837480  1
