# generated using pymatgen
data_HoCu2(PdO2)4
_symmetry_space_group_name_H-M   'P 1'
_cell_length_a   6.78493582
_cell_length_b   6.78493448
_cell_length_c   6.71316000
_cell_angle_alpha   60.34932159
_cell_angle_beta   60.34932803
_cell_angle_gamma   59.30134477
_symmetry_Int_Tables_number   1
_chemical_formula_structural   HoCu2(PdO2)4
_chemical_formula_sum   'Ho1 Cu2 Pd4 O8'
_cell_volume   218.47773596
_cell_formula_units_Z   1
loop_
 _symmetry_equiv_pos_site_id
 _symmetry_equiv_pos_as_xyz
  1  'x, y, z'
loop_
 _atom_site_type_symbol
 _atom_site_label
 _atom_site_symmetry_multiplicity
 _atom_site_fract_x
 _atom_site_fract_y
 _atom_site_fract_z
 _atom_site_occupancy
  Ho  Ho0  1  0.000000  0.000000  0.000000  1
  Cu  Cu1  1  0.500000  0.500000  0.000000  1
  Cu  Cu2  1  0.000000  0.000000  0.500000  1
  Pd  Pd3  1  0.000000  0.500000  0.500000  1
  Pd  Pd4  1  0.500000  0.000000  0.500000  1
  Pd  Pd5  1  0.500000  0.000000  0.000000  1
  Pd  Pd6  1  0.000000  0.500000  0.000000  1
  O  O7  1  0.135107  0.135107  0.153338  1
  O  O8  1  0.864893  0.864893  0.423552  1
  O  O9  1  0.135107  0.135107  0.576448  1
  O  O10  1  0.846662  0.423552  0.864893  1
  O  O11  1  0.576448  0.153338  0.135107  1
  O  O12  1  0.153338  0.576448  0.135107  1
  O  O13  1  0.423552  0.846662  0.864893  1
  O  O14  1  0.864893  0.864893  0.846662  1
