# generated using pymatgen
data_Y2Co9Si(As2Ru)3
_symmetry_space_group_name_H-M   'P 1'
_cell_length_a   3.79863500
_cell_length_b   9.36174476
_cell_length_c   9.36174400
_cell_angle_alpha   120.00000345
_cell_angle_beta   90.00000000
_cell_angle_gamma   90.00000000
_symmetry_Int_Tables_number   1
_chemical_formula_structural   Y2Co9Si(As2Ru)3
_chemical_formula_sum   'Y2 Co9 Si1 As6 Ru3'
_cell_volume   288.31798834
_cell_formula_units_Z   1
loop_
 _symmetry_equiv_pos_site_id
 _symmetry_equiv_pos_as_xyz
  1  'x, y, z'
loop_
 _atom_site_type_symbol
 _atom_site_label
 _atom_site_symmetry_multiplicity
 _atom_site_fract_x
 _atom_site_fract_y
 _atom_site_fract_z
 _atom_site_occupancy
  Y  Y0  1  0.000000  0.666667  0.333333  1
  Y  Y1  1  0.500000  0.333333  0.666667  1
  Co  Co2  1  0.000000  0.570075  0.941711  1
  Co  Co3  1  0.000000  0.371637  0.429925  1
  Co  Co4  1  0.000000  0.058289  0.628363  1
  Co  Co5  1  0.000000  0.877425  0.157530  1
  Co  Co6  1  0.000000  0.280105  0.122575  1
  Co  Co7  1  0.000000  0.842470  0.719895  1
  Co  Co8  1  0.500000  0.947482  0.382394  1
  Co  Co9  1  0.500000  0.434912  0.052518  1
  Co  Co10  1  0.500000  0.617606  0.565088  1
  Si  Si11  1  0.000000  0.000000  0.000000  1
  As  As12  1  0.500000  0.708809  0.116039  1
  As  As13  1  0.500000  0.407230  0.291191  1
  As  As14  1  0.500000  0.883961  0.592770  1
  As  As15  1  0.000000  0.588830  0.702263  1
  As  As16  1  0.000000  0.113435  0.411170  1
  As  As17  1  0.000000  0.297737  0.886565  1
  Ru  Ru18  1  0.500000  0.790821  0.904111  1
  Ru  Ru19  1  0.500000  0.113290  0.209179  1
  Ru  Ru20  1  0.500000  0.095889  0.886710  1
