# generated using pymatgen
data_Na2YIrO6
_symmetry_space_group_name_H-M   'P 1'
_cell_length_a   5.75997400
_cell_length_b   5.65443393
_cell_length_c   9.83039856
_cell_angle_alpha   55.22728771
_cell_angle_beta   90.00000000
_cell_angle_gamma   90.00000000
_symmetry_Int_Tables_number   1
_chemical_formula_structural   Na2YIrO6
_chemical_formula_sum   'Na4 Y2 Ir2 O12'
_cell_volume   262.99442639
_cell_formula_units_Z   2
loop_
 _symmetry_equiv_pos_site_id
 _symmetry_equiv_pos_as_xyz
  1  'x, y, z'
loop_
 _atom_site_type_symbol
 _atom_site_label
 _atom_site_symmetry_multiplicity
 _atom_site_fract_x
 _atom_site_fract_y
 _atom_site_fract_z
 _atom_site_occupancy
  Na  Na0  1  0.968100  0.741342  0.250635  1
  Na  Na1  1  0.468100  0.258658  0.249365  1
  Na  Na2  1  0.031900  0.258658  0.749365  1
  Na  Na3  1  0.531900  0.741342  0.750635  1
  Y  Y4  1  0.500000  0.000000  0.000000  1
  Y  Y5  1  0.000000  0.000000  0.500000  1
  Ir  Ir6  1  0.000000  0.500000  0.000000  1
  Ir  Ir7  1  0.500000  0.500000  0.500000  1
  O  O8  1  0.520078  0.812745  0.271155  1
  O  O9  1  0.020078  0.187255  0.228845  1
  O  O10  1  0.479922  0.187255  0.728845  1
  O  O11  1  0.979922  0.812745  0.771155  1
  O  O12  1  0.771831  0.638496  0.545458  1
  O  O13  1  0.271831  0.361504  0.954542  1
  O  O14  1  0.228169  0.361504  0.454542  1
  O  O15  1  0.728169  0.638496  0.045458  1
  O  O16  1  0.189450  0.730227  0.041912  1
  O  O17  1  0.689450  0.269773  0.458088  1
  O  O18  1  0.810550  0.269773  0.958088  1
  O  O19  1  0.310550  0.730227  0.541912  1
