# generated using pymatgen
data_La7PaAl8(PtRh)4
_symmetry_space_group_name_H-M   'P 1'
_cell_length_a   4.27790400
_cell_length_b   7.35175704
_cell_length_c   16.35246687
_cell_angle_alpha   89.88638628
_cell_angle_beta   90.00000000
_cell_angle_gamma   90.00000000
_symmetry_Int_Tables_number   1
_chemical_formula_structural   La7PaAl8(PtRh)4
_chemical_formula_sum   'La7 Pa1 Al8 Pt4 Rh4'
_cell_volume   514.28588468
_cell_formula_units_Z   1
loop_
 _symmetry_equiv_pos_site_id
 _symmetry_equiv_pos_as_xyz
  1  'x, y, z'
loop_
 _atom_site_type_symbol
 _atom_site_label
 _atom_site_symmetry_multiplicity
 _atom_site_fract_x
 _atom_site_fract_y
 _atom_site_fract_z
 _atom_site_occupancy
  La  La0  1  0.750000  0.474913  0.219282  1
  La  La1  1  0.750000  0.973899  0.280215  1
  La  La2  1  0.250000  0.029012  0.721439  1
  La  La3  1  0.250000  0.651735  0.559441  1
  La  La4  1  0.750000  0.340617  0.443792  1
  La  La5  1  0.750000  0.849109  0.055645  1
  La  La6  1  0.250000  0.162112  0.940972  1
  Pa  Pa7  1  0.250000  0.531554  0.780603  1
  Al  Al8  1  0.250000  0.652473  0.352327  1
  Al  Al9  1  0.750000  0.347315  0.650747  1
  Al  Al10  1  0.750000  0.843365  0.850789  1
  Al  Al11  1  0.250000  0.152787  0.146476  1
  Al  Al12  1  0.250000  0.505483  0.059756  1
  Al  Al13  1  0.750000  0.497364  0.939661  1
  Al  Al14  1  0.750000  0.990354  0.562090  1
  Al  Al15  1  0.250000  0.000963  0.440946  1
  Pt  Pt16  1  0.250000  0.765615  0.178539  1
  Pt  Pt17  1  0.750000  0.267082  0.814331  1
  Pt  Pt18  1  0.750000  0.720841  0.690792  1
  Pt  Pt19  1  0.250000  0.263929  0.320035  1
  Rh  Rh20  1  0.250000  0.701198  0.918075  1
  Rh  Rh21  1  0.750000  0.286139  0.071392  1
  Rh  Rh22  1  0.750000  0.782423  0.428675  1
  Rh  Rh23  1  0.250000  0.209714  0.573977  1
