# generated using pymatgen
data_La2Nd3DyTa2O14
_symmetry_space_group_name_H-M   'P 1'
_cell_length_a   6.67852139
_cell_length_b   6.66314296
_cell_length_c   7.72806500
_cell_angle_alpha   90.00000000
_cell_angle_beta   90.00000000
_cell_angle_gamma   108.84890620
_symmetry_Int_Tables_number   1
_chemical_formula_structural   La2Nd3DyTa2O14
_chemical_formula_sum   'La2 Nd3 Dy1 Ta2 O14'
_cell_volume   325.45649630
_cell_formula_units_Z   1
loop_
 _symmetry_equiv_pos_site_id
 _symmetry_equiv_pos_as_xyz
  1  'x, y, z'
loop_
 _atom_site_type_symbol
 _atom_site_label
 _atom_site_symmetry_multiplicity
 _atom_site_fract_x
 _atom_site_fract_y
 _atom_site_fract_z
 _atom_site_occupancy
  La  La0  1  0.521022  0.516952  0.498792  1
  La  La1  1  0.521022  0.516952  0.001208  1
  Nd  Nd2  1  0.004870  0.463147  0.750000  1
  Nd  Nd3  1  0.532803  0.002911  0.750000  1
  Nd  Nd4  1  0.462266  0.002595  0.250000  1
  Dy  Dy5  1  0.003223  0.529979  0.250000  1
  Ta  Ta6  1  0.999775  0.000100  0.497997  1
  Ta  Ta7  1  0.999775  0.000100  0.002003  1
  O  O8  1  0.944641  0.056821  0.750000  1
  O  O9  1  0.057684  0.937304  0.250000  1
  O  O10  1  0.353522  0.636761  0.250000  1
  O  O11  1  0.642466  0.367381  0.750000  1
  O  O12  1  0.371417  0.632575  0.750000  1
  O  O13  1  0.644655  0.375686  0.250000  1
  O  O14  1  0.309973  0.069855  0.969985  1
  O  O15  1  0.681297  0.923769  0.472047  1
  O  O16  1  0.309973  0.069855  0.530015  1
  O  O17  1  0.681297  0.923769  0.027953  1
  O  O18  1  0.043953  0.303701  0.459783  1
  O  O19  1  0.935206  0.683043  0.975804  1
  O  O20  1  0.935206  0.683043  0.524196  1
  O  O21  1  0.043953  0.303701  0.040217  1
