# generated using pymatgen
data_CePrSc2(Zn4Ru)2
_symmetry_space_group_name_H-M   'P 1'
_cell_length_a   6.96678600
_cell_length_b   6.96678600
_cell_length_c   5.13079900
_cell_angle_alpha   90.00000000
_cell_angle_beta   90.00000000
_cell_angle_gamma   90.00000000
_symmetry_Int_Tables_number   1
_chemical_formula_structural   CePrSc2(Zn4Ru)2
_chemical_formula_sum   'Ce1 Pr1 Sc2 Zn8 Ru2'
_cell_volume   249.02901013
_cell_formula_units_Z   1
loop_
 _symmetry_equiv_pos_site_id
 _symmetry_equiv_pos_as_xyz
  1  'x, y, z'
loop_
 _atom_site_type_symbol
 _atom_site_label
 _atom_site_symmetry_multiplicity
 _atom_site_fract_x
 _atom_site_fract_y
 _atom_site_fract_z
 _atom_site_occupancy
  Ce  Ce0  1  0.500000  0.000000  0.235029  1
  Pr  Pr1  1  0.000000  0.500000  0.766561  1
  Sc  Sc2  1  0.000000  0.000000  0.000612  1
  Sc  Sc3  1  0.500000  0.500000  0.000612  1
  Zn  Zn4  1  0.190673  0.690673  0.276537  1
  Zn  Zn5  1  0.809327  0.690673  0.276537  1
  Zn  Zn6  1  0.809327  0.309327  0.276537  1
  Zn  Zn7  1  0.310705  0.189295  0.723871  1
  Zn  Zn8  1  0.190673  0.309327  0.276537  1
  Zn  Zn9  1  0.689295  0.189295  0.723871  1
  Zn  Zn10  1  0.689295  0.810705  0.723871  1
  Zn  Zn11  1  0.310705  0.810705  0.723871  1
  Ru  Ru12  1  0.500000  0.500000  0.497776  1
  Ru  Ru13  1  0.000000  0.000000  0.497776  1
