# generated using pymatgen
data_YMn5P3
_symmetry_space_group_name_H-M   'P 1'
_cell_length_a   3.61248200
_cell_length_b   10.72679400
_cell_length_c   12.23284700
_cell_angle_alpha   90.00000000
_cell_angle_beta   90.00000000
_cell_angle_gamma   90.00000000
_symmetry_Int_Tables_number   1
_chemical_formula_structural   YMn5P3
_chemical_formula_sum   'Y4 Mn20 P12'
_cell_volume   474.02710572
_cell_formula_units_Z   4
loop_
 _symmetry_equiv_pos_site_id
 _symmetry_equiv_pos_as_xyz
  1  'x, y, z'
loop_
 _atom_site_type_symbol
 _atom_site_label
 _atom_site_symmetry_multiplicity
 _atom_site_fract_x
 _atom_site_fract_y
 _atom_site_fract_z
 _atom_site_occupancy
  Y  Y0  1  0.250000  0.587584  0.705819  1
  Y  Y1  1  0.250000  0.912416  0.205819  1
  Y  Y2  1  0.750000  0.412483  0.294207  1
  Y  Y3  1  0.750000  0.087517  0.794207  1
  Mn  Mn4  1  0.250000  0.717850  0.982265  1
  Mn  Mn5  1  0.250000  0.782150  0.482265  1
  Mn  Mn6  1  0.750000  0.281747  0.017669  1
  Mn  Mn7  1  0.750000  0.218253  0.517669  1
  Mn  Mn8  1  0.250000  0.409954  0.493418  1
  Mn  Mn9  1  0.250000  0.090046  0.993418  1
  Mn  Mn10  1  0.750000  0.590509  0.506611  1
  Mn  Mn11  1  0.750000  0.909491  0.006611  1
  Mn  Mn12  1  0.250000  0.211319  0.180757  1
  Mn  Mn13  1  0.250000  0.288681  0.680757  1
  Mn  Mn14  1  0.750000  0.788516  0.819276  1
  Mn  Mn15  1  0.750000  0.711484  0.319276  1
  Mn  Mn16  1  0.250000  0.883319  0.692197  1
  Mn  Mn17  1  0.250000  0.616681  0.192197  1
  Mn  Mn18  1  0.750000  0.116961  0.307722  1
  Mn  Mn19  1  0.750000  0.383039  0.807722  1
  Mn  Mn20  1  0.250000  0.466680  0.934763  1
  Mn  Mn21  1  0.250000  0.033320  0.434763  1
  Mn  Mn22  1  0.750000  0.532885  0.065303  1
  Mn  Mn23  1  0.750000  0.967115  0.565303  1
  P  P24  1  0.250000  0.409994  0.115119  1
  P  P25  1  0.250000  0.090006  0.615119  1
  P  P26  1  0.750000  0.589690  0.884887  1
  P  P27  1  0.750000  0.910310  0.384887  1
  P  P28  1  0.250000  0.265323  0.875603  1
  P  P29  1  0.250000  0.234677  0.375603  1
  P  P30  1  0.750000  0.734334  0.124409  1
  P  P31  1  0.750000  0.765666  0.624409  1
  P  P32  1  0.250000  0.591197  0.383143  1
  P  P33  1  0.250000  0.908803  0.883143  1
  P  P34  1  0.750000  0.409054  0.616833  1
  P  P35  1  0.750000  0.090946  0.116833  1
