# generated using pymatgen
data_Tm2Sn(PRh2)6
_symmetry_space_group_name_H-M   'P 1'
_cell_length_a   9.76524700
_cell_length_b   9.76524590
_cell_length_c   3.86309700
_cell_angle_alpha   90.00000000
_cell_angle_beta   90.00000000
_cell_angle_gamma   120.00000032
_symmetry_Int_Tables_number   1
_chemical_formula_structural   Tm2Sn(PRh2)6
_chemical_formula_sum   'Tm2 Sn1 P6 Rh12'
_cell_volume   319.03083469
_cell_formula_units_Z   1
loop_
 _symmetry_equiv_pos_site_id
 _symmetry_equiv_pos_as_xyz
  1  'x, y, z'
loop_
 _atom_site_type_symbol
 _atom_site_label
 _atom_site_symmetry_multiplicity
 _atom_site_fract_x
 _atom_site_fract_y
 _atom_site_fract_z
 _atom_site_occupancy
  Tm  Tm0  1  0.333333  0.666667  0.751835  1
  Tm  Tm1  1  0.666667  0.333333  0.248165  1
  Sn  Sn2  1  0.000000  0.000000  0.500000  1
  P  P3  1  0.406680  0.287614  0.746578  1
  P  P4  1  0.712386  0.119066  0.746578  1
  P  P5  1  0.880934  0.593320  0.746578  1
  P  P6  1  0.593320  0.712386  0.253422  1
  P  P7  1  0.287614  0.880934  0.253422  1
  P  P8  1  0.119066  0.406680  0.253422  1
  Rh  Rh9  1  0.454888  0.068977  0.747498  1
  Rh  Rh10  1  0.931023  0.385910  0.747498  1
  Rh  Rh11  1  0.614090  0.545112  0.747498  1
  Rh  Rh12  1  0.545112  0.931023  0.252502  1
  Rh  Rh13  1  0.068977  0.614090  0.252502  1
  Rh  Rh14  1  0.385910  0.454888  0.252502  1
  Rh  Rh15  1  0.161811  0.287913  0.758552  1
  Rh  Rh16  1  0.712087  0.873899  0.758552  1
  Rh  Rh17  1  0.126101  0.838189  0.758552  1
  Rh  Rh18  1  0.838189  0.712087  0.241448  1
  Rh  Rh19  1  0.287913  0.126101  0.241448  1
  Rh  Rh20  1  0.873899  0.161811  0.241448  1
