# generated using pymatgen
data_Li4Pr3Nd(Si2Pb)2
_symmetry_space_group_name_H-M   'P 1'
_cell_length_a   9.91267767
_cell_length_b   9.91267734
_cell_length_c   6.93574700
_cell_angle_alpha   90.00000000
_cell_angle_beta   90.00000000
_cell_angle_gamma   153.31449332
_symmetry_Int_Tables_number   1
_chemical_formula_structural   Li4Pr3Nd(Si2Pb)2
_chemical_formula_sum   'Li4 Pr3 Nd1 Si4 Pb2'
_cell_volume   306.06345991
_cell_formula_units_Z   1
loop_
 _symmetry_equiv_pos_site_id
 _symmetry_equiv_pos_as_xyz
  1  'x, y, z'
loop_
 _atom_site_type_symbol
 _atom_site_label
 _atom_site_symmetry_multiplicity
 _atom_site_fract_x
 _atom_site_fract_y
 _atom_site_fract_z
 _atom_site_occupancy
  Li  Li0  1  0.182754  0.817246  0.053926  1
  Li  Li1  1  0.182754  0.817246  0.446074  1
  Li  Li2  1  0.817266  0.182734  0.946050  1
  Li  Li3  1  0.817266  0.182734  0.553950  1
  Pr  Pr4  1  0.351872  0.648128  0.250000  1
  Pr  Pr5  1  0.648117  0.351883  0.750000  1
  Pr  Pr6  1  0.548126  0.451874  0.250000  1
  Nd  Nd7  1  0.451889  0.548111  0.750000  1
  Si  Si8  1  0.056314  0.943686  0.924684  1
  Si  Si9  1  0.943613  0.056387  0.074869  1
  Si  Si10  1  0.943613  0.056387  0.425131  1
  Si  Si11  1  0.056314  0.943686  0.575316  1
  Pb  Pb12  1  0.719454  0.280546  0.250000  1
  Pb  Pb13  1  0.280649  0.719351  0.750000  1
