# generated using pymatgen
data_Ba2Yb(ErSn2)2
_symmetry_space_group_name_H-M   'P 1'
_cell_length_a   8.22957700
_cell_length_b   8.73485800
_cell_length_c   16.57819400
_cell_angle_alpha   90.00000000
_cell_angle_beta   90.00000000
_cell_angle_gamma   90.00000000
_symmetry_Int_Tables_number   1
_chemical_formula_structural   Ba2Yb(ErSn2)2
_chemical_formula_sum   'Ba8 Yb4 Er8 Sn16'
_cell_volume   1191.70998925
_cell_formula_units_Z   4
loop_
 _symmetry_equiv_pos_site_id
 _symmetry_equiv_pos_as_xyz
  1  'x, y, z'
loop_
 _atom_site_type_symbol
 _atom_site_label
 _atom_site_symmetry_multiplicity
 _atom_site_fract_x
 _atom_site_fract_y
 _atom_site_fract_z
 _atom_site_occupancy
  Ba  Ba0  1  0.502448  0.676979  0.595283  1
  Ba  Ba1  1  0.002448  0.823021  0.904717  1
  Ba  Ba2  1  0.497552  0.323021  0.095283  1
  Ba  Ba3  1  0.997552  0.176979  0.404717  1
  Ba  Ba4  1  0.497552  0.323021  0.404717  1
  Ba  Ba5  1  0.997552  0.176979  0.095283  1
  Ba  Ba6  1  0.502448  0.676979  0.904717  1
  Ba  Ba7  1  0.002448  0.823021  0.595283  1
  Yb  Yb8  1  0.830929  0.502963  0.750000  1
  Yb  Yb9  1  0.330929  0.997037  0.750000  1
  Yb  Yb10  1  0.169071  0.497037  0.250000  1
  Yb  Yb11  1  0.669071  0.002963  0.250000  1
  Er  Er12  1  0.667288  0.169815  0.623087  1
  Er  Er13  1  0.167288  0.330185  0.876913  1
  Er  Er14  1  0.332712  0.830185  0.123087  1
  Er  Er15  1  0.832712  0.669815  0.376913  1
  Er  Er16  1  0.332712  0.830185  0.376913  1
  Er  Er17  1  0.832712  0.669815  0.123087  1
  Er  Er18  1  0.667288  0.169815  0.876913  1
  Er  Er19  1  0.167288  0.330185  0.623087  1
  Sn  Sn20  1  0.657816  0.956141  0.458873  1
  Sn  Sn21  1  0.157816  0.543859  0.041127  1
  Sn  Sn22  1  0.342184  0.043859  0.958873  1
  Sn  Sn23  1  0.842184  0.456141  0.541127  1
  Sn  Sn24  1  0.342184  0.043859  0.541127  1
  Sn  Sn25  1  0.842184  0.456141  0.958873  1
  Sn  Sn26  1  0.657816  0.956141  0.041127  1
  Sn  Sn27  1  0.157816  0.543859  0.458873  1
  Sn  Sn28  1  0.463542  0.362369  0.750000  1
  Sn  Sn29  1  0.963542  0.137631  0.750000  1
  Sn  Sn30  1  0.536458  0.637631  0.250000  1
  Sn  Sn31  1  0.036458  0.862369  0.250000  1
  Sn  Sn32  1  0.709266  0.897220  0.750000  1
  Sn  Sn33  1  0.209266  0.602780  0.750000  1
  Sn  Sn34  1  0.290734  0.102780  0.250000  1
  Sn  Sn35  1  0.790734  0.397220  0.250000  1
