# generated using pymatgen
data_ThReSiMoC
_symmetry_space_group_name_H-M   'P 1'
_cell_length_a   5.94401432
_cell_length_b   5.94401502
_cell_length_c   7.54762730
_cell_angle_alpha   88.53239433
_cell_angle_beta   91.46760725
_cell_angle_gamma   140.99841381
_symmetry_Int_Tables_number   1
_chemical_formula_structural   ThReSiMoC
_chemical_formula_sum   'Th2 Re2 Si2 Mo2 C2'
_cell_volume   167.76311434
_cell_formula_units_Z   2
loop_
 _symmetry_equiv_pos_site_id
 _symmetry_equiv_pos_as_xyz
  1  'x, y, z'
loop_
 _atom_site_type_symbol
 _atom_site_label
 _atom_site_symmetry_multiplicity
 _atom_site_fract_x
 _atom_site_fract_y
 _atom_site_fract_z
 _atom_site_occupancy
  Th  Th0  1  0.540236  0.459764  0.251401  1
  Th  Th1  1  0.459764  0.540236  0.748599  1
  Re  Re2  1  0.170552  0.829448  0.561616  1
  Re  Re3  1  0.829448  0.170552  0.438384  1
  Si  Si4  1  0.262771  0.737229  0.264449  1
  Si  Si5  1  0.737229  0.262771  0.735551  1
  Mo  Mo6  1  0.822328  0.177672  0.059383  1
  Mo  Mo7  1  0.177672  0.822328  0.940617  1
  C  C8  1  0.000000  0.000000  0.000000  1
  C  C9  1  0.000000  0.000000  0.500000  1
