# generated using pymatgen
data_TaNb23(GeAs5)2
_symmetry_space_group_name_H-M   'P 1'
_cell_length_a   3.52439400
_cell_length_b   12.05275850
_cell_length_c   14.87893152
_cell_angle_alpha   89.78747792
_cell_angle_beta   90.00000000
_cell_angle_gamma   90.00000000
_symmetry_Int_Tables_number   1
_chemical_formula_structural   TaNb23(GeAs5)2
_chemical_formula_sum   'Ta1 Nb23 Ge2 As10'
_cell_volume   632.03287022
_cell_formula_units_Z   1
loop_
 _symmetry_equiv_pos_site_id
 _symmetry_equiv_pos_as_xyz
  1  'x, y, z'
loop_
 _atom_site_type_symbol
 _atom_site_label
 _atom_site_symmetry_multiplicity
 _atom_site_fract_x
 _atom_site_fract_y
 _atom_site_fract_z
 _atom_site_occupancy
  Ta  Ta0  1  0.500000  0.027619  0.390472  1
  Nb  Nb1  1  0.000000  0.186634  0.296211  1
  Nb  Nb2  1  0.000000  0.527254  0.109499  1
  Nb  Nb3  1  0.500000  0.912651  0.078736  1
  Nb  Nb4  1  0.000000  0.886276  0.926937  1
  Nb  Nb5  1  0.000000  0.857548  0.476584  1
  Nb  Nb6  1  0.500000  0.688848  0.203842  1
  Nb  Nb7  1  0.500000  0.386285  0.572822  1
  Nb  Nb8  1  0.000000  0.586764  0.578076  1
  Nb  Nb9  1  0.500000  0.613710  0.427173  1
  Nb  Nb10  1  0.000000  0.085731  0.758670  1
  Nb  Nb11  1  0.500000  0.643131  0.977184  1
  Nb  Nb12  1  0.000000  0.142624  0.522772  1
  Nb  Nb13  1  0.000000  0.413116  0.421939  1
  Nb  Nb14  1  0.500000  0.414083  0.258993  1
  Nb  Nb15  1  0.500000  0.585853  0.740964  1
  Nb  Nb16  1  0.500000  0.972465  0.609625  1
  Nb  Nb17  1  0.500000  0.356802  0.022726  1
  Nb  Nb18  1  0.000000  0.113552  0.073166  1
  Nb  Nb19  1  0.500000  0.087226  0.921416  1
  Nb  Nb20  1  0.000000  0.472715  0.890618  1
  Nb  Nb21  1  0.000000  0.813160  0.703896  1
  Nb  Nb22  1  0.500000  0.310960  0.796028  1
  Nb  Nb23  1  0.000000  0.915124  0.242157  1
  Ge  Ge24  1  0.500000  0.746197  0.582928  1
  Ge  Ge25  1  0.500000  0.253946  0.416852  1
  As  As26  1  0.000000  0.425549  0.703679  1
  As  As27  1  0.000000  0.246055  0.916997  1
  As  As28  1  0.000000  0.310880  0.151857  1
  As  As29  1  0.000000  0.574421  0.296320  1
  As  As30  1  0.500000  0.189004  0.650927  1
  As  As31  1  0.000000  0.753818  0.082956  1
  As  As32  1  0.500000  0.810779  0.348911  1
  As  As33  1  0.000000  0.689076  0.848055  1
  As  As34  1  0.500000  0.074455  0.203672  1
  As  As35  1  0.500000  0.925685  0.796339  1
