# generated using pymatgen
data_Tb3CoSn3IrPd
_symmetry_space_group_name_H-M   'P 1'
_cell_length_a   7.57827500
_cell_length_b   7.57827554
_cell_length_c   3.82527200
_cell_angle_alpha   90.00000000
_cell_angle_beta   90.00000000
_cell_angle_gamma   120.00000201
_symmetry_Int_Tables_number   1
_chemical_formula_structural   Tb3CoSn3IrPd
_chemical_formula_sum   'Tb3 Co1 Sn3 Ir1 Pd1'
_cell_volume   190.25395649
_cell_formula_units_Z   1
loop_
 _symmetry_equiv_pos_site_id
 _symmetry_equiv_pos_as_xyz
  1  'x, y, z'
loop_
 _atom_site_type_symbol
 _atom_site_label
 _atom_site_symmetry_multiplicity
 _atom_site_fract_x
 _atom_site_fract_y
 _atom_site_fract_z
 _atom_site_occupancy
  Tb  Tb0  1  0.601808  0.012112  0.000000  1
  Tb  Tb1  1  0.987888  0.589696  0.000000  1
  Tb  Tb2  1  0.410304  0.398192  0.000000  1
  Co  Co3  1  0.000000  0.000000  0.000000  1
  Sn  Sn4  1  0.250308  0.997505  0.500000  1
  Sn  Sn5  1  0.002495  0.252802  0.500000  1
  Sn  Sn6  1  0.747198  0.749692  0.500000  1
  Ir  Ir7  1  0.666667  0.333333  0.500000  1
  Pd  Pd8  1  0.333333  0.666667  0.500000  1
