# generated using pymatgen
data_Y4Ho12MgHg3Ir4
_symmetry_space_group_name_H-M   'P 1'
_cell_length_a   9.60927634
_cell_length_b   9.59742778
_cell_length_c   9.59742839
_cell_angle_alpha   60.01874469
_cell_angle_beta   60.02160051
_cell_angle_gamma   60.02159910
_symmetry_Int_Tables_number   1
_chemical_formula_structural   Y4Ho12MgHg3Ir4
_chemical_formula_sum   'Y4 Ho12 Mg1 Hg3 Ir4'
_cell_volume   626.16480862
_cell_formula_units_Z   1
loop_
 _symmetry_equiv_pos_site_id
 _symmetry_equiv_pos_as_xyz
  1  'x, y, z'
loop_
 _atom_site_type_symbol
 _atom_site_label
 _atom_site_symmetry_multiplicity
 _atom_site_fract_x
 _atom_site_fract_y
 _atom_site_fract_z
 _atom_site_occupancy
  Y  Y0  1  0.811193  0.188051  0.812775  1
  Y  Y1  1  0.186501  0.812188  0.189120  1
  Y  Y2  1  0.811193  0.812775  0.188051  1
  Y  Y3  1  0.186501  0.189120  0.812188  1
  Ho  Ho4  1  0.599838  0.598087  0.598087  1
  Ho  Ho5  1  0.600182  0.597732  0.203993  1
  Ho  Ho6  1  0.600182  0.203993  0.597732  1
  Ho  Ho7  1  0.193930  0.602133  0.602133  1
  Ho  Ho8  1  0.058930  0.440693  0.440693  1
  Ho  Ho9  1  0.437160  0.062133  0.062133  1
  Ho  Ho10  1  0.437213  0.062053  0.438702  1
  Ho  Ho11  1  0.058863  0.440761  0.059609  1
  Ho  Ho12  1  0.437213  0.438702  0.062053  1
  Ho  Ho13  1  0.058863  0.059609  0.440761  1
  Ho  Ho14  1  0.186751  0.811619  0.811619  1
  Ho  Ho15  1  0.810743  0.188512  0.188512  1
  Mg  Mg16  1  0.535311  0.821523  0.821523  1
  Hg  Hg17  1  0.831746  0.836477  0.836477  1
  Hg  Hg18  1  0.831501  0.836815  0.495218  1
  Hg  Hg19  1  0.831501  0.495218  0.836815  1
  Ir  Ir20  1  0.390178  0.392843  0.392843  1
  Ir  Ir21  1  0.389763  0.393285  0.824131  1
  Ir  Ir22  1  0.389763  0.824131  0.393285  1
  Ir  Ir23  1  0.824982  0.391545  0.391545  1
