# generated using pymatgen
data_Ho8Hf12Si15Au
_symmetry_space_group_name_H-M   'P 1'
_cell_length_a   7.27113830
_cell_length_b   7.30909169
_cell_length_c   13.38539400
_cell_angle_alpha   89.93672119
_cell_angle_beta   89.96627592
_cell_angle_gamma   89.97650060
_symmetry_Int_Tables_number   1
_chemical_formula_structural   Ho8Hf12Si15Au
_chemical_formula_sum   'Ho8 Hf12 Si15 Au1'
_cell_volume   711.37172313
_cell_formula_units_Z   1
loop_
 _symmetry_equiv_pos_site_id
 _symmetry_equiv_pos_as_xyz
  1  'x, y, z'
loop_
 _atom_site_type_symbol
 _atom_site_label
 _atom_site_symmetry_multiplicity
 _atom_site_fract_x
 _atom_site_fract_y
 _atom_site_fract_z
 _atom_site_occupancy
  Ho  Ho0  1  0.991530  0.347116  0.213824  1
  Ho  Ho1  1  0.004363  0.655224  0.715417  1
  Ho  Ho2  1  0.154635  0.498701  0.466848  1
  Ho  Ho3  1  0.504485  0.843108  0.033443  1
  Ho  Ho4  1  0.844201  0.502688  0.964893  1
  Ho  Ho5  1  0.497354  0.153935  0.537723  1
  Ho  Ho6  1  0.343379  0.997661  0.784919  1
  Ho  Ho7  1  0.662232  0.996919  0.283648  1
  Hf  Hf8  1  0.174927  0.176415  0.998883  1
  Hf  Hf9  1  0.826376  0.825118  0.500588  1
  Hf  Hf10  1  0.325241  0.680525  0.249156  1
  Hf  Hf11  1  0.675360  0.324590  0.750232  1
  Hf  Hf12  1  0.146392  0.997678  0.374701  1
  Hf  Hf13  1  0.851343  0.003045  0.874605  1
  Hf  Hf14  1  0.504070  0.649986  0.624976  1
  Hf  Hf15  1  0.351373  0.496003  0.874857  1
  Hf  Hf16  1  0.495531  0.350668  0.121752  1
  Hf  Hf17  1  0.652116  0.509452  0.380131  1
  Hf  Hf18  1  0.996331  0.148263  0.626563  1
  Hf  Hf19  1  0.000794  0.849611  0.123577  1
  Si  Si20  1  0.638063  0.706073  0.818405  1
  Si  Si21  1  0.204879  0.862440  0.568231  1
  Si  Si22  1  0.138257  0.795531  0.931710  1
  Si  Si23  1  0.795192  0.138061  0.066725  1
  Si  Si24  1  0.859579  0.200970  0.434811  1
  Si  Si25  1  0.295592  0.362448  0.682565  1
  Si  Si26  1  0.704542  0.638805  0.181415  1
  Si  Si27  1  0.293180  0.044911  0.181783  1
  Si  Si28  1  0.704492  0.950789  0.685839  1
  Si  Si29  1  0.448786  0.795659  0.435763  1
  Si  Si30  1  0.203847  0.549615  0.063730  1
  Si  Si31  1  0.548508  0.203747  0.934545  1
  Si  Si32  1  0.795560  0.450138  0.566630  1
  Si  Si33  1  0.047985  0.296475  0.814999  1
  Si  Si34  1  0.951763  0.703824  0.313509  1
  Au  Au35  1  0.367743  0.293807  0.318604  1
