# generated using pymatgen
data_Dy3HoTcB12Ru
_symmetry_space_group_name_H-M   'P 1'
_cell_length_a   3.67339200
_cell_length_b   9.15263244
_cell_length_c   11.54045901
_cell_angle_alpha   89.85958015
_cell_angle_beta   90.00000000
_cell_angle_gamma   90.00000000
_symmetry_Int_Tables_number   1
_chemical_formula_structural   Dy3HoTcB12Ru
_chemical_formula_sum   'Dy6 Ho2 Tc2 B24 Ru2'
_cell_volume   388.00299334
_cell_formula_units_Z   2
loop_
 _symmetry_equiv_pos_site_id
 _symmetry_equiv_pos_as_xyz
  1  'x, y, z'
loop_
 _atom_site_type_symbol
 _atom_site_label
 _atom_site_symmetry_multiplicity
 _atom_site_fract_x
 _atom_site_fract_y
 _atom_site_fract_z
 _atom_site_occupancy
  Dy  Dy0  1  0.000000  0.325234  0.415483  1
  Dy  Dy1  1  0.000000  0.674766  0.584517  1
  Dy  Dy2  1  0.000000  0.821309  0.087267  1
  Dy  Dy3  1  0.000000  0.178691  0.912733  1
  Dy  Dy4  1  0.000000  0.942085  0.370345  1
  Dy  Dy5  1  0.000000  0.057915  0.629655  1
  Ho  Ho6  1  0.000000  0.443034  0.130031  1
  Ho  Ho7  1  0.000000  0.556966  0.869969  1
  Tc  Tc8  1  0.000000  0.638166  0.319932  1
  Tc  Tc9  1  0.000000  0.361834  0.680068  1
  B  B10  1  0.500000  0.553086  0.432797  1
  B  B11  1  0.500000  0.446914  0.567203  1
  B  B12  1  0.500000  0.053979  0.067087  1
  B  B13  1  0.500000  0.946021  0.932913  1
  B  B14  1  0.500000  0.748029  0.418753  1
  B  B15  1  0.500000  0.251971  0.581247  1
  B  B16  1  0.500000  0.248689  0.081240  1
  B  B17  1  0.500000  0.751311  0.918760  1
  B  B18  1  0.500000  0.791049  0.265195  1
  B  B19  1  0.500000  0.208951  0.734805  1
  B  B20  1  0.500000  0.290754  0.234032  1
  B  B21  1  0.500000  0.709246  0.765968  1
  B  B22  1  0.500000  0.630967  0.185084  1
  B  B23  1  0.500000  0.369033  0.814916  1
  B  B24  1  0.500000  0.131177  0.313776  1
  B  B25  1  0.500000  0.868823  0.686224  1
  B  B26  1  0.500000  0.983503  0.211660  1
  B  B27  1  0.500000  0.016497  0.788340  1
  B  B28  1  0.500000  0.482683  0.287505  1
  B  B29  1  0.500000  0.517317  0.712495  1
  B  B30  1  0.500000  0.603221  0.028418  1
  B  B31  1  0.500000  0.396779  0.971582  1
  B  B32  1  0.500000  0.104120  0.470991  1
  B  B33  1  0.500000  0.895880  0.529009  1
  Ru  Ru34  1  0.000000  0.138112  0.178314  1
  Ru  Ru35  1  0.000000  0.861888  0.821686  1
