# generated using pymatgen
data_YEr3(Al3Ir)6
_symmetry_space_group_name_H-M   'P 1'
_cell_length_a   7.54492500
_cell_length_b   7.54363088
_cell_length_c   9.45067400
_cell_angle_alpha   90.00000000
_cell_angle_beta   90.00000000
_cell_angle_gamma   119.56201015
_symmetry_Int_Tables_number   1
_chemical_formula_structural   YEr3(Al3Ir)6
_chemical_formula_sum   'Y1 Er3 Al18 Ir6'
_cell_volume   467.87371740
_cell_formula_units_Z   1
loop_
 _symmetry_equiv_pos_site_id
 _symmetry_equiv_pos_as_xyz
  1  'x, y, z'
loop_
 _atom_site_type_symbol
 _atom_site_label
 _atom_site_symmetry_multiplicity
 _atom_site_fract_x
 _atom_site_fract_y
 _atom_site_fract_z
 _atom_site_occupancy
  Y  Y0  1  0.329599  0.005231  0.750000  1
  Er  Er1  1  0.994805  0.670551  0.250000  1
  Er  Er2  1  0.005128  0.329515  0.750000  1
  Er  Er3  1  0.670479  0.994790  0.250000  1
  Al  Al4  1  0.127859  0.127885  0.250000  1
  Al  Al5  1  0.871580  0.871980  0.750000  1
  Al  Al6  1  0.000669  0.334817  0.073947  1
  Al  Al7  1  0.998946  0.664787  0.926386  1
  Al  Al8  1  0.998946  0.664787  0.573614  1
  Al  Al9  1  0.334809  0.000637  0.425638  1
  Al  Al10  1  0.000669  0.334817  0.426053  1
  Al  Al11  1  0.665612  0.999325  0.573579  1
  Al  Al12  1  0.665612  0.999325  0.926421  1
  Al  Al13  1  0.334809  0.000637  0.074362  1
  Al  Al14  1  0.333255  0.333628  0.552308  1
  Al  Al15  1  0.666738  0.666757  0.447293  1
  Al  Al16  1  0.666738  0.666757  0.052707  1
  Al  Al17  1  0.333255  0.333628  0.947692  1
  Al  Al18  1  0.338950  0.547853  0.250000  1
  Al  Al19  1  0.661567  0.452738  0.750000  1
  Al  Al20  1  0.547887  0.339011  0.250000  1
  Al  Al21  1  0.452197  0.660610  0.750000  1
  Ir  Ir22  1  0.672429  0.328033  0.000215  1
  Ir  Ir23  1  0.327837  0.672009  0.000227  1
  Ir  Ir24  1  0.327837  0.672009  0.499773  1
  Ir  Ir25  1  0.672429  0.328033  0.499785  1
  Ir  Ir26  1  0.999680  0.999924  0.000255  1
  Ir  Ir27  1  0.999680  0.999924  0.499745  1
