# generated using pymatgen
data_Cs4La3Gd(GeSe4)4
_symmetry_space_group_name_H-M   'P 1'
_cell_length_a   7.23184691
_cell_length_b   6.94920769
_cell_length_c   19.90872528
_cell_angle_alpha   71.57849258
_cell_angle_beta   90.07258280
_cell_angle_gamma   90.12771370
_symmetry_Int_Tables_number   1
_chemical_formula_structural   Cs4La3Gd(GeSe4)4
_chemical_formula_sum   'Cs4 La3 Gd1 Ge4 Se16'
_cell_volume   949.25308474
_cell_formula_units_Z   1
loop_
 _symmetry_equiv_pos_site_id
 _symmetry_equiv_pos_as_xyz
  1  'x, y, z'
loop_
 _atom_site_type_symbol
 _atom_site_label
 _atom_site_symmetry_multiplicity
 _atom_site_fract_x
 _atom_site_fract_y
 _atom_site_fract_z
 _atom_site_occupancy
  Cs  Cs0  1  0.751419  0.730192  0.033225  1
  Cs  Cs1  1  0.247691  0.270394  0.967876  1
  Cs  Cs2  1  0.748003  0.731538  0.531960  1
  Cs  Cs3  1  0.251789  0.269708  0.466803  1
  La  La4  1  0.732465  0.770030  0.273438  1
  La  La5  1  0.766042  0.769384  0.774406  1
  La  La6  1  0.266416  0.230826  0.725605  1
  Gd  Gd7  1  0.229313  0.230708  0.226296  1
  Ge  Ge8  1  0.732154  0.211225  0.835408  1
  Ge  Ge9  1  0.767572  0.214070  0.333638  1
  Ge  Ge10  1  0.231856  0.788758  0.664545  1
  Ge  Ge11  1  0.266930  0.786168  0.166190  1
  Se  Se12  1  0.501614  0.040982  0.144837  1
  Se  Se13  1  0.760203  0.410611  0.411043  1
  Se  Se14  1  0.005291  0.009404  0.849212  1
  Se  Se15  1  0.841593  0.422906  0.216361  1
  Se  Se16  1  0.991354  0.036305  0.642340  1
  Se  Se17  1  0.259814  0.577361  0.092955  1
  Se  Se18  1  0.738672  0.410649  0.911643  1
  Se  Se19  1  0.332603  0.564475  0.282100  1
  Se  Se20  1  0.238496  0.589226  0.588339  1
  Se  Se21  1  0.490942  0.963499  0.857740  1
  Se  Se22  1  0.671240  0.420699  0.717116  1
  Se  Se23  1  0.170892  0.579466  0.782852  1
  Se  Se24  1  0.009823  0.968398  0.355070  1
  Se  Se25  1  0.999560  0.996430  0.153079  1
  Se  Se26  1  0.490868  0.015784  0.345031  1
  Se  Se27  1  0.505383  0.990806  0.650890  1
