# generated using pymatgen
data_Sr12La7ThPt16
_symmetry_space_group_name_H-M   'P 1'
_cell_length_a   8.00336358
_cell_length_b   8.08140452
_cell_length_c   15.43044692
_cell_angle_alpha   90.09900846
_cell_angle_beta   90.01508451
_cell_angle_gamma   89.95919300
_symmetry_Int_Tables_number   1
_chemical_formula_structural   Sr12La7ThPt16
_chemical_formula_sum   'Sr12 La7 Th1 Pt16'
_cell_volume   998.01512663
_cell_formula_units_Z   1
loop_
 _symmetry_equiv_pos_site_id
 _symmetry_equiv_pos_as_xyz
  1  'x, y, z'
loop_
 _atom_site_type_symbol
 _atom_site_label
 _atom_site_symmetry_multiplicity
 _atom_site_fract_x
 _atom_site_fract_y
 _atom_site_fract_z
 _atom_site_occupancy
  Sr  Sr0  1  0.495113  0.321328  0.904295  1
  Sr  Sr1  1  0.994489  0.179069  0.595080  1
  Sr  Sr2  1  0.504981  0.678892  0.404239  1
  Sr  Sr3  1  0.005551  0.820777  0.095673  1
  Sr  Sr4  1  0.504950  0.678881  0.095966  1
  Sr  Sr5  1  0.004936  0.820985  0.404356  1
  Sr  Sr6  1  0.495378  0.321288  0.595387  1
  Sr  Sr7  1  0.995186  0.178837  0.904407  1
  Sr  Sr8  1  0.181972  0.481482  0.749722  1
  Sr  Sr9  1  0.684387  0.018532  0.749490  1
  Sr  Sr10  1  0.817404  0.517615  0.250036  1
  Sr  Sr11  1  0.317430  0.982207  0.250139  1
  La  La12  1  0.841487  0.664354  0.621026  1
  La  La13  1  0.658626  0.164855  0.378887  1
  La  La14  1  0.157660  0.334884  0.121246  1
  La  La15  1  0.658519  0.165854  0.121344  1
  La  La16  1  0.158637  0.334852  0.378789  1
  La  La17  1  0.340788  0.835143  0.620930  1
  La  La18  1  0.841826  0.665434  0.879021  1
  Th  Th19  1  0.342516  0.835875  0.878069  1
  Pt  Pt20  1  0.327970  0.037358  0.036707  1
  Pt  Pt21  1  0.830123  0.457869  0.459737  1
  Pt  Pt22  1  0.670214  0.956885  0.540136  1
  Pt  Pt23  1  0.174970  0.551759  0.958053  1
  Pt  Pt24  1  0.662326  0.954587  0.957577  1
  Pt  Pt25  1  0.169900  0.542485  0.540213  1
  Pt  Pt26  1  0.329767  0.042496  0.459886  1
  Pt  Pt27  1  0.831488  0.456937  0.040189  1
  Pt  Pt28  1  0.543894  0.636726  0.753956  1
  Pt  Pt29  1  0.052961  0.864499  0.752846  1
  Pt  Pt30  1  0.451138  0.366364  0.249750  1
  Pt  Pt31  1  0.951386  0.133365  0.249761  1
  Pt  Pt32  1  0.301764  0.107838  0.753630  1
  Pt  Pt33  1  0.797126  0.389822  0.749550  1
  Pt  Pt34  1  0.701629  0.888042  0.249972  1
  Pt  Pt35  1  0.201509  0.611825  0.249935  1
