# generated using pymatgen
data_Ca4SiHgPt4
_symmetry_space_group_name_H-M   'P 1'
_cell_length_a   5.70665589
_cell_length_b   5.70665193
_cell_length_c   7.99104100
_cell_angle_alpha   79.09799469
_cell_angle_beta   79.09806369
_cell_angle_gamma   60.41439249
_symmetry_Int_Tables_number   1
_chemical_formula_structural   Ca4SiHgPt4
_chemical_formula_sum   'Ca4 Si1 Hg1 Pt4'
_cell_volume   220.81989078
_cell_formula_units_Z   1
loop_
 _symmetry_equiv_pos_site_id
 _symmetry_equiv_pos_as_xyz
  1  'x, y, z'
loop_
 _atom_site_type_symbol
 _atom_site_label
 _atom_site_symmetry_multiplicity
 _atom_site_fract_x
 _atom_site_fract_y
 _atom_site_fract_z
 _atom_site_occupancy
  Ca  Ca0  1  0.509293  0.785648  0.350063  1
  Ca  Ca1  1  0.214353  0.490707  0.149938  1
  Ca  Ca2  1  0.486659  0.210306  0.648672  1
  Ca  Ca3  1  0.789693  0.513342  0.851327  1
  Si  Si4  1  0.888121  0.111880  0.250000  1
  Hg  Hg5  1  0.167179  0.832821  0.750000  1
  Pt  Pt6  1  0.256744  0.016234  0.018864  1
  Pt  Pt7  1  0.983765  0.743257  0.481136  1
  Pt  Pt8  1  0.726694  0.022501  0.024052  1
  Pt  Pt9  1  0.977499  0.273306  0.475948  1
