# generated using pymatgen
data_Li2Tm3AgSn2Pb
_symmetry_space_group_name_H-M   'P 1'
_cell_length_a   7.27117600
_cell_length_b   7.26693191
_cell_length_c   4.57426000
_cell_angle_alpha   90.00000000
_cell_angle_beta   90.00000000
_cell_angle_gamma   120.01932137
_symmetry_Int_Tables_number   1
_chemical_formula_structural   Li2Tm3AgSn2Pb
_chemical_formula_sum   'Li2 Tm3 Ag1 Sn2 Pb1'
_cell_volume   209.27754779
_cell_formula_units_Z   1
loop_
 _symmetry_equiv_pos_site_id
 _symmetry_equiv_pos_as_xyz
  1  'x, y, z'
loop_
 _atom_site_type_symbol
 _atom_site_label
 _atom_site_symmetry_multiplicity
 _atom_site_fract_x
 _atom_site_fract_y
 _atom_site_fract_z
 _atom_site_occupancy
  Li  Li0  1  0.004665  0.234776  0.500000  1
  Li  Li1  1  0.769890  0.765224  0.500000  1
  Tm  Tm2  1  0.001725  0.565952  0.000000  1
  Tm  Tm3  1  0.435773  0.434048  0.000000  1
  Tm  Tm4  1  0.551070  0.000000  0.000000  1
  Ag  Ag5  1  0.242084  0.000000  0.500000  1
  Sn  Sn6  1  0.674225  0.339870  0.500000  1
  Sn  Sn7  1  0.334354  0.660130  0.500000  1
  Pb  Pb8  1  0.986214  0.000000  0.000000  1
