# generated using pymatgen
data_RbTm(SeO4)2
_symmetry_space_group_name_H-M   'P 1'
_cell_length_a   5.38048236
_cell_length_b   5.38048360
_cell_length_c   8.74771186
_cell_angle_alpha   94.06791174
_cell_angle_beta   94.06791387
_cell_angle_gamma   64.80587726
_symmetry_Int_Tables_number   1
_chemical_formula_structural   RbTm(SeO4)2
_chemical_formula_sum   'Rb1 Tm1 Se2 O8'
_cell_volume   228.34165377
_cell_formula_units_Z   1
loop_
 _symmetry_equiv_pos_site_id
 _symmetry_equiv_pos_as_xyz
  1  'x, y, z'
loop_
 _atom_site_type_symbol
 _atom_site_label
 _atom_site_symmetry_multiplicity
 _atom_site_fract_x
 _atom_site_fract_y
 _atom_site_fract_z
 _atom_site_occupancy
  Rb  Rb0  1  0.000000  0.000000  0.000000  1
  Tm  Tm1  1  0.000000  0.000000  0.500000  1
  Se  Se2  1  0.626910  0.626910  0.292442  1
  Se  Se3  1  0.373091  0.373091  0.707559  1
  O  O4  1  0.684706  0.684706  0.119592  1
  O  O5  1  0.758304  0.285825  0.315721  1
  O  O6  1  0.285825  0.758304  0.315721  1
  O  O7  1  0.761597  0.761597  0.435268  1
  O  O8  1  0.238403  0.238403  0.564731  1
  O  O9  1  0.714175  0.241696  0.684279  1
  O  O10  1  0.241696  0.714175  0.684279  1
  O  O11  1  0.315293  0.315293  0.880408  1
