# generated using pymatgen
data_Pr2Y6Be3Si12Au
_symmetry_space_group_name_H-M   'P 1'
_cell_length_a   7.97602100
_cell_length_b   7.97601955
_cell_length_c   8.28443000
_cell_angle_alpha   90.00000000
_cell_angle_beta   90.00000000
_cell_angle_gamma   119.99999357
_symmetry_Int_Tables_number   1
_chemical_formula_structural   Pr2Y6Be3Si12Au
_chemical_formula_sum   'Pr2 Y6 Be3 Si12 Au1'
_cell_volume   456.42118180
_cell_formula_units_Z   1
loop_
 _symmetry_equiv_pos_site_id
 _symmetry_equiv_pos_as_xyz
  1  'x, y, z'
loop_
 _atom_site_type_symbol
 _atom_site_label
 _atom_site_symmetry_multiplicity
 _atom_site_fract_x
 _atom_site_fract_y
 _atom_site_fract_z
 _atom_site_occupancy
  Pr  Pr0  1  0.000000  0.000000  0.752396  1
  Pr  Pr1  1  0.000000  0.000000  0.247745  1
  Y  Y2  1  0.497292  0.502708  0.753795  1
  Y  Y3  1  0.497346  0.502654  0.246186  1
  Y  Y4  1  0.005414  0.502708  0.753795  1
  Y  Y5  1  0.005309  0.502654  0.246186  1
  Y  Y6  1  0.497292  0.994586  0.753795  1
  Y  Y7  1  0.497346  0.994691  0.246186  1
  Be  Be8  1  0.666667  0.333333  0.999284  1
  Be  Be9  1  0.333333  0.666667  0.000681  1
  Be  Be10  1  0.333333  0.666667  0.499635  1
  Si  Si11  1  0.826683  0.173317  0.000063  1
  Si  Si12  1  0.174268  0.825732  0.000007  1
  Si  Si13  1  0.346632  0.173317  0.000063  1
  Si  Si14  1  0.174365  0.825635  0.499943  1
  Si  Si15  1  0.651464  0.825732  0.000007  1
  Si  Si16  1  0.837134  0.162866  0.500086  1
  Si  Si17  1  0.826683  0.653368  0.000063  1
  Si  Si18  1  0.651270  0.825635  0.499943  1
  Si  Si19  1  0.174268  0.348536  0.000007  1
  Si  Si20  1  0.325731  0.162866  0.500086  1
  Si  Si21  1  0.174365  0.348730  0.499943  1
  Si  Si22  1  0.837134  0.674269  0.500086  1
  Au  Au23  1  0.666667  0.333333  0.500024  1
