# generated using pymatgen
data_Gd2HoLu(SeO3)6
_symmetry_space_group_name_H-M   'P 1'
_cell_length_a   7.12052144
_cell_length_b   8.15743063
_cell_length_c   9.09332412
_cell_angle_alpha   71.31740661
_cell_angle_beta   70.18110343
_cell_angle_gamma   66.17228971
_symmetry_Int_Tables_number   1
_chemical_formula_structural   Gd2HoLu(SeO3)6
_chemical_formula_sum   'Gd2 Ho1 Lu1 Se6 O18'
_cell_volume   444.11173872
_cell_formula_units_Z   1
loop_
 _symmetry_equiv_pos_site_id
 _symmetry_equiv_pos_as_xyz
  1  'x, y, z'
loop_
 _atom_site_type_symbol
 _atom_site_label
 _atom_site_symmetry_multiplicity
 _atom_site_fract_x
 _atom_site_fract_y
 _atom_site_fract_z
 _atom_site_occupancy
  Gd  Gd0  1  0.332630  0.729840  0.590119  1
  Gd  Gd1  1  0.665938  0.272097  0.409471  1
  Ho  Ho2  1  0.741723  0.734379  0.799254  1
  Lu  Lu3  1  0.258313  0.264313  0.200735  1
  Se  Se4  1  0.113781  0.244365  0.581755  1
  Se  Se5  1  0.426212  0.781445  0.194543  1
  Se  Se6  1  0.148563  0.745475  0.969016  1
  Se  Se7  1  0.852313  0.248799  0.034463  1
  Se  Se8  1  0.572201  0.222416  0.806052  1
  Se  Se9  1  0.886948  0.756808  0.415062  1
  O  O10  1  0.154508  0.018070  0.656350  1
  O  O11  1  0.171013  0.558130  0.121807  1
  O  O12  1  0.031364  0.704715  0.555819  1
  O  O13  1  0.342800  0.251846  0.430811  1
  O  O14  1  0.064074  0.694211  0.835513  1
  O  O15  1  0.592371  0.287799  0.149549  1
  O  O16  1  0.350856  0.208967  0.954199  1
  O  O17  1  0.359633  0.951772  0.298413  1
  O  O18  1  0.515053  0.600332  0.348236  1
  O  O19  1  0.481717  0.403245  0.652645  1
  O  O20  1  0.636666  0.053889  0.700854  1
  O  O21  1  0.649970  0.793067  0.049436  1
  O  O22  1  0.406819  0.711069  0.852424  1
  O  O23  1  0.938822  0.303067  0.165402  1
  O  O24  1  0.657342  0.747896  0.564676  1
  O  O25  1  0.970730  0.294898  0.440574  1
  O  O26  1  0.832589  0.433715  0.879337  1
  O  O27  1  0.845047  0.983376  0.343481  1
