# generated using pymatgen
data_Sr2LaPr(Ir2O7)2
_symmetry_space_group_name_H-M   'P 1'
_cell_length_a   7.45027282
_cell_length_b   7.48258841
_cell_length_c   7.45027326
_cell_angle_alpha   59.91925820
_cell_angle_beta   59.73326531
_cell_angle_gamma   59.91925307
_symmetry_Int_Tables_number   1
_chemical_formula_structural   Sr2LaPr(Ir2O7)2
_chemical_formula_sum   'Sr2 La1 Pr1 Ir4 O14'
_cell_volume   292.73127920
_cell_formula_units_Z   1
loop_
 _symmetry_equiv_pos_site_id
 _symmetry_equiv_pos_as_xyz
  1  'x, y, z'
loop_
 _atom_site_type_symbol
 _atom_site_label
 _atom_site_symmetry_multiplicity
 _atom_site_fract_x
 _atom_site_fract_y
 _atom_site_fract_z
 _atom_site_occupancy
  Sr  Sr0  1  0.125000  0.125000  0.625000  1
  Sr  Sr1  1  0.625000  0.125000  0.125000  1
  La  La2  1  0.125000  0.125000  0.125000  1
  Pr  Pr3  1  0.125000  0.625000  0.125000  1
  Ir  Ir4  1  0.625000  0.625000  0.625000  1
  Ir  Ir5  1  0.125000  0.625000  0.625000  1
  Ir  Ir6  1  0.625000  0.125000  0.625000  1
  Ir  Ir7  1  0.625000  0.625000  0.125000  1
  O  O8  1  0.949974  0.555975  0.544880  1
  O  O9  1  0.301273  0.303216  0.700111  1
  O  O10  1  0.951085  0.551949  0.951085  1
  O  O11  1  0.700111  0.303216  0.301273  1
  O  O12  1  0.544880  0.555975  0.949974  1
  O  O13  1  0.554382  0.944957  0.554382  1
  O  O14  1  0.549889  0.946784  0.948727  1
  O  O15  1  0.241913  0.256476  0.241913  1
  O  O16  1  0.300026  0.694025  0.705120  1
  O  O17  1  0.695618  0.305043  0.695618  1
  O  O18  1  0.008087  0.993524  0.008087  1
  O  O19  1  0.948727  0.946784  0.549889  1
  O  O20  1  0.298915  0.698051  0.298915  1
  O  O21  1  0.705120  0.694025  0.300026  1
