# generated using pymatgen
data_CdNiHg4(SeO6)2
_symmetry_space_group_name_H-M   'P 1'
_cell_length_a   6.88190542
_cell_length_b   7.20992016
_cell_length_c   7.61500866
_cell_angle_alpha   74.43750302
_cell_angle_beta   68.19608618
_cell_angle_gamma   64.30635318
_symmetry_Int_Tables_number   1
_chemical_formula_structural   CdNiHg4(SeO6)2
_chemical_formula_sum   'Cd1 Ni1 Hg4 Se2 O12'
_cell_volume   313.51625567
_cell_formula_units_Z   1
loop_
 _symmetry_equiv_pos_site_id
 _symmetry_equiv_pos_as_xyz
  1  'x, y, z'
loop_
 _atom_site_type_symbol
 _atom_site_label
 _atom_site_symmetry_multiplicity
 _atom_site_fract_x
 _atom_site_fract_y
 _atom_site_fract_z
 _atom_site_occupancy
  Cd  Cd0  1  0.668053  0.866984  0.793575  1
  Ni  Ni1  1  0.340558  0.132876  0.203954  1
  Hg  Hg2  1  0.840533  0.636241  0.215913  1
  Hg  Hg3  1  0.149398  0.354227  0.811859  1
  Hg  Hg4  1  0.649652  0.360581  0.809525  1
  Hg  Hg5  1  0.338328  0.636129  0.211501  1
  Se  Se6  1  0.794883  0.128966  0.318451  1
  Se  Se7  1  0.211304  0.876121  0.662974  1
  O  O8  1  0.635723  0.180154  0.174831  1
  O  O9  1  0.437383  0.192745  0.898699  1
  O  O10  1  0.941622  0.955741  0.803878  1
  O  O11  1  0.802548  0.902771  0.457077  1
  O  O12  1  0.275759  0.666688  0.568608  1
  O  O13  1  0.163524  0.455802  0.230418  1
  O  O14  1  0.252254  0.077494  0.503235  1
  O  O15  1  0.536732  0.814113  0.150268  1
  O  O16  1  0.362900  0.809660  0.815411  1
  O  O17  1  0.850848  0.525872  0.751659  1
  O  O18  1  0.688794  0.326498  0.443104  1
  O  O19  1  0.059205  0.100337  0.175058  1
