# generated using pymatgen
data_Y4Al4IrPd3
_symmetry_space_group_name_H-M   'P 1'
_cell_length_a   4.44236600
_cell_length_b   6.88669572
_cell_length_c   7.79766622
_cell_angle_alpha   89.88082146
_cell_angle_beta   90.00000000
_cell_angle_gamma   90.00000000
_symmetry_Int_Tables_number   1
_chemical_formula_structural   Y4Al4IrPd3
_chemical_formula_sum   'Y4 Al4 Ir1 Pd3'
_cell_volume   238.55522492
_cell_formula_units_Z   1
loop_
 _symmetry_equiv_pos_site_id
 _symmetry_equiv_pos_as_xyz
  1  'x, y, z'
loop_
 _atom_site_type_symbol
 _atom_site_label
 _atom_site_symmetry_multiplicity
 _atom_site_fract_x
 _atom_site_fract_y
 _atom_site_fract_z
 _atom_site_occupancy
  Y  Y0  1  0.250000  0.035717  0.321614  1
  Y  Y1  1  0.250000  0.531299  0.180360  1
  Y  Y2  1  0.750000  0.977296  0.679788  1
  Y  Y3  1  0.750000  0.464350  0.817031  1
  Al  Al4  1  0.250000  0.147020  0.935400  1
  Al  Al5  1  0.250000  0.639252  0.562659  1
  Al  Al6  1  0.750000  0.855099  0.060151  1
  Al  Al7  1  0.750000  0.353557  0.440859  1
  Ir  Ir8  1  0.250000  0.270302  0.619518  1
  Pd  Pd9  1  0.250000  0.773960  0.881767  1
  Pd  Pd10  1  0.750000  0.726474  0.380490  1
  Pd  Pd11  1  0.750000  0.225675  0.120363  1
