# generated using pymatgen
data_Sc4Co7Tc3B8
_symmetry_space_group_name_H-M   'P 1'
_cell_length_a   3.06062000
_cell_length_b   8.15115837
_cell_length_c   9.24968218
_cell_angle_alpha   90.40216585
_cell_angle_beta   90.00000000
_cell_angle_gamma   90.00000000
_symmetry_Int_Tables_number   1
_chemical_formula_structural   Sc4Co7Tc3B8
_chemical_formula_sum   'Sc4 Co7 Tc3 B8'
_cell_volume   230.75167140
_cell_formula_units_Z   1
loop_
 _symmetry_equiv_pos_site_id
 _symmetry_equiv_pos_as_xyz
  1  'x, y, z'
loop_
 _atom_site_type_symbol
 _atom_site_label
 _atom_site_symmetry_multiplicity
 _atom_site_fract_x
 _atom_site_fract_y
 _atom_site_fract_z
 _atom_site_occupancy
  Sc  Sc0  1  0.500000  0.837155  0.181737  1
  Sc  Sc1  1  0.500000  0.163137  0.817343  1
  Sc  Sc2  1  0.500000  0.663047  0.680950  1
  Sc  Sc3  1  0.500000  0.335672  0.318816  1
  Co  Co4  1  0.000000  0.167831  0.545773  1
  Co  Co5  1  0.000000  0.000946  0.000369  1
  Co  Co6  1  0.000000  0.406507  0.752110  1
  Co  Co7  1  0.000000  0.589413  0.245205  1
  Co  Co8  1  0.000000  0.495290  0.500540  1
  Co  Co9  1  0.000000  0.913697  0.741758  1
  Co  Co10  1  0.000000  0.089207  0.260475  1
  Tc  Tc11  1  0.000000  0.665830  0.952602  1
  Tc  Tc12  1  0.000000  0.333643  0.046648  1
  Tc  Tc13  1  0.000000  0.837724  0.455388  1
  B  B14  1  0.500000  0.971720  0.594990  1
  B  B15  1  0.500000  0.038452  0.409529  1
  B  B16  1  0.500000  0.863591  0.898390  1
  B  B17  1  0.500000  0.136931  0.101401  1
  B  B18  1  0.500000  0.636286  0.397196  1
  B  B19  1  0.500000  0.355565  0.599259  1
  B  B20  1  0.500000  0.464324  0.903587  1
  B  B21  1  0.500000  0.534029  0.095938  1
