# generated using pymatgen
data_Y2Ga9PdRh2
_symmetry_space_group_name_H-M   'P 1'
_cell_length_a   7.61563244
_cell_length_b   7.61563304
_cell_length_c   9.53575618
_cell_angle_alpha   89.97159656
_cell_angle_beta   89.97159136
_cell_angle_gamma   119.78827104
_symmetry_Int_Tables_number   1
_chemical_formula_structural   Y2Ga9PdRh2
_chemical_formula_sum   'Y4 Ga18 Pd2 Rh4'
_cell_volume   479.97671636
_cell_formula_units_Z   2
loop_
 _symmetry_equiv_pos_site_id
 _symmetry_equiv_pos_as_xyz
  1  'x, y, z'
loop_
 _atom_site_type_symbol
 _atom_site_label
 _atom_site_symmetry_multiplicity
 _atom_site_fract_x
 _atom_site_fract_y
 _atom_site_fract_z
 _atom_site_occupancy
  Y  Y0  1  0.998076  0.667622  0.250366  1
  Y  Y1  1  0.001924  0.332378  0.749634  1
  Y  Y2  1  0.667622  0.998076  0.250366  1
  Y  Y3  1  0.332378  0.001924  0.749634  1
  Ga  Ga4  1  0.331075  0.331076  0.562806  1
  Ga  Ga5  1  0.668924  0.668925  0.437194  1
  Ga  Ga6  1  0.670531  0.670532  0.066906  1
  Ga  Ga7  1  0.329468  0.329469  0.933094  1
  Ga  Ga8  1  0.340345  0.545130  0.253225  1
  Ga  Ga9  1  0.659655  0.454870  0.746775  1
  Ga  Ga10  1  0.545130  0.340345  0.253225  1
  Ga  Ga11  1  0.454870  0.659655  0.746775  1
  Ga  Ga12  1  0.000512  0.331176  0.081592  1
  Ga  Ga13  1  0.999488  0.668824  0.918408  1
  Ga  Ga14  1  0.000344  0.665635  0.578276  1
  Ga  Ga15  1  0.334365  0.999656  0.421724  1
  Ga  Ga16  1  0.999656  0.334365  0.421724  1
  Ga  Ga17  1  0.665635  0.000344  0.578276  1
  Ga  Ga18  1  0.668824  0.999488  0.918408  1
  Ga  Ga19  1  0.331176  0.000512  0.081592  1
  Ga  Ga20  1  0.122335  0.122335  0.250572  1
  Ga  Ga21  1  0.877665  0.877665  0.749428  1
  Pd  Pd22  1  0.670930  0.329070  0.000000  1
  Pd  Pd23  1  0.329070  0.670930  0.000000  1
  Rh  Rh24  1  0.000000  0.000000  0.000000  1
  Rh  Rh25  1  0.000000  0.000000  0.500000  1
  Rh  Rh26  1  0.328210  0.671790  0.500000  1
  Rh  Rh27  1  0.671790  0.328210  0.500000  1
