# generated using pymatgen
data_Th3Al3OsPt2
_symmetry_space_group_name_H-M   'P 1'
_cell_length_a   7.30120000
_cell_length_b   7.30120028
_cell_length_c   4.13887200
_cell_angle_alpha   90.00000000
_cell_angle_beta   90.00000000
_cell_angle_gamma   119.99999874
_symmetry_Int_Tables_number   1
_chemical_formula_structural   Th3Al3OsPt2
_chemical_formula_sum   'Th3 Al3 Os1 Pt2'
_cell_volume   191.07379946
_cell_formula_units_Z   1
loop_
 _symmetry_equiv_pos_site_id
 _symmetry_equiv_pos_as_xyz
  1  'x, y, z'
loop_
 _atom_site_type_symbol
 _atom_site_label
 _atom_site_symmetry_multiplicity
 _atom_site_fract_x
 _atom_site_fract_y
 _atom_site_fract_z
 _atom_site_occupancy
  Th  Th0  1  0.424033  0.417234  0.500000  1
  Th  Th1  1  0.582766  0.006799  0.500000  1
  Th  Th2  1  0.993201  0.575967  0.500000  1
  Al  Al3  1  0.768051  0.763059  0.000000  1
  Al  Al4  1  0.236941  0.004992  0.000000  1
  Al  Al5  1  0.995008  0.231949  0.000000  1
  Os  Os6  1  0.666667  0.333333  0.000000  1
  Pt  Pt7  1  0.333333  0.666667  0.000000  1
  Pt  Pt8  1  0.000000  0.000000  0.500000  1
