# generated using pymatgen
data_Pr3Er5(WO6)4
_symmetry_space_group_name_H-M   'P 1'
_cell_length_a   5.47793900
_cell_length_b   7.79342927
_cell_length_c   11.49822945
_cell_angle_alpha   75.96164905
_cell_angle_beta   90.00000000
_cell_angle_gamma   90.00000000
_symmetry_Int_Tables_number   1
_chemical_formula_structural   Pr3Er5(WO6)4
_chemical_formula_sum   'Pr3 Er5 W4 O24'
_cell_volume   476.22073104
_cell_formula_units_Z   1
loop_
 _symmetry_equiv_pos_site_id
 _symmetry_equiv_pos_as_xyz
  1  'x, y, z'
loop_
 _atom_site_type_symbol
 _atom_site_label
 _atom_site_symmetry_multiplicity
 _atom_site_fract_x
 _atom_site_fract_y
 _atom_site_fract_z
 _atom_site_occupancy
  Pr  Pr0  1  0.683044  0.500000  0.250000  1
  Pr  Pr1  1  0.313307  0.500000  0.750000  1
  Pr  Pr2  1  0.744992  0.000000  0.250000  1
  Er  Er3  1  0.185732  0.205666  0.423997  1
  Er  Er4  1  0.185732  0.794334  0.076003  1
  Er  Er5  1  0.817532  0.794870  0.579853  1
  Er  Er6  1  0.817532  0.205130  0.920147  1
  Er  Er7  1  0.257664  0.000000  0.750000  1
  W  W8  1  0.254206  0.276353  0.112823  1
  W  W9  1  0.254206  0.723647  0.387177  1
  W  W10  1  0.744628  0.730259  0.883533  1
  W  W11  1  0.744628  0.269741  0.616467  1
  O  O12  1  0.446286  0.211175  0.272581  1
  O  O13  1  0.446286  0.788825  0.227419  1
  O  O14  1  0.544184  0.797785  0.725998  1
  O  O15  1  0.544184  0.202215  0.774002  1
  O  O16  1  0.056684  0.060218  0.098140  1
  O  O17  1  0.056684  0.939782  0.401860  1
  O  O18  1  0.955496  0.942699  0.894483  1
  O  O19  1  0.955496  0.057301  0.605517  1
  O  O20  1  0.988448  0.284852  0.228352  1
  O  O21  1  0.988448  0.715148  0.271648  1
  O  O22  1  0.012564  0.721172  0.768475  1
  O  O23  1  0.012564  0.278828  0.731525  1
  O  O24  1  0.853537  0.354127  0.454784  1
  O  O25  1  0.853537  0.645873  0.045216  1
  O  O26  1  0.139294  0.636623  0.547322  1
  O  O27  1  0.139294  0.363377  0.952678  1
  O  O28  1  0.654186  0.503738  0.614363  1
  O  O29  1  0.654186  0.496262  0.885637  1
  O  O30  1  0.348951  0.489933  0.390378  1
  O  O31  1  0.348951  0.510067  0.109622  1
  O  O32  1  0.462417  0.154880  0.569458  1
  O  O33  1  0.462417  0.845120  0.930542  1
  O  O34  1  0.536351  0.833988  0.436347  1
  O  O35  1  0.536351  0.166012  0.063653  1
