# generated using pymatgen
data_Y15Er4ThPb16
_symmetry_space_group_name_H-M   'P 1'
_cell_length_a   8.23808834
_cell_length_b   8.29996981
_cell_length_c   15.66666025
_cell_angle_alpha   90.12530916
_cell_angle_beta   89.82875630
_cell_angle_gamma   89.95482865
_symmetry_Int_Tables_number   1
_chemical_formula_structural   Y15Er4ThPb16
_chemical_formula_sum   'Y15 Er4 Th1 Pb16'
_cell_volume   1071.21406743
_cell_formula_units_Z   1
loop_
 _symmetry_equiv_pos_site_id
 _symmetry_equiv_pos_as_xyz
  1  'x, y, z'
loop_
 _atom_site_type_symbol
 _atom_site_label
 _atom_site_symmetry_multiplicity
 _atom_site_fract_x
 _atom_site_fract_y
 _atom_site_fract_z
 _atom_site_occupancy
  Y  Y0  1  0.377256  0.841028  0.878770  1
  Y  Y1  1  0.877725  0.658509  0.620921  1
  Y  Y2  1  0.622637  0.157492  0.378774  1
  Y  Y3  1  0.122564  0.342648  0.122102  1
  Y  Y4  1  0.623982  0.157200  0.121602  1
  Y  Y5  1  0.122520  0.342422  0.378690  1
  Y  Y6  1  0.377321  0.842052  0.621318  1
  Y  Y7  1  0.876448  0.657785  0.878864  1
  Y  Y8  1  0.539202  0.326288  0.899450  1
  Y  Y9  1  0.038375  0.174650  0.600800  1
  Y  Y10  1  0.462327  0.674758  0.399623  1
  Y  Y11  1  0.961671  0.825074  0.101292  1
  Y  Y12  1  0.462473  0.674394  0.100590  1
  Y  Y13  1  0.962392  0.824646  0.399476  1
  Y  Y14  1  0.537769  0.326168  0.599997  1
  Er  Er15  1  0.209818  0.502963  0.749391  1
  Er  Er16  1  0.708879  0.995538  0.748685  1
  Er  Er17  1  0.790390  0.496660  0.250720  1
  Er  Er18  1  0.290836  0.003722  0.250327  1
  Th  Th19  1  0.035300  0.178065  0.900760  1
  Pb  Pb20  1  0.281830  0.031056  0.044502  1
  Pb  Pb21  1  0.780763  0.467596  0.456236  1
  Pb  Pb22  1  0.719582  0.967943  0.543569  1
  Pb  Pb23  1  0.220143  0.532023  0.956103  1
  Pb  Pb24  1  0.717454  0.966543  0.956255  1
  Pb  Pb25  1  0.219445  0.532282  0.543639  1
  Pb  Pb26  1  0.280846  0.032277  0.456437  1
  Pb  Pb27  1  0.781323  0.466285  0.043442  1
  Pb  Pb28  1  0.571456  0.626753  0.749878  1
  Pb  Pb29  1  0.071940  0.873084  0.750901  1
  Pb  Pb30  1  0.428346  0.373679  0.249794  1
  Pb  Pb31  1  0.928033  0.125754  0.250015  1
  Pb  Pb32  1  0.351417  0.154802  0.749978  1
  Pb  Pb33  1  0.846965  0.348238  0.747622  1
  Pb  Pb34  1  0.650514  0.844711  0.249754  1
  Pb  Pb35  1  0.150056  0.654911  0.249727  1
