# generated using pymatgen
data_Nd3Th11Os6
_symmetry_space_group_name_H-M   'P 1'
_cell_length_a   9.93048288
_cell_length_b   10.05597237
_cell_length_c   6.39569560
_cell_angle_alpha   89.76962203
_cell_angle_beta   90.25200769
_cell_angle_gamma   119.95975359
_symmetry_Int_Tables_number   1
_chemical_formula_structural   Nd3Th11Os6
_chemical_formula_sum   'Nd3 Th11 Os6'
_cell_volume   553.32931165
_cell_formula_units_Z   1
loop_
 _symmetry_equiv_pos_site_id
 _symmetry_equiv_pos_as_xyz
  1  'x, y, z'
loop_
 _atom_site_type_symbol
 _atom_site_label
 _atom_site_symmetry_multiplicity
 _atom_site_fract_x
 _atom_site_fract_y
 _atom_site_fract_z
 _atom_site_occupancy
  Nd  Nd0  1  0.463482  0.536992  0.296895  1
  Nd  Nd1  1  0.073224  0.536557  0.295523  1
  Nd  Nd2  1  0.926469  0.461582  0.794990  1
  Th  Th3  1  0.251862  0.127390  0.509569  1
  Th  Th4  1  0.539833  0.077611  0.799354  1
  Th  Th5  1  0.747199  0.872763  0.009855  1
  Th  Th6  1  0.666138  0.333356  0.274572  1
  Th  Th7  1  0.126666  0.872125  0.005658  1
  Th  Th8  1  0.462570  0.923211  0.300031  1
  Th  Th9  1  0.536679  0.462874  0.799833  1
  Th  Th10  1  0.874495  0.127902  0.509162  1
  Th  Th11  1  0.124337  0.250508  0.008518  1
  Th  Th12  1  0.874292  0.749058  0.508262  1
  Th  Th13  1  0.334057  0.666527  0.773218  1
  Os  Os14  1  0.810393  0.630513  0.046933  1
  Os  Os15  1  0.808906  0.178638  0.051615  1
  Os  Os16  1  0.631212  0.819634  0.551633  1
  Os  Os17  1  0.371670  0.185161  0.042477  1
  Os  Os18  1  0.185721  0.365901  0.559274  1
  Os  Os19  1  0.190794  0.821697  0.546626  1
