# generated using pymatgen
data_CeSm(Si2Rh3)2
_symmetry_space_group_name_H-M   'P 1'
_cell_length_a   6.67753184
_cell_length_b   6.67753109
_cell_length_c   6.67753146
_cell_angle_alpha   130.37528683
_cell_angle_beta   114.65902821
_cell_angle_gamma   86.27264785
_symmetry_Int_Tables_number   1
_chemical_formula_structural   CeSm(Si2Rh3)2
_chemical_formula_sum   'Ce1 Sm1 Si4 Rh6'
_cell_volume   196.87597657
_cell_formula_units_Z   1
loop_
 _symmetry_equiv_pos_site_id
 _symmetry_equiv_pos_as_xyz
  1  'x, y, z'
loop_
 _atom_site_type_symbol
 _atom_site_label
 _atom_site_symmetry_multiplicity
 _atom_site_fract_x
 _atom_site_fract_y
 _atom_site_fract_z
 _atom_site_occupancy
  Ce  Ce0  1  0.750000  0.039737  0.289737  1
  Sm  Sm1  1  0.250000  0.961353  0.711353  1
  Si  Si2  1  0.079179  0.275207  0.196029  1
  Si  Si3  1  0.921730  0.726361  0.804631  1
  Si  Si4  1  0.420821  0.616850  0.196029  1
  Si  Si5  1  0.578270  0.382901  0.804631  1
  Rh  Rh6  1  0.500361  0.498891  0.499253  1
  Rh  Rh7  1  0.999639  0.498891  0.998530  1
  Rh  Rh8  1  0.284999  0.000004  0.284898  1
  Rh  Rh9  1  0.715106  0.000004  0.715006  1
  Rh  Rh10  1  0.215001  0.499900  0.715006  1
  Rh  Rh11  1  0.784894  0.499900  0.284898  1
