# generated using pymatgen
data_Dy8Lu11ScSi15Ru
_symmetry_space_group_name_H-M   'P 1'
_cell_length_a   7.23693039
_cell_length_b   7.64963698
_cell_length_c   14.28065400
_cell_angle_alpha   90.00000000
_cell_angle_beta   90.00000000
_cell_angle_gamma   90.08333005
_symmetry_Int_Tables_number   1
_chemical_formula_structural   Dy8Lu11ScSi15Ru
_chemical_formula_sum   'Dy8 Lu11 Sc1 Si15 Ru1'
_cell_volume   790.57460324
_cell_formula_units_Z   1
loop_
 _symmetry_equiv_pos_site_id
 _symmetry_equiv_pos_as_xyz
  1  'x, y, z'
loop_
 _atom_site_type_symbol
 _atom_site_label
 _atom_site_symmetry_multiplicity
 _atom_site_fract_x
 _atom_site_fract_y
 _atom_site_fract_z
 _atom_site_occupancy
  Dy  Dy0  1  0.017926  0.181952  0.097503  1
  Dy  Dy1  1  0.984749  0.826095  0.905389  1
  Dy  Dy2  1  0.483935  0.678772  0.905170  1
  Dy  Dy3  1  0.984749  0.826095  0.594611  1
  Dy  Dy4  1  0.515446  0.319094  0.097032  1
  Dy  Dy5  1  0.017926  0.181952  0.402497  1
  Dy  Dy6  1  0.515446  0.319094  0.402968  1
  Dy  Dy7  1  0.483935  0.678772  0.594830  1
  Lu  Lu8  1  0.154204  0.511626  0.750000  1
  Lu  Lu9  1  0.842994  0.488779  0.250000  1
  Lu  Lu10  1  0.665227  0.990190  0.750000  1
  Lu  Lu11  1  0.310082  0.172185  0.627027  1
  Lu  Lu12  1  0.677082  0.826507  0.373553  1
  Lu  Lu13  1  0.177353  0.680241  0.373777  1
  Lu  Lu14  1  0.677082  0.826507  0.126447  1
  Lu  Lu15  1  0.834538  0.315055  0.626358  1
  Lu  Lu16  1  0.310082  0.172185  0.872973  1
  Lu  Lu17  1  0.834538  0.315055  0.873642  1
  Lu  Lu18  1  0.177353  0.680241  0.126223  1
  Sc  Sc19  1  0.343178  0.014083  0.250000  1
  Si  Si20  1  0.978420  0.897686  0.250000  1
  Si  Si21  1  0.475748  0.606614  0.250000  1
  Si  Si22  1  0.525608  0.393808  0.750000  1
  Si  Si23  1  0.279630  0.865174  0.750000  1
  Si  Si24  1  0.715176  0.132695  0.250000  1
  Si  Si25  1  0.221720  0.365077  0.250000  1
  Si  Si26  1  0.770040  0.625269  0.750000  1
  Si  Si27  1  0.157665  0.472633  0.536825  1
  Si  Si28  1  0.846332  0.533309  0.461626  1
  Si  Si29  1  0.346460  0.969631  0.458543  1
  Si  Si30  1  0.846332  0.533309  0.038374  1
  Si  Si31  1  0.650446  0.031685  0.537779  1
  Si  Si32  1  0.157665  0.472633  0.963175  1
  Si  Si33  1  0.650446  0.031685  0.962221  1
  Si  Si34  1  0.346460  0.969631  0.041457  1
  Ru  Ru35  1  0.024032  0.094680  0.750000  1
