# generated using pymatgen
data_K2Sr(SiS3)2
_symmetry_space_group_name_H-M   'P 1'
_cell_length_a   8.55181134
_cell_length_b   8.55181172
_cell_length_c   9.13497004
_cell_angle_alpha   89.82629322
_cell_angle_beta   89.82629247
_cell_angle_gamma   113.62848340
_symmetry_Int_Tables_number   1
_chemical_formula_structural   K2Sr(SiS3)2
_chemical_formula_sum   'K4 Sr2 Si4 S12'
_cell_volume   612.05399371
_cell_formula_units_Z   2
loop_
 _symmetry_equiv_pos_site_id
 _symmetry_equiv_pos_as_xyz
  1  'x, y, z'
loop_
 _atom_site_type_symbol
 _atom_site_label
 _atom_site_symmetry_multiplicity
 _atom_site_fract_x
 _atom_site_fract_y
 _atom_site_fract_z
 _atom_site_occupancy
  K  K0  1  0.263316  0.534169  0.522080  1
  K  K1  1  0.736684  0.465831  0.477920  1
  K  K2  1  0.465831  0.736684  0.977920  1
  K  K3  1  0.534169  0.263316  0.022080  1
  Sr  Sr4  1  0.982865  0.017135  0.250000  1
  Sr  Sr5  1  0.017135  0.982865  0.750000  1
  Si  Si6  1  0.978213  0.651921  0.053733  1
  Si  Si7  1  0.021787  0.348079  0.946267  1
  Si  Si8  1  0.348079  0.021787  0.446267  1
  Si  Si9  1  0.651921  0.978213  0.553733  1
  S  S10  1  0.652231  0.761075  0.659672  1
  S  S11  1  0.911940  0.514215  0.845199  1
  S  S12  1  0.238925  0.347769  0.840328  1
  S  S13  1  0.514215  0.911940  0.345199  1
  S  S14  1  0.347769  0.238925  0.340328  1
  S  S15  1  0.896570  0.171503  0.522383  1
  S  S16  1  0.828497  0.103430  0.977617  1
  S  S17  1  0.171503  0.896570  0.022383  1
  S  S18  1  0.088060  0.485785  0.154801  1
  S  S19  1  0.485785  0.088060  0.654801  1
  S  S20  1  0.103430  0.828497  0.477617  1
  S  S21  1  0.761075  0.652231  0.159672  1
