# generated using pymatgen
data_Pr3NdAl18(CoPt2)2
_symmetry_space_group_name_H-M   'P 1'
_cell_length_a   7.62336615
_cell_length_b   7.62421190
_cell_length_c   9.56749102
_cell_angle_alpha   89.83324102
_cell_angle_beta   89.84276632
_cell_angle_gamma   119.60274392
_symmetry_Int_Tables_number   1
_chemical_formula_structural   Pr3NdAl18(CoPt2)2
_chemical_formula_sum   'Pr3 Nd1 Al18 Co2 Pt4'
_cell_volume   483.49075643
_cell_formula_units_Z   1
loop_
 _symmetry_equiv_pos_site_id
 _symmetry_equiv_pos_as_xyz
  1  'x, y, z'
loop_
 _atom_site_type_symbol
 _atom_site_label
 _atom_site_symmetry_multiplicity
 _atom_site_fract_x
 _atom_site_fract_y
 _atom_site_fract_z
 _atom_site_occupancy
  Pr  Pr0  1  0.005005  0.330622  0.749964  1
  Pr  Pr1  1  0.333627  0.008848  0.749662  1
  Pr  Pr2  1  0.991148  0.666449  0.250362  1
  Nd  Nd3  1  0.669438  0.995007  0.250007  1
  Al  Al4  1  0.657304  0.989522  0.928065  1
  Al  Al5  1  0.000025  0.674455  0.571567  1
  Al  Al6  1  0.128040  0.127237  0.256114  1
  Al  Al7  1  0.658911  0.666555  0.048400  1
  Al  Al8  1  0.326205  0.326653  0.547772  1
  Al  Al9  1  0.333781  0.341101  0.952092  1
  Al  Al10  1  0.673360  0.674141  0.451711  1
  Al  Al11  1  0.334002  0.990560  0.072279  1
  Al  Al12  1  0.001627  0.325685  0.427740  1
  Al  Al13  1  0.340540  0.550312  0.242438  1
  Al  Al14  1  0.010131  0.342310  0.072650  1
  Al  Al15  1  0.540735  0.339314  0.249886  1
  Al  Al16  1  0.660262  0.459255  0.750106  1
  Al  Al17  1  0.872480  0.871437  0.743885  1
  Al  Al18  1  0.009416  0.666431  0.928107  1
  Al  Al19  1  0.673898  0.997970  0.571532  1
  Al  Al20  1  0.325957  0.999959  0.428074  1
  Al  Al21  1  0.450398  0.660072  0.757580  1
  Co  Co22  1  0.000057  0.999732  0.499843  1
  Co  Co23  1  0.331072  0.669161  0.000151  1
  Pt  Pt24  1  0.671157  0.328720  0.499824  1
  Pt  Pt25  1  0.671469  0.328407  0.000179  1
  Pt  Pt26  1  0.329756  0.670510  0.499789  1
  Pt  Pt27  1  0.000197  0.999578  0.000221  1
