# generated using pymatgen
data_Y4ErPb4
_symmetry_space_group_name_H-M   'P 1'
_cell_length_a   8.19566800
_cell_length_b   8.27332200
_cell_length_c   15.65122200
_cell_angle_alpha   90.00000000
_cell_angle_beta   90.00000000
_cell_angle_gamma   90.00000000
_symmetry_Int_Tables_number   1
_chemical_formula_structural   Y4ErPb4
_chemical_formula_sum   'Y16 Er4 Pb16'
_cell_volume   1061.23737398
_cell_formula_units_Z   4
loop_
 _symmetry_equiv_pos_site_id
 _symmetry_equiv_pos_as_xyz
  1  'x, y, z'
loop_
 _atom_site_type_symbol
 _atom_site_label
 _atom_site_symmetry_multiplicity
 _atom_site_fract_x
 _atom_site_fract_y
 _atom_site_fract_z
 _atom_site_occupancy
  Y  Y0  1  0.377443  0.840459  0.879430  1
  Y  Y1  1  0.877443  0.659541  0.620570  1
  Y  Y2  1  0.622557  0.159541  0.379430  1
  Y  Y3  1  0.122557  0.340459  0.120570  1
  Y  Y4  1  0.622557  0.159541  0.120570  1
  Y  Y5  1  0.122557  0.340459  0.379430  1
  Y  Y6  1  0.377443  0.840459  0.620570  1
  Y  Y7  1  0.877443  0.659541  0.879430  1
  Y  Y8  1  0.534600  0.323290  0.899859  1
  Y  Y9  1  0.034600  0.176710  0.600141  1
  Y  Y10  1  0.465400  0.676710  0.399859  1
  Y  Y11  1  0.965400  0.823290  0.100141  1
  Y  Y12  1  0.465400  0.676710  0.100141  1
  Y  Y13  1  0.965400  0.823290  0.399859  1
  Y  Y14  1  0.534600  0.323290  0.600141  1
  Y  Y15  1  0.034600  0.176710  0.899859  1
  Er  Er16  1  0.208780  0.503703  0.750000  1
  Er  Er17  1  0.708780  0.996297  0.750000  1
  Er  Er18  1  0.791220  0.496297  0.250000  1
  Er  Er19  1  0.291220  0.003703  0.250000  1
  Pb  Pb20  1  0.280753  0.032274  0.042788  1
  Pb  Pb21  1  0.780753  0.467726  0.457212  1
  Pb  Pb22  1  0.719247  0.967726  0.542788  1
  Pb  Pb23  1  0.219247  0.532274  0.957212  1
  Pb  Pb24  1  0.719247  0.967726  0.957212  1
  Pb  Pb25  1  0.219247  0.532274  0.542788  1
  Pb  Pb26  1  0.280753  0.032274  0.457212  1
  Pb  Pb27  1  0.780753  0.467726  0.042788  1
  Pb  Pb28  1  0.571822  0.626634  0.750000  1
  Pb  Pb29  1  0.071822  0.873366  0.750000  1
  Pb  Pb30  1  0.428178  0.373366  0.250000  1
  Pb  Pb31  1  0.928178  0.126634  0.250000  1
  Pb  Pb32  1  0.346350  0.152408  0.750000  1
  Pb  Pb33  1  0.846350  0.347592  0.750000  1
  Pb  Pb34  1  0.653650  0.847592  0.250000  1
  Pb  Pb35  1  0.153650  0.652408  0.250000  1
