# generated using pymatgen
data_Tb5Nd3(AgIr)2
_symmetry_space_group_name_H-M   'P 1'
_cell_length_a   9.67352044
_cell_length_b   9.67352140
_cell_length_c   9.67352000
_cell_angle_alpha   59.99999796
_cell_angle_beta   59.99999468
_cell_angle_gamma   59.99999775
_symmetry_Int_Tables_number   1
_chemical_formula_structural   Tb5Nd3(AgIr)2
_chemical_formula_sum   'Tb10 Nd6 Ag4 Ir4'
_cell_volume   640.08648171
_cell_formula_units_Z   2
loop_
 _symmetry_equiv_pos_site_id
 _symmetry_equiv_pos_as_xyz
  1  'x, y, z'
loop_
 _atom_site_type_symbol
 _atom_site_label
 _atom_site_symmetry_multiplicity
 _atom_site_fract_x
 _atom_site_fract_y
 _atom_site_fract_z
 _atom_site_occupancy
  Tb  Tb0  1  0.350088  0.350088  0.350088  1
  Tb  Tb1  1  0.350088  0.350088  0.949737  1
  Tb  Tb2  1  0.350088  0.949737  0.350088  1
  Tb  Tb3  1  0.949737  0.350088  0.350088  1
  Tb  Tb4  1  0.812368  0.187632  0.187632  1
  Tb  Tb5  1  0.187632  0.812368  0.812368  1
  Tb  Tb6  1  0.187632  0.812368  0.187632  1
  Tb  Tb7  1  0.812368  0.187632  0.812368  1
  Tb  Tb8  1  0.187632  0.187632  0.812368  1
  Tb  Tb9  1  0.812368  0.812368  0.187632  1
  Nd  Nd10  1  0.939138  0.560862  0.560862  1
  Nd  Nd11  1  0.560862  0.939138  0.939138  1
  Nd  Nd12  1  0.560862  0.939138  0.560862  1
  Nd  Nd13  1  0.939138  0.560862  0.939138  1
  Nd  Nd14  1  0.560862  0.560862  0.939138  1
  Nd  Nd15  1  0.939138  0.939138  0.560862  1
  Ag  Ag16  1  0.580036  0.580036  0.580036  1
  Ag  Ag17  1  0.580036  0.580036  0.259890  1
  Ag  Ag18  1  0.580036  0.259890  0.580036  1
  Ag  Ag19  1  0.259890  0.580036  0.580036  1
  Ir  Ir20  1  0.142082  0.142082  0.142082  1
  Ir  Ir21  1  0.142082  0.142082  0.573753  1
  Ir  Ir22  1  0.142082  0.573753  0.142082  1
  Ir  Ir23  1  0.573753  0.142082  0.142082  1
