# generated using pymatgen
data_Tb3Ho2Bi3O14
_symmetry_space_group_name_H-M   'P 1'
_cell_length_a   6.59421974
_cell_length_b   6.61781346
_cell_length_c   7.74807560
_cell_angle_alpha   106.78329660
_cell_angle_beta   89.65926195
_cell_angle_gamma   98.69864289
_symmetry_Int_Tables_number   1
_chemical_formula_structural   Tb3Ho2Bi3O14
_chemical_formula_sum   'Tb3 Ho2 Bi3 O14'
_cell_volume   319.74014913
_cell_formula_units_Z   1
loop_
 _symmetry_equiv_pos_site_id
 _symmetry_equiv_pos_as_xyz
  1  'x, y, z'
loop_
 _atom_site_type_symbol
 _atom_site_label
 _atom_site_symmetry_multiplicity
 _atom_site_fract_x
 _atom_site_fract_y
 _atom_site_fract_z
 _atom_site_occupancy
  Tb  Tb0  1  0.271632  0.536248  0.882693  1
  Tb  Tb1  1  0.737186  0.459693  0.112875  1
  Tb  Tb2  1  0.741464  0.477507  0.618062  1
  Ho  Ho3  1  0.461495  0.007731  0.253839  1
  Ho  Ho4  1  0.537669  0.998403  0.750319  1
  Bi  Bi5  1  0.994149  0.999760  0.500588  1
  Bi  Bi6  1  0.999358  0.996181  0.997788  1
  Bi  Bi7  1  0.281140  0.532886  0.388001  1
  O  O8  1  0.452882  0.654842  0.166897  1
  O  O9  1  0.555400  0.350971  0.834130  1
  O  O10  1  0.303046  0.921953  0.950751  1
  O  O11  1  0.697738  0.075405  0.050627  1
  O  O12  1  0.298467  0.933021  0.517615  1
  O  O13  1  0.697048  0.082779  0.490981  1
  O  O14  1  0.549055  0.360589  0.343517  1
  O  O15  1  0.461089  0.641657  0.657779  1
  O  O16  1  0.927367  0.661671  0.951154  1
  O  O17  1  0.069692  0.325592  0.028643  1
  O  O18  1  0.066103  0.341319  0.628386  1
  O  O19  1  0.905945  0.663781  0.380095  1
  O  O20  1  0.869208  0.900602  0.725833  1
  O  O21  1  0.122864  0.077410  0.269426  1
