# generated using pymatgen
data_Ho4Pa2Al7Pt16
_symmetry_space_group_name_H-M   'P 1'
_cell_length_a   8.96027284
_cell_length_b   8.96647448
_cell_length_c   8.98918913
_cell_angle_alpha   59.87048225
_cell_angle_beta   59.93876973
_cell_angle_gamma   60.04792582
_symmetry_Int_Tables_number   1
_chemical_formula_structural   Ho4Pa2Al7Pt16
_chemical_formula_sum   'Ho4 Pa2 Al7 Pt16'
_cell_volume   510.12567876
_cell_formula_units_Z   1
loop_
 _symmetry_equiv_pos_site_id
 _symmetry_equiv_pos_as_xyz
  1  'x, y, z'
loop_
 _atom_site_type_symbol
 _atom_site_label
 _atom_site_symmetry_multiplicity
 _atom_site_fract_x
 _atom_site_fract_y
 _atom_site_fract_z
 _atom_site_occupancy
  Ho  Ho0  1  0.705156  0.711949  0.291382  1
  Ho  Ho1  1  0.289458  0.710540  0.705830  1
  Ho  Ho2  1  0.289492  0.710507  0.294084  1
  Ho  Ho3  1  0.288053  0.294843  0.708487  1
  Pa  Pa4  1  0.708763  0.291239  0.287186  1
  Pa  Pa5  1  0.708660  0.291339  0.712550  1
  Al  Al6  1  0.005578  0.994411  0.000221  1
  Al  Al7  1  0.497099  0.993642  0.002481  1
  Al  Al8  1  0.497185  0.993654  0.506782  1
  Al  Al9  1  0.488780  0.511222  0.000082  1
  Al  Al10  1  0.006356  0.502899  0.493230  1
  Al  Al11  1  0.006345  0.502813  0.997618  1
  Al  Al12  1  0.007645  0.992366  0.499982  1
  Pt  Pt13  1  0.647411  0.118868  0.116731  1
  Pt  Pt14  1  0.118686  0.639425  0.120812  1
  Pt  Pt15  1  0.116137  0.121632  0.644698  1
  Pt  Pt16  1  0.116309  0.121916  0.117748  1
  Pt  Pt17  1  0.360558  0.881313  0.878931  1
  Pt  Pt18  1  0.881167  0.352541  0.883006  1
  Pt  Pt19  1  0.878077  0.883680  0.356008  1
  Pt  Pt20  1  0.878366  0.883873  0.882438  1
  Pt  Pt21  1  0.975705  0.336843  0.344071  1
  Pt  Pt22  1  0.337641  0.991099  0.335531  1
  Pt  Pt23  1  0.345424  0.335292  0.981842  1
  Pt  Pt24  1  0.344556  0.335385  0.337467  1
  Pt  Pt25  1  0.008911  0.662371  0.664252  1
  Pt  Pt26  1  0.663195  0.024299  0.656588  1
  Pt  Pt27  1  0.664595  0.655448  0.017423  1
  Pt  Pt28  1  0.664691  0.654590  0.662540  1
