# generated using pymatgen
data_YbU(Be12Cu)2
_symmetry_space_group_name_H-M   'P 1'
_cell_length_a   7.25844269
_cell_length_b   7.28620189
_cell_length_c   7.28291440
_cell_angle_alpha   59.76294212
_cell_angle_beta   60.14102960
_cell_angle_gamma   60.02384864
_symmetry_Int_Tables_number   1
_chemical_formula_structural   YbU(Be12Cu)2
_chemical_formula_sum   'Yb1 U1 Be24 Cu2'
_cell_volume   272.19989181
_cell_formula_units_Z   1
loop_
 _symmetry_equiv_pos_site_id
 _symmetry_equiv_pos_as_xyz
  1  'x, y, z'
loop_
 _atom_site_type_symbol
 _atom_site_label
 _atom_site_symmetry_multiplicity
 _atom_site_fract_x
 _atom_site_fract_y
 _atom_site_fract_z
 _atom_site_occupancy
  Yb  Yb0  1  0.751703  0.751703  0.748297  1
  U  U1  1  0.249525  0.249525  0.250475  1
  Be  Be2  1  0.999853  0.999853  0.000147  1
  Be  Be3  1  0.499602  0.499602  0.500398  1
  Be  Be4  1  0.940863  0.293911  0.063664  1
  Be  Be5  1  0.790257  0.433218  0.561632  1
  Be  Be6  1  0.433218  0.790257  0.214892  1
  Be  Be7  1  0.217481  0.428329  0.786761  1
  Be  Be8  1  0.786453  0.561822  0.217487  1
  Be  Be9  1  0.438531  0.560102  0.789738  1
  Be  Be10  1  0.213888  0.794137  0.557324  1
  Be  Be11  1  0.069141  0.939267  0.288777  1
  Be  Be12  1  0.291638  0.063330  0.941389  1
  Be  Be13  1  0.941338  0.700629  0.296083  1
  Be  Be14  1  0.939267  0.069141  0.702815  1
  Be  Be15  1  0.292509  0.706834  0.065803  1
  Be  Be16  1  0.700629  0.941338  0.061950  1
  Be  Be17  1  0.706834  0.292509  0.934854  1
  Be  Be18  1  0.063330  0.291638  0.703643  1
  Be  Be19  1  0.561822  0.786453  0.434238  1
  Be  Be20  1  0.561009  0.214521  0.790776  1
  Be  Be21  1  0.794137  0.213888  0.434650  1
  Be  Be22  1  0.560102  0.438531  0.211628  1
  Be  Be23  1  0.214521  0.561009  0.433694  1
  Be  Be24  1  0.428329  0.217481  0.567428  1
  Be  Be25  1  0.293911  0.940863  0.701563  1
  Cu  Cu26  1  0.699719  0.060388  0.301315  1
  Cu  Cu27  1  0.060388  0.699719  0.938578  1
