# generated using pymatgen
data_Sc8Ti7Ge16Mo5
_symmetry_space_group_name_H-M   'P 1'
_cell_length_a   6.76553108
_cell_length_b   6.92549209
_cell_length_c   13.11998885
_cell_angle_alpha   89.99072931
_cell_angle_beta   90.10806083
_cell_angle_gamma   90.01533685
_symmetry_Int_Tables_number   1
_chemical_formula_structural   Sc8Ti7Ge16Mo5
_chemical_formula_sum   'Sc8 Ti7 Ge16 Mo5'
_cell_volume   614.73112553
_cell_formula_units_Z   1
loop_
 _symmetry_equiv_pos_site_id
 _symmetry_equiv_pos_as_xyz
  1  'x, y, z'
loop_
 _atom_site_type_symbol
 _atom_site_label
 _atom_site_symmetry_multiplicity
 _atom_site_fract_x
 _atom_site_fract_y
 _atom_site_fract_z
 _atom_site_occupancy
  Sc  Sc0  1  0.490066  0.673044  0.593881  1
  Sc  Sc1  1  0.993624  0.824001  0.905476  1
  Sc  Sc2  1  0.507010  0.323671  0.094640  1
  Sc  Sc3  1  0.007548  0.176593  0.407884  1
  Sc  Sc4  1  0.507561  0.324346  0.405668  1
  Sc  Sc5  1  0.006404  0.175446  0.094228  1
  Sc  Sc6  1  0.492594  0.675329  0.906420  1
  Sc  Sc7  1  0.992910  0.822113  0.593797  1
  Ti  Ti8  1  0.659096  0.167434  0.626670  1
  Ti  Ti9  1  0.163563  0.333833  0.872478  1
  Ti  Ti10  1  0.338653  0.834045  0.126847  1
  Ti  Ti11  1  0.839093  0.666516  0.373283  1
  Ti  Ti12  1  0.338729  0.833961  0.373983  1
  Ti  Ti13  1  0.838858  0.665878  0.126898  1
  Ti  Ti14  1  0.661525  0.166504  0.872003  1
  Ge  Ge15  1  0.679924  0.962043  0.458270  1
  Ge  Ge16  1  0.179312  0.538427  0.041948  1
  Ge  Ge17  1  0.320227  0.039231  0.957993  1
  Ge  Ge18  1  0.822515  0.461950  0.541982  1
  Ge  Ge19  1  0.318937  0.038631  0.541985  1
  Ge  Ge20  1  0.821594  0.461889  0.957648  1
  Ge  Ge21  1  0.678700  0.961421  0.042445  1
  Ge  Ge22  1  0.180638  0.540090  0.458237  1
  Ge  Ge23  1  0.463383  0.383224  0.750622  1
  Ge  Ge24  1  0.964113  0.118105  0.749270  1
  Ge  Ge25  1  0.536254  0.617777  0.250268  1
  Ge  Ge26  1  0.036848  0.882067  0.250104  1
  Ge  Ge27  1  0.692532  0.852025  0.749389  1
  Ge  Ge28  1  0.191828  0.647924  0.750656  1
  Ge  Ge29  1  0.306288  0.147685  0.250527  1
  Ge  Ge30  1  0.807012  0.352106  0.249836  1
  Mo  Mo31  1  0.163535  0.335270  0.626181  1
  Mo  Mo32  1  0.834372  0.488203  0.748992  1
  Mo  Mo33  1  0.335504  0.011256  0.749032  1
  Mo  Mo34  1  0.164950  0.508743  0.250227  1
  Mo  Mo35  1  0.664299  0.989219  0.250235  1
