# generated using pymatgen
data_Tb5NdDy10Cd4IrPt3
_symmetry_space_group_name_H-M   'P 1'
_cell_length_a   9.72570955
_cell_length_b   9.69224164
_cell_length_c   9.68723300
_cell_angle_alpha   60.01709647
_cell_angle_beta   60.13078635
_cell_angle_gamma   60.05541828
_symmetry_Int_Tables_number   1
_chemical_formula_structural   Tb5NdDy10Cd4IrPt3
_chemical_formula_sum   'Tb5 Nd1 Dy10 Cd4 Ir1 Pt3'
_cell_volume   646.68958429
_cell_formula_units_Z   1
loop_
 _symmetry_equiv_pos_site_id
 _symmetry_equiv_pos_as_xyz
  1  'x, y, z'
loop_
 _atom_site_type_symbol
 _atom_site_label
 _atom_site_symmetry_multiplicity
 _atom_site_fract_x
 _atom_site_fract_y
 _atom_site_fract_z
 _atom_site_occupancy
  Tb  Tb0  1  0.937645  0.560904  0.563975  1
  Tb  Tb1  1  0.562610  0.937550  0.938100  1
  Tb  Tb2  1  0.562610  0.937550  0.561741  1
  Tb  Tb3  1  0.937645  0.560904  0.937478  1
  Tb  Tb4  1  0.566324  0.562647  0.935515  1
  Nd  Nd5  1  0.936460  0.935948  0.563796  1
  Dy  Dy6  1  0.353153  0.348974  0.347558  1
  Dy  Dy7  1  0.353153  0.348974  0.950314  1
  Dy  Dy8  1  0.356613  0.946130  0.348628  1
  Dy  Dy9  1  0.939295  0.355929  0.352388  1
  Dy  Dy10  1  0.807633  0.190146  0.188464  1
  Dy  Dy11  1  0.191905  0.809851  0.809823  1
  Dy  Dy12  1  0.191905  0.809851  0.188420  1
  Dy  Dy13  1  0.807633  0.190146  0.813758  1
  Dy  Dy14  1  0.191953  0.189736  0.809156  1
  Dy  Dy15  1  0.808506  0.814929  0.188283  1
  Cd  Cd16  1  0.580755  0.581301  0.581894  1
  Cd  Cd17  1  0.580755  0.581301  0.256049  1
  Cd  Cd18  1  0.578642  0.256177  0.582590  1
  Cd  Cd19  1  0.257931  0.578505  0.581781  1
  Ir  Ir20  1  0.572614  0.141852  0.142767  1
  Pt  Pt21  1  0.142046  0.144769  0.143366  1
  Pt  Pt22  1  0.142046  0.144769  0.569817  1
  Pt  Pt23  1  0.140173  0.571153  0.144336  1
