# generated using pymatgen
data_TbYLu14(In3Co)2
_symmetry_space_group_name_H-M   'P 1'
_cell_length_a   10.14870400
_cell_length_b   10.14870495
_cell_length_c   6.92133200
_cell_angle_alpha   90.00000000
_cell_angle_beta   90.00000000
_cell_angle_gamma   120.00000342
_symmetry_Int_Tables_number   1
_chemical_formula_structural   TbYLu14(In3Co)2
_chemical_formula_sum   'Tb1 Y1 Lu14 In6 Co2'
_cell_volume   617.36429852
_cell_formula_units_Z   1
loop_
 _symmetry_equiv_pos_site_id
 _symmetry_equiv_pos_as_xyz
  1  'x, y, z'
loop_
 _atom_site_type_symbol
 _atom_site_label
 _atom_site_symmetry_multiplicity
 _atom_site_fract_x
 _atom_site_fract_y
 _atom_site_fract_z
 _atom_site_occupancy
  Tb  Tb0  1  0.000000  0.000000  0.495676  1
  Y  Y1  1  0.000000  0.000000  0.995569  1
  Lu  Lu2  1  0.464701  0.535299  0.481970  1
  Lu  Lu3  1  0.070600  0.535299  0.481970  1
  Lu  Lu4  1  0.464701  0.929400  0.481970  1
  Lu  Lu5  1  0.535290  0.464710  0.981954  1
  Lu  Lu6  1  0.929418  0.464710  0.981954  1
  Lu  Lu7  1  0.535290  0.070582  0.981954  1
  Lu  Lu8  1  0.820197  0.179803  0.276478  1
  Lu  Lu9  1  0.359606  0.179803  0.276478  1
  Lu  Lu10  1  0.820197  0.640394  0.276478  1
  Lu  Lu11  1  0.179818  0.820182  0.776514  1
  Lu  Lu12  1  0.640363  0.820182  0.776514  1
  Lu  Lu13  1  0.179818  0.359637  0.776514  1
  Lu  Lu14  1  0.333333  0.666667  0.090807  1
  Lu  Lu15  1  0.666667  0.333333  0.590915  1
  In  In16  1  0.163569  0.836431  0.234497  1
  In  In17  1  0.672861  0.836431  0.234497  1
  In  In18  1  0.163569  0.327139  0.234497  1
  In  In19  1  0.836434  0.163566  0.734695  1
  In  In20  1  0.327132  0.163566  0.734695  1
  In  In21  1  0.836434  0.672868  0.734695  1
  Co  Co22  1  0.333333  0.666667  0.706543  1
  Co  Co23  1  0.666667  0.333333  0.206715  1
