# generated using pymatgen
data_Th3InPd11Pt
_symmetry_space_group_name_H-M   'P 1'
_cell_length_a   5.89334600
_cell_length_b   5.89095996
_cell_length_c   9.71603600
_cell_angle_alpha   90.00000000
_cell_angle_beta   90.00000000
_cell_angle_gamma   120.01339933
_symmetry_Int_Tables_number   1
_chemical_formula_structural   Th3InPd11Pt
_chemical_formula_sum   'Th3 In1 Pd11 Pt1'
_cell_volume   292.08489795
_cell_formula_units_Z   1
loop_
 _symmetry_equiv_pos_site_id
 _symmetry_equiv_pos_as_xyz
  1  'x, y, z'
loop_
 _atom_site_type_symbol
 _atom_site_label
 _atom_site_symmetry_multiplicity
 _atom_site_fract_x
 _atom_site_fract_y
 _atom_site_fract_z
 _atom_site_occupancy
  Th  Th0  1  0.000370  0.000740  0.495975  1
  Th  Th1  1  0.000370  0.000740  0.004025  1
  Th  Th2  1  0.666285  0.332568  0.750000  1
  In  In3  1  0.333157  0.666316  0.250000  1
  Pd  Pd4  1  0.499500  0.501148  0.496995  1
  Pd  Pd5  1  0.499244  0.998488  0.496626  1
  Pd  Pd6  1  0.001649  0.501148  0.496995  1
  Pd  Pd7  1  0.499500  0.501148  0.003005  1
  Pd  Pd8  1  0.499244  0.998488  0.003374  1
  Pd  Pd9  1  0.001649  0.501148  0.003005  1
  Pd  Pd10  1  0.825008  0.650015  0.250000  1
  Pd  Pd11  1  0.348929  0.174567  0.250000  1
  Pd  Pd12  1  0.825639  0.174567  0.250000  1
  Pd  Pd13  1  0.652745  0.826426  0.750000  1
  Pd  Pd14  1  0.173682  0.826426  0.750000  1
  Pt  Pt15  1  0.173034  0.346067  0.750000  1
