# generated using pymatgen
data_Pa3Zn3Pd2Pt
_symmetry_space_group_name_H-M   'P 1'
_cell_length_a   7.28035600
_cell_length_b   7.28035702
_cell_length_c   3.91966000
_cell_angle_alpha   90.00000000
_cell_angle_beta   90.00000000
_cell_angle_gamma   119.99998628
_symmetry_Int_Tables_number   1
_chemical_formula_structural   Pa3Zn3Pd2Pt
_chemical_formula_sum   'Pa3 Zn3 Pd2 Pt1'
_cell_volume   179.92204644
_cell_formula_units_Z   1
loop_
 _symmetry_equiv_pos_site_id
 _symmetry_equiv_pos_as_xyz
  1  'x, y, z'
loop_
 _atom_site_type_symbol
 _atom_site_label
 _atom_site_symmetry_multiplicity
 _atom_site_fract_x
 _atom_site_fract_y
 _atom_site_fract_z
 _atom_site_occupancy
  Pa  Pa0  1  0.591427  0.589186  0.000000  1
  Pa  Pa1  1  0.410814  0.002241  0.000000  1
  Pa  Pa2  1  0.997759  0.408573  0.000000  1
  Zn  Zn3  1  0.248357  0.251094  0.500000  1
  Zn  Zn4  1  0.748906  0.997264  0.500000  1
  Zn  Zn5  1  0.002736  0.751643  0.500000  1
  Pd  Pd6  1  0.000000  0.000000  0.000000  1
  Pd  Pd7  1  0.333333  0.666667  0.500000  1
  Pt  Pt8  1  0.666667  0.333333  0.500000  1
