# generated using pymatgen
data_Ta2HgF12
_symmetry_space_group_name_H-M   'P 1'
_cell_length_a   5.44321089
_cell_length_b   5.87983784
_cell_length_c   9.46199923
_cell_angle_alpha   104.48734028
_cell_angle_beta   90.21497212
_cell_angle_gamma   117.80597870
_symmetry_Int_Tables_number   1
_chemical_formula_structural   Ta2HgF12
_chemical_formula_sum   'Ta2 Hg1 F12'
_cell_volume   256.77047189
_cell_formula_units_Z   1
loop_
 _symmetry_equiv_pos_site_id
 _symmetry_equiv_pos_as_xyz
  1  'x, y, z'
loop_
 _atom_site_type_symbol
 _atom_site_label
 _atom_site_symmetry_multiplicity
 _atom_site_fract_x
 _atom_site_fract_y
 _atom_site_fract_z
 _atom_site_occupancy
  Ta  Ta0  1  0.776025  0.511752  0.269520  1
  Ta  Ta1  1  0.223975  0.488248  0.730480  1
  Hg  Hg2  1  0.000000  0.000000  0.000000  1
  F  F3  1  0.834222  0.270659  0.715850  1
  F  F4  1  0.165778  0.729341  0.284150  1
  F  F5  1  0.198595  0.730491  0.916778  1
  F  F6  1  0.718828  0.724689  0.434337  1
  F  F7  1  0.281172  0.275311  0.565663  1
  F  F8  1  0.799518  0.282802  0.369437  1
  F  F9  1  0.200482  0.717198  0.630563  1
  F  F10  1  0.369878  0.281297  0.204426  1
  F  F11  1  0.630122  0.718703  0.795574  1
  F  F12  1  0.739445  0.716783  0.138431  1
  F  F13  1  0.260555  0.283217  0.861569  1
  F  F14  1  0.801405  0.269509  0.083222  1
