# generated using pymatgen
data_LuSc(Si7Ir3)2
_symmetry_space_group_name_H-M   'P 1'
_cell_length_a   8.00637655
_cell_length_b   8.00637644
_cell_length_c   8.00637757
_cell_angle_alpha   56.48727108
_cell_angle_beta   56.48726891
_cell_angle_gamma   56.48726849
_symmetry_Int_Tables_number   1
_chemical_formula_structural   LuSc(Si7Ir3)2
_chemical_formula_sum   'Lu1 Sc1 Si14 Ir6'
_cell_volume   333.43844448
_cell_formula_units_Z   1
loop_
 _symmetry_equiv_pos_site_id
 _symmetry_equiv_pos_as_xyz
  1  'x, y, z'
loop_
 _atom_site_type_symbol
 _atom_site_label
 _atom_site_symmetry_multiplicity
 _atom_site_fract_x
 _atom_site_fract_y
 _atom_site_fract_z
 _atom_site_occupancy
  Lu  Lu0  1  0.500000  0.500000  0.500000  1
  Sc  Sc1  1  0.000000  0.000000  0.000000  1
  Si  Si2  1  0.749938  0.749938  0.749938  1
  Si  Si3  1  0.250062  0.250062  0.250062  1
  Si  Si4  1  0.850820  0.064140  0.672815  1
  Si  Si5  1  0.672815  0.850820  0.064140  1
  Si  Si6  1  0.064140  0.672815  0.850820  1
  Si  Si7  1  0.649904  0.828062  0.434868  1
  Si  Si8  1  0.434868  0.649904  0.828062  1
  Si  Si9  1  0.828062  0.434868  0.649904  1
  Si  Si10  1  0.171938  0.565132  0.350096  1
  Si  Si11  1  0.565132  0.350096  0.171938  1
  Si  Si12  1  0.350096  0.171938  0.565132  1
  Si  Si13  1  0.935860  0.327185  0.149180  1
  Si  Si14  1  0.327185  0.149180  0.935860  1
  Si  Si15  1  0.149180  0.935860  0.327185  1
  Ir  Ir16  1  0.071684  0.426726  0.751039  1
  Ir  Ir17  1  0.248961  0.928316  0.573274  1
  Ir  Ir18  1  0.573274  0.248961  0.928316  1
  Ir  Ir19  1  0.928316  0.573274  0.248961  1
  Ir  Ir20  1  0.426726  0.751039  0.071684  1
  Ir  Ir21  1  0.751039  0.071684  0.426726  1
