# generated using pymatgen
data_Ho3Th11(Os2Ru)2
_symmetry_space_group_name_H-M   'P 1'
_cell_length_a   9.88178704
_cell_length_b   9.93823003
_cell_length_c   6.38371512
_cell_angle_alpha   90.06169870
_cell_angle_beta   89.80834123
_cell_angle_gamma   120.16541112
_symmetry_Int_Tables_number   1
_chemical_formula_structural   Ho3Th11(Os2Ru)2
_chemical_formula_sum   'Ho3 Th11 Os4 Ru2'
_cell_volume   542.02564375
_cell_formula_units_Z   1
loop_
 _symmetry_equiv_pos_site_id
 _symmetry_equiv_pos_as_xyz
  1  'x, y, z'
loop_
 _atom_site_type_symbol
 _atom_site_label
 _atom_site_symmetry_multiplicity
 _atom_site_fract_x
 _atom_site_fract_y
 _atom_site_fract_z
 _atom_site_occupancy
  Ho  Ho0  1  0.459914  0.535777  0.297434  1
  Ho  Ho1  1  0.072898  0.535501  0.299416  1
  Ho  Ho2  1  0.926523  0.462961  0.801094  1
  Th  Th3  1  0.252155  0.128399  0.510258  1
  Th  Th4  1  0.542822  0.081396  0.796254  1
  Th  Th5  1  0.746104  0.872878  0.014629  1
  Th  Th6  1  0.667230  0.334145  0.275440  1
  Th  Th7  1  0.126103  0.870257  0.008861  1
  Th  Th8  1  0.458653  0.917408  0.296846  1
  Th  Th9  1  0.539578  0.466699  0.799994  1
  Th  Th10  1  0.876261  0.130198  0.512251  1
  Th  Th11  1  0.125603  0.254256  0.014336  1
  Th  Th12  1  0.874593  0.747040  0.509343  1
  Th  Th13  1  0.332417  0.665221  0.771302  1
  Os  Os14  1  0.813682  0.628867  0.048860  1
  Os  Os15  1  0.814933  0.184943  0.047721  1
  Os  Os16  1  0.628253  0.812873  0.546767  1
  Os  Os17  1  0.371401  0.187627  0.041338  1
  Ru  Ru18  1  0.183313  0.365088  0.549978  1
  Ru  Ru19  1  0.187564  0.818465  0.541873  1
