# generated using pymatgen
data_TbTm5NbCo17P12
_symmetry_space_group_name_H-M   'P 1'
_cell_length_a   3.68349600
_cell_length_b   10.53678800
_cell_length_c   12.21662400
_cell_angle_alpha   90.00000000
_cell_angle_beta   90.00000000
_cell_angle_gamma   90.00000000
_symmetry_Int_Tables_number   1
_chemical_formula_structural   TbTm5NbCo17P12
_chemical_formula_sum   'Tb1 Tm5 Nb1 Co17 P12'
_cell_volume   474.15425499
_cell_formula_units_Z   1
loop_
 _symmetry_equiv_pos_site_id
 _symmetry_equiv_pos_as_xyz
  1  'x, y, z'
loop_
 _atom_site_type_symbol
 _atom_site_label
 _atom_site_symmetry_multiplicity
 _atom_site_fract_x
 _atom_site_fract_y
 _atom_site_fract_z
 _atom_site_occupancy
  Tb  Tb0  1  0.500000  0.000000  0.476934  1
  Tm  Tm1  1  0.000000  0.500000  0.527616  1
  Tm  Tm2  1  0.500000  0.819802  0.206915  1
  Tm  Tm3  1  0.500000  0.180198  0.206915  1
  Tm  Tm4  1  0.000000  0.682413  0.795973  1
  Tm  Tm5  1  0.000000  0.317587  0.795973  1
  Nb  Nb6  1  0.500000  0.500000  0.155523  1
  Co  Co7  1  0.000000  0.000000  0.838487  1
  Co  Co8  1  0.500000  0.500000  0.701868  1
  Co  Co9  1  0.000000  0.000000  0.295404  1
  Co  Co10  1  0.000000  0.500000  0.983949  1
  Co  Co11  1  0.500000  0.000000  0.014319  1
  Co  Co12  1  0.500000  0.329706  0.988891  1
  Co  Co13  1  0.500000  0.670294  0.988891  1
  Co  Co14  1  0.000000  0.163865  0.003967  1
  Co  Co15  1  0.000000  0.836135  0.003967  1
  Co  Co16  1  0.500000  0.296007  0.433206  1
  Co  Co17  1  0.500000  0.703993  0.433206  1
  Co  Co18  1  0.000000  0.203528  0.569972  1
  Co  Co19  1  0.000000  0.796472  0.569972  1
  Co  Co20  1  0.500000  0.878830  0.708416  1
  Co  Co21  1  0.500000  0.121170  0.708416  1
  Co  Co22  1  0.000000  0.623241  0.294701  1
  Co  Co23  1  0.000000  0.376759  0.294701  1
  P  P24  1  0.500000  0.500000  0.880056  1
  P  P25  1  0.000000  0.000000  0.117305  1
  P  P26  1  0.500000  0.500000  0.357447  1
  P  P27  1  0.000000  0.000000  0.655737  1
  P  P28  1  0.500000  0.310914  0.617900  1
  P  P29  1  0.500000  0.689086  0.617900  1
  P  P30  1  0.000000  0.188548  0.384797  1
  P  P31  1  0.000000  0.811452  0.384797  1
  P  P32  1  0.500000  0.850704  0.889469  1
  P  P33  1  0.500000  0.149296  0.889469  1
  P  P34  1  0.000000  0.661574  0.103468  1
  P  P35  1  0.000000  0.338426  0.103468  1
