# generated using pymatgen
data_PrTm10In9Ir4
_symmetry_space_group_name_H-M   'P 1'
_cell_length_a   13.07876083
_cell_length_b   13.07876054
_cell_length_c   3.60647600
_cell_angle_alpha   90.00000000
_cell_angle_beta   90.00000000
_cell_angle_gamma   111.16336351
_symmetry_Int_Tables_number   1
_chemical_formula_structural   PrTm10In9Ir4
_chemical_formula_sum   'Pr1 Tm10 In9 Ir4'
_cell_volume   575.29502004
_cell_formula_units_Z   1
loop_
 _symmetry_equiv_pos_site_id
 _symmetry_equiv_pos_as_xyz
  1  'x, y, z'
loop_
 _atom_site_type_symbol
 _atom_site_label
 _atom_site_symmetry_multiplicity
 _atom_site_fract_x
 _atom_site_fract_y
 _atom_site_fract_z
 _atom_site_occupancy
  Pr  Pr0  1  0.659975  0.340025  0.500000  1
  Tm  Tm1  1  0.500030  0.499970  0.500000  1
  Tm  Tm2  1  0.814634  0.815121  0.500000  1
  Tm  Tm3  1  0.184879  0.185366  0.500000  1
  Tm  Tm4  1  0.577192  0.916839  0.500000  1
  Tm  Tm5  1  0.421327  0.081478  0.500000  1
  Tm  Tm6  1  0.918522  0.578673  0.500000  1
  Tm  Tm7  1  0.083161  0.422808  0.500000  1
  Tm  Tm8  1  0.125496  0.874504  0.500000  1
  Tm  Tm9  1  0.874880  0.125120  0.500000  1
  Tm  Tm10  1  0.339044  0.660956  0.500000  1
  In  In11  1  0.342878  0.867658  0.000000  1
  In  In12  1  0.659111  0.127844  0.000000  1
  In  In13  1  0.872156  0.340889  0.000000  1
  In  In14  1  0.132342  0.657122  0.000000  1
  In  In15  1  0.574648  0.718627  0.000000  1
  In  In16  1  0.418521  0.280469  0.000000  1
  In  In17  1  0.719531  0.581479  0.000000  1
  In  In18  1  0.281373  0.425352  0.000000  1
  In  In19  1  0.999968  0.000032  0.000000  1
  Ir  Ir20  1  0.747375  0.950580  0.000000  1
  Ir  Ir21  1  0.253195  0.049657  0.000000  1
  Ir  Ir22  1  0.950343  0.746805  0.000000  1
  Ir  Ir23  1  0.049420  0.252625  0.000000  1
