# generated using pymatgen
data_LuRhF7
_symmetry_space_group_name_H-M   'P 1'
_cell_length_a   5.53622800
_cell_length_b   5.88042181
_cell_length_c   8.09256600
_cell_angle_alpha   102.28888571
_cell_angle_beta   90.00000000
_cell_angle_gamma   90.00000000
_symmetry_Int_Tables_number   1
_chemical_formula_structural   LuRhF7
_chemical_formula_sum   'Lu2 Rh2 F14'
_cell_volume   257.41975878
_cell_formula_units_Z   2
loop_
 _symmetry_equiv_pos_site_id
 _symmetry_equiv_pos_as_xyz
  1  'x, y, z'
loop_
 _atom_site_type_symbol
 _atom_site_label
 _atom_site_symmetry_multiplicity
 _atom_site_fract_x
 _atom_site_fract_y
 _atom_site_fract_z
 _atom_site_occupancy
  Lu  Lu0  1  0.698116  0.653110  0.684408  1
  Lu  Lu1  1  0.198116  0.346890  0.315592  1
  Rh  Rh2  1  0.709635  0.813585  0.224333  1
  Rh  Rh3  1  0.209635  0.186415  0.775667  1
  F  F4  1  0.894160  0.455271  0.480189  1
  F  F5  1  0.394160  0.544729  0.519811  1
  F  F6  1  0.425641  0.924198  0.769724  1
  F  F7  1  0.925641  0.075802  0.230276  1
  F  F8  1  0.937146  0.964612  0.761338  1
  F  F9  1  0.437146  0.035388  0.238662  1
  F  F10  1  0.997308  0.455234  0.790033  1
  F  F11  1  0.497308  0.544766  0.209967  1
  F  F12  1  0.704528  0.760596  0.980999  1
  F  F13  1  0.204528  0.239404  0.019001  1
  F  F14  1  0.711520  0.871595  0.468577  1
  F  F15  1  0.211520  0.128405  0.531423  1
  F  F16  1  0.498307  0.387579  0.788678  1
  F  F17  1  0.998307  0.612421  0.211322  1
