# generated using pymatgen
data_GdTh3(ZnGe)4
_symmetry_space_group_name_H-M   'P 1'
_cell_length_a   4.24050700
_cell_length_b   4.24050743
_cell_length_c   16.75835600
_cell_angle_alpha   90.00000000
_cell_angle_beta   90.00000000
_cell_angle_gamma   120.00000441
_symmetry_Int_Tables_number   1
_chemical_formula_structural   GdTh3(ZnGe)4
_chemical_formula_sum   'Gd1 Th3 Zn4 Ge4'
_cell_volume   260.97423774
_cell_formula_units_Z   1
loop_
 _symmetry_equiv_pos_site_id
 _symmetry_equiv_pos_as_xyz
  1  'x, y, z'
loop_
 _atom_site_type_symbol
 _atom_site_label
 _atom_site_symmetry_multiplicity
 _atom_site_fract_x
 _atom_site_fract_y
 _atom_site_fract_z
 _atom_site_occupancy
  Gd  Gd0  1  0.000000  0.000000  0.250000  1
  Th  Th1  1  0.000000  0.000000  0.750000  1
  Th  Th2  1  0.000000  0.000000  0.496360  1
  Th  Th3  1  0.000000  0.000000  0.003640  1
  Zn  Zn4  1  0.666667  0.333333  0.872709  1
  Zn  Zn5  1  0.666667  0.333333  0.627291  1
  Zn  Zn6  1  0.333333  0.666667  0.142446  1
  Zn  Zn7  1  0.333333  0.666667  0.357554  1
  Ge  Ge8  1  0.666667  0.333333  0.122628  1
  Ge  Ge9  1  0.666667  0.333333  0.377372  1
  Ge  Ge10  1  0.333333  0.666667  0.879121  1
  Ge  Ge11  1  0.333333  0.666667  0.620879  1
