# generated using pymatgen
data_Pr3Dy2P12Ru10Rh9
_symmetry_space_group_name_H-M   'P 1'
_cell_length_a   12.68333611
_cell_length_b   12.67686605
_cell_length_c   3.96095100
_cell_angle_alpha   90.00000000
_cell_angle_beta   90.00000000
_cell_angle_gamma   119.92302639
_symmetry_Int_Tables_number   1
_chemical_formula_structural   Pr3Dy2P12Ru10Rh9
_chemical_formula_sum   'Pr3 Dy2 P12 Ru10 Rh9'
_cell_volume   551.96537755
_cell_formula_units_Z   1
loop_
 _symmetry_equiv_pos_site_id
 _symmetry_equiv_pos_as_xyz
  1  'x, y, z'
loop_
 _atom_site_type_symbol
 _atom_site_label
 _atom_site_symmetry_multiplicity
 _atom_site_fract_x
 _atom_site_fract_y
 _atom_site_fract_z
 _atom_site_occupancy
  Pr  Pr0  1  0.666185  0.333054  0.000000  1
  Pr  Pr1  1  0.812788  0.000439  0.500000  1
  Pr  Pr2  1  0.185674  0.186856  0.500000  1
  Dy  Dy3  1  0.333706  0.667602  0.000000  1
  Dy  Dy4  1  0.999796  0.811930  0.500000  1
  P  P5  1  0.627959  0.997551  0.000000  1
  P  P6  1  0.368866  0.375172  0.000000  1
  P  P7  1  0.005882  0.633132  0.000000  1
  P  P8  1  0.686653  0.521623  0.500000  1
  P  P9  1  0.832695  0.308762  0.500000  1
  P  P10  1  0.313788  0.830289  0.500000  1
  P  P11  1  0.518111  0.687775  0.500000  1
  P  P12  1  0.180140  0.996942  0.000000  1
  P  P13  1  0.818483  0.816414  0.000000  1
  P  P14  1  0.997688  0.184507  0.000000  1
  P  P15  1  0.475718  0.162439  0.500000  1
  P  P16  1  0.170466  0.484823  0.500000  1
  Ru  Ru17  1  0.127905  0.641053  0.500000  1
  Ru  Ru18  1  0.362510  0.490134  0.500000  1
  Ru  Ru19  1  0.511380  0.871286  0.500000  1
  Ru  Ru20  1  0.715652  0.714294  0.500000  1
  Ru  Ru21  1  0.002814  0.289434  0.500000  1
  Ru  Ru22  1  0.448660  0.000222  0.000000  1
  Ru  Ru23  1  0.554480  0.547897  0.000000  1
  Ru  Ru24  1  0.000911  0.450997  0.000000  1
  Ru  Ru25  1  0.818495  0.198181  0.000000  1
  Ru  Ru26  1  0.283142  0.997185  0.500000  1
  Rh  Rh27  1  0.620825  0.799966  0.000000  1
  Rh  Rh28  1  0.182441  0.380867  0.000000  1
  Rh  Rh29  1  0.375872  0.180938  0.000000  1
  Rh  Rh30  1  0.195210  0.819105  0.000000  1
  Rh  Rh31  1  0.809662  0.625531  0.000000  1
  Rh  Rh32  1  0.873094  0.511046  0.500000  1
  Rh  Rh33  1  0.486915  0.359475  0.500000  1
  Rh  Rh34  1  0.635822  0.124932  0.500000  1
  Rh  Rh35  1  0.999612  0.998141  0.000000  1
