# generated using pymatgen
data_K16ThSnAs8
_symmetry_space_group_name_H-M   'P 1'
_cell_length_a   11.16650085
_cell_length_b   11.16732744
_cell_length_c   11.16715045
_cell_angle_alpha   60.02830541
_cell_angle_beta   60.02285050
_cell_angle_gamma   60.02367395
_symmetry_Int_Tables_number   1
_chemical_formula_structural   K16ThSnAs8
_chemical_formula_sum   'K16 Th1 Sn1 As8'
_cell_volume   985.23360761
_cell_formula_units_Z   1
loop_
 _symmetry_equiv_pos_site_id
 _symmetry_equiv_pos_as_xyz
  1  'x, y, z'
loop_
 _atom_site_type_symbol
 _atom_site_label
 _atom_site_symmetry_multiplicity
 _atom_site_fract_x
 _atom_site_fract_y
 _atom_site_fract_z
 _atom_site_occupancy
  K  K0  1  0.621050  0.136675  0.621230  1
  K  K1  1  0.621087  0.621223  0.136608  1
  K  K2  1  0.136930  0.621052  0.621081  1
  K  K3  1  0.620946  0.621071  0.621108  1
  K  K4  1  0.024835  0.024863  0.475196  1
  K  K5  1  0.780457  0.219517  0.219528  1
  K  K6  1  0.219456  0.780516  0.780548  1
  K  K7  1  0.780448  0.780553  0.219529  1
  K  K8  1  0.780443  0.219509  0.780585  1
  K  K9  1  0.219460  0.780531  0.219543  1
  K  K10  1  0.475090  0.024884  0.475168  1
  K  K11  1  0.475087  0.024915  0.024923  1
  K  K12  1  0.024816  0.475167  0.475186  1
  K  K13  1  0.024838  0.475159  0.024873  1
  K  K14  1  0.219449  0.219512  0.780570  1
  K  K15  1  0.475070  0.475128  0.024913  1
  Th  Th16  1  0.749999  0.750016  0.750003  1
  Sn  Sn17  1  0.500359  0.499859  0.499686  1
  As  As18  1  0.399392  0.801882  0.399311  1
  As  As19  1  0.855290  0.855344  0.434090  1
  As  As20  1  0.434032  0.855340  0.855348  1
  As  As21  1  0.855270  0.855321  0.855327  1
  As  As22  1  0.802223  0.399265  0.399238  1
  As  As23  1  0.399275  0.399250  0.399263  1
  As  As24  1  0.399412  0.399353  0.801801  1
  As  As25  1  0.855286  0.434098  0.855344  1
