# generated using pymatgen
data_ErThAs2PdPt
_symmetry_space_group_name_H-M   'P 1'
_cell_length_a   4.31591100
_cell_length_b   4.31591026
_cell_length_c   15.45821000
_cell_angle_alpha   90.00000000
_cell_angle_beta   90.00000000
_cell_angle_gamma   119.99999801
_symmetry_Int_Tables_number   1
_chemical_formula_structural   ErThAs2PdPt
_chemical_formula_sum   'Er2 Th2 As4 Pd2 Pt2'
_cell_volume   249.36455910
_cell_formula_units_Z   2
loop_
 _symmetry_equiv_pos_site_id
 _symmetry_equiv_pos_as_xyz
  1  'x, y, z'
loop_
 _atom_site_type_symbol
 _atom_site_label
 _atom_site_symmetry_multiplicity
 _atom_site_fract_x
 _atom_site_fract_y
 _atom_site_fract_z
 _atom_site_occupancy
  Er  Er0  1  0.000000  0.000000  0.249403  1
  Er  Er1  1  0.000000  0.000000  0.750597  1
  Th  Th2  1  0.000000  0.000000  0.500000  1
  Th  Th3  1  0.000000  0.000000  0.000000  1
  As  As4  1  0.333333  0.666667  0.881578  1
  As  As5  1  0.666667  0.333333  0.118422  1
  As  As6  1  0.666667  0.333333  0.383200  1
  As  As7  1  0.333333  0.666667  0.616800  1
  Pd  Pd8  1  0.333333  0.666667  0.355201  1
  Pd  Pd9  1  0.666667  0.333333  0.644799  1
  Pt  Pt10  1  0.666667  0.333333  0.855392  1
  Pt  Pt11  1  0.333333  0.666667  0.144608  1
