# generated using pymatgen
data_PrNd9(Si2Hg)2
_symmetry_space_group_name_H-M   'P 1'
_cell_length_a   7.78450571
_cell_length_b   7.78450438
_cell_length_c   9.30325581
_cell_angle_alpha   114.75086374
_cell_angle_beta   114.75086413
_cell_angle_gamma   90.08774572
_symmetry_Int_Tables_number   1
_chemical_formula_structural   PrNd9(Si2Hg)2
_chemical_formula_sum   'Pr1 Nd9 Si4 Hg2'
_cell_volume   454.13098467
_cell_formula_units_Z   1
loop_
 _symmetry_equiv_pos_site_id
 _symmetry_equiv_pos_as_xyz
  1  'x, y, z'
loop_
 _atom_site_type_symbol
 _atom_site_label
 _atom_site_symmetry_multiplicity
 _atom_site_fract_x
 _atom_site_fract_y
 _atom_site_fract_z
 _atom_site_occupancy
  Pr  Pr0  1  0.536170  0.036170  0.720928  1
  Nd  Nd1  1  0.500022  0.500072  0.000065  1
  Nd  Nd2  1  0.000072  0.000022  0.000065  1
  Nd  Nd3  1  0.963459  0.814805  0.278314  1
  Nd  Nd4  1  0.314805  0.463459  0.278314  1
  Nd  Nd5  1  0.814607  0.314607  0.278408  1
  Nd  Nd6  1  0.463575  0.963575  0.278298  1
  Nd  Nd7  1  0.036403  0.185293  0.721677  1
  Nd  Nd8  1  0.685293  0.536403  0.721677  1
  Nd  Nd9  1  0.185321  0.685321  0.721674  1
  Si  Si10  1  0.615264  0.884658  0.000322  1
  Si  Si11  1  0.384658  0.115264  0.000322  1
  Si  Si12  1  0.885230  0.385230  0.000147  1
  Si  Si13  1  0.115185  0.615185  0.000207  1
  Hg  Hg14  1  0.750206  0.749731  0.499790  1
  Hg  Hg15  1  0.249731  0.250206  0.499790  1
