# generated using pymatgen
data_Ca3Se2(BrO3)2
_symmetry_space_group_name_H-M   'P 1'
_cell_length_a   6.89858970
_cell_length_b   6.89858925
_cell_length_c   6.90954191
_cell_angle_alpha   82.91530576
_cell_angle_beta   82.91530636
_cell_angle_gamma   47.36285606
_symmetry_Int_Tables_number   1
_chemical_formula_structural   Ca3Se2(BrO3)2
_chemical_formula_sum   'Ca3 Se2 Br2 O6'
_cell_volume   239.70171064
_cell_formula_units_Z   1
loop_
 _symmetry_equiv_pos_site_id
 _symmetry_equiv_pos_as_xyz
  1  'x, y, z'
loop_
 _atom_site_type_symbol
 _atom_site_label
 _atom_site_symmetry_multiplicity
 _atom_site_fract_x
 _atom_site_fract_y
 _atom_site_fract_z
 _atom_site_occupancy
  Ca  Ca0  1  0.269834  0.293768  0.189740  1
  Ca  Ca1  1  0.706232  0.730166  0.810260  1
  Ca  Ca2  1  0.933752  0.066248  0.000000  1
  Se  Se3  1  0.403513  0.422557  0.744610  1
  Se  Se4  1  0.577443  0.596487  0.255390  1
  Br  Br5  1  0.186575  0.135931  0.617421  1
  Br  Br6  1  0.864069  0.813425  0.382579  1
  O  O7  1  0.868944  0.437552  0.103891  1
  O  O8  1  0.363446  0.884099  0.107762  1
  O  O9  1  0.115901  0.636554  0.892238  1
  O  O10  1  0.562448  0.131056  0.896109  1
  O  O11  1  0.523229  0.398386  0.215435  1
  O  O12  1  0.601614  0.476771  0.784565  1
