# generated using pymatgen
data_Tm16MgHg3Pt4
_symmetry_space_group_name_H-M   'P 1'
_cell_length_a   9.55671026
_cell_length_b   9.54899812
_cell_length_c   9.54899800
_cell_angle_alpha   60.00000041
_cell_angle_beta   60.02669173
_cell_angle_gamma   60.02668722
_symmetry_Int_Tables_number   1
_chemical_formula_structural   Tm16MgHg3Pt4
_chemical_formula_sum   'Tm16 Mg1 Hg3 Pt4'
_cell_volume   616.43049388
_cell_formula_units_Z   1
loop_
 _symmetry_equiv_pos_site_id
 _symmetry_equiv_pos_as_xyz
  1  'x, y, z'
loop_
 _atom_site_type_symbol
 _atom_site_label
 _atom_site_symmetry_multiplicity
 _atom_site_fract_x
 _atom_site_fract_y
 _atom_site_fract_z
 _atom_site_occupancy
  Tm  Tm0  1  0.604362  0.601832  0.601832  1
  Tm  Tm1  1  0.604362  0.601832  0.191975  1
  Tm  Tm2  1  0.604362  0.191975  0.601832  1
  Tm  Tm3  1  0.182316  0.605895  0.605895  1
  Tm  Tm4  1  0.059229  0.440201  0.440201  1
  Tm  Tm5  1  0.436182  0.062494  0.062494  1
  Tm  Tm6  1  0.436182  0.062494  0.438830  1
  Tm  Tm7  1  0.059229  0.440201  0.060369  1
  Tm  Tm8  1  0.436182  0.438830  0.062494  1
  Tm  Tm9  1  0.059229  0.060369  0.440201  1
  Tm  Tm10  1  0.183139  0.815732  0.815732  1
  Tm  Tm11  1  0.813968  0.185471  0.185471  1
  Tm  Tm12  1  0.813968  0.185471  0.815090  1
  Tm  Tm13  1  0.183139  0.815732  0.185397  1
  Tm  Tm14  1  0.813968  0.815090  0.185471  1
  Tm  Tm15  1  0.183139  0.185397  0.815732  1
  Mg  Mg16  1  0.530809  0.823063  0.823063  1
  Hg  Hg17  1  0.833593  0.838492  0.838492  1
  Hg  Hg18  1  0.833593  0.838492  0.489424  1
  Hg  Hg19  1  0.833593  0.489424  0.838492  1
  Pt  Pt20  1  0.391845  0.394734  0.394734  1
  Pt  Pt21  1  0.391845  0.394734  0.818688  1
  Pt  Pt22  1  0.391845  0.818688  0.394734  1
  Pt  Pt23  1  0.819931  0.393357  0.393357  1
