# generated using pymatgen
data_Tb4Sm4Sc11Si16Hg
_symmetry_space_group_name_H-M   'P 1'
_cell_length_a   7.09853774
_cell_length_b   7.44635506
_cell_length_c   14.10803571
_cell_angle_alpha   90.02477999
_cell_angle_beta   90.07941112
_cell_angle_gamma   89.87632318
_symmetry_Int_Tables_number   1
_chemical_formula_structural   Tb4Sm4Sc11Si16Hg
_chemical_formula_sum   'Tb4 Sm4 Sc11 Si16 Hg1'
_cell_volume   745.72330756
_cell_formula_units_Z   1
loop_
 _symmetry_equiv_pos_site_id
 _symmetry_equiv_pos_as_xyz
  1  'x, y, z'
loop_
 _atom_site_type_symbol
 _atom_site_label
 _atom_site_symmetry_multiplicity
 _atom_site_fract_x
 _atom_site_fract_y
 _atom_site_fract_z
 _atom_site_occupancy
  Tb  Tb0  1  0.511222  0.324554  0.097887  1
  Tb  Tb1  1  0.010612  0.173523  0.402467  1
  Tb  Tb2  1  0.511277  0.324325  0.402567  1
  Tb  Tb3  1  0.483953  0.672718  0.598741  1
  Sm  Sm4  1  0.009847  0.172534  0.097132  1
  Sm  Sm5  1  0.991174  0.818199  0.901375  1
  Sm  Sm6  1  0.484056  0.671862  0.901629  1
  Sm  Sm7  1  0.991230  0.817949  0.598150  1
  Sc  Sc8  1  0.838380  0.498617  0.250278  1
  Sc  Sc9  1  0.339770  0.002695  0.250194  1
  Sc  Sc10  1  0.657507  0.999501  0.749802  1
  Sc  Sc11  1  0.326119  0.183783  0.625420  1
  Sc  Sc12  1  0.670821  0.823747  0.375258  1
  Sc  Sc13  1  0.169916  0.679694  0.373229  1
  Sc  Sc14  1  0.670908  0.823721  0.125160  1
  Sc  Sc15  1  0.837911  0.325471  0.625406  1
  Sc  Sc16  1  0.326123  0.183318  0.874225  1
  Sc  Sc17  1  0.838067  0.325630  0.874172  1
  Sc  Sc18  1  0.169985  0.679395  0.127125  1
  Si  Si19  1  0.028976  0.100056  0.749801  1
  Si  Si20  1  0.967137  0.884706  0.250547  1
  Si  Si21  1  0.466948  0.618616  0.250165  1
  Si  Si22  1  0.545958  0.376939  0.749495  1
  Si  Si23  1  0.292383  0.893104  0.749396  1
  Si  Si24  1  0.711709  0.126219  0.250816  1
  Si  Si25  1  0.213320  0.375141  0.250637  1
  Si  Si26  1  0.769184  0.627379  0.749139  1
  Si  Si27  1  0.161069  0.458167  0.528232  1
  Si  Si28  1  0.842991  0.534594  0.460882  1
  Si  Si29  1  0.345430  0.966050  0.461732  1
  Si  Si30  1  0.842821  0.535680  0.038941  1
  Si  Si31  1  0.655002  0.033841  0.540426  1
  Si  Si32  1  0.159765  0.458618  0.971735  1
  Si  Si33  1  0.655217  0.034957  0.959685  1
  Si  Si34  1  0.346825  0.966380  0.038364  1
  Hg  Hg35  1  0.156384  0.508317  0.749787  1
