# generated using pymatgen
data_Ca21Mg(Ga5Sb2)2
_symmetry_space_group_name_H-M   'P 1'
_cell_length_a   11.34068498
_cell_length_b   11.40771328
_cell_length_c   11.40771354
_cell_angle_alpha   59.71854067
_cell_angle_beta   60.19417590
_cell_angle_gamma   60.19417500
_symmetry_Int_Tables_number   1
_chemical_formula_structural   Ca21Mg(Ga5Sb2)2
_chemical_formula_sum   'Ca21 Mg1 Ga10 Sb4'
_cell_volume   1044.36483959
_cell_formula_units_Z   1
loop_
 _symmetry_equiv_pos_site_id
 _symmetry_equiv_pos_as_xyz
  1  'x, y, z'
loop_
 _atom_site_type_symbol
 _atom_site_label
 _atom_site_symmetry_multiplicity
 _atom_site_fract_x
 _atom_site_fract_y
 _atom_site_fract_z
 _atom_site_occupancy
  Ca  Ca0  1  0.000000  0.006441  0.993559  1
  Ca  Ca1  1  0.134015  0.133982  0.120709  1
  Ca  Ca2  1  0.388706  0.879291  0.866018  1
  Ca  Ca3  1  0.874851  0.386388  0.863910  1
  Ca  Ca4  1  0.868774  0.869459  0.392994  1
  Ca  Ca5  1  0.131226  0.607006  0.130541  1
  Ca  Ca6  1  0.125149  0.136090  0.613612  1
  Ca  Ca7  1  0.611294  0.133982  0.120709  1
  Ca  Ca8  1  0.865985  0.879291  0.866018  1
  Ca  Ca9  1  0.497816  0.823404  0.502421  1
  Ca  Ca10  1  0.822543  0.491255  0.508745  1
  Ca  Ca11  1  0.500000  0.823362  0.176638  1
  Ca  Ca12  1  0.176638  0.493639  0.823172  1
  Ca  Ca13  1  0.823641  0.497579  0.176596  1
  Ca  Ca14  1  0.506551  0.493639  0.823172  1
  Ca  Ca15  1  0.176359  0.823404  0.502421  1
  Ca  Ca16  1  0.500000  0.176373  0.823627  1
  Ca  Ca17  1  0.502184  0.497579  0.176596  1
  Ca  Ca18  1  0.823362  0.176828  0.506361  1
  Ca  Ca19  1  0.177457  0.491255  0.508745  1
  Ca  Ca20  1  0.493449  0.176828  0.506361  1
  Mg  Mg21  1  0.500000  0.502123  0.497877  1
  Ga  Ga22  1  0.213997  0.212645  0.787355  1
  Ga  Ga23  1  0.786003  0.212645  0.787355  1
  Ga  Ga24  1  0.310348  0.309854  0.307858  1
  Ga  Ga25  1  0.928059  0.692142  0.690146  1
  Ga  Ga26  1  0.690948  0.929389  0.688715  1
  Ga  Ga27  1  0.691272  0.690984  0.926473  1
  Ga  Ga28  1  0.308728  0.073527  0.309016  1
  Ga  Ga29  1  0.309052  0.311285  0.070611  1
  Ga  Ga30  1  0.071941  0.309854  0.307858  1
  Ga  Ga31  1  0.689653  0.692142  0.690145  1
  Sb  Sb32  1  0.209345  0.786718  0.213282  1
  Sb  Sb33  1  0.210242  0.786208  0.793307  1
  Sb  Sb34  1  0.789758  0.206693  0.213792  1
  Sb  Sb35  1  0.790655  0.786718  0.213282  1
