# generated using pymatgen
data_Nd6TmFeBr12
_symmetry_space_group_name_H-M   'P 1'
_cell_length_a   9.52525263
_cell_length_b   9.52525161
_cell_length_c   9.52525238
_cell_angle_alpha   107.20545349
_cell_angle_beta   107.20544865
_cell_angle_gamma   107.20545322
_symmetry_Int_Tables_number   1
_chemical_formula_structural   Nd6TmFeBr12
_chemical_formula_sum   'Nd6 Tm1 Fe1 Br12'
_cell_volume   715.66711503
_cell_formula_units_Z   1
loop_
 _symmetry_equiv_pos_site_id
 _symmetry_equiv_pos_as_xyz
  1  'x, y, z'
loop_
 _atom_site_type_symbol
 _atom_site_label
 _atom_site_symmetry_multiplicity
 _atom_site_fract_x
 _atom_site_fract_y
 _atom_site_fract_z
 _atom_site_occupancy
  Nd  Nd0  1  0.806297  0.522874  0.599459  1
  Nd  Nd1  1  0.400541  0.193703  0.477126  1
  Nd  Nd2  1  0.477126  0.400541  0.193703  1
  Nd  Nd3  1  0.599459  0.806297  0.522874  1
  Nd  Nd4  1  0.522874  0.599459  0.806297  1
  Nd  Nd5  1  0.193703  0.477126  0.400541  1
  Tm  Tm6  1  0.000000  0.000000  0.000000  1
  Fe  Fe7  1  0.500000  0.500000  0.500000  1
  Br  Br8  1  0.681934  0.965656  0.891253  1
  Br  Br9  1  0.722817  0.183234  0.570698  1
  Br  Br10  1  0.891253  0.681934  0.965656  1
  Br  Br11  1  0.277183  0.816766  0.429302  1
  Br  Br12  1  0.183234  0.570698  0.722817  1
  Br  Br13  1  0.034344  0.108747  0.318066  1
  Br  Br14  1  0.570698  0.722817  0.183234  1
  Br  Br15  1  0.108747  0.318066  0.034344  1
  Br  Br16  1  0.816766  0.429302  0.277183  1
  Br  Br17  1  0.429302  0.277183  0.816766  1
  Br  Br18  1  0.965656  0.891253  0.681934  1
  Br  Br19  1  0.318066  0.034344  0.108747  1
