# generated using pymatgen
data_CaIn2(SeO3)4
_symmetry_space_group_name_H-M   'P 1'
_cell_length_a   4.90138800
_cell_length_b   8.83040286
_cell_length_c   16.41325614
_cell_angle_alpha   71.15189157
_cell_angle_beta   90.00000000
_cell_angle_gamma   90.00000000
_symmetry_Int_Tables_number   1
_chemical_formula_structural   CaIn2(SeO3)4
_chemical_formula_sum   'Ca2 In4 Se8 O24'
_cell_volume   672.29384891
_cell_formula_units_Z   2
loop_
 _symmetry_equiv_pos_site_id
 _symmetry_equiv_pos_as_xyz
  1  'x, y, z'
loop_
 _atom_site_type_symbol
 _atom_site_label
 _atom_site_symmetry_multiplicity
 _atom_site_fract_x
 _atom_site_fract_y
 _atom_site_fract_z
 _atom_site_occupancy
  Ca  Ca0  1  0.000000  0.000000  0.000000  1
  Ca  Ca1  1  0.500000  0.000000  0.500000  1
  In  In2  1  0.528322  0.154526  0.787208  1
  In  In3  1  0.971678  0.154526  0.287208  1
  In  In4  1  0.471678  0.845474  0.212792  1
  In  In5  1  0.028322  0.845474  0.712792  1
  Se  Se6  1  0.553631  0.784997  0.878486  1
  Se  Se7  1  0.946369  0.784997  0.378486  1
  Se  Se8  1  0.446369  0.215003  0.121514  1
  Se  Se9  1  0.053631  0.215003  0.621514  1
  Se  Se10  1  0.005928  0.351848  0.865583  1
  Se  Se11  1  0.494072  0.351848  0.365583  1
  Se  Se12  1  0.994072  0.648152  0.134417  1
  Se  Se13  1  0.505928  0.648152  0.634417  1
  O  O14  1  0.767530  0.354331  0.786825  1
  O  O15  1  0.732470  0.354331  0.286825  1
  O  O16  1  0.232470  0.645669  0.213175  1
  O  O17  1  0.267530  0.645669  0.713175  1
  O  O18  1  0.818881  0.719855  0.831016  1
  O  O19  1  0.681119  0.719855  0.331016  1
  O  O20  1  0.181119  0.280145  0.168984  1
  O  O21  1  0.318881  0.280145  0.668984  1
  O  O22  1  0.205303  0.179802  0.870917  1
  O  O23  1  0.294697  0.179802  0.370917  1
  O  O24  1  0.794697  0.820198  0.129083  1
  O  O25  1  0.705303  0.820198  0.629083  1
  O  O26  1  0.681835  0.950786  0.901647  1
  O  O27  1  0.818165  0.950786  0.401647  1
  O  O28  1  0.318165  0.049214  0.098353  1
  O  O29  1  0.181835  0.049214  0.598353  1
  O  O30  1  0.359916  0.910416  0.792124  1
  O  O31  1  0.140084  0.910416  0.292124  1
  O  O32  1  0.640084  0.089584  0.207876  1
  O  O33  1  0.859916  0.089584  0.707876  1
  O  O34  1  0.839779  0.265409  0.959945  1
  O  O35  1  0.660221  0.265409  0.459945  1
  O  O36  1  0.160221  0.734591  0.040055  1
  O  O37  1  0.339779  0.734591  0.540055  1
