# generated using pymatgen
data_Tb16Ga6IrRu
_symmetry_space_group_name_H-M   'P 1'
_cell_length_a   10.10614100
_cell_length_b   10.10614002
_cell_length_c   7.07592500
_cell_angle_alpha   90.00000000
_cell_angle_beta   90.00000000
_cell_angle_gamma   119.99999993
_symmetry_Int_Tables_number   1
_chemical_formula_structural   Tb16Ga6IrRu
_chemical_formula_sum   'Tb16 Ga6 Ir1 Ru1'
_cell_volume   625.87055124
_cell_formula_units_Z   1
loop_
 _symmetry_equiv_pos_site_id
 _symmetry_equiv_pos_as_xyz
  1  'x, y, z'
loop_
 _atom_site_type_symbol
 _atom_site_label
 _atom_site_symmetry_multiplicity
 _atom_site_fract_x
 _atom_site_fract_y
 _atom_site_fract_z
 _atom_site_occupancy
  Tb  Tb0  1  0.829185  0.658371  0.489310  1
  Tb  Tb1  1  0.341629  0.170815  0.489310  1
  Tb  Tb2  1  0.829185  0.170815  0.489310  1
  Tb  Tb3  1  0.170454  0.340907  0.989037  1
  Tb  Tb4  1  0.659093  0.829546  0.989037  1
  Tb  Tb5  1  0.170454  0.829546  0.989037  1
  Tb  Tb6  1  0.666667  0.333333  0.162570  1
  Tb  Tb7  1  0.333333  0.666667  0.661877  1
  Tb  Tb8  1  0.535461  0.070920  0.793825  1
  Tb  Tb9  1  0.929080  0.464539  0.793825  1
  Tb  Tb10  1  0.535461  0.464539  0.793825  1
  Tb  Tb11  1  0.465266  0.930534  0.294604  1
  Tb  Tb12  1  0.069466  0.534734  0.294604  1
  Tb  Tb13  1  0.465266  0.534734  0.294604  1
  Tb  Tb14  1  0.000000  0.000000  0.765963  1
  Tb  Tb15  1  0.000000  0.000000  0.266210  1
  Ga  Ga16  1  0.836170  0.672342  0.043544  1
  Ga  Ga17  1  0.327658  0.163830  0.043544  1
  Ga  Ga18  1  0.836170  0.163830  0.043544  1
  Ga  Ga19  1  0.163914  0.327825  0.543546  1
  Ga  Ga20  1  0.672175  0.836086  0.543546  1
  Ga  Ga21  1  0.163914  0.836086  0.543546  1
  Ir  Ir22  1  0.333333  0.666667  0.054147  1
  Ru  Ru23  1  0.666667  0.333333  0.553701  1
