# generated using pymatgen
data_Er4Hf3TiIr4
_symmetry_space_group_name_H-M   'P 1'
_cell_length_a   4.46700400
_cell_length_b   6.98596402
_cell_length_c   8.24250652
_cell_angle_alpha   89.34423785
_cell_angle_beta   90.00000000
_cell_angle_gamma   90.00000000
_symmetry_Int_Tables_number   1
_chemical_formula_structural   Er4Hf3TiIr4
_chemical_formula_sum   'Er4 Hf3 Ti1 Ir4'
_cell_volume   257.20152516
_cell_formula_units_Z   1
loop_
 _symmetry_equiv_pos_site_id
 _symmetry_equiv_pos_as_xyz
  1  'x, y, z'
loop_
 _atom_site_type_symbol
 _atom_site_label
 _atom_site_symmetry_multiplicity
 _atom_site_fract_x
 _atom_site_fract_y
 _atom_site_fract_z
 _atom_site_occupancy
  Er  Er0  1  0.250000  0.990792  0.315982  1
  Er  Er1  1  0.250000  0.476014  0.177538  1
  Er  Er2  1  0.750000  0.017745  0.678020  1
  Er  Er3  1  0.750000  0.511082  0.828473  1
  Hf  Hf4  1  0.250000  0.359373  0.574287  1
  Hf  Hf5  1  0.250000  0.856397  0.928180  1
  Hf  Hf6  1  0.750000  0.645642  0.427393  1
  Ti  Ti7  1  0.750000  0.134947  0.065961  1
  Ir  Ir8  1  0.250000  0.229229  0.911266  1
  Ir  Ir9  1  0.250000  0.736757  0.594627  1
  Ir  Ir10  1  0.750000  0.773041  0.096295  1
  Ir  Ir11  1  0.750000  0.268980  0.401978  1
