# generated using pymatgen
data_Tb3Yb(In2Pd3)4
_symmetry_space_group_name_H-M   'P 1'
_cell_length_a   4.61402900
_cell_length_b   9.77560500
_cell_length_c   10.46188000
_cell_angle_alpha   90.00009733
_cell_angle_beta   90.00000000
_cell_angle_gamma   90.00000000
_symmetry_Int_Tables_number   1
_chemical_formula_structural   Tb3Yb(In2Pd3)4
_chemical_formula_sum   'Tb3 Yb1 In8 Pd12'
_cell_volume   471.88231237
_cell_formula_units_Z   1
loop_
 _symmetry_equiv_pos_site_id
 _symmetry_equiv_pos_as_xyz
  1  'x, y, z'
loop_
 _atom_site_type_symbol
 _atom_site_label
 _atom_site_symmetry_multiplicity
 _atom_site_fract_x
 _atom_site_fract_y
 _atom_site_fract_z
 _atom_site_occupancy
  Tb  Tb0  1  0.250000  0.446960  0.725052  1
  Tb  Tb1  1  0.250000  0.052573  0.224372  1
  Tb  Tb2  1  0.750000  0.552233  0.275325  1
  Yb  Yb3  1  0.750000  0.946769  0.776327  1
  In  In4  1  0.250000  0.889101  0.515719  1
  In  In5  1  0.250000  0.610969  0.015036  1
  In  In6  1  0.750000  0.110702  0.486261  1
  In  In7  1  0.750000  0.389603  0.983355  1
  In  In8  1  0.250000  0.159583  0.890305  1
  In  In9  1  0.250000  0.338679  0.391684  1
  In  In10  1  0.750000  0.837984  0.106422  1
  In  In11  1  0.750000  0.662644  0.609716  1
  Pd  Pd12  1  0.250000  0.153407  0.619559  1
  Pd  Pd13  1  0.250000  0.348514  0.120361  1
  Pd  Pd14  1  0.750000  0.848963  0.377800  1
  Pd  Pd15  1  0.750000  0.652290  0.879975  1
  Pd  Pd16  1  0.250000  0.742707  0.740152  1
  Pd  Pd17  1  0.250000  0.754955  0.240462  1
  Pd  Pd18  1  0.750000  0.254343  0.259818  1
  Pd  Pd19  1  0.750000  0.244413  0.759465  1
  Pd  Pd20  1  0.250000  0.894625  0.975368  1
  Pd  Pd21  1  0.250000  0.606279  0.473175  1
  Pd  Pd22  1  0.750000  0.106646  0.028001  1
  Pd  Pd23  1  0.750000  0.395058  0.526292  1
