# generated using pymatgen
data_K4Hf7ZrTe16
_symmetry_space_group_name_H-M   'P 1'
_cell_length_a   7.02472102
_cell_length_b   8.11903900
_cell_length_c   17.70030500
_cell_angle_alpha   90.00004940
_cell_angle_beta   89.99586475
_cell_angle_gamma   90.00004940
_symmetry_Int_Tables_number   1
_chemical_formula_structural   K4Hf7ZrTe16
_chemical_formula_sum   'K4 Hf7 Zr1 Te16'
_cell_volume   1009.51890797
_cell_formula_units_Z   1
loop_
 _symmetry_equiv_pos_site_id
 _symmetry_equiv_pos_as_xyz
  1  'x, y, z'
loop_
 _atom_site_type_symbol
 _atom_site_label
 _atom_site_symmetry_multiplicity
 _atom_site_fract_x
 _atom_site_fract_y
 _atom_site_fract_z
 _atom_site_occupancy
  K  K0  1  0.345100  0.000000  0.999964  1
  K  K1  1  0.657407  0.500000  0.500133  1
  K  K2  1  0.024514  0.000000  0.500160  1
  K  K3  1  0.976125  0.500000  0.999471  1
  Hf  Hf4  1  0.000994  0.000000  0.249409  1
  Hf  Hf5  1  0.000906  0.000000  0.750587  1
  Hf  Hf6  1  0.999096  0.500000  0.250565  1
  Hf  Hf7  1  0.499976  0.250124  0.249988  1
  Hf  Hf8  1  0.500047  0.747977  0.750017  1
  Hf  Hf9  1  0.499975  0.749876  0.249988  1
  Hf  Hf10  1  0.500047  0.252023  0.750017  1
  Zr  Zr11  1  0.998569  0.500000  0.749599  1
  Te  Te12  1  0.833919  0.249109  0.348502  1
  Te  Te13  1  0.832200  0.753086  0.650785  1
  Te  Te14  1  0.166102  0.749101  0.151462  1
  Te  Te15  1  0.167236  0.248856  0.849198  1
  Te  Te16  1  0.166102  0.250899  0.151463  1
  Te  Te17  1  0.167236  0.751143  0.849198  1
  Te  Te18  1  0.833919  0.750890  0.348502  1
  Te  Te19  1  0.832200  0.246915  0.650785  1
  Te  Te20  1  0.669725  0.000000  0.152147  1
  Te  Te21  1  0.669689  0.000000  0.847518  1
  Te  Te22  1  0.330266  0.500000  0.347966  1
  Te  Te23  1  0.333177  0.500000  0.650963  1
  Te  Te24  1  0.336855  0.000000  0.347364  1
  Te  Te25  1  0.336187  0.000000  0.653114  1
  Te  Te26  1  0.663328  0.500000  0.152551  1
  Te  Te27  1  0.659105  0.500000  0.848584  1
