# generated using pymatgen
data_Eu2AlH7
_symmetry_space_group_name_H-M   'P 1'
_cell_length_a   8.17934072
_cell_length_b   8.17934063
_cell_length_c   7.83189257
_cell_angle_alpha   69.30496411
_cell_angle_beta   69.30496316
_cell_angle_gamma   71.58591009
_symmetry_Int_Tables_number   1
_chemical_formula_structural   Eu2AlH7
_chemical_formula_sum   'Eu8 Al4 H28'
_cell_volume   447.47554979
_cell_formula_units_Z   4
loop_
 _symmetry_equiv_pos_site_id
 _symmetry_equiv_pos_as_xyz
  1  'x, y, z'
loop_
 _atom_site_type_symbol
 _atom_site_label
 _atom_site_symmetry_multiplicity
 _atom_site_fract_x
 _atom_site_fract_y
 _atom_site_fract_z
 _atom_site_occupancy
  Eu  Eu0  1  0.266730  0.920786  0.481553  1
  Eu  Eu1  1  0.079214  0.733270  0.018447  1
  Eu  Eu2  1  0.733270  0.079214  0.518447  1
  Eu  Eu3  1  0.920786  0.266730  0.981553  1
  Eu  Eu4  1  0.294401  0.433465  0.477948  1
  Eu  Eu5  1  0.566535  0.705599  0.022052  1
  Eu  Eu6  1  0.705599  0.566535  0.522052  1
  Eu  Eu7  1  0.433465  0.294401  0.977948  1
  Al  Al8  1  0.321862  0.022438  0.810238  1
  Al  Al9  1  0.977562  0.678138  0.689762  1
  Al  Al10  1  0.678138  0.977562  0.189762  1
  Al  Al11  1  0.022438  0.321862  0.310238  1
  H  H12  1  0.398119  0.110609  0.568621  1
  H  H13  1  0.889391  0.601881  0.931379  1
  H  H14  1  0.601881  0.889391  0.431379  1
  H  H15  1  0.110609  0.398119  0.068621  1
  H  H16  1  0.389017  0.799689  0.771693  1
  H  H17  1  0.200311  0.610983  0.728307  1
  H  H18  1  0.610983  0.200311  0.228307  1
  H  H19  1  0.799689  0.389017  0.271693  1
  H  H20  1  0.531735  0.003391  0.833661  1
  H  H21  1  0.996609  0.468265  0.666339  1
  H  H22  1  0.468265  0.996609  0.166339  1
  H  H23  1  0.003391  0.531735  0.333661  1
  H  H24  1  0.264686  0.901921  0.048183  1
  H  H25  1  0.098079  0.735314  0.451817  1
  H  H26  1  0.735314  0.098079  0.951817  1
  H  H27  1  0.901921  0.264686  0.548183  1
  H  H28  1  0.242103  0.236480  0.838688  1
  H  H29  1  0.763520  0.757897  0.661312  1
  H  H30  1  0.757897  0.763520  0.161312  1
  H  H31  1  0.236480  0.242103  0.338688  1
  H  H32  1  0.112765  0.029864  0.796347  1
  H  H33  1  0.970136  0.887235  0.703653  1
  H  H34  1  0.887235  0.970136  0.203653  1
  H  H35  1  0.029864  0.112765  0.296347  1
  H  H36  1  0.339274  0.540517  0.128489  1
  H  H37  1  0.459483  0.660726  0.371511  1
  H  H38  1  0.660726  0.459483  0.871511  1
  H  H39  1  0.540517  0.339274  0.628489  1
