# generated using pymatgen
data_Tb4GeBi5Rh7
_symmetry_space_group_name_H-M   'P 1'
_cell_length_a   7.74814416
_cell_length_b   7.74814551
_cell_length_c   7.74814516
_cell_angle_alpha   106.84686599
_cell_angle_beta   110.79911513
_cell_angle_gamma   110.79912705
_symmetry_Int_Tables_number   1
_chemical_formula_structural   Tb4GeBi5Rh7
_chemical_formula_sum   'Tb4 Ge1 Bi5 Rh7'
_cell_volume   357.51261855
_cell_formula_units_Z   1
loop_
 _symmetry_equiv_pos_site_id
 _symmetry_equiv_pos_as_xyz
  1  'x, y, z'
loop_
 _atom_site_type_symbol
 _atom_site_label
 _atom_site_symmetry_multiplicity
 _atom_site_fract_x
 _atom_site_fract_y
 _atom_site_fract_z
 _atom_site_occupancy
  Tb  Tb0  1  0.000000  0.985704  0.528968  1
  Tb  Tb1  1  0.000000  0.528968  0.985704  1
  Tb  Tb2  1  0.456734  0.985704  0.985704  1
  Tb  Tb3  1  0.543266  0.528968  0.528968  1
  Ge  Ge4  1  0.000000  0.646064  0.646064  1
  Bi  Bi5  1  0.688541  0.703484  0.014943  1
  Bi  Bi6  1  0.311459  0.014943  0.326402  1
  Bi  Bi7  1  0.000000  0.306623  0.306623  1
  Bi  Bi8  1  0.311459  0.326402  0.014943  1
  Bi  Bi9  1  0.688541  0.014943  0.703484  1
  Rh  Rh10  1  0.754557  0.258980  0.504423  1
  Rh  Rh11  1  0.754557  0.504423  0.258980  1
  Rh  Rh12  1  0.500000  0.261806  0.761806  1
  Rh  Rh13  1  0.245443  0.504423  0.749866  1
  Rh  Rh14  1  0.245443  0.749866  0.504423  1
  Rh  Rh15  1  0.500000  0.761806  0.261806  1
  Rh  Rh16  1  0.000000  0.916891  0.916891  1
