# generated using pymatgen
data_Sr4ScSn3
_symmetry_space_group_name_H-M   'P 1'
_cell_length_a   9.66305639
_cell_length_b   9.66305650
_cell_length_c   9.66305713
_cell_angle_alpha   96.70424133
_cell_angle_beta   96.70423767
_cell_angle_gamma   140.04165268
_symmetry_Int_Tables_number   1
_chemical_formula_structural   Sr4ScSn3
_chemical_formula_sum   'Sr8 Sc2 Sn6'
_cell_volume   544.60018093
_cell_formula_units_Z   2
loop_
 _symmetry_equiv_pos_site_id
 _symmetry_equiv_pos_as_xyz
  1  'x, y, z'
loop_
 _atom_site_type_symbol
 _atom_site_label
 _atom_site_symmetry_multiplicity
 _atom_site_fract_x
 _atom_site_fract_y
 _atom_site_fract_z
 _atom_site_occupancy
  Sr  Sr0  1  0.085301  0.214279  0.299580  1
  Sr  Sr1  1  0.914699  0.785721  0.700420  1
  Sr  Sr2  1  0.785721  0.085301  0.871022  1
  Sr  Sr3  1  0.414699  0.714279  0.128978  1
  Sr  Sr4  1  0.214279  0.914699  0.128978  1
  Sr  Sr5  1  0.585301  0.285721  0.871022  1
  Sr  Sr6  1  0.714279  0.585301  0.299580  1
  Sr  Sr7  1  0.285721  0.414699  0.700420  1
  Sc  Sc8  1  0.250000  0.750000  0.500000  1
  Sc  Sc9  1  0.750000  0.250000  0.500000  1
  Sn  Sn10  1  0.140066  0.640066  0.780130  1
  Sn  Sn11  1  0.859934  0.359934  0.219870  1
  Sn  Sn12  1  0.359934  0.140066  0.500000  1
  Sn  Sn13  1  0.640066  0.859934  0.500000  1
  Sn  Sn14  1  0.250000  0.250000  0.000000  1
  Sn  Sn15  1  0.750000  0.750000  0.000000  1
