# generated using pymatgen
data_Cs3Tb2(SbS3)3
_symmetry_space_group_name_H-M   'P 1'
_cell_length_a   13.68350853
_cell_length_b   13.68350714
_cell_length_c   9.43022436
_cell_angle_alpha   84.36042519
_cell_angle_beta   84.36042188
_cell_angle_gamma   139.98608049
_symmetry_Int_Tables_number   1
_chemical_formula_structural   Cs3Tb2(SbS3)3
_chemical_formula_sum   'Cs6 Tb4 Sb6 S18'
_cell_volume   1087.45993619
_cell_formula_units_Z   2
loop_
 _symmetry_equiv_pos_site_id
 _symmetry_equiv_pos_as_xyz
  1  'x, y, z'
loop_
 _atom_site_type_symbol
 _atom_site_label
 _atom_site_symmetry_multiplicity
 _atom_site_fract_x
 _atom_site_fract_y
 _atom_site_fract_z
 _atom_site_occupancy
  Cs  Cs0  1  0.419669  0.580331  0.500000  1
  Cs  Cs1  1  0.580331  0.419669  0.500000  1
  Cs  Cs2  1  0.019274  0.453035  0.237043  1
  Cs  Cs3  1  0.453035  0.019274  0.237043  1
  Cs  Cs4  1  0.980726  0.546965  0.762957  1
  Cs  Cs5  1  0.546965  0.980726  0.762957  1
  Tb  Tb6  1  0.423971  0.576029  0.000000  1
  Tb  Tb7  1  0.576029  0.423971  0.000000  1
  Tb  Tb8  1  0.923324  0.076676  0.500000  1
  Tb  Tb9  1  0.076676  0.923324  0.500000  1
  Sb  Sb10  1  0.035165  0.279302  0.839241  1
  Sb  Sb11  1  0.279302  0.035165  0.839241  1
  Sb  Sb12  1  0.964835  0.720698  0.160759  1
  Sb  Sb13  1  0.720698  0.964835  0.160759  1
  Sb  Sb14  1  0.877605  0.877605  0.873505  1
  Sb  Sb15  1  0.122395  0.122395  0.126495  1
  S  S16  1  0.120502  0.120502  0.625539  1
  S  S17  1  0.879498  0.879498  0.374461  1
  S  S18  1  0.808324  0.191676  0.000000  1
  S  S19  1  0.191676  0.808324  0.000000  1
  S  S20  1  0.245978  0.555659  0.843990  1
  S  S21  1  0.555659  0.245978  0.843990  1
  S  S22  1  0.754022  0.444341  0.156010  1
  S  S23  1  0.444341  0.754022  0.156010  1
  S  S24  1  0.994140  0.308609  0.600080  1
  S  S25  1  0.308609  0.994140  0.600080  1
  S  S26  1  0.005860  0.691391  0.399920  1
  S  S27  1  0.691391  0.005860  0.399920  1
  S  S28  1  0.369210  0.369210  0.883569  1
  S  S29  1  0.630790  0.630790  0.116431  1
  S  S30  1  0.697472  0.848467  0.771996  1
  S  S31  1  0.848467  0.697472  0.771996  1
  S  S32  1  0.302528  0.151533  0.228004  1
  S  S33  1  0.151533  0.302528  0.228004  1
