# generated using pymatgen
data_Ti5V3Fe4(PO5)8
_symmetry_space_group_name_H-M   'P 1'
_cell_length_a   7.44048708
_cell_length_b   10.59617535
_cell_length_c   10.57078060
_cell_angle_alpha   90.28065838
_cell_angle_beta   110.61397212
_cell_angle_gamma   110.13224645
_symmetry_Int_Tables_number   1
_chemical_formula_structural   Ti5V3Fe4(PO5)8
_chemical_formula_sum   'Ti5 V3 Fe4 P8 O40'
_cell_volume   724.81095485
_cell_formula_units_Z   1
loop_
 _symmetry_equiv_pos_site_id
 _symmetry_equiv_pos_as_xyz
  1  'x, y, z'
loop_
 _atom_site_type_symbol
 _atom_site_label
 _atom_site_symmetry_multiplicity
 _atom_site_fract_x
 _atom_site_fract_y
 _atom_site_fract_z
 _atom_site_occupancy
  Ti  Ti0  1  0.029763  0.009136  0.284967  1
  Ti  Ti1  1  0.465451  0.210426  0.989138  1
  Ti  Ti2  1  0.465486  0.711697  0.490094  1
  Ti  Ti3  1  0.531060  0.788251  0.008152  1
  Ti  Ti4  1  0.529566  0.286311  0.509777  1
  V  V5  1  0.971947  0.491503  0.219183  1
  V  V6  1  0.971453  0.991196  0.720319  1
  V  V7  1  0.026559  0.507754  0.779345  1
  Fe  Fe8  1  0.998951  0.499503  0.500447  1
  Fe  Fe9  1  0.499252  0.000312  0.500785  1
  Fe  Fe10  1  0.998652  0.999151  0.000607  1
  Fe  Fe11  1  0.499389  0.499749  0.999462  1
  P  P12  1  0.247721  0.307105  0.691688  1
  P  P13  1  0.248860  0.807757  0.191529  1
  P  P14  1  0.748890  0.688875  0.809786  1
  P  P15  1  0.748983  0.191280  0.309811  1
  P  P16  1  0.751237  0.691641  0.307774  1
  P  P17  1  0.752878  0.192863  0.809473  1
  P  P18  1  0.251758  0.310263  0.189994  1
  P  P19  1  0.248119  0.810123  0.688816  1
  O  O20  1  0.371899  0.830333  0.097439  1
  O  O21  1  0.372420  0.330845  0.598227  1
  O  O22  1  0.628624  0.170151  0.903343  1
  O  O23  1  0.631524  0.673231  0.403386  1
  O  O24  1  0.140239  0.409785  0.169860  1
  O  O25  1  0.138496  0.910774  0.668124  1
  O  O26  1  0.857769  0.587918  0.829494  1
  O  O27  1  0.867185  0.094754  0.328510  1
  O  O28  1  0.740977  0.424783  0.084615  1
  O  O29  1  0.739783  0.924744  0.585537  1
  O  O30  1  0.766348  0.923355  0.079350  1
  O  O31  1  0.770347  0.421656  0.583910  1
  O  O32  1  0.228108  0.074775  0.915586  1
  O  O33  1  0.228766  0.575654  0.416148  1
  O  O34  1  0.258383  0.575039  0.914224  1
  O  O35  1  0.267158  0.080458  0.421054  1
  O  O36  1  0.397870  0.334545  0.844806  1
  O  O37  1  0.398992  0.835437  0.344643  1
  O  O38  1  0.898922  0.341710  0.336240  1
  O  O39  1  0.900278  0.839596  0.837153  1
  O  O40  1  0.601635  0.664596  0.155393  1
  O  O41  1  0.603182  0.164871  0.656866  1
  O  O42  1  0.097380  0.659391  0.662258  1
  O  O43  1  0.102356  0.158918  0.164172  1
  O  O44  1  0.642624  0.670797  0.915221  1
  O  O45  1  0.647100  0.170857  0.416849  1
  O  O46  1  0.146604  0.415294  0.670119  1
  O  O47  1  0.146328  0.915446  0.170555  1
  O  O48  1  0.356179  0.328029  0.083459  1
  O  O49  1  0.353622  0.827189  0.582797  1
  O  O50  1  0.854050  0.584710  0.329971  1
  O  O51  1  0.854720  0.084813  0.831618  1
  O  O52  1  0.089724  0.663255  0.157571  1
  O  O53  1  0.089153  0.162539  0.657311  1
  O  O54  1  0.584593  0.659052  0.662521  1
  O  O55  1  0.584391  0.158491  0.163123  1
  O  O56  1  0.911851  0.337341  0.844182  1
  O  O57  1  0.914321  0.836940  0.340891  1
  O  O58  1  0.417225  0.341828  0.336819  1
  O  O59  1  0.412892  0.841206  0.835511  1
