# generated using pymatgen
data_Dy8MgHgPt2
_symmetry_space_group_name_H-M   'P 1'
_cell_length_a   9.69811458
_cell_length_b   9.69811411
_cell_length_c   9.69298100
_cell_angle_alpha   60.01750381
_cell_angle_beta   60.01750541
_cell_angle_gamma   60.01421614
_symmetry_Int_Tables_number   1
_chemical_formula_structural   Dy8MgHgPt2
_chemical_formula_sum   'Dy16 Mg2 Hg2 Pt4'
_cell_volume   644.87936915
_cell_formula_units_Z   2
loop_
 _symmetry_equiv_pos_site_id
 _symmetry_equiv_pos_as_xyz
  1  'x, y, z'
loop_
 _atom_site_type_symbol
 _atom_site_label
 _atom_site_symmetry_multiplicity
 _atom_site_fract_x
 _atom_site_fract_y
 _atom_site_fract_z
 _atom_site_occupancy
  Dy  Dy0  1  0.351673  0.351673  0.350633  1
  Dy  Dy1  1  0.351673  0.351673  0.946021  1
  Dy  Dy2  1  0.351603  0.945906  0.351246  1
  Dy  Dy3  1  0.945906  0.351603  0.351246  1
  Dy  Dy4  1  0.810861  0.190118  0.188773  1
  Dy  Dy5  1  0.190118  0.810861  0.810249  1
  Dy  Dy6  1  0.190118  0.810861  0.188773  1
  Dy  Dy7  1  0.810861  0.190118  0.810249  1
  Dy  Dy8  1  0.193057  0.193057  0.806943  1
  Dy  Dy9  1  0.812438  0.812438  0.187562  1
  Dy  Dy10  1  0.938393  0.565211  0.564256  1
  Dy  Dy11  1  0.565211  0.938393  0.932141  1
  Dy  Dy12  1  0.565211  0.938393  0.564256  1
  Dy  Dy13  1  0.938393  0.565210  0.932141  1
  Dy  Dy14  1  0.567515  0.567515  0.932485  1
  Dy  Dy15  1  0.937027  0.937027  0.562972  1
  Mg  Mg16  1  0.573986  0.573986  0.581714  1
  Mg  Mg17  1  0.573986  0.573986  0.270313  1
  Hg  Hg18  1  0.587689  0.244428  0.583941  1
  Hg  Hg19  1  0.244428  0.587689  0.583941  1
  Pt  Pt20  1  0.143327  0.143327  0.143085  1
  Pt  Pt21  1  0.143327  0.143327  0.570262  1
  Pt  Pt22  1  0.142396  0.570808  0.143399  1
  Pt  Pt23  1  0.570808  0.142396  0.143399  1
