# generated using pymatgen
data_Y3TmAl13Ga5Ir6
_symmetry_space_group_name_H-M   'P 1'
_cell_length_a   7.52849608
_cell_length_b   7.53122451
_cell_length_c   9.56294600
_cell_angle_alpha   90.00000000
_cell_angle_beta   90.00000000
_cell_angle_gamma   119.57247691
_symmetry_Int_Tables_number   1
_chemical_formula_structural   Y3TmAl13Ga5Ir6
_chemical_formula_sum   'Y3 Tm1 Al13 Ga5 Ir6'
_cell_volume   471.57527572
_cell_formula_units_Z   1
loop_
 _symmetry_equiv_pos_site_id
 _symmetry_equiv_pos_as_xyz
  1  'x, y, z'
loop_
 _atom_site_type_symbol
 _atom_site_label
 _atom_site_symmetry_multiplicity
 _atom_site_fract_x
 _atom_site_fract_y
 _atom_site_fract_z
 _atom_site_occupancy
  Y  Y0  1  0.995105  0.670188  0.250000  1
  Y  Y1  1  0.000973  0.326414  0.750000  1
  Y  Y2  1  0.670493  0.996391  0.250000  1
  Tm  Tm3  1  0.329809  0.006264  0.750000  1
  Al  Al4  1  0.002579  0.334927  0.072243  1
  Al  Al5  1  0.999593  0.665858  0.926739  1
  Al  Al6  1  0.999593  0.665858  0.573261  1
  Al  Al7  1  0.334835  0.001999  0.428552  1
  Al  Al8  1  0.002579  0.334927  0.427757  1
  Al  Al9  1  0.664206  0.997833  0.573493  1
  Al  Al10  1  0.664206  0.997833  0.926507  1
  Al  Al11  1  0.334835  0.001999  0.071448  1
  Al  Al12  1  0.333941  0.333805  0.557417  1
  Al  Al13  1  0.665801  0.665790  0.446862  1
  Al  Al14  1  0.665801  0.665790  0.053138  1
  Al  Al15  1  0.333941  0.333805  0.942583  1
  Al  Al16  1  0.450775  0.662290  0.750000  1
  Ga  Ga17  1  0.129259  0.129226  0.250000  1
  Ga  Ga18  1  0.870171  0.868933  0.750000  1
  Ga  Ga19  1  0.338848  0.547476  0.250000  1
  Ga  Ga20  1  0.660945  0.453272  0.750000  1
  Ga  Ga21  1  0.547195  0.339168  0.250000  1
  Ir  Ir22  1  0.672209  0.327784  0.999966  1
  Ir  Ir23  1  0.329274  0.671957  0.997478  1
  Ir  Ir24  1  0.329274  0.671957  0.502522  1
  Ir  Ir25  1  0.672209  0.327784  0.500034  1
  Ir  Ir26  1  0.000778  0.000235  0.999653  1
  Ir  Ir27  1  0.000778  0.000235  0.500347  1
