# generated using pymatgen
data_Dy8Ni8SnHg3
_symmetry_space_group_name_H-M   'P 1'
_cell_length_a   7.33581900
_cell_length_b   7.33581900
_cell_length_c   7.37472500
_cell_angle_alpha   90.00000000
_cell_angle_beta   90.00000000
_cell_angle_gamma   90.00000000
_symmetry_Int_Tables_number   1
_chemical_formula_structural   Dy8Ni8SnHg3
_chemical_formula_sum   'Dy8 Ni8 Sn1 Hg3'
_cell_volume   396.86522404
_cell_formula_units_Z   1
loop_
 _symmetry_equiv_pos_site_id
 _symmetry_equiv_pos_as_xyz
  1  'x, y, z'
loop_
 _atom_site_type_symbol
 _atom_site_label
 _atom_site_symmetry_multiplicity
 _atom_site_fract_x
 _atom_site_fract_y
 _atom_site_fract_z
 _atom_site_occupancy
  Dy  Dy0  1  0.675793  0.326370  0.999035  1
  Dy  Dy1  1  0.324207  0.673630  0.999035  1
  Dy  Dy2  1  0.826370  0.824207  0.500965  1
  Dy  Dy3  1  0.173630  0.175793  0.500965  1
  Dy  Dy4  1  0.177790  0.180288  0.999132  1
  Dy  Dy5  1  0.822210  0.819712  0.999132  1
  Dy  Dy6  1  0.319712  0.677790  0.500868  1
  Dy  Dy7  1  0.680288  0.322210  0.500868  1
  Ni  Ni8  1  0.383321  0.384341  0.255236  1
  Ni  Ni9  1  0.616679  0.615659  0.255236  1
  Ni  Ni10  1  0.115659  0.883321  0.244764  1
  Ni  Ni11  1  0.884341  0.116679  0.244764  1
  Ni  Ni12  1  0.613065  0.622560  0.744702  1
  Ni  Ni13  1  0.386935  0.377440  0.744702  1
  Ni  Ni14  1  0.122560  0.886935  0.755298  1
  Ni  Ni15  1  0.877440  0.113065  0.755298  1
  Sn  Sn16  1  0.500000  0.000000  0.750000  1
  Hg  Hg17  1  0.500000  0.000000  0.250000  1
  Hg  Hg18  1  0.000000  0.500000  0.250000  1
  Hg  Hg19  1  0.000000  0.500000  0.750000  1
