# generated using pymatgen
data_Tb8Tm4Co4SnPt
_symmetry_space_group_name_H-M   'P 1'
_cell_length_a   8.30959036
_cell_length_b   8.30958980
_cell_length_c   8.30958989
_cell_angle_alpha   111.09785408
_cell_angle_beta   110.14794138
_cell_angle_gamma   107.19308203
_symmetry_Int_Tables_number   1
_chemical_formula_structural   Tb8Tm4Co4SnPt
_chemical_formula_sum   'Tb8 Tm4 Co4 Sn1 Pt1'
_cell_volume   441.13659663
_cell_formula_units_Z   1
loop_
 _symmetry_equiv_pos_site_id
 _symmetry_equiv_pos_as_xyz
  1  'x, y, z'
loop_
 _atom_site_type_symbol
 _atom_site_label
 _atom_site_symmetry_multiplicity
 _atom_site_fract_x
 _atom_site_fract_y
 _atom_site_fract_z
 _atom_site_occupancy
  Tb  Tb0  1  0.413309  0.214577  0.198731  1
  Tb  Tb1  1  0.586691  0.785423  0.801269  1
  Tb  Tb2  1  0.015846  0.214577  0.801269  1
  Tb  Tb3  1  0.984154  0.785423  0.198731  1
  Tb  Tb4  1  0.185328  0.291758  0.477086  1
  Tb  Tb5  1  0.814672  0.708242  0.522914  1
  Tb  Tb6  1  0.185328  0.708242  0.893570  1
  Tb  Tb7  1  0.814672  0.291758  0.106430  1
  Tm  Tm8  1  0.317459  0.625803  0.308343  1
  Tm  Tm9  1  0.682541  0.374197  0.691657  1
  Tm  Tm10  1  0.317459  0.009116  0.691657  1
  Tm  Tm11  1  0.682541  0.990884  0.308343  1
  Co  Co12  1  0.377825  0.000000  0.377825  1
  Co  Co13  1  0.622175  0.000000  0.622175  1
  Co  Co14  1  0.112979  0.612979  0.500000  1
  Co  Co15  1  0.887021  0.387021  0.500000  1
  Sn  Sn16  1  0.500000  0.500000  0.000000  1
  Pt  Pt17  1  0.000000  0.000000  0.000000  1
