# generated using pymatgen
data_Yb10CuRh3
_symmetry_space_group_name_H-M   'P 1'
_cell_length_a   8.62009891
_cell_length_b   8.61322488
_cell_length_c   7.40485330
_cell_angle_alpha   83.07787000
_cell_angle_beta   83.32649493
_cell_angle_gamma   43.58486660
_symmetry_Int_Tables_number   1
_chemical_formula_structural   Yb10CuRh3
_chemical_formula_sum   'Yb10 Cu1 Rh3'
_cell_volume   375.93994987
_cell_formula_units_Z   1
loop_
 _symmetry_equiv_pos_site_id
 _symmetry_equiv_pos_as_xyz
  1  'x, y, z'
loop_
 _atom_site_type_symbol
 _atom_site_label
 _atom_site_symmetry_multiplicity
 _atom_site_fract_x
 _atom_site_fract_y
 _atom_site_fract_z
 _atom_site_occupancy
  Yb  Yb0  1  0.034232  0.790173  0.915121  1
  Yb  Yb1  1  0.201919  0.977419  0.581928  1
  Yb  Yb2  1  0.982552  0.202775  0.082069  1
  Yb  Yb3  1  0.802824  0.021037  0.425817  1
  Yb  Yb4  1  0.360372  0.201147  0.814330  1
  Yb  Yb5  1  0.795160  0.635905  0.679354  1
  Yb  Yb6  1  0.635123  0.789942  0.178787  1
  Yb  Yb7  1  0.193157  0.369436  0.326843  1
  Yb  Yb8  1  0.574762  0.431641  0.741297  1
  Yb  Yb9  1  0.424096  0.579767  0.255211  1
  Cu  Cu10  1  0.598085  0.181160  0.078700  1
  Rh  Rh11  1  0.178523  0.598095  0.581066  1
  Rh  Rh12  1  0.393864  0.825904  0.921359  1
  Rh  Rh13  1  0.825329  0.395598  0.418118  1
