# generated using pymatgen
data_Li4PrNd(YSi3)2
_symmetry_space_group_name_H-M   'P 1'
_cell_length_a   9.37761103
_cell_length_b   9.37761165
_cell_length_c   6.81190600
_cell_angle_alpha   90.00000000
_cell_angle_beta   90.00000000
_cell_angle_gamma   153.19883705
_symmetry_Int_Tables_number   1
_chemical_formula_structural   Li4PrNd(YSi3)2
_chemical_formula_sum   'Li4 Pr1 Nd1 Y2 Si6'
_cell_volume   270.10284439
_cell_formula_units_Z   1
loop_
 _symmetry_equiv_pos_site_id
 _symmetry_equiv_pos_as_xyz
  1  'x, y, z'
loop_
 _atom_site_type_symbol
 _atom_site_label
 _atom_site_symmetry_multiplicity
 _atom_site_fract_x
 _atom_site_fract_y
 _atom_site_fract_z
 _atom_site_occupancy
  Li  Li0  1  0.190510  0.809490  0.059629  1
  Li  Li1  1  0.190510  0.809490  0.440371  1
  Li  Li2  1  0.809521  0.190479  0.940316  1
  Li  Li3  1  0.809521  0.190479  0.559684  1
  Pr  Pr4  1  0.553781  0.446219  0.250000  1
  Nd  Nd5  1  0.446216  0.553784  0.750000  1
  Y  Y6  1  0.344240  0.655760  0.250000  1
  Y  Y7  1  0.655747  0.344253  0.750000  1
  Si  Si8  1  0.723264  0.276736  0.250000  1
  Si  Si9  1  0.276889  0.723111  0.750000  1
  Si  Si10  1  0.059351  0.940649  0.924782  1
  Si  Si11  1  0.940549  0.059451  0.074550  1
  Si  Si12  1  0.940549  0.059451  0.425450  1
  Si  Si13  1  0.059351  0.940649  0.575218  1
