# generated using pymatgen
data_Ho6Al7Pt16
_symmetry_space_group_name_H-M   'P 1'
_cell_length_a   8.96330130
_cell_length_b   8.96329860
_cell_length_c   8.96329000
_cell_angle_alpha   59.99997952
_cell_angle_beta   59.99997283
_cell_angle_gamma   60.00001751
_symmetry_Int_Tables_number   1
_chemical_formula_structural   Ho6Al7Pt16
_chemical_formula_sum   'Ho6 Al7 Pt16'
_cell_volume   509.19978448
_cell_formula_units_Z   1
loop_
 _symmetry_equiv_pos_site_id
 _symmetry_equiv_pos_as_xyz
  1  'x, y, z'
loop_
 _atom_site_type_symbol
 _atom_site_label
 _atom_site_symmetry_multiplicity
 _atom_site_fract_x
 _atom_site_fract_y
 _atom_site_fract_z
 _atom_site_occupancy
  Ho  Ho0  1  0.713196  0.286804  0.286803  1
  Ho  Ho1  1  0.713198  0.286803  0.713197  1
  Ho  Ho2  1  0.713198  0.713197  0.286802  1
  Ho  Ho3  1  0.286804  0.713196  0.713197  1
  Ho  Ho4  1  0.286802  0.713197  0.286803  1
  Ho  Ho5  1  0.286802  0.286803  0.713198  1
  Al  Al6  1  0.000000  0.000000  0.000000  1
  Al  Al7  1  0.500000  0.000000  0.000000  1
  Al  Al8  1  0.500000  0.000000  0.500000  1
  Al  Al9  1  0.500000  0.500000  0.000000  1
  Al  Al10  1  0.000000  0.500000  0.500000  1
  Al  Al11  1  0.000000  0.500000  0.000000  1
  Al  Al12  1  0.000000  0.000000  0.500000  1
  Pt  Pt13  1  0.642695  0.119101  0.119103  1
  Pt  Pt14  1  0.119101  0.642695  0.119102  1
  Pt  Pt15  1  0.119102  0.119102  0.642694  1
  Pt  Pt16  1  0.119101  0.119102  0.119103  1
  Pt  Pt17  1  0.357305  0.880899  0.880897  1
  Pt  Pt18  1  0.880899  0.357305  0.880898  1
  Pt  Pt19  1  0.880898  0.880898  0.357306  1
  Pt  Pt20  1  0.880899  0.880898  0.880897  1
  Pt  Pt21  1  0.985447  0.338185  0.338185  1
  Pt  Pt22  1  0.338184  0.985446  0.338185  1
  Pt  Pt23  1  0.338183  0.338184  0.985449  1
  Pt  Pt24  1  0.338183  0.338184  0.338185  1
  Pt  Pt25  1  0.014553  0.661815  0.661815  1
  Pt  Pt26  1  0.661816  0.014554  0.661815  1
  Pt  Pt27  1  0.661817  0.661816  0.014551  1
  Pt  Pt28  1  0.661817  0.661816  0.661815  1
