# generated using pymatgen
data_La3Pr9(SnRu)8
_symmetry_space_group_name_H-M   'P 1'
_cell_length_a   5.95201650
_cell_length_b   8.55387694
_cell_length_c   14.05232187
_cell_angle_alpha   90.08525434
_cell_angle_beta   90.00573955
_cell_angle_gamma   90.10457872
_symmetry_Int_Tables_number   1
_chemical_formula_structural   La3Pr9(SnRu)8
_chemical_formula_sum   'La3 Pr9 Sn8 Ru8'
_cell_volume   715.44129923
_cell_formula_units_Z   1
loop_
 _symmetry_equiv_pos_site_id
 _symmetry_equiv_pos_as_xyz
  1  'x, y, z'
loop_
 _atom_site_type_symbol
 _atom_site_label
 _atom_site_symmetry_multiplicity
 _atom_site_fract_x
 _atom_site_fract_y
 _atom_site_fract_z
 _atom_site_occupancy
  La  La0  1  0.164047  0.909292  0.590548  1
  La  La1  1  0.836864  0.091247  0.089882  1
  La  La2  1  0.164089  0.590725  0.409603  1
  Pr  Pr3  1  0.840186  0.407609  0.906038  1
  Pr  Pr4  1  0.840298  0.094473  0.405884  1
  Pr  Pr5  1  0.159990  0.905346  0.906079  1
  Pr  Pr6  1  0.840509  0.405326  0.594270  1
  Pr  Pr7  1  0.159124  0.593800  0.093626  1
  Pr  Pr8  1  0.376334  0.279940  0.750428  1
  Pr  Pr9  1  0.623705  0.721285  0.249796  1
  Pr  Pr10  1  0.375761  0.221896  0.249862  1
  Pr  Pr11  1  0.623876  0.778098  0.750043  1
  Sn  Sn12  1  0.878228  0.119732  0.750932  1
  Sn  Sn13  1  0.122219  0.880452  0.250445  1
  Sn  Sn14  1  0.878390  0.380478  0.249609  1
  Sn  Sn15  1  0.120575  0.619360  0.749731  1
  Sn  Sn16  1  0.370356  0.250124  0.500201  1
  Sn  Sn17  1  0.630481  0.748026  0.999520  1
  Sn  Sn18  1  0.634888  0.749987  0.499898  1
  Sn  Sn19  1  0.365885  0.251111  0.999560  1
  Ru  Ru20  1  0.647954  0.031169  0.590762  1
  Ru  Ru21  1  0.352111  0.969223  0.090126  1
  Ru  Ru22  1  0.648184  0.468732  0.409694  1
  Ru  Ru23  1  0.349730  0.531329  0.909317  1
  Ru  Ru24  1  0.347817  0.968065  0.412871  1
  Ru  Ru25  1  0.652850  0.031891  0.913111  1
  Ru  Ru26  1  0.347007  0.532263  0.587552  1
  Ru  Ru27  1  0.648542  0.469015  0.090614  1
