# generated using pymatgen
data_Hf8Co8Si13As
_symmetry_space_group_name_H-M   'P 1'
_cell_length_a   9.45630578
_cell_length_b   9.45633619
_cell_length_c   9.44759039
_cell_angle_alpha   94.15633717
_cell_angle_beta   94.15767640
_cell_angle_gamma   148.77731808
_symmetry_Int_Tables_number   1
_chemical_formula_structural   Hf8Co8Si13As
_chemical_formula_sum   'Hf8 Co8 Si13 As1'
_cell_volume   421.73992050
_cell_formula_units_Z   1
loop_
 _symmetry_equiv_pos_site_id
 _symmetry_equiv_pos_as_xyz
  1  'x, y, z'
loop_
 _atom_site_type_symbol
 _atom_site_label
 _atom_site_symmetry_multiplicity
 _atom_site_fract_x
 _atom_site_fract_y
 _atom_site_fract_z
 _atom_site_occupancy
  Hf  Hf0  1  0.137377  0.137377  0.274754  1
  Hf  Hf1  1  0.862948  0.862949  0.725897  1
  Hf  Hf2  1  0.137269  0.862513  0.999828  1
  Hf  Hf3  1  0.862568  0.137317  0.999827  1
  Hf  Hf4  1  0.303974  0.501832  0.805833  1
  Hf  Hf5  1  0.695723  0.499680  0.195324  1
  Hf  Hf6  1  0.499630  0.695665  0.195342  1
  Hf  Hf7  1  0.501859  0.303995  0.805842  1
  Co  Co8  1  0.101899  0.601903  0.203777  1
  Co  Co9  1  0.398328  0.898332  0.796675  1
  Co  Co10  1  0.894748  0.100547  0.498953  1
  Co  Co11  1  0.604200  0.398402  0.498957  1
  Co  Co12  1  0.601902  0.101914  0.203797  1
  Co  Co13  1  0.898329  0.398341  0.796678  1
  Co  Co14  1  0.100524  0.894774  0.498970  1
  Co  Co15  1  0.398422  0.604185  0.498971  1
  Si  Si16  1  0.707714  0.707725  0.415509  1
  Si  Si17  1  0.290360  0.710262  0.000503  1
  Si  Si18  1  0.710142  0.290246  0.000501  1
  Si  Si19  1  0.091219  0.500563  0.591883  1
  Si  Si20  1  0.908454  0.499479  0.408174  1
  Si  Si21  1  0.499695  0.908658  0.408171  1
  Si  Si22  1  0.500703  0.091351  0.591881  1
  Si  Si23  1  0.252111  0.252113  0.999568  1
  Si  Si24  1  0.747476  0.747467  0.999576  1
  Si  Si25  1  0.300738  0.999418  0.299947  1
  Si  Si26  1  0.699315  0.000448  0.699717  1
  Si  Si27  1  0.000381  0.699232  0.699719  1
  Si  Si28  1  0.999257  0.300563  0.299954  1
  As  As29  1  0.292736  0.292748  0.585472  1
