# generated using pymatgen
data_Rb8Tm6SiBr20
_symmetry_space_group_name_H-M   'P 1'
_cell_length_a   12.33649246
_cell_length_b   12.33649224
_cell_length_c   12.33649200
_cell_angle_alpha   60.00000063
_cell_angle_beta   60.00000124
_cell_angle_gamma   60.00000331
_symmetry_Int_Tables_number   1
_chemical_formula_structural   Rb8Tm6SiBr20
_chemical_formula_sum   'Rb8 Tm6 Si1 Br20'
_cell_volume   1327.57812609
_cell_formula_units_Z   1
loop_
 _symmetry_equiv_pos_site_id
 _symmetry_equiv_pos_as_xyz
  1  'x, y, z'
loop_
 _atom_site_type_symbol
 _atom_site_label
 _atom_site_symmetry_multiplicity
 _atom_site_fract_x
 _atom_site_fract_y
 _atom_site_fract_z
 _atom_site_occupancy
  Rb  Rb0  1  0.358728  0.358728  0.358728  1
  Rb  Rb1  1  0.641272  0.641272  0.641272  1
  Rb  Rb2  1  0.358728  0.358728  0.923818  1
  Rb  Rb3  1  0.358728  0.923818  0.358728  1
  Rb  Rb4  1  0.641272  0.641272  0.076182  1
  Rb  Rb5  1  0.641272  0.076182  0.641272  1
  Rb  Rb6  1  0.923818  0.358728  0.358728  1
  Rb  Rb7  1  0.076182  0.641272  0.641272  1
  Tm  Tm8  1  0.844027  0.155973  0.155973  1
  Tm  Tm9  1  0.155973  0.844027  0.844027  1
  Tm  Tm10  1  0.155973  0.844027  0.155973  1
  Tm  Tm11  1  0.844027  0.155973  0.844027  1
  Tm  Tm12  1  0.155973  0.155973  0.844027  1
  Tm  Tm13  1  0.844027  0.844027  0.155973  1
  Si  Si14  1  0.000000  0.000000  0.000000  1
  Br  Br15  1  0.326493  0.000000  0.000000  1
  Br  Br16  1  0.673507  0.000000  0.000000  1
  Br  Br17  1  0.000000  0.326493  0.673507  1
  Br  Br18  1  0.000000  0.673507  0.326493  1
  Br  Br19  1  0.000000  0.326493  0.000000  1
  Br  Br20  1  0.673507  0.000000  0.326493  1
  Br  Br21  1  0.000000  0.673507  0.000000  1
  Br  Br22  1  0.326493  0.000000  0.673507  1
  Br  Br23  1  0.000000  0.000000  0.326493  1
  Br  Br24  1  0.000000  0.000000  0.673507  1
  Br  Br25  1  0.673507  0.326493  0.000000  1
  Br  Br26  1  0.326493  0.673507  0.000000  1
  Br  Br27  1  0.680828  0.319172  0.319172  1
  Br  Br28  1  0.319172  0.680828  0.680828  1
  Br  Br29  1  0.319172  0.680828  0.319172  1
  Br  Br30  1  0.680828  0.319172  0.680828  1
  Br  Br31  1  0.319172  0.319172  0.680828  1
  Br  Br32  1  0.680828  0.680828  0.319172  1
  Br  Br33  1  0.250000  0.250000  0.250000  1
  Br  Br34  1  0.750000  0.750000  0.750000  1
