# generated using pymatgen
data_SnSbF7
_symmetry_space_group_name_H-M   'P 1'
_cell_length_a   5.81529800
_cell_length_b   6.10789724
_cell_length_c   8.38519614
_cell_angle_alpha   77.51736932
_cell_angle_beta   90.00000000
_cell_angle_gamma   90.00000000
_symmetry_Int_Tables_number   1
_chemical_formula_structural   SnSbF7
_chemical_formula_sum   'Sn2 Sb2 F14'
_cell_volume   290.79544701
_cell_formula_units_Z   2
loop_
 _symmetry_equiv_pos_site_id
 _symmetry_equiv_pos_as_xyz
  1  'x, y, z'
loop_
 _atom_site_type_symbol
 _atom_site_label
 _atom_site_symmetry_multiplicity
 _atom_site_fract_x
 _atom_site_fract_y
 _atom_site_fract_z
 _atom_site_occupancy
  Sn  Sn0  1  0.759732  0.309960  0.278090  1
  Sn  Sn1  1  0.259732  0.690040  0.721910  1
  Sb  Sb2  1  0.745964  0.165578  0.823202  1
  Sb  Sb3  1  0.245964  0.834422  0.176798  1
  F  F4  1  0.467151  0.035701  0.984257  1
  F  F5  1  0.967151  0.964299  0.015743  1
  F  F6  1  0.491243  0.434267  0.749262  1
  F  F7  1  0.991243  0.565733  0.250738  1
  F  F8  1  0.757693  0.289773  0.516472  1
  F  F9  1  0.257693  0.710227  0.483528  1
  F  F10  1  0.019923  0.445209  0.754364  1
  F  F11  1  0.519923  0.554791  0.245636  1
  F  F12  1  0.527833  0.898982  0.708387  1
  F  F13  1  0.027833  0.101018  0.291613  1
  F  F14  1  0.529369  0.067703  0.295876  1
  F  F15  1  0.029369  0.932297  0.704124  1
  F  F16  1  0.762992  0.354895  0.027929  1
  F  F17  1  0.262992  0.645105  0.972071  1
