# generated using pymatgen
data_Ba2SrSmMn4O10
_symmetry_space_group_name_H-M   'P 1'
_cell_length_a   3.99205400
_cell_length_b   7.92349300
_cell_length_c   7.97755200
_cell_angle_alpha   90.00120239
_cell_angle_beta   89.99833444
_cell_angle_gamma   89.99820648
_symmetry_Int_Tables_number   1
_chemical_formula_structural   Ba2SrSmMn4O10
_chemical_formula_sum   'Ba2 Sr1 Sm1 Mn4 O10'
_cell_volume   252.33804230
_cell_formula_units_Z   1
loop_
 _symmetry_equiv_pos_site_id
 _symmetry_equiv_pos_as_xyz
  1  'x, y, z'
loop_
 _atom_site_type_symbol
 _atom_site_label
 _atom_site_symmetry_multiplicity
 _atom_site_fract_x
 _atom_site_fract_y
 _atom_site_fract_z
 _atom_site_occupancy
  Ba  Ba0  1  0.000019  0.999810  0.499951  1
  Ba  Ba1  1  0.000019  0.000112  0.000021  1
  Sr  Sr2  1  0.000021  0.499961  0.500003  1
  Sm  Sm3  1  0.000023  0.499992  0.999993  1
  Mn  Mn4  1  0.500365  0.259029  0.750574  1
  Mn  Mn5  1  0.499589  0.259161  0.249402  1
  Mn  Mn6  1  0.500388  0.741160  0.750453  1
  Mn  Mn7  1  0.499426  0.741364  0.249664  1
  O  O8  1  0.500020  0.713039  0.499986  1
  O  O9  1  0.999930  0.303774  0.238662  1
  O  O10  1  0.999842  0.696901  0.238734  1
  O  O11  1  0.500000  0.999962  0.242971  1
  O  O12  1  0.500024  0.682674  0.999978  1
  O  O13  1  0.500027  0.286455  0.500002  1
  O  O14  1  0.500028  0.315770  0.000008  1
  O  O15  1  0.000070  0.303808  0.761334  1
  O  O16  1  0.000130  0.697022  0.761257  1
  O  O17  1  0.500077  0.000006  0.757005  1
