# generated using pymatgen
data_Yb10Cu3Hg2Os
_symmetry_space_group_name_H-M   'P 1'
_cell_length_a   9.02604083
_cell_length_b   9.02604102
_cell_length_c   8.97959341
_cell_angle_alpha   129.69141422
_cell_angle_beta   129.69140977
_cell_angle_gamma   74.29216656
_symmetry_Int_Tables_number   1
_chemical_formula_structural   Yb10Cu3Hg2Os
_chemical_formula_sum   'Yb10 Cu3 Hg2 Os1'
_cell_volume   421.39566170
_cell_formula_units_Z   1
loop_
 _symmetry_equiv_pos_site_id
 _symmetry_equiv_pos_as_xyz
  1  'x, y, z'
loop_
 _atom_site_type_symbol
 _atom_site_label
 _atom_site_symmetry_multiplicity
 _atom_site_fract_x
 _atom_site_fract_y
 _atom_site_fract_z
 _atom_site_occupancy
  Yb  Yb0  1  0.491520  0.502546  0.994066  1
  Yb  Yb1  1  0.002546  0.991520  0.994066  1
  Yb  Yb2  1  0.534617  0.034617  0.839676  1
  Yb  Yb3  1  0.188211  0.688211  0.143600  1
  Yb  Yb4  1  0.034607  0.204961  0.510229  1
  Yb  Yb5  1  0.704961  0.534607  0.510229  1
  Yb  Yb6  1  0.455390  0.955390  0.143600  1
  Yb  Yb7  1  0.805058  0.305058  0.839676  1
  Yb  Yb8  1  0.975622  0.805268  0.510229  1
  Yb  Yb9  1  0.305268  0.475622  0.510229  1
  Cu  Cu10  1  0.882133  0.382133  0.264265  1
  Cu  Cu11  1  0.614658  0.881257  0.495916  1
  Cu  Cu12  1  0.381257  0.114658  0.495916  1
  Hg  Hg13  1  0.252538  0.252538  0.005075  1
  Hg  Hg14  1  0.752538  0.752538  0.005075  1
  Os  Os15  1  0.119076  0.619076  0.738152  1
