# generated using pymatgen
data_La5Pr(FeI3)2
_symmetry_space_group_name_H-M   'P 1'
_cell_length_a   4.30668000
_cell_length_b   9.63842350
_cell_length_c   12.31638064
_cell_angle_alpha   87.57156998
_cell_angle_beta   90.00000000
_cell_angle_gamma   90.00000000
_symmetry_Int_Tables_number   1
_chemical_formula_structural   La5Pr(FeI3)2
_chemical_formula_sum   'La5 Pr1 Fe2 I6'
_cell_volume   510.78896679
_cell_formula_units_Z   1
loop_
 _symmetry_equiv_pos_site_id
 _symmetry_equiv_pos_as_xyz
  1  'x, y, z'
loop_
 _atom_site_type_symbol
 _atom_site_label
 _atom_site_symmetry_multiplicity
 _atom_site_fract_x
 _atom_site_fract_y
 _atom_site_fract_z
 _atom_site_occupancy
  La  La0  1  0.750000  0.684855  0.121253  1
  La  La1  1  0.250000  0.315169  0.879945  1
  La  La2  1  0.250000  0.886222  0.320454  1
  La  La3  1  0.750000  0.115052  0.679564  1
  La  La4  1  0.250000  0.904449  0.897675  1
  Pr  Pr5  1  0.750000  0.094222  0.103249  1
  Fe  Fe6  1  0.250000  0.884363  0.135593  1
  Fe  Fe7  1  0.750000  0.114258  0.862170  1
  I  I8  1  0.250000  0.866650  0.621084  1
  I  I9  1  0.750000  0.134944  0.377668  1
  I  I10  1  0.750000  0.635533  0.380517  1
  I  I11  1  0.250000  0.366179  0.620490  1
  I  I12  1  0.250000  0.392012  0.138867  1
  I  I13  1  0.750000  0.606092  0.861473  1
