# generated using pymatgen
data_Y2Tm3Co19Si11P
_symmetry_space_group_name_H-M   'P 1'
_cell_length_a   12.13525734
_cell_length_b   12.16849799
_cell_length_c   3.72388400
_cell_angle_alpha   90.00000000
_cell_angle_beta   90.00000000
_cell_angle_gamma   120.09065371
_symmetry_Int_Tables_number   1
_chemical_formula_structural   Y2Tm3Co19Si11P
_chemical_formula_sum   'Y2 Tm3 Co19 Si11 P1'
_cell_volume   475.78998176
_cell_formula_units_Z   1
loop_
 _symmetry_equiv_pos_site_id
 _symmetry_equiv_pos_as_xyz
  1  'x, y, z'
loop_
 _atom_site_type_symbol
 _atom_site_label
 _atom_site_symmetry_multiplicity
 _atom_site_fract_x
 _atom_site_fract_y
 _atom_site_fract_z
 _atom_site_occupancy
  Y  Y0  1  0.667375  0.333573  0.000000  1
  Y  Y1  1  0.332625  0.666198  0.000000  1
  Tm  Tm2  1  0.184946  0.185770  0.500000  1
  Tm  Tm3  1  0.815054  0.000823  0.500000  1
  Tm  Tm4  1  0.000000  0.813759  0.500000  1
  Co  Co5  1  0.824090  0.196770  0.000000  1
  Co  Co6  1  0.803181  0.623411  0.000000  1
  Co  Co7  1  0.376410  0.179769  0.000000  1
  Co  Co8  1  0.196819  0.820232  0.000000  1
  Co  Co9  1  0.623590  0.803360  0.000000  1
  Co  Co10  1  0.175910  0.372680  0.000000  1
  Co  Co11  1  0.558468  0.558975  0.000000  1
  Co  Co12  1  0.441532  0.000506  0.000000  1
  Co  Co13  1  0.000000  0.441523  0.000000  1
  Co  Co14  1  0.645380  0.123452  0.500000  1
  Co  Co15  1  0.877372  0.520929  0.500000  1
  Co  Co16  1  0.478425  0.356142  0.500000  1
  Co  Co17  1  0.122628  0.643557  0.500000  1
  Co  Co18  1  0.521575  0.877718  0.500000  1
  Co  Co19  1  0.354620  0.478071  0.500000  1
  Co  Co20  1  0.719578  0.719585  0.500000  1
  Co  Co21  1  0.280422  0.000007  0.500000  1
  Co  Co22  1  0.000000  0.277002  0.500000  1
  Co  Co23  1  0.000000  0.004736  0.000000  1
  Si  Si24  1  0.370360  0.370701  0.000000  1
  Si  Si25  1  0.629640  0.000342  0.000000  1
  Si  Si26  1  0.000000  0.629179  0.000000  1
  Si  Si27  1  0.841485  0.318470  0.500000  1
  Si  Si28  1  0.682310  0.522712  0.500000  1
  Si  Si29  1  0.477739  0.160037  0.500000  1
  Si  Si30  1  0.317690  0.840404  0.500000  1
  Si  Si31  1  0.522261  0.682299  0.500000  1
  Si  Si32  1  0.158515  0.476985  0.500000  1
  Si  Si33  1  0.818077  0.817822  0.000000  1
  Si  Si34  1  0.181923  0.999745  0.000000  1
  P  P35  1  0.000000  0.182755  0.000000  1
