# generated using pymatgen
data_La3NdC2Br5
_symmetry_space_group_name_H-M   'P 1'
_cell_length_a   4.02756750
_cell_length_b   8.43541195
_cell_length_c   10.09135157
_cell_angle_alpha   105.64546772
_cell_angle_beta   78.48903411
_cell_angle_gamma   90.00000601
_symmetry_Int_Tables_number   1
_chemical_formula_structural   La3NdC2Br5
_chemical_formula_sum   'La3 Nd1 C2 Br5'
_cell_volume   322.97577524
_cell_formula_units_Z   1
loop_
 _symmetry_equiv_pos_site_id
 _symmetry_equiv_pos_as_xyz
  1  'x, y, z'
loop_
 _atom_site_type_symbol
 _atom_site_label
 _atom_site_symmetry_multiplicity
 _atom_site_fract_x
 _atom_site_fract_y
 _atom_site_fract_z
 _atom_site_occupancy
  La  La0  1  0.002594  0.201313  0.994809  1
  La  La1  1  0.003709  0.794950  0.992582  1
  La  La2  1  0.661655  0.889544  0.676690  1
  Nd  Nd3  1  0.347410  0.104467  0.305181  1
  C  C4  1  0.466856  0.022439  0.066286  1
  C  C5  1  0.540953  0.972641  0.918093  1
  Br  Br6  1  0.164870  0.620712  0.670261  1
  Br  Br7  1  0.840194  0.367407  0.319612  1
  Br  Br8  1  0.502101  0.498896  0.995799  1
  Br  Br9  1  0.170345  0.160033  0.659311  1
  Br  Br10  1  0.836913  0.842897  0.326173  1
