# generated using pymatgen
data_LaTbSm4U4O20
_symmetry_space_group_name_H-M   'P 1'
_cell_length_a   6.72682317
_cell_length_b   7.64699448
_cell_length_c   8.57629338
_cell_angle_alpha   101.40169519
_cell_angle_beta   97.79847339
_cell_angle_gamma   107.20965141
_symmetry_Int_Tables_number   1
_chemical_formula_structural   LaTbSm4U4O20
_chemical_formula_sum   'La1 Tb1 Sm4 U4 O20'
_cell_volume   404.11651959
_cell_formula_units_Z   1
loop_
 _symmetry_equiv_pos_site_id
 _symmetry_equiv_pos_as_xyz
  1  'x, y, z'
loop_
 _atom_site_type_symbol
 _atom_site_label
 _atom_site_symmetry_multiplicity
 _atom_site_fract_x
 _atom_site_fract_y
 _atom_site_fract_z
 _atom_site_occupancy
  La  La0  1  0.000000  0.500000  0.500000  1
  Tb  Tb1  1  0.000000  0.000000  0.500000  1
  Sm  Sm2  1  0.612959  0.704712  0.700667  1
  Sm  Sm3  1  0.387041  0.295288  0.299333  1
  Sm  Sm4  1  0.199010  0.898166  0.894575  1
  Sm  Sm5  1  0.800990  0.101834  0.105425  1
  U  U6  1  0.403396  0.805501  0.301546  1
  U  U7  1  0.199047  0.400736  0.901945  1
  U  U8  1  0.800953  0.599264  0.098055  1
  U  U9  1  0.596604  0.194499  0.698454  1
  O  O10  1  0.438077  0.533445  0.133804  1
  O  O11  1  0.555822  0.990035  0.838961  1
  O  O12  1  0.272601  0.147715  0.743880  1
  O  O13  1  0.366640  0.598840  0.437837  1
  O  O14  1  0.054451  0.733345  0.327496  1
  O  O15  1  0.444178  0.009965  0.161039  1
  O  O16  1  0.150821  0.186560  0.029943  1
  O  O17  1  0.561923  0.466555  0.866196  1
  O  O18  1  0.855716  0.339095  0.949205  1
  O  O19  1  0.259730  0.605619  0.766990  1
  O  O20  1  0.953388  0.779960  0.653412  1
  O  O21  1  0.354275  0.059086  0.454476  1
  O  O22  1  0.645725  0.940914  0.545524  1
  O  O23  1  0.046612  0.220040  0.346588  1
  O  O24  1  0.740270  0.394381  0.233010  1
  O  O25  1  0.144284  0.660905  0.050795  1
  O  O26  1  0.849179  0.813440  0.970057  1
  O  O27  1  0.945549  0.266655  0.672504  1
  O  O28  1  0.633360  0.401160  0.562163  1
  O  O29  1  0.727399  0.852285  0.256120  1
