# generated using pymatgen
data_TbMnAlO5
_symmetry_space_group_name_H-M   'P 1'
_cell_length_a   5.67588600
_cell_length_b   7.29353800
_cell_length_c   8.46652100
_cell_angle_alpha   90.00000000
_cell_angle_beta   90.00000000
_cell_angle_gamma   90.00000000
_symmetry_Int_Tables_number   1
_chemical_formula_structural   TbMnAlO5
_chemical_formula_sum   'Tb4 Mn4 Al4 O20'
_cell_volume   350.49102703
_cell_formula_units_Z   4
loop_
 _symmetry_equiv_pos_site_id
 _symmetry_equiv_pos_as_xyz
  1  'x, y, z'
loop_
 _atom_site_type_symbol
 _atom_site_label
 _atom_site_symmetry_multiplicity
 _atom_site_fract_x
 _atom_site_fract_y
 _atom_site_fract_z
 _atom_site_occupancy
  Tb  Tb0  1  0.500000  0.367111  0.330940  1
  Tb  Tb1  1  0.500000  0.632889  0.669060  1
  Tb  Tb2  1  0.500000  0.132889  0.830940  1
  Tb  Tb3  1  0.500000  0.867111  0.169060  1
  Mn  Mn4  1  0.245731  0.000000  0.500000  1
  Mn  Mn5  1  0.754269  0.000000  0.500000  1
  Mn  Mn6  1  0.754269  0.500000  0.000000  1
  Mn  Mn7  1  0.245731  0.500000  0.000000  1
  Al  Al8  1  0.000000  0.107034  0.141815  1
  Al  Al9  1  0.000000  0.892966  0.858185  1
  Al  Al10  1  0.000000  0.392966  0.641815  1
  Al  Al11  1  0.000000  0.607034  0.358185  1
  O  O12  1  0.000000  0.342150  0.070940  1
  O  O13  1  0.000000  0.657850  0.929060  1
  O  O14  1  0.000000  0.157850  0.570940  1
  O  O15  1  0.000000  0.842150  0.429060  1
  O  O16  1  0.219229  0.000000  0.000000  1
  O  O17  1  0.780771  0.000000  0.000000  1
  O  O18  1  0.780771  0.500000  0.500000  1
  O  O19  1  0.219229  0.500000  0.500000  1
  O  O20  1  0.248541  0.104771  0.289664  1
  O  O21  1  0.751459  0.895229  0.710336  1
  O  O22  1  0.248541  0.895229  0.710336  1
  O  O23  1  0.751459  0.395229  0.789664  1
  O  O24  1  0.751459  0.104771  0.289664  1
  O  O25  1  0.248541  0.604771  0.210336  1
  O  O26  1  0.751459  0.604771  0.210336  1
  O  O27  1  0.248541  0.395229  0.789664  1
  O  O28  1  0.500000  0.337527  0.055882  1
  O  O29  1  0.500000  0.662473  0.944118  1
  O  O30  1  0.500000  0.162473  0.555882  1
  O  O31  1  0.500000  0.837527  0.444118  1
