# generated using pymatgen
data_Tb12Co2SnRu3
_symmetry_space_group_name_H-M   'P 1'
_cell_length_a   8.40520817
_cell_length_b   8.40520839
_cell_length_c   8.40520913
_cell_angle_alpha   112.73226304
_cell_angle_beta   109.92091223
_cell_angle_gamma   105.83403970
_symmetry_Int_Tables_number   1
_chemical_formula_structural   Tb12Co2SnRu3
_chemical_formula_sum   'Tb12 Co2 Sn1 Ru3'
_cell_volume   455.44889257
_cell_formula_units_Z   1
loop_
 _symmetry_equiv_pos_site_id
 _symmetry_equiv_pos_as_xyz
  1  'x, y, z'
loop_
 _atom_site_type_symbol
 _atom_site_label
 _atom_site_symmetry_multiplicity
 _atom_site_fract_x
 _atom_site_fract_y
 _atom_site_fract_z
 _atom_site_occupancy
  Tb  Tb0  1  0.820318  0.720678  0.540995  1
  Tb  Tb1  1  0.179682  0.279322  0.459005  1
  Tb  Tb2  1  0.179682  0.720678  0.900361  1
  Tb  Tb3  1  0.820318  0.279322  0.099639  1
  Tb  Tb4  1  0.678522  0.361619  0.683097  1
  Tb  Tb5  1  0.321478  0.638381  0.316903  1
  Tb  Tb6  1  0.678522  0.995425  0.316903  1
  Tb  Tb7  1  0.321478  0.004575  0.683097  1
  Tb  Tb8  1  0.585338  0.772108  0.813231  1
  Tb  Tb9  1  0.414662  0.227892  0.186769  1
  Tb  Tb10  1  0.958877  0.772108  0.186769  1
  Tb  Tb11  1  0.041123  0.227892  0.813231  1
  Co  Co12  1  0.109199  0.609199  0.500000  1
  Co  Co13  1  0.890801  0.390801  0.500000  1
  Sn  Sn14  1  0.500000  0.500000  0.000000  1
  Ru  Ru15  1  0.663063  0.000000  0.663063  1
  Ru  Ru16  1  0.336937  0.000000  0.336937  1
  Ru  Ru17  1  0.000000  0.000000  0.000000  1
