# generated using pymatgen
data_Tb2Y4NiI10
_symmetry_space_group_name_H-M   'P 1'
_cell_length_a   7.72454504
_cell_length_b   9.71064805
_cell_length_c   9.73534852
_cell_angle_alpha   107.27425669
_cell_angle_beta   96.99389777
_cell_angle_gamma   104.79058058
_symmetry_Int_Tables_number   1
_chemical_formula_structural   Tb2Y4NiI10
_chemical_formula_sum   'Tb2 Y4 Ni1 I10'
_cell_volume   658.59015460
_cell_formula_units_Z   1
loop_
 _symmetry_equiv_pos_site_id
 _symmetry_equiv_pos_as_xyz
  1  'x, y, z'
loop_
 _atom_site_type_symbol
 _atom_site_label
 _atom_site_symmetry_multiplicity
 _atom_site_fract_x
 _atom_site_fract_y
 _atom_site_fract_z
 _atom_site_occupancy
  Tb  Tb0  1  0.888049  0.960325  0.236051  1
  Tb  Tb1  1  0.111951  0.039675  0.763949  1
  Y  Y2  1  0.029579  0.719169  0.915725  1
  Y  Y3  1  0.970421  0.280831  0.084275  1
  Y  Y4  1  0.657703  0.877804  0.837459  1
  Y  Y5  1  0.342297  0.122196  0.162541  1
  Ni  Ni6  1  0.000000  0.000000  0.000000  1
  I  I7  1  0.646182  0.547927  0.727442  1
  I  I8  1  0.353818  0.452073  0.272558  1
  I  I9  1  0.739920  0.911586  0.537201  1
  I  I10  1  0.260080  0.088414  0.462799  1
  I  I11  1  0.085191  0.372340  0.819680  1
  I  I12  1  0.914809  0.627660  0.180320  1
  I  I13  1  0.453375  0.815488  0.092718  1
  I  I14  1  0.546625  0.184512  0.907282  1
  I  I15  1  0.222154  0.741492  0.653840  1
  I  I16  1  0.777846  0.258508  0.346160  1
