# generated using pymatgen
data_Ca3Co7(As3Rh)2
_symmetry_space_group_name_H-M   'P 1'
_cell_length_a   3.86511500
_cell_length_b   11.13439000
_cell_length_c   12.87564500
_cell_angle_alpha   90.00000000
_cell_angle_beta   90.00000000
_cell_angle_gamma   90.00000000
_symmetry_Int_Tables_number   1
_chemical_formula_structural   Ca3Co7(As3Rh)2
_chemical_formula_sum   'Ca6 Co14 As12 Rh4'
_cell_volume   554.11236726
_cell_formula_units_Z   2
loop_
 _symmetry_equiv_pos_site_id
 _symmetry_equiv_pos_as_xyz
  1  'x, y, z'
loop_
 _atom_site_type_symbol
 _atom_site_label
 _atom_site_symmetry_multiplicity
 _atom_site_fract_x
 _atom_site_fract_y
 _atom_site_fract_z
 _atom_site_occupancy
  Ca  Ca0  1  0.000000  0.500000  0.525852  1
  Ca  Ca1  1  0.500000  0.000000  0.474148  1
  Ca  Ca2  1  0.500000  0.820160  0.206569  1
  Ca  Ca3  1  0.500000  0.179840  0.206569  1
  Ca  Ca4  1  0.000000  0.679840  0.793431  1
  Ca  Ca5  1  0.000000  0.320160  0.793431  1
  Co  Co6  1  0.000000  0.500000  0.991914  1
  Co  Co7  1  0.500000  0.000000  0.008086  1
  Co  Co8  1  0.500000  0.331477  0.995932  1
  Co  Co9  1  0.500000  0.668523  0.995932  1
  Co  Co10  1  0.000000  0.168523  0.004068  1
  Co  Co11  1  0.000000  0.831477  0.004068  1
  Co  Co12  1  0.500000  0.301788  0.431768  1
  Co  Co13  1  0.500000  0.698212  0.431768  1
  Co  Co14  1  0.000000  0.198212  0.568232  1
  Co  Co15  1  0.000000  0.801788  0.568232  1
  Co  Co16  1  0.500000  0.882775  0.707986  1
  Co  Co17  1  0.500000  0.117225  0.707986  1
  Co  Co18  1  0.000000  0.617225  0.292014  1
  Co  Co19  1  0.000000  0.382775  0.292014  1
  As  As20  1  0.500000  0.500000  0.889232  1
  As  As21  1  0.000000  0.000000  0.110768  1
  As  As22  1  0.500000  0.500000  0.347970  1
  As  As23  1  0.000000  0.000000  0.652030  1
  As  As24  1  0.500000  0.300967  0.615301  1
  As  As25  1  0.500000  0.699033  0.615301  1
  As  As26  1  0.000000  0.199033  0.384699  1
  As  As27  1  0.000000  0.800967  0.384699  1
  As  As28  1  0.500000  0.843265  0.891645  1
  As  As29  1  0.500000  0.156735  0.891645  1
  As  As30  1  0.000000  0.656735  0.108355  1
  As  As31  1  0.000000  0.343265  0.108355  1
  Rh  Rh32  1  0.500000  0.500000  0.155465  1
  Rh  Rh33  1  0.000000  0.000000  0.844535  1
  Rh  Rh34  1  0.500000  0.500000  0.699821  1
  Rh  Rh35  1  0.000000  0.000000  0.300179  1
