# generated using pymatgen
data_Ho7NiSn23Os5
_symmetry_space_group_name_H-M   'P 1'
_cell_length_a   9.83524035
_cell_length_b   9.83524075
_cell_length_c   10.11019308
_cell_angle_alpha   89.81119564
_cell_angle_beta   90.18880746
_cell_angle_gamma   119.98576132
_symmetry_Int_Tables_number   1
_chemical_formula_structural   Ho7NiSn23Os5
_chemical_formula_sum   'Ho7 Ni1 Sn23 Os5'
_cell_volume   847.06980954
_cell_formula_units_Z   1
loop_
 _symmetry_equiv_pos_site_id
 _symmetry_equiv_pos_as_xyz
  1  'x, y, z'
loop_
 _atom_site_type_symbol
 _atom_site_label
 _atom_site_symmetry_multiplicity
 _atom_site_fract_x
 _atom_site_fract_y
 _atom_site_fract_z
 _atom_site_occupancy
  Ho  Ho0  1  0.007625  0.992375  0.989993  1
  Ho  Ho1  1  0.515095  0.484905  0.697977  1
  Ho  Ho2  1  0.514596  0.030480  0.697168  1
  Ho  Ho3  1  0.969520  0.485404  0.697168  1
  Ho  Ho4  1  0.033888  0.519932  0.305865  1
  Ho  Ho5  1  0.480068  0.966112  0.305865  1
  Ho  Ho6  1  0.483177  0.516823  0.303186  1
  Ni  Ni7  1  0.828201  0.171799  0.200212  1
  Sn  Sn8  1  0.666273  0.333727  0.179591  1
  Sn  Sn9  1  0.666928  0.333072  0.873071  1
  Sn  Sn10  1  0.333061  0.666939  0.128445  1
  Sn  Sn11  1  0.350481  0.349958  0.999929  1
  Sn  Sn12  1  0.998465  0.647000  0.000225  1
  Sn  Sn13  1  0.653325  0.000279  0.003832  1
  Sn  Sn14  1  0.650042  0.649519  0.999929  1
  Sn  Sn15  1  0.333055  0.666945  0.824393  1
  Sn  Sn16  1  0.440377  0.220945  0.461294  1
  Sn  Sn17  1  0.220203  0.779797  0.540253  1
  Sn  Sn18  1  0.219946  0.440317  0.539187  1
  Sn  Sn19  1  0.559683  0.780054  0.539187  1
  Sn  Sn20  1  0.118403  0.881597  0.275535  1
  Sn  Sn21  1  0.779055  0.559623  0.461294  1
  Sn  Sn22  1  0.780465  0.219535  0.456772  1
  Sn  Sn23  1  0.353000  0.001535  0.000225  1
  Sn  Sn24  1  0.112361  0.233463  0.273941  1
  Sn  Sn25  1  0.766537  0.887639  0.273941  1
  Sn  Sn26  1  0.235450  0.118550  0.721602  1
  Sn  Sn27  1  0.881450  0.764550  0.721602  1
  Sn  Sn28  1  0.881875  0.118125  0.724430  1
  Sn  Sn29  1  0.999584  0.000416  0.497386  1
  Sn  Sn30  1  0.999721  0.346675  0.003832  1
  Os  Os31  1  0.168542  0.831458  0.800960  1
  Os  Os32  1  0.168756  0.338975  0.799497  1
  Os  Os33  1  0.661025  0.831244  0.799497  1
  Os  Os34  1  0.339498  0.169730  0.201357  1
  Os  Os35  1  0.830270  0.660502  0.201357  1
