# generated using pymatgen
data_Li6ZnSi5Ni12
_symmetry_space_group_name_H-M   'P 1'
_cell_length_a   3.94859700
_cell_length_b   5.52032602
_cell_length_c   11.84805800
_cell_angle_alpha   89.99516336
_cell_angle_beta   90.00097220
_cell_angle_gamma   89.99993781
_symmetry_Int_Tables_number   1
_chemical_formula_structural   Li6ZnSi5Ni12
_chemical_formula_sum   'Li6 Zn1 Si5 Ni12'
_cell_volume   258.25854996
_cell_formula_units_Z   1
loop_
 _symmetry_equiv_pos_site_id
 _symmetry_equiv_pos_as_xyz
  1  'x, y, z'
loop_
 _atom_site_type_symbol
 _atom_site_label
 _atom_site_symmetry_multiplicity
 _atom_site_fract_x
 _atom_site_fract_y
 _atom_site_fract_z
 _atom_site_occupancy
  Li  Li0  1  0.000005  0.999713  0.999675  1
  Li  Li1  1  0.500079  0.500434  0.169178  1
  Li  Li2  1  0.000122  0.999716  0.333149  1
  Li  Li3  1  0.499994  0.500376  0.497307  1
  Li  Li4  1  0.999861  0.999675  0.667210  1
  Li  Li5  1  0.499928  0.500028  0.833565  1
  Zn  Zn6  1  0.499934  0.000032  0.833384  1
  Si  Si7  1  0.000012  0.499993  0.000558  1
  Si  Si8  1  0.500066  0.999971  0.167498  1
  Si  Si9  1  0.000117  0.499982  0.333314  1
  Si  Si10  1  0.499993  0.999979  0.499174  1
  Si  Si11  1  0.999897  0.500006  0.666200  1
  Ni  Ni12  1  0.500018  0.256425  0.006093  1
  Ni  Ni13  1  0.500000  0.743771  0.005803  1
  Ni  Ni14  1  0.000036  0.250506  0.166898  1
  Ni  Ni15  1  0.000134  0.749567  0.166896  1
  Ni  Ni16  1  0.500154  0.248806  0.333392  1
  Ni  Ni17  1  0.500062  0.751211  0.333395  1
  Ni  Ni18  1  0.999966  0.250398  0.499685  1
  Ni  Ni19  1  0.000018  0.749613  0.499752  1
  Ni  Ni20  1  0.499891  0.256488  0.660612  1
  Ni  Ni21  1  0.499866  0.743500  0.660566  1
  Ni  Ni22  1  0.999912  0.263403  0.833341  1
  Ni  Ni23  1  0.999936  0.736402  0.833358  1
