# generated using pymatgen
data_NdPaInRh2
_symmetry_space_group_name_H-M   'P 1'
_cell_length_a   7.81792081
_cell_length_b   7.81792081
_cell_length_c   3.68013500
_cell_angle_alpha   90.00000000
_cell_angle_beta   90.00000000
_cell_angle_gamma   94.68169230
_symmetry_Int_Tables_number   1
_chemical_formula_structural   NdPaInRh2
_chemical_formula_sum   'Nd2 Pa2 In2 Rh4'
_cell_volume   224.17895787
_cell_formula_units_Z   2
loop_
 _symmetry_equiv_pos_site_id
 _symmetry_equiv_pos_as_xyz
  1  'x, y, z'
loop_
 _atom_site_type_symbol
 _atom_site_label
 _atom_site_symmetry_multiplicity
 _atom_site_fract_x
 _atom_site_fract_y
 _atom_site_fract_z
 _atom_site_occupancy
  Nd  Nd0  1  0.828024  0.671976  0.500000  1
  Nd  Nd1  1  0.171976  0.328024  0.500000  1
  Pa  Pa2  1  0.666984  0.166984  0.500000  1
  Pa  Pa3  1  0.333016  0.833016  0.500000  1
  In  In4  1  0.500000  0.500000  0.000000  1
  In  In5  1  0.000000  0.000000  0.000000  1
  Rh  Rh6  1  0.378829  0.121171  0.000000  1
  Rh  Rh7  1  0.153567  0.653567  0.000000  1
  Rh  Rh8  1  0.846433  0.346433  0.000000  1
  Rh  Rh9  1  0.621171  0.878829  0.000000  1
