# generated using pymatgen
data_Tb2Eu3Bi3O14
_symmetry_space_group_name_H-M   'P 1'
_cell_length_a   6.65393322
_cell_length_b   6.69716056
_cell_length_c   7.82651300
_cell_angle_alpha   106.72598002
_cell_angle_beta   89.67779026
_cell_angle_gamma   98.50096115
_symmetry_Int_Tables_number   1
_chemical_formula_structural   Tb2Eu3Bi3O14
_chemical_formula_sum   'Tb2 Eu3 Bi3 O14'
_cell_volume   330.09226789
_cell_formula_units_Z   1
loop_
 _symmetry_equiv_pos_site_id
 _symmetry_equiv_pos_as_xyz
  1  'x, y, z'
loop_
 _atom_site_type_symbol
 _atom_site_label
 _atom_site_symmetry_multiplicity
 _atom_site_fract_x
 _atom_site_fract_y
 _atom_site_fract_z
 _atom_site_occupancy
  Tb  Tb0  1  0.460199  0.008736  0.253281  1
  Tb  Tb1  1  0.538559  0.000409  0.750384  1
  Eu  Eu2  1  0.267461  0.528964  0.880848  1
  Eu  Eu3  1  0.738946  0.467944  0.116740  1
  Eu  Eu4  1  0.750808  0.485733  0.620669  1
  Bi  Bi5  1  0.994053  0.998820  0.500119  1
  Bi  Bi6  1  0.999241  0.997305  0.998074  1
  Bi  Bi7  1  0.280456  0.536344  0.386944  1
  O  O8  1  0.448776  0.656660  0.172834  1
  O  O9  1  0.555085  0.351766  0.833151  1
  O  O10  1  0.301504  0.930360  0.951586  1
  O  O11  1  0.698019  0.066681  0.048804  1
  O  O12  1  0.296533  0.932907  0.517607  1
  O  O13  1  0.696887  0.072808  0.487522  1
  O  O14  1  0.545682  0.361886  0.340327  1
  O  O15  1  0.457919  0.642015  0.655790  1
  O  O16  1  0.928613  0.661319  0.944148  1
  O  O17  1  0.069632  0.326442  0.037875  1
  O  O18  1  0.065937  0.333989  0.622155  1
  O  O19  1  0.915827  0.662843  0.386311  1
  O  O20  1  0.872704  0.910133  0.728069  1
  O  O21  1  0.117159  0.065937  0.266761  1
