# generated using pymatgen
data_Ce3Sm3(SiPt5)2
_symmetry_space_group_name_H-M   'P 1'
_cell_length_a   8.33427880
_cell_length_b   8.33554994
_cell_length_c   8.33566708
_cell_angle_alpha   127.61734575
_cell_angle_beta   126.20606822
_cell_angle_gamma   78.40364745
_symmetry_Int_Tables_number   1
_chemical_formula_structural   Ce3Sm3(SiPt5)2
_chemical_formula_sum   'Ce3 Sm3 Si2 Pt10'
_cell_volume   358.40608257
_cell_formula_units_Z   1
loop_
 _symmetry_equiv_pos_site_id
 _symmetry_equiv_pos_as_xyz
  1  'x, y, z'
loop_
 _atom_site_type_symbol
 _atom_site_label
 _atom_site_symmetry_multiplicity
 _atom_site_fract_x
 _atom_site_fract_y
 _atom_site_fract_z
 _atom_site_occupancy
  Ce  Ce0  1  0.383517  0.749068  0.634448  1
  Ce  Ce1  1  0.227096  0.950623  0.276464  1
  Ce  Ce2  1  0.773737  0.051155  0.722589  1
  Sm  Sm3  1  0.826874  0.549034  0.277853  1
  Sm  Sm4  1  0.613812  0.251252  0.362590  1
  Sm  Sm5  1  0.170481  0.449143  0.721330  1
  Si  Si6  1  0.216664  0.250787  0.965860  1
  Si  Si7  1  0.783081  0.749109  0.033985  1
  Pt  Pt8  1  0.171184  0.902455  0.860977  1
  Pt  Pt9  1  0.831287  0.094471  0.135542  1
  Pt  Pt10  1  0.455260  0.184667  0.853782  1
  Pt  Pt11  1  0.544685  0.400393  0.734228  1
  Pt  Pt12  1  0.831277  0.695774  0.736851  1
  Pt  Pt13  1  0.455267  0.601463  0.270579  1
  Pt  Pt14  1  0.544688  0.810465  0.144287  1
  Pt  Pt15  1  0.171189  0.310218  0.268720  1
  Pt  Pt16  1  0.999962  0.000034  0.500040  1
  Pt  Pt17  1  0.999939  0.499889  0.999874  1
