# generated using pymatgen
data_Sc6Zn23Pb
_symmetry_space_group_name_H-M   'P 1'
_cell_length_a   8.92468258
_cell_length_b   8.92468179
_cell_length_c   8.92468300
_cell_angle_alpha   59.99999921
_cell_angle_beta   60.00000214
_cell_angle_gamma   59.99999850
_symmetry_Int_Tables_number   1
_chemical_formula_structural   Sc6Zn23Pb
_chemical_formula_sum   'Sc6 Zn23 Pb1'
_cell_volume   502.64726011
_cell_formula_units_Z   1
loop_
 _symmetry_equiv_pos_site_id
 _symmetry_equiv_pos_as_xyz
  1  'x, y, z'
loop_
 _atom_site_type_symbol
 _atom_site_label
 _atom_site_symmetry_multiplicity
 _atom_site_fract_x
 _atom_site_fract_y
 _atom_site_fract_z
 _atom_site_occupancy
  Sc  Sc0  1  0.740546  0.259454  0.259454  1
  Sc  Sc1  1  0.740546  0.259454  0.740546  1
  Sc  Sc2  1  0.740546  0.740546  0.259454  1
  Sc  Sc3  1  0.259454  0.740546  0.740546  1
  Sc  Sc4  1  0.259454  0.740546  0.259454  1
  Sc  Sc5  1  0.259454  0.259454  0.740546  1
  Zn  Zn6  1  0.603459  0.132181  0.132181  1
  Zn  Zn7  1  0.132181  0.603459  0.132181  1
  Zn  Zn8  1  0.132181  0.132181  0.603459  1
  Zn  Zn9  1  0.132181  0.132181  0.132181  1
  Zn  Zn10  1  0.396541  0.867819  0.867819  1
  Zn  Zn11  1  0.867819  0.396541  0.867819  1
  Zn  Zn12  1  0.867819  0.867819  0.396541  1
  Zn  Zn13  1  0.867819  0.867819  0.867819  1
  Zn  Zn14  1  0.500000  0.000000  0.000000  1
  Zn  Zn15  1  0.500000  0.000000  0.500000  1
  Zn  Zn16  1  0.500000  0.500000  0.000000  1
  Zn  Zn17  1  0.000000  0.500000  0.500000  1
  Zn  Zn18  1  0.000000  0.500000  0.000000  1
  Zn  Zn19  1  0.000000  0.000000  0.500000  1
  Zn  Zn20  1  0.000000  0.000000  0.000000  1
  Zn  Zn21  1  0.950841  0.349719  0.349719  1
  Zn  Zn22  1  0.349719  0.950841  0.349719  1
  Zn  Zn23  1  0.349719  0.349719  0.950841  1
  Zn  Zn24  1  0.349719  0.349719  0.349719  1
  Zn  Zn25  1  0.049159  0.650281  0.650281  1
  Zn  Zn26  1  0.650281  0.049159  0.650281  1
  Zn  Zn27  1  0.650281  0.650281  0.049159  1
  Zn  Zn28  1  0.650281  0.650281  0.650281  1
  Pb  Pb29  1  0.500000  0.500000  0.500000  1
