# generated using pymatgen
data_Y16Ho4(Ir3Ru)3
_symmetry_space_group_name_H-M   'P 1'
_cell_length_a   10.87051800
_cell_length_b   10.87051800
_cell_length_c   6.43466300
_cell_angle_alpha   90.00000000
_cell_angle_beta   90.00000000
_cell_angle_gamma   90.00000000
_symmetry_Int_Tables_number   1
_chemical_formula_structural   Y16Ho4(Ir3Ru)3
_chemical_formula_sum   'Y16 Ho4 Ir9 Ru3'
_cell_volume   760.37229715
_cell_formula_units_Z   1
loop_
 _symmetry_equiv_pos_site_id
 _symmetry_equiv_pos_as_xyz
  1  'x, y, z'
loop_
 _atom_site_type_symbol
 _atom_site_label
 _atom_site_symmetry_multiplicity
 _atom_site_fract_x
 _atom_site_fract_y
 _atom_site_fract_z
 _atom_site_occupancy
  Y  Y0  1  0.293284  0.086757  0.377752  1
  Y  Y1  1  0.293286  0.913382  0.877907  1
  Y  Y2  1  0.706714  0.086618  0.877907  1
  Y  Y3  1  0.706716  0.913243  0.377752  1
  Y  Y4  1  0.586618  0.793286  0.877907  1
  Y  Y5  1  0.586757  0.206716  0.377752  1
  Y  Y6  1  0.413243  0.793284  0.377752  1
  Y  Y7  1  0.413382  0.206714  0.877907  1
  Y  Y8  1  0.208103  0.412624  0.623296  1
  Y  Y9  1  0.207909  0.587353  0.120943  1
  Y  Y10  1  0.792091  0.412647  0.120943  1
  Y  Y11  1  0.791897  0.587376  0.623296  1
  Y  Y12  1  0.912647  0.707909  0.120943  1
  Y  Y13  1  0.912624  0.291897  0.623296  1
  Y  Y14  1  0.087376  0.708103  0.623296  1
  Y  Y15  1  0.087353  0.292091  0.120943  1
  Ho  Ho16  1  0.000000  0.000000  0.499828  1
  Ho  Ho17  1  0.000000  0.000000  0.999814  1
  Ho  Ho18  1  0.500000  0.500000  0.999814  1
  Ho  Ho19  1  0.500000  0.500000  0.499828  1
  Ir  Ir20  1  0.848677  0.151776  0.250033  1
  Ir  Ir21  1  0.848472  0.848222  0.749851  1
  Ir  Ir22  1  0.151528  0.151778  0.749851  1
  Ir  Ir23  1  0.151323  0.848224  0.250033  1
  Ir  Ir24  1  0.651778  0.348472  0.749851  1
  Ir  Ir25  1  0.651776  0.651323  0.250033  1
  Ir  Ir26  1  0.348224  0.348677  0.250033  1
  Ir  Ir27  1  0.348222  0.651528  0.749851  1
  Ir  Ir28  1  0.000000  0.500000  0.377938  1
  Ru  Ru29  1  0.500000  0.000000  0.122951  1
  Ru  Ru30  1  0.500000  0.000000  0.622965  1
  Ru  Ru31  1  0.000000  0.500000  0.877732  1
