# generated using pymatgen
data_Sr16Yb4(Ag3Hg)3
_symmetry_space_group_name_H-M   'P 1'
_cell_length_a   8.49742300
_cell_length_b   8.49742300
_cell_length_c   15.54896600
_cell_angle_alpha   90.00000000
_cell_angle_beta   90.00000000
_cell_angle_gamma   90.00000000
_symmetry_Int_Tables_number   1
_chemical_formula_structural   Sr16Yb4(Ag3Hg)3
_chemical_formula_sum   'Sr16 Yb4 Ag9 Hg3'
_cell_volume   1122.73171211
_cell_formula_units_Z   1
loop_
 _symmetry_equiv_pos_site_id
 _symmetry_equiv_pos_as_xyz
  1  'x, y, z'
loop_
 _atom_site_type_symbol
 _atom_site_label
 _atom_site_symmetry_multiplicity
 _atom_site_fract_x
 _atom_site_fract_y
 _atom_site_fract_z
 _atom_site_occupancy
  Sr  Sr0  1  0.671007  0.164616  0.107445  1
  Sr  Sr1  1  0.169264  0.667678  0.609707  1
  Sr  Sr2  1  0.328993  0.835384  0.107445  1
  Sr  Sr3  1  0.830736  0.332322  0.609707  1
  Sr  Sr4  1  0.835384  0.671007  0.107445  1
  Sr  Sr5  1  0.332322  0.169264  0.609707  1
  Sr  Sr6  1  0.164616  0.328993  0.107445  1
  Sr  Sr7  1  0.667678  0.830736  0.609707  1
  Sr  Sr8  1  0.835384  0.328993  0.892555  1
  Sr  Sr9  1  0.332322  0.830736  0.390293  1
  Sr  Sr10  1  0.164616  0.671007  0.892555  1
  Sr  Sr11  1  0.667678  0.169264  0.390293  1
  Sr  Sr12  1  0.671007  0.835384  0.892555  1
  Sr  Sr13  1  0.169264  0.332322  0.390293  1
  Sr  Sr14  1  0.328993  0.164616  0.892555  1
  Sr  Sr15  1  0.830736  0.667678  0.390293  1
  Yb  Yb16  1  0.500000  0.500000  0.754453  1
  Yb  Yb17  1  0.000000  0.000000  0.250660  1
  Yb  Yb18  1  0.000000  0.000000  0.749340  1
  Yb  Yb19  1  0.500000  0.500000  0.245547  1
  Ag  Ag20  1  0.626992  0.127729  0.751403  1
  Ag  Ag21  1  0.127729  0.626992  0.248597  1
  Ag  Ag22  1  0.872271  0.373008  0.248597  1
  Ag  Ag23  1  0.373008  0.872271  0.751403  1
  Ag  Ag24  1  0.872271  0.626992  0.751403  1
  Ag  Ag25  1  0.373008  0.127729  0.248597  1
  Ag  Ag26  1  0.127729  0.373008  0.751403  1
  Ag  Ag27  1  0.626992  0.872271  0.248597  1
  Ag  Ag28  1  0.000000  0.000000  0.000000  1
  Hg  Hg29  1  0.500000  0.500000  0.500000  1
  Hg  Hg30  1  0.500000  0.500000  0.000000  1
  Hg  Hg31  1  0.000000  0.000000  0.500000  1
