# generated using pymatgen
data_SrEu6LuSb6
_symmetry_space_group_name_H-M   'P 1'
_cell_length_a   8.40979107
_cell_length_b   8.40434631
_cell_length_c   8.32640800
_cell_angle_alpha   109.25716816
_cell_angle_beta   109.36338504
_cell_angle_gamma   109.61848227
_symmetry_Int_Tables_number   1
_chemical_formula_structural   SrEu6LuSb6
_chemical_formula_sum   'Sr1 Eu6 Lu1 Sb6'
_cell_volume   453.99801957
_cell_formula_units_Z   1
loop_
 _symmetry_equiv_pos_site_id
 _symmetry_equiv_pos_as_xyz
  1  'x, y, z'
loop_
 _atom_site_type_symbol
 _atom_site_label
 _atom_site_symmetry_multiplicity
 _atom_site_fract_x
 _atom_site_fract_y
 _atom_site_fract_z
 _atom_site_occupancy
  Sr  Sr0  1  0.645428  0.498671  0.998545  1
  Eu  Eu1  1  0.139464  0.496584  0.999069  1
  Eu  Eu2  1  0.499516  0.999418  0.643734  1
  Eu  Eu3  1  0.357379  0.361429  0.359702  1
  Eu  Eu4  1  0.004148  0.143068  0.502854  1
  Eu  Eu5  1  0.853305  0.855079  0.853232  1
  Eu  Eu6  1  0.000814  0.646468  0.500673  1
  Lu  Lu7  1  0.499754  0.999829  0.139999  1
  Sb  Sb8  1  0.865251  0.238867  0.128470  1
  Sb  Sb9  1  0.137981  0.880465  0.246561  1
  Sb  Sb10  1  0.375055  0.638507  0.762177  1
  Sb  Sb11  1  0.255809  0.118451  0.885706  1
  Sb  Sb12  1  0.743909  0.363836  0.607864  1
  Sb  Sb13  1  0.622189  0.759328  0.371413  1
