# generated using pymatgen
data_Pr2NdIn3Pb2
_symmetry_space_group_name_H-M   'P 1'
_cell_length_a   6.67860900
_cell_length_b   6.67860946
_cell_length_c   10.40656700
_cell_angle_alpha   90.00000000
_cell_angle_beta   90.00000000
_cell_angle_gamma   103.01136497
_symmetry_Int_Tables_number   1
_chemical_formula_structural   Pr2NdIn3Pb2
_chemical_formula_sum   'Pr4 Nd2 In6 Pb4'
_cell_volume   452.25521860
_cell_formula_units_Z   2
loop_
 _symmetry_equiv_pos_site_id
 _symmetry_equiv_pos_as_xyz
  1  'x, y, z'
loop_
 _atom_site_type_symbol
 _atom_site_label
 _atom_site_symmetry_multiplicity
 _atom_site_fract_x
 _atom_site_fract_y
 _atom_site_fract_z
 _atom_site_occupancy
  Pr  Pr0  1  0.205021  0.794979  0.500000  1
  Pr  Pr1  1  0.205021  0.794979  0.000000  1
  Pr  Pr2  1  0.794979  0.205021  0.500000  1
  Pr  Pr3  1  0.794979  0.205021  0.000000  1
  Nd  Nd4  1  0.630839  0.630839  0.250000  1
  Nd  Nd5  1  0.369161  0.369161  0.750000  1
  In  In6  1  0.016722  0.016722  0.250000  1
  In  In7  1  0.983278  0.983278  0.750000  1
  In  In8  1  0.307475  0.307475  0.044981  1
  In  In9  1  0.692525  0.692525  0.955019  1
  In  In10  1  0.307475  0.307475  0.455019  1
  In  In11  1  0.692525  0.692525  0.544981  1
  Pb  Pb12  1  0.499377  0.071611  0.250000  1
  Pb  Pb13  1  0.928389  0.500623  0.750000  1
  Pb  Pb14  1  0.500623  0.928389  0.750000  1
  Pb  Pb15  1  0.071611  0.499377  0.250000  1
