# generated using pymatgen
data_Ho3Fe2Co6MoP6
_symmetry_space_group_name_H-M   'P 1'
_cell_length_a   3.73094300
_cell_length_b   10.54761700
_cell_length_c   12.19722600
_cell_angle_alpha   90.00000000
_cell_angle_beta   90.00000000
_cell_angle_gamma   90.00000000
_symmetry_Int_Tables_number   1
_chemical_formula_structural   Ho3Fe2Co6MoP6
_chemical_formula_sum   'Ho6 Fe4 Co12 Mo2 P12'
_cell_volume   479.99204132
_cell_formula_units_Z   2
loop_
 _symmetry_equiv_pos_site_id
 _symmetry_equiv_pos_as_xyz
  1  'x, y, z'
loop_
 _atom_site_type_symbol
 _atom_site_label
 _atom_site_symmetry_multiplicity
 _atom_site_fract_x
 _atom_site_fract_y
 _atom_site_fract_z
 _atom_site_occupancy
  Ho  Ho0  1  0.000000  0.500000  0.525266  1
  Ho  Ho1  1  0.500000  0.000000  0.474821  1
  Ho  Ho2  1  0.500000  0.820338  0.204415  1
  Ho  Ho3  1  0.500000  0.179662  0.204415  1
  Ho  Ho4  1  0.000000  0.680024  0.795952  1
  Ho  Ho5  1  0.000000  0.319976  0.795952  1
  Fe  Fe6  1  0.000000  0.500000  0.986781  1
  Fe  Fe7  1  0.500000  0.000000  0.013192  1
  Fe  Fe8  1  0.500000  0.295938  0.431023  1
  Fe  Fe9  1  0.500000  0.704062  0.431023  1
  Co  Co10  1  0.000000  0.203702  0.570008  1
  Co  Co11  1  0.000000  0.796298  0.570008  1
  Co  Co12  1  0.500000  0.878674  0.706660  1
  Co  Co13  1  0.500000  0.121326  0.706660  1
  Co  Co14  1  0.000000  0.621186  0.292774  1
  Co  Co15  1  0.000000  0.378814  0.292774  1
  Co  Co16  1  0.500000  0.330933  0.990820  1
  Co  Co17  1  0.500000  0.669067  0.990820  1
  Co  Co18  1  0.000000  0.169147  0.008919  1
  Co  Co19  1  0.000000  0.830853  0.008919  1
  Co  Co20  1  0.500000  0.500000  0.699504  1
  Co  Co21  1  0.000000  0.000000  0.300649  1
  Mo  Mo22  1  0.500000  0.500000  0.154282  1
  Mo  Mo23  1  0.000000  0.000000  0.844797  1
  P  P24  1  0.500000  0.309151  0.614625  1
  P  P25  1  0.500000  0.690849  0.614625  1
  P  P26  1  0.000000  0.192467  0.384940  1
  P  P27  1  0.000000  0.807533  0.384940  1
  P  P28  1  0.500000  0.500000  0.882936  1
  P  P29  1  0.000000  0.000000  0.116921  1
  P  P30  1  0.500000  0.845576  0.893465  1
  P  P31  1  0.500000  0.154424  0.893465  1
  P  P32  1  0.000000  0.654352  0.106578  1
  P  P33  1  0.000000  0.345648  0.106578  1
  P  P34  1  0.500000  0.500000  0.349632  1
  P  P35  1  0.000000  0.000000  0.650864  1
