# generated using pymatgen
data_La4Nd12Cd4OsPd3
_symmetry_space_group_name_H-M   'P 1'
_cell_length_a   10.10192718
_cell_length_b   10.10192742
_cell_length_c   10.10192835
_cell_angle_alpha   59.46310172
_cell_angle_beta   59.46310664
_cell_angle_gamma   59.46310166
_symmetry_Int_Tables_number   1
_chemical_formula_structural   La4Nd12Cd4OsPd3
_chemical_formula_sum   'La4 Nd12 Cd4 Os1 Pd3'
_cell_volume   720.04722590
_cell_formula_units_Z   1
loop_
 _symmetry_equiv_pos_site_id
 _symmetry_equiv_pos_as_xyz
  1  'x, y, z'
loop_
 _atom_site_type_symbol
 _atom_site_label
 _atom_site_symmetry_multiplicity
 _atom_site_fract_x
 _atom_site_fract_y
 _atom_site_fract_z
 _atom_site_occupancy
  La  La0  1  0.352600  0.352600  0.352600  1
  La  La1  1  0.347939  0.347939  0.949221  1
  La  La2  1  0.347939  0.949221  0.347939  1
  La  La3  1  0.949221  0.347939  0.347939  1
  Nd  Nd4  1  0.817822  0.188096  0.188096  1
  Nd  Nd5  1  0.188546  0.808942  0.808942  1
  Nd  Nd6  1  0.188096  0.817822  0.188096  1
  Nd  Nd7  1  0.808942  0.188546  0.808942  1
  Nd  Nd8  1  0.188096  0.188096  0.817822  1
  Nd  Nd9  1  0.808942  0.808942  0.188546  1
  Nd  Nd10  1  0.935412  0.565519  0.565519  1
  Nd  Nd11  1  0.557676  0.937116  0.937116  1
  Nd  Nd12  1  0.565519  0.935412  0.565519  1
  Nd  Nd13  1  0.937116  0.557676  0.937116  1
  Nd  Nd14  1  0.565519  0.565519  0.935412  1
  Nd  Nd15  1  0.937116  0.937116  0.557676  1
  Cd  Cd16  1  0.580202  0.580202  0.580202  1
  Cd  Cd17  1  0.580425  0.580425  0.257119  1
  Cd  Cd18  1  0.580425  0.257119  0.580425  1
  Cd  Cd19  1  0.257119  0.580425  0.580425  1
  Os  Os20  1  0.143837  0.143837  0.143837  1
  Pd  Pd21  1  0.144981  0.144981  0.571531  1
  Pd  Pd22  1  0.144981  0.571531  0.144981  1
  Pd  Pd23  1  0.571531  0.144981  0.144981  1
