# generated using pymatgen
data_La2Al16VPt8
_symmetry_space_group_name_H-M   'P 1'
_cell_length_a   11.20171209
_cell_length_b   11.20171355
_cell_length_c   11.20171302
_cell_angle_alpha   158.31937584
_cell_angle_beta   116.19796381
_cell_angle_gamma   68.23925871
_symmetry_Int_Tables_number   1
_chemical_formula_structural   La2Al16VPt8
_chemical_formula_sum   'La2 Al16 V1 Pt8'
_cell_volume   462.60066565
_cell_formula_units_Z   1
loop_
 _symmetry_equiv_pos_site_id
 _symmetry_equiv_pos_as_xyz
  1  'x, y, z'
loop_
 _atom_site_type_symbol
 _atom_site_label
 _atom_site_symmetry_multiplicity
 _atom_site_fract_x
 _atom_site_fract_y
 _atom_site_fract_z
 _atom_site_occupancy
  La  La0  1  0.230156  0.231178  0.998978  1
  La  La1  1  0.767801  0.768822  0.998978  1
  Al  Al2  1  0.275748  0.392762  0.882985  1
  Al  Al3  1  0.089745  0.924105  0.165639  1
  Al  Al4  1  0.504768  0.201335  0.303433  1
  Al  Al5  1  0.241534  0.075895  0.165639  1
  Al  Al6  1  0.912207  0.415972  0.496234  1
  Al  Al7  1  0.719901  0.598006  0.121896  1
  Al  Al8  1  0.900964  0.207955  0.693009  1
  Al  Al9  1  0.485054  0.792045  0.693009  1
  Al  Al10  1  0.385984  0.000000  0.385984  1
  Al  Al11  1  0.625380  0.000000  0.625380  1
  Al  Al12  1  0.490224  0.607238  0.882985  1
  Al  Al13  1  0.102098  0.798665  0.303433  1
  Al  Al14  1  0.909798  0.087054  0.822744  1
  Al  Al15  1  0.735690  0.912946  0.822744  1
  Al  Al16  1  0.523890  0.401994  0.121896  1
  Al  Al17  1  0.080262  0.584028  0.496234  1
  V  V18  1  0.791096  0.500000  0.291096  1
  Pt  Pt19  1  0.028176  0.343624  0.684552  1
  Pt  Pt20  1  0.624920  0.123327  0.501592  1
  Pt  Pt21  1  0.253726  0.500000  0.753726  1
  Pt  Pt22  1  0.378265  0.876673  0.501592  1
  Pt  Pt23  1  0.984102  0.000000  0.984102  1
  Pt  Pt24  1  0.646714  0.337920  0.308793  1
  Pt  Pt25  1  0.340927  0.656376  0.684552  1
  Pt  Pt26  1  0.970873  0.662080  0.308793  1
