# generated using pymatgen
data_Ca4Ga2Pd3Pt
_symmetry_space_group_name_H-M   'P 1'
_cell_length_a   5.73583967
_cell_length_b   5.73851268
_cell_length_c   7.88750437
_cell_angle_alpha   78.74584882
_cell_angle_beta   78.77277751
_cell_angle_gamma   59.94481314
_symmetry_Int_Tables_number   1
_chemical_formula_structural   Ca4Ga2Pd3Pt
_chemical_formula_sum   'Ca4 Ga2 Pd3 Pt1'
_cell_volume   218.94809094
_cell_formula_units_Z   1
loop_
 _symmetry_equiv_pos_site_id
 _symmetry_equiv_pos_as_xyz
  1  'x, y, z'
loop_
 _atom_site_type_symbol
 _atom_site_label
 _atom_site_symmetry_multiplicity
 _atom_site_fract_x
 _atom_site_fract_y
 _atom_site_fract_z
 _atom_site_occupancy
  Ca  Ca0  1  0.782792  0.516613  0.351551  1
  Ca  Ca1  1  0.485723  0.215023  0.151917  1
  Ca  Ca2  1  0.215540  0.483760  0.648124  1
  Ca  Ca3  1  0.517764  0.785274  0.848909  1
  Ga  Ga4  1  0.127295  0.870114  0.251321  1
  Ga  Ga5  1  0.866804  0.129428  0.749473  1
  Pd  Pd6  1  0.005028  0.740696  0.002434  1
  Pd  Pd7  1  0.262730  0.996769  0.497629  1
  Pd  Pd8  1  0.996360  0.258933  0.995620  1
  Pt  Pt9  1  0.739964  0.003390  0.503023  1
