# generated using pymatgen
data_Tb3Ho7In8Pd3Rh
_symmetry_space_group_name_H-M   'P 1'
_cell_length_a   3.62375500
_cell_length_b   8.12482851
_cell_length_c   18.25251772
_cell_angle_alpha   89.93860857
_cell_angle_beta   90.00000000
_cell_angle_gamma   90.00000000
_symmetry_Int_Tables_number   1
_chemical_formula_structural   Tb3Ho7In8Pd3Rh
_chemical_formula_sum   'Tb3 Ho7 In8 Pd3 Rh1'
_cell_volume   537.39739862
_cell_formula_units_Z   1
loop_
 _symmetry_equiv_pos_site_id
 _symmetry_equiv_pos_as_xyz
  1  'x, y, z'
loop_
 _atom_site_type_symbol
 _atom_site_label
 _atom_site_symmetry_multiplicity
 _atom_site_fract_x
 _atom_site_fract_y
 _atom_site_fract_z
 _atom_site_occupancy
  Tb  Tb0  1  0.000000  0.500345  0.499841  1
  Tb  Tb1  1  0.000000  0.999418  0.000148  1
  Tb  Tb2  1  0.000000  0.732114  0.278819  1
  Ho  Ho3  1  0.000000  0.260849  0.718550  1
  Ho  Ho4  1  0.000000  0.759715  0.780747  1
  Ho  Ho5  1  0.000000  0.252337  0.219569  1
  Ho  Ho6  1  0.000000  0.614681  0.087077  1
  Ho  Ho7  1  0.000000  0.381870  0.916309  1
  Ho  Ho8  1  0.000000  0.882283  0.583674  1
  Ho  Ho9  1  0.000000  0.117770  0.415364  1
  In  In10  1  0.500000  0.705487  0.933326  1
  In  In11  1  0.500000  0.292649  0.068420  1
  In  In12  1  0.500000  0.793677  0.432823  1
  In  In13  1  0.500000  0.205688  0.566895  1
  In  In14  1  0.500000  0.580139  0.650186  1
  In  In15  1  0.500000  0.421837  0.350044  1
  In  In16  1  0.500000  0.923278  0.150287  1
  In  In17  1  0.500000  0.079796  0.849195  1
  Pd  Pd18  1  0.500000  0.476086  0.803988  1
  Pd  Pd19  1  0.500000  0.976641  0.695905  1
  Pd  Pd20  1  0.500000  0.023283  0.303785  1
  Rh  Rh21  1  0.500000  0.520057  0.195047  1
