# generated using pymatgen
data_Be8AlFeRe2
_symmetry_space_group_name_H-M   'P 1'
_cell_length_a   4.32740400
_cell_length_b   4.32736410
_cell_length_c   7.01488400
_cell_angle_alpha   90.00265470
_cell_angle_beta   90.00022534
_cell_angle_gamma   60.00005986
_symmetry_Int_Tables_number   1
_chemical_formula_structural   Be8AlFeRe2
_chemical_formula_sum   'Be8 Al1 Fe1 Re2'
_cell_volume   113.76332239
_cell_formula_units_Z   1
loop_
 _symmetry_equiv_pos_site_id
 _symmetry_equiv_pos_as_xyz
  1  'x, y, z'
loop_
 _atom_site_type_symbol
 _atom_site_label
 _atom_site_symmetry_multiplicity
 _atom_site_fract_x
 _atom_site_fract_y
 _atom_site_fract_z
 _atom_site_occupancy
  Be  Be0  1  0.000020  0.999985  0.502126  1
  Be  Be1  1  0.999989  0.999993  0.000656  1
  Be  Be2  1  0.832324  0.335360  0.745626  1
  Be  Be3  1  0.335372  0.832301  0.745620  1
  Be  Be4  1  0.832345  0.832306  0.745623  1
  Be  Be5  1  0.169836  0.660331  0.252880  1
  Be  Be6  1  0.660360  0.169807  0.252883  1
  Be  Be7  1  0.169867  0.169814  0.252891  1
  Al  Al8  1  0.666692  0.666672  0.440193  1
  Fe  Fe9  1  0.333268  0.333591  0.572605  1
  Re  Re10  1  0.666482  0.666601  0.057603  1
  Re  Re11  1  0.333443  0.333239  0.931295  1
