# generated using pymatgen
data_Tb8Fe(Si4Ir)3
_symmetry_space_group_name_H-M   'P 1'
_cell_length_a   8.15769000
_cell_length_b   8.15768846
_cell_length_c   7.98453100
_cell_angle_alpha   90.00000000
_cell_angle_beta   90.00000000
_cell_angle_gamma   120.00000624
_symmetry_Int_Tables_number   1
_chemical_formula_structural   Tb8Fe(Si4Ir)3
_chemical_formula_sum   'Tb8 Fe1 Si12 Ir3'
_cell_volume   460.16579042
_cell_formula_units_Z   1
loop_
 _symmetry_equiv_pos_site_id
 _symmetry_equiv_pos_as_xyz
  1  'x, y, z'
loop_
 _atom_site_type_symbol
 _atom_site_label
 _atom_site_symmetry_multiplicity
 _atom_site_fract_x
 _atom_site_fract_y
 _atom_site_fract_z
 _atom_site_occupancy
  Tb  Tb0  1  0.507655  0.015309  0.252295  1
  Tb  Tb1  1  0.491156  0.982315  0.748685  1
  Tb  Tb2  1  0.984691  0.492345  0.252295  1
  Tb  Tb3  1  0.017685  0.508844  0.748685  1
  Tb  Tb4  1  0.507655  0.492345  0.252295  1
  Tb  Tb5  1  0.491156  0.508844  0.748685  1
  Tb  Tb6  1  0.000000  0.000000  0.251637  1
  Tb  Tb7  1  0.000000  0.000000  0.748365  1
  Fe  Fe8  1  0.333333  0.666667  0.465172  1
  Si  Si9  1  0.166507  0.333015  0.001942  1
  Si  Si10  1  0.833359  0.666718  0.998398  1
  Si  Si11  1  0.666985  0.833493  0.001942  1
  Si  Si12  1  0.834077  0.668154  0.501683  1
  Si  Si13  1  0.333282  0.166641  0.998398  1
  Si  Si14  1  0.172353  0.344705  0.497560  1
  Si  Si15  1  0.166507  0.833493  0.001942  1
  Si  Si16  1  0.331846  0.165923  0.501683  1
  Si  Si17  1  0.833359  0.166641  0.998398  1
  Si  Si18  1  0.655295  0.827647  0.497560  1
  Si  Si19  1  0.834077  0.165923  0.501683  1
  Si  Si20  1  0.172353  0.827647  0.497560  1
  Ir  Ir21  1  0.333333  0.666667  0.028629  1
  Ir  Ir22  1  0.666667  0.333333  0.973760  1
  Ir  Ir23  1  0.666667  0.333333  0.530747  1
