# generated using pymatgen
data_DyY(Al3Pd)6
_symmetry_space_group_name_H-M   'P 1'
_cell_length_a   10.42699318
_cell_length_b   10.42699321
_cell_length_c   10.42699400
_cell_angle_alpha   42.21982958
_cell_angle_beta   42.21983758
_cell_angle_gamma   42.21982734
_symmetry_Int_Tables_number   1
_chemical_formula_structural   DyY(Al3Pd)6
_chemical_formula_sum   'Dy1 Y1 Al18 Pd6'
_cell_volume   463.25493851
_cell_formula_units_Z   1
loop_
 _symmetry_equiv_pos_site_id
 _symmetry_equiv_pos_as_xyz
  1  'x, y, z'
loop_
 _atom_site_type_symbol
 _atom_site_label
 _atom_site_symmetry_multiplicity
 _atom_site_fract_x
 _atom_site_fract_y
 _atom_site_fract_z
 _atom_site_occupancy
  Dy  Dy0  1  0.833121  0.833121  0.833121  1
  Y  Y1  1  0.166865  0.166865  0.166865  1
  Al  Al2  1  0.107000  0.435140  0.763265  1
  Al  Al3  1  0.435140  0.763265  0.107000  1
  Al  Al4  1  0.565176  0.892838  0.236577  1
  Al  Al5  1  0.949916  0.949916  0.949916  1
  Al  Al6  1  0.050009  0.050009  0.050009  1
  Al  Al7  1  0.295016  0.703984  0.501011  1
  Al  Al8  1  0.892838  0.236577  0.565176  1
  Al  Al9  1  0.384726  0.384726  0.384726  1
  Al  Al10  1  0.501011  0.295016  0.703984  1
  Al  Al11  1  0.236577  0.565176  0.892838  1
  Al  Al12  1  0.716377  0.716377  0.716377  1
  Al  Al13  1  0.615272  0.615272  0.615272  1
  Al  Al14  1  0.334526  0.999891  0.665589  1
  Al  Al15  1  0.703984  0.501011  0.295016  1
  Al  Al16  1  0.665589  0.334526  0.999891  1
  Al  Al17  1  0.283689  0.283689  0.283689  1
  Al  Al18  1  0.999891  0.665589  0.334526  1
  Al  Al19  1  0.763265  0.107000  0.435140  1
  Pd  Pd20  1  0.418620  0.077401  0.759908  1
  Pd  Pd21  1  0.581301  0.240145  0.922637  1
  Pd  Pd22  1  0.077401  0.759908  0.418620  1
  Pd  Pd23  1  0.759908  0.418620  0.077401  1
  Pd  Pd24  1  0.922637  0.581301  0.240145  1
  Pd  Pd25  1  0.240145  0.922637  0.581301  1
