# generated using pymatgen
data_HoTmLu2(Co5P3)4
_symmetry_space_group_name_H-M   'P 1'
_cell_length_a   3.62905400
_cell_length_b   10.23799307
_cell_length_c   11.69121101
_cell_angle_alpha   89.99053365
_cell_angle_beta   90.00000000
_cell_angle_gamma   90.00000000
_symmetry_Int_Tables_number   1
_chemical_formula_structural   HoTmLu2(Co5P3)4
_chemical_formula_sum   'Ho1 Tm1 Lu2 Co20 P12'
_cell_volume   434.37793361
_cell_formula_units_Z   1
loop_
 _symmetry_equiv_pos_site_id
 _symmetry_equiv_pos_as_xyz
  1  'x, y, z'
loop_
 _atom_site_type_symbol
 _atom_site_label
 _atom_site_symmetry_multiplicity
 _atom_site_fract_x
 _atom_site_fract_y
 _atom_site_fract_z
 _atom_site_occupancy
  Ho  Ho0  1  0.250000  0.917226  0.202922  1
  Tm  Tm1  1  0.250000  0.582608  0.702659  1
  Lu  Lu2  1  0.750000  0.417382  0.297294  1
  Lu  Lu3  1  0.750000  0.082752  0.797376  1
  Co  Co4  1  0.250000  0.717377  0.991781  1
  Co  Co5  1  0.250000  0.782477  0.491871  1
  Co  Co6  1  0.750000  0.282863  0.007477  1
  Co  Co7  1  0.750000  0.217405  0.508048  1
  Co  Co8  1  0.250000  0.407189  0.486649  1
  Co  Co9  1  0.250000  0.093149  0.986396  1
  Co  Co10  1  0.750000  0.592529  0.512449  1
  Co  Co11  1  0.750000  0.907663  0.011460  1
  Co  Co12  1  0.250000  0.221890  0.176898  1
  Co  Co13  1  0.250000  0.278340  0.676950  1
  Co  Co14  1  0.750000  0.778648  0.822973  1
  Co  Co15  1  0.750000  0.720726  0.323358  1
  Co  Co16  1  0.250000  0.883501  0.699557  1
  Co  Co17  1  0.250000  0.615836  0.199341  1
  Co  Co18  1  0.750000  0.118212  0.301387  1
  Co  Co19  1  0.750000  0.382532  0.800796  1
  Co  Co20  1  0.250000  0.467101  0.931431  1
  Co  Co21  1  0.250000  0.033248  0.432278  1
  Co  Co22  1  0.750000  0.531441  0.068862  1
  Co  Co23  1  0.750000  0.968154  0.569598  1
  P  P24  1  0.250000  0.418378  0.113101  1
  P  P25  1  0.250000  0.081585  0.613595  1
  P  P26  1  0.750000  0.581404  0.887405  1
  P  P27  1  0.750000  0.918469  0.388494  1
  P  P28  1  0.250000  0.268862  0.869749  1
  P  P29  1  0.250000  0.231270  0.369975  1
  P  P30  1  0.750000  0.729650  0.129098  1
  P  P31  1  0.750000  0.769388  0.629608  1
  P  P32  1  0.250000  0.600419  0.390640  1
  P  P33  1  0.250000  0.899612  0.890634  1
  P  P34  1  0.750000  0.398981  0.609074  1
  P  P35  1  0.750000  0.101735  0.108825  1
