# generated using pymatgen
data_Zr4TiSi4Mo3
_symmetry_space_group_name_H-M   'P 1'
_cell_length_a   3.55044400
_cell_length_b   6.99626093
_cell_length_c   8.29677285
_cell_angle_alpha   89.64888229
_cell_angle_beta   90.00000000
_cell_angle_gamma   90.00000000
_symmetry_Int_Tables_number   1
_chemical_formula_structural   Zr4TiSi4Mo3
_chemical_formula_sum   'Zr4 Ti1 Si4 Mo3'
_cell_volume   206.08657912
_cell_formula_units_Z   1
loop_
 _symmetry_equiv_pos_site_id
 _symmetry_equiv_pos_as_xyz
  1  'x, y, z'
loop_
 _atom_site_type_symbol
 _atom_site_label
 _atom_site_symmetry_multiplicity
 _atom_site_fract_x
 _atom_site_fract_y
 _atom_site_fract_z
 _atom_site_occupancy
  Zr  Zr0  1  0.250000  0.044780  0.332584  1
  Zr  Zr1  1  0.250000  0.544271  0.166217  1
  Zr  Zr2  1  0.750000  0.955346  0.666054  1
  Zr  Zr3  1  0.750000  0.461415  0.828830  1
  Ti  Ti4  1  0.250000  0.125473  0.939946  1
  Si  Si5  1  0.250000  0.256500  0.637715  1
  Si  Si6  1  0.250000  0.756102  0.864438  1
  Si  Si7  1  0.750000  0.742271  0.363063  1
  Si  Si8  1  0.750000  0.243696  0.138957  1
  Mo  Mo9  1  0.250000  0.630739  0.561501  1
  Mo  Mo10  1  0.750000  0.868498  0.061075  1
  Mo  Mo11  1  0.750000  0.370907  0.439620  1
