# generated using pymatgen
data_PrSc(PaPt2)2
_symmetry_space_group_name_H-M   'P 1'
_cell_length_a   4.49868800
_cell_length_b   5.61496644
_cell_length_c   7.01104125
_cell_angle_alpha   92.73374691
_cell_angle_beta   90.00000000
_cell_angle_gamma   90.00000000
_symmetry_Int_Tables_number   1
_chemical_formula_structural   PrSc(PaPt2)2
_chemical_formula_sum   'Pr1 Sc1 Pa2 Pt4'
_cell_volume   176.89723063
_cell_formula_units_Z   1
loop_
 _symmetry_equiv_pos_site_id
 _symmetry_equiv_pos_as_xyz
  1  'x, y, z'
loop_
 _atom_site_type_symbol
 _atom_site_label
 _atom_site_symmetry_multiplicity
 _atom_site_fract_x
 _atom_site_fract_y
 _atom_site_fract_z
 _atom_site_occupancy
  Pr  Pr0  1  0.750000  0.841311  0.813677  1
  Sc  Sc1  1  0.750000  0.648527  0.321006  1
  Pa  Pa2  1  0.250000  0.359479  0.677377  1
  Pa  Pa3  1  0.250000  0.151464  0.187342  1
  Pt  Pt4  1  0.250000  0.837599  0.513995  1
  Pt  Pt5  1  0.250000  0.649121  0.082111  1
  Pt  Pt6  1  0.750000  0.179647  0.445539  1
  Pt  Pt7  1  0.750000  0.332852  0.958952  1
