# generated using pymatgen
data_YTa5MnB4Ru9
_symmetry_space_group_name_H-M   'P 1'
_cell_length_a   9.43504423
_cell_length_b   9.43504427
_cell_length_c   3.06219500
_cell_angle_alpha   90.00000000
_cell_angle_beta   90.00000000
_cell_angle_gamma   90.47744716
_symmetry_Int_Tables_number   1
_chemical_formula_structural   YTa5MnB4Ru9
_chemical_formula_sum   'Y1 Ta5 Mn1 B4 Ru9'
_cell_volume   272.58731817
_cell_formula_units_Z   1
loop_
 _symmetry_equiv_pos_site_id
 _symmetry_equiv_pos_as_xyz
  1  'x, y, z'
loop_
 _atom_site_type_symbol
 _atom_site_label
 _atom_site_symmetry_multiplicity
 _atom_site_fract_x
 _atom_site_fract_y
 _atom_site_fract_z
 _atom_site_occupancy
  Y  Y0  1  0.822652  0.677348  0.000000  1
  Ta  Ta1  1  0.179757  0.320243  0.000000  1
  Ta  Ta2  1  0.330676  0.832133  0.000000  1
  Ta  Ta3  1  0.667867  0.169324  0.000000  1
  Ta  Ta4  1  0.500724  0.500410  0.000000  1
  Ta  Ta5  1  0.999590  0.999276  0.000000  1
  Mn  Mn6  1  0.496320  0.003680  0.500000  1
  B  B7  1  0.609953  0.890047  0.000000  1
  B  B8  1  0.386686  0.113314  0.000000  1
  B  B9  1  0.124421  0.620818  0.000000  1
  B  B10  1  0.879182  0.375579  0.000000  1
  Ru  Ru11  1  0.555250  0.728012  0.500000  1
  Ru  Ru12  1  0.429070  0.279459  0.500000  1
  Ru  Ru13  1  0.084225  0.784121  0.500000  1
  Ru  Ru14  1  0.930937  0.215012  0.500000  1
  Ru  Ru15  1  0.284988  0.569063  0.500000  1
  Ru  Ru16  1  0.715879  0.415775  0.500000  1
  Ru  Ru17  1  0.220541  0.070930  0.500000  1
  Ru  Ru18  1  0.771988  0.944750  0.500000  1
  Ru  Ru19  1  0.009295  0.490705  0.500000  1
