# generated using pymatgen
data_SrEuH12Ir2Pb
_symmetry_space_group_name_H-M   'P 1'
_cell_length_a   5.15489700
_cell_length_b   5.15489696
_cell_length_c   8.51188500
_cell_angle_alpha   90.00000000
_cell_angle_beta   90.00000000
_cell_angle_gamma   119.99999383
_symmetry_Int_Tables_number   1
_chemical_formula_structural   SrEuH12Ir2Pb
_chemical_formula_sum   'Sr1 Eu1 H12 Ir2 Pb1'
_cell_volume   195.88283776
_cell_formula_units_Z   1
loop_
 _symmetry_equiv_pos_site_id
 _symmetry_equiv_pos_as_xyz
  1  'x, y, z'
loop_
 _atom_site_type_symbol
 _atom_site_label
 _atom_site_symmetry_multiplicity
 _atom_site_fract_x
 _atom_site_fract_y
 _atom_site_fract_z
 _atom_site_occupancy
  Sr  Sr0  1  0.000000  0.000000  0.000351  1
  Eu  Eu1  1  0.333333  0.666667  0.632846  1
  H  H2  1  0.177969  0.822031  0.363747  1
  H  H3  1  0.644062  0.822031  0.363747  1
  H  H4  1  0.177969  0.355938  0.363747  1
  H  H5  1  0.828925  0.171075  0.647918  1
  H  H6  1  0.342149  0.171075  0.647918  1
  H  H7  1  0.828925  0.657851  0.647918  1
  H  H8  1  0.513851  0.027701  0.866249  1
  H  H9  1  0.513851  0.486149  0.866249  1
  H  H10  1  0.972299  0.486149  0.866249  1
  H  H11  1  0.478638  0.957277  0.124095  1
  H  H12  1  0.478638  0.521362  0.124095  1
  H  H13  1  0.042723  0.521362  0.124095  1
  Ir  Ir14  1  0.666667  0.333333  0.750803  1
  Ir  Ir15  1  0.333333  0.666667  0.249105  1
  Pb  Pb16  1  0.666667  0.333333  0.360864  1
