# generated using pymatgen
data_HoErTm18(CoSb2)4
_symmetry_space_group_name_H-M   'P 1'
_cell_length_a   7.76533804
_cell_length_b   8.70787600
_cell_length_c   12.04286206
_cell_angle_alpha   90.00000000
_cell_angle_beta   90.01145648
_cell_angle_gamma   90.00000000
_symmetry_Int_Tables_number   1
_chemical_formula_structural   HoErTm18(CoSb2)4
_chemical_formula_sum   'Ho1 Er1 Tm18 Co4 Sb8'
_cell_volume   814.33350800
_cell_formula_units_Z   1
loop_
 _symmetry_equiv_pos_site_id
 _symmetry_equiv_pos_as_xyz
  1  'x, y, z'
loop_
 _atom_site_type_symbol
 _atom_site_label
 _atom_site_symmetry_multiplicity
 _atom_site_fract_x
 _atom_site_fract_y
 _atom_site_fract_z
 _atom_site_occupancy
  Ho  Ho0  1  0.877387  0.750000  0.807692  1
  Er  Er1  1  0.377909  0.250000  0.692086  1
  Tm  Tm2  1  0.156811  0.750000  0.203787  1
  Tm  Tm3  1  0.656819  0.250000  0.296241  1
  Tm  Tm4  1  0.843312  0.250000  0.796283  1
  Tm  Tm5  1  0.343401  0.750000  0.703659  1
  Tm  Tm6  1  0.450237  0.750000  0.998086  1
  Tm  Tm7  1  0.950291  0.250000  0.501890  1
  Tm  Tm8  1  0.549157  0.250000  0.002064  1
  Tm  Tm9  1  0.049281  0.750000  0.497917  1
  Tm  Tm10  1  0.621831  0.750000  0.308494  1
  Tm  Tm11  1  0.121846  0.250000  0.191544  1
  Tm  Tm12  1  0.823711  0.963519  0.065754  1
  Tm  Tm13  1  0.323715  0.036647  0.434363  1
  Tm  Tm14  1  0.176668  0.462233  0.934784  1
  Tm  Tm15  1  0.676518  0.537510  0.565220  1
  Tm  Tm16  1  0.176668  0.037767  0.934784  1
  Tm  Tm17  1  0.676518  0.962490  0.565220  1
  Tm  Tm18  1  0.823711  0.536481  0.065754  1
  Tm  Tm19  1  0.323715  0.463353  0.434363  1
  Co  Co20  1  0.432033  0.750000  0.490594  1
  Co  Co21  1  0.932025  0.250000  0.009414  1
  Co  Co22  1  0.568043  0.250000  0.509091  1
  Co  Co23  1  0.068160  0.750000  0.991084  1
  Sb  Sb24  1  0.930913  0.991639  0.327419  1
  Sb  Sb25  1  0.430911  0.008366  0.172577  1
  Sb  Sb26  1  0.069354  0.491344  0.672316  1
  Sb  Sb27  1  0.568939  0.508336  0.827603  1
  Sb  Sb28  1  0.069354  0.008656  0.672316  1
  Sb  Sb29  1  0.568939  0.991664  0.827603  1
  Sb  Sb30  1  0.930913  0.508361  0.327419  1
  Sb  Sb31  1  0.430911  0.491634  0.172577  1
