# generated using pymatgen
data_Ho5Tm5Si5P
_symmetry_space_group_name_H-M   'P 1'
_cell_length_a   8.33519980
_cell_length_b   8.34689917
_cell_length_c   6.22042900
_cell_angle_alpha   90.00000000
_cell_angle_beta   90.00000000
_cell_angle_gamma   120.00380671
_symmetry_Int_Tables_number   1
_chemical_formula_structural   Ho5Tm5Si5P
_chemical_formula_sum   'Ho5 Tm5 Si5 P1'
_cell_volume   374.77920906
_cell_formula_units_Z   1
loop_
 _symmetry_equiv_pos_site_id
 _symmetry_equiv_pos_as_xyz
  1  'x, y, z'
loop_
 _atom_site_type_symbol
 _atom_site_label
 _atom_site_symmetry_multiplicity
 _atom_site_fract_x
 _atom_site_fract_y
 _atom_site_fract_z
 _atom_site_occupancy
  Ho  Ho0  1  0.000802  0.756363  0.750000  1
  Ho  Ho1  1  0.756631  0.755735  0.250000  1
  Ho  Ho2  1  0.755010  0.000163  0.750000  1
  Ho  Ho3  1  0.244069  0.243433  0.750000  1
  Ho  Ho4  1  0.243991  0.000136  0.250000  1
  Tm  Tm5  1  0.001011  0.244619  0.250000  1
  Tm  Tm6  1  0.333648  0.667368  0.500189  1
  Tm  Tm7  1  0.666380  0.332453  0.999797  1
  Tm  Tm8  1  0.666380  0.332453  0.500203  1
  Tm  Tm9  1  0.333648  0.667368  0.999811  1
  Si  Si10  1  0.394241  0.393966  0.250000  1
  Si  Si11  1  0.000704  0.605389  0.250000  1
  Si  Si12  1  0.000086  0.394175  0.750000  1
  Si  Si13  1  0.605941  0.605906  0.750000  1
  Si  Si14  1  0.607283  0.000438  0.250000  1
  P  P15  1  0.390176  0.000037  0.750000  1
