# generated using pymatgen
data_Nd3Ga4Co4Ni5B2
_symmetry_space_group_name_H-M   'P 1'
_cell_length_a   5.25366631
_cell_length_b   5.25366657
_cell_length_c   10.54142100
_cell_angle_alpha   90.00000000
_cell_angle_beta   90.00000000
_cell_angle_gamma   119.49353600
_symmetry_Int_Tables_number   1
_chemical_formula_structural   Nd3Ga4Co4Ni5B2
_chemical_formula_sum   'Nd3 Ga4 Co4 Ni5 B2'
_cell_volume   253.24952703
_cell_formula_units_Z   1
loop_
 _symmetry_equiv_pos_site_id
 _symmetry_equiv_pos_as_xyz
  1  'x, y, z'
loop_
 _atom_site_type_symbol
 _atom_site_label
 _atom_site_symmetry_multiplicity
 _atom_site_fract_x
 _atom_site_fract_y
 _atom_site_fract_z
 _atom_site_occupancy
  Nd  Nd0  1  0.000000  0.000000  0.673872  1
  Nd  Nd1  1  0.000000  0.000000  0.326128  1
  Nd  Nd2  1  0.000000  0.000000  0.000000  1
  Ga  Ga3  1  0.333361  0.666639  0.314398  1
  Ga  Ga4  1  0.666639  0.333361  0.314398  1
  Ga  Ga5  1  0.666639  0.333361  0.685602  1
  Ga  Ga6  1  0.333361  0.666639  0.685602  1
  Co  Co7  1  0.000000  0.500000  0.871448  1
  Co  Co8  1  0.500000  0.000000  0.128552  1
  Co  Co9  1  0.000000  0.500000  0.128552  1
  Co  Co10  1  0.500000  0.000000  0.871448  1
  Ni  Ni11  1  0.500000  0.000000  0.500000  1
  Ni  Ni12  1  0.500000  0.500000  0.500000  1
  Ni  Ni13  1  0.000000  0.500000  0.500000  1
  Ni  Ni14  1  0.500000  0.500000  0.127628  1
  Ni  Ni15  1  0.500000  0.500000  0.872372  1
  B  B16  1  0.673142  0.326858  0.000000  1
  B  B17  1  0.326858  0.673142  0.000000  1
