# generated using pymatgen
data_Tm12Si11Hg
_symmetry_space_group_name_H-M   'P 1'
_cell_length_a   3.81725100
_cell_length_b   5.62367119
_cell_length_c   23.52518500
_cell_angle_alpha   82.42397371
_cell_angle_beta   90.00000000
_cell_angle_gamma   90.00000000
_symmetry_Int_Tables_number   1
_chemical_formula_structural   Tm12Si11Hg
_chemical_formula_sum   'Tm12 Si11 Hg1'
_cell_volume   500.60593617
_cell_formula_units_Z   1
loop_
 _symmetry_equiv_pos_site_id
 _symmetry_equiv_pos_as_xyz
  1  'x, y, z'
loop_
 _atom_site_type_symbol
 _atom_site_label
 _atom_site_symmetry_multiplicity
 _atom_site_fract_x
 _atom_site_fract_y
 _atom_site_fract_z
 _atom_site_occupancy
  Tm  Tm0  1  0.750000  0.355923  0.053773  1
  Tm  Tm1  1  0.250000  0.658681  0.937906  1
  Tm  Tm2  1  0.750000  0.531779  0.231537  1
  Tm  Tm3  1  0.250000  0.469520  0.772598  1
  Tm  Tm4  1  0.750000  0.167248  0.395293  1
  Tm  Tm5  1  0.250000  0.826130  0.607087  1
  Tm  Tm6  1  0.750000  0.349982  0.560185  1
  Tm  Tm7  1  0.250000  0.642684  0.441988  1
  Tm  Tm8  1  0.750000  0.993988  0.725950  1
  Tm  Tm9  1  0.250000  0.998678  0.275999  1
  Tm  Tm10  1  0.750000  0.169386  0.891280  1
  Tm  Tm11  1  0.250000  0.844566  0.104855  1
  Si  Si12  1  0.750000  0.868156  0.010428  1
  Si  Si13  1  0.250000  0.146356  0.984307  1
  Si  Si14  1  0.750000  0.019625  0.182590  1
  Si  Si15  1  0.250000  0.959034  0.819549  1
  Si  Si16  1  0.750000  0.708772  0.348754  1
  Si  Si17  1  0.250000  0.285862  0.653665  1
  Si  Si18  1  0.750000  0.858445  0.513656  1
  Si  Si19  1  0.250000  0.135016  0.488327  1
  Si  Si20  1  0.750000  0.535099  0.679088  1
  Si  Si21  1  0.250000  0.457817  0.323942  1
  Si  Si22  1  0.750000  0.679965  0.844670  1
  Hg  Hg23  1  0.250000  0.337286  0.152571  1
