# generated using pymatgen
data_Rb5(AsPd)3
_symmetry_space_group_name_H-M   'P 1'
_cell_length_a   16.31540108
_cell_length_b   16.31540116
_cell_length_c   5.69813500
_cell_angle_alpha   90.00000000
_cell_angle_beta   90.00000000
_cell_angle_gamma   165.87805531
_symmetry_Int_Tables_number   1
_chemical_formula_structural   Rb5(AsPd)3
_chemical_formula_sum   'Rb5 As3 Pd3'
_cell_volume   370.07860154
_cell_formula_units_Z   1
loop_
 _symmetry_equiv_pos_site_id
 _symmetry_equiv_pos_as_xyz
  1  'x, y, z'
loop_
 _atom_site_type_symbol
 _atom_site_label
 _atom_site_symmetry_multiplicity
 _atom_site_fract_x
 _atom_site_fract_y
 _atom_site_fract_z
 _atom_site_occupancy
  Rb  Rb0  1  0.000835  0.999165  0.000000  1
  Rb  Rb1  1  0.612695  0.387303  0.000000  1
  Rb  Rb2  1  0.385054  0.614944  0.000000  1
  Rb  Rb3  1  0.804806  0.195192  0.500001  1
  Rb  Rb4  1  0.194103  0.805895  0.500001  1
  As  As5  1  0.269025  0.730973  0.000000  1
  As  As6  1  0.458998  0.541000  0.500001  1
  As  As7  1  0.082072  0.917927  0.500001  1
  Pd  Pd8  1  0.730213  0.269785  0.000000  1
  Pd  Pd9  1  0.920478  0.079521  0.500001  1
  Pd  Pd10  1  0.541713  0.458285  0.500001  1
