# generated using pymatgen
data_LaErS2
_symmetry_space_group_name_H-M   'P 1'
_cell_length_a   7.07668589
_cell_length_b   7.07668619
_cell_length_c   7.07668621
_cell_angle_alpha   32.53812178
_cell_angle_beta   32.53811379
_cell_angle_gamma   32.53812184
_symmetry_Int_Tables_number   1
_chemical_formula_structural   LaErS2
_chemical_formula_sum   'La1 Er1 S2'
_cell_volume   91.17051989
_cell_formula_units_Z   1
loop_
 _symmetry_equiv_pos_site_id
 _symmetry_equiv_pos_as_xyz
  1  'x, y, z'
loop_
 _atom_site_type_symbol
 _atom_site_label
 _atom_site_symmetry_multiplicity
 _atom_site_fract_x
 _atom_site_fract_y
 _atom_site_fract_z
 _atom_site_occupancy
  La  La0  1  0.500000  0.500000  0.500000  1
  Er  Er1  1  0.000000  0.000000  0.000000  1
  S  S2  1  0.741794  0.741794  0.741794  1
  S  S3  1  0.258206  0.258206  0.258206  1
