# generated using pymatgen
data_ZrSc7Sb16
_symmetry_space_group_name_H-M   'P 1'
_cell_length_a   4.02445500
_cell_length_b   10.27240382
_cell_length_c   14.75299004
_cell_angle_alpha   89.81864210
_cell_angle_beta   90.00000000
_cell_angle_gamma   90.00000000
_symmetry_Int_Tables_number   1
_chemical_formula_structural   ZrSc7Sb16
_chemical_formula_sum   'Zr1 Sc7 Sb16'
_cell_volume   609.89775245
_cell_formula_units_Z   1
loop_
 _symmetry_equiv_pos_site_id
 _symmetry_equiv_pos_as_xyz
  1  'x, y, z'
loop_
 _atom_site_type_symbol
 _atom_site_label
 _atom_site_symmetry_multiplicity
 _atom_site_fract_x
 _atom_site_fract_y
 _atom_site_fract_z
 _atom_site_occupancy
  Zr  Zr0  1  0.500000  0.522189  0.245803  1
  Sc  Sc1  1  0.500000  0.674321  0.992358  1
  Sc  Sc2  1  0.500000  0.325152  0.007290  1
  Sc  Sc3  1  0.000000  0.176204  0.507644  1
  Sc  Sc4  1  0.000000  0.824534  0.492313  1
  Sc  Sc5  1  0.000000  0.978507  0.744879  1
  Sc  Sc6  1  0.000000  0.020747  0.254776  1
  Sc  Sc7  1  0.500000  0.478675  0.754491  1
  Sb  Sb8  1  0.000000  0.880165  0.940749  1
  Sb  Sb9  1  0.000000  0.119534  0.058456  1
  Sb  Sb10  1  0.500000  0.381046  0.559728  1
  Sb  Sb11  1  0.500000  0.616369  0.441788  1
  Sb  Sb12  1  0.000000  0.661157  0.659341  1
  Sb  Sb13  1  0.000000  0.344798  0.341169  1
  Sb  Sb14  1  0.500000  0.161524  0.840648  1
  Sb  Sb15  1  0.500000  0.835971  0.158882  1
  Sb  Sb16  1  0.500000  0.769377  0.796833  1
  Sb  Sb17  1  0.500000  0.230549  0.201927  1
  Sb  Sb18  1  0.000000  0.268512  0.703981  1
  Sb  Sb19  1  0.000000  0.731082  0.297836  1
  Sb  Sb20  1  0.500000  0.980906  0.597224  1
  Sb  Sb21  1  0.500000  0.020263  0.402540  1
  Sb  Sb22  1  0.000000  0.485064  0.900926  1
  Sb  Sb23  1  0.000000  0.513354  0.098417  1
