# generated using pymatgen
data_Dy4Y3Ho13Bi12
_symmetry_space_group_name_H-M   'P 1'
_cell_length_a   8.25539302
_cell_length_b   9.51607600
_cell_length_c   12.03097003
_cell_angle_alpha   90.00000000
_cell_angle_beta   90.00741129
_cell_angle_gamma   90.00000000
_symmetry_Int_Tables_number   1
_chemical_formula_structural   Dy4Y3Ho13Bi12
_chemical_formula_sum   'Dy4 Y3 Ho13 Bi12'
_cell_volume   945.14033302
_cell_formula_units_Z   1
loop_
 _symmetry_equiv_pos_site_id
 _symmetry_equiv_pos_as_xyz
  1  'x, y, z'
loop_
 _atom_site_type_symbol
 _atom_site_label
 _atom_site_symmetry_multiplicity
 _atom_site_fract_x
 _atom_site_fract_y
 _atom_site_fract_z
 _atom_site_occupancy
  Dy  Dy0  1  0.312541  0.250000  0.218679  1
  Dy  Dy1  1  0.812543  0.250000  0.281335  1
  Dy  Dy2  1  0.687413  0.750000  0.781317  1
  Dy  Dy3  1  0.187469  0.750000  0.718658  1
  Y  Y4  1  0.352487  0.750000  0.215363  1
  Y  Y5  1  0.852485  0.750000  0.284641  1
  Y  Y6  1  0.647501  0.250000  0.784616  1
  Ho  Ho7  1  0.147485  0.250000  0.715446  1
  Ho  Ho8  1  0.692764  0.564035  0.058472  1
  Ho  Ho9  1  0.192759  0.935973  0.441545  1
  Ho  Ho10  1  0.307186  0.064085  0.941458  1
  Ho  Ho11  1  0.807271  0.435945  0.558480  1
  Ho  Ho12  1  0.307186  0.435915  0.941458  1
  Ho  Ho13  1  0.807271  0.064055  0.558480  1
  Ho  Ho14  1  0.692764  0.935965  0.058472  1
  Ho  Ho15  1  0.192759  0.564027  0.441545  1
  Ho  Ho16  1  0.475549  0.250000  0.488328  1
  Ho  Ho17  1  0.975593  0.250000  0.011634  1
  Ho  Ho18  1  0.524437  0.750000  0.511694  1
  Ho  Ho19  1  0.024468  0.750000  0.988302  1
  Bi  Bi20  1  0.407153  0.750000  0.957019  1
  Bi  Bi21  1  0.907155  0.750000  0.542975  1
  Bi  Bi22  1  0.592847  0.250000  0.043002  1
  Bi  Bi23  1  0.092935  0.250000  0.457136  1
  Bi  Bi24  1  0.564861  0.995523  0.325494  1
  Bi  Bi25  1  0.064862  0.504496  0.174504  1
  Bi  Bi26  1  0.435043  0.495460  0.674518  1
  Bi  Bi27  1  0.935221  0.004597  0.825455  1
  Bi  Bi28  1  0.435043  0.004540  0.674518  1
  Bi  Bi29  1  0.935221  0.495403  0.825455  1
  Bi  Bi30  1  0.564861  0.504477  0.325494  1
  Bi  Bi31  1  0.064862  0.995504  0.174504  1
