# generated using pymatgen
data_SrBPdPt3
_symmetry_space_group_name_H-M   'P 1'
_cell_length_a   5.59106301
_cell_length_b   6.16157201
_cell_length_c   11.94856900
_cell_angle_alpha   90.00066563
_cell_angle_beta   89.99995555
_cell_angle_gamma   89.99399387
_symmetry_Int_Tables_number   1
_chemical_formula_structural   SrBPdPt3
_chemical_formula_sum   'Sr4 B4 Pd4 Pt12'
_cell_volume   411.62506119
_cell_formula_units_Z   4
loop_
 _symmetry_equiv_pos_site_id
 _symmetry_equiv_pos_as_xyz
  1  'x, y, z'
loop_
 _atom_site_type_symbol
 _atom_site_label
 _atom_site_symmetry_multiplicity
 _atom_site_fract_x
 _atom_site_fract_y
 _atom_site_fract_z
 _atom_site_occupancy
  Sr  Sr0  1  0.750000  0.314035  0.162197  1
  Sr  Sr1  1  0.750000  0.814044  0.337797  1
  Sr  Sr2  1  0.250000  0.685967  0.837803  1
  Sr  Sr3  1  0.250000  0.185957  0.662203  1
  B  B4  1  0.750002  0.405308  0.549481  1
  B  B5  1  0.750004  0.905359  0.950501  1
  B  B6  1  0.249997  0.594715  0.450518  1
  B  B7  1  0.249996  0.094667  0.049506  1
  Pd  Pd8  1  0.749990  0.061772  0.556747  1
  Pd  Pd9  1  0.749998  0.561745  0.943232  1
  Pd  Pd10  1  0.250014  0.938221  0.443256  1
  Pd  Pd11  1  0.250006  0.438250  0.056769  1
  Pt  Pt12  1  0.749997  0.386929  0.734549  1
  Pt  Pt13  1  0.749996  0.886897  0.765369  1
  Pt  Pt14  1  0.249998  0.613004  0.265463  1
  Pt  Pt15  1  0.250000  0.113038  0.234608  1
  Pt  Pt16  1  0.997822  0.166077  0.911887  1
  Pt  Pt17  1  0.502149  0.666161  0.588085  1
  Pt  Pt18  1  0.497840  0.833935  0.088084  1
  Pt  Pt19  1  0.002142  0.333876  0.411942  1
  Pt  Pt20  1  0.002170  0.833944  0.088085  1
  Pt  Pt21  1  0.497865  0.333864  0.411945  1
  Pt  Pt22  1  0.502169  0.166090  0.911888  1
  Pt  Pt23  1  0.997846  0.666144  0.588087  1
