# generated using pymatgen
data_SrAs3F15
_symmetry_space_group_name_H-M   'P 1'
_cell_length_a   10.30291600
_cell_length_b   10.65922100
_cell_length_c   11.20509600
_cell_angle_alpha   90.00000000
_cell_angle_beta   90.00000000
_cell_angle_gamma   90.00000000
_symmetry_Int_Tables_number   1
_chemical_formula_structural   SrAs3F15
_chemical_formula_sum   'Sr4 As12 F60'
_cell_volume   1230.55550431
_cell_formula_units_Z   4
loop_
 _symmetry_equiv_pos_site_id
 _symmetry_equiv_pos_as_xyz
  1  'x, y, z'
loop_
 _atom_site_type_symbol
 _atom_site_label
 _atom_site_symmetry_multiplicity
 _atom_site_fract_x
 _atom_site_fract_y
 _atom_site_fract_z
 _atom_site_occupancy
  Sr  Sr0  1  0.000049  0.132219  0.870230  1
  Sr  Sr1  1  0.999951  0.632219  0.629770  1
  Sr  Sr2  1  0.500049  0.367781  0.129770  1
  Sr  Sr3  1  0.499951  0.867781  0.370230  1
  As  As4  1  0.766939  0.067082  0.165772  1
  As  As5  1  0.233061  0.567082  0.334228  1
  As  As6  1  0.266939  0.432918  0.834228  1
  As  As7  1  0.733061  0.932918  0.665772  1
  As  As8  1  0.735301  0.432322  0.835655  1
  As  As9  1  0.264699  0.932322  0.664345  1
  As  As10  1  0.235301  0.067678  0.164345  1
  As  As11  1  0.764699  0.567678  0.335655  1
  As  As12  1  0.966626  0.748803  0.001154  1
  As  As13  1  0.033374  0.248803  0.498846  1
  As  As14  1  0.466626  0.751197  0.998846  1
  As  As15  1  0.533374  0.251197  0.501154  1
  F  F16  1  0.662907  0.004333  0.279039  1
  F  F17  1  0.337093  0.504333  0.220961  1
  F  F18  1  0.162907  0.495667  0.720961  1
  F  F19  1  0.837093  0.995667  0.779039  1
  F  F20  1  0.843714  0.495206  0.726245  1
  F  F21  1  0.156286  0.995206  0.773755  1
  F  F22  1  0.343714  0.004794  0.273755  1
  F  F23  1  0.656286  0.504794  0.226245  1
  F  F24  1  0.864451  0.932588  0.173008  1
  F  F25  1  0.135549  0.432588  0.326992  1
  F  F26  1  0.364451  0.567412  0.826992  1
  F  F27  1  0.635549  0.067412  0.673008  1
  F  F28  1  0.641947  0.568212  0.829289  1
  F  F29  1  0.358053  0.068212  0.670711  1
  F  F30  1  0.141947  0.931788  0.170711  1
  F  F31  1  0.858053  0.431788  0.329289  1
  F  F32  1  0.663025  0.203050  0.160474  1
  F  F33  1  0.336975  0.703050  0.339526  1
  F  F34  1  0.163025  0.296950  0.839526  1
  F  F35  1  0.836975  0.796950  0.660474  1
  F  F36  1  0.835575  0.294357  0.839257  1
  F  F37  1  0.164425  0.794357  0.660743  1
  F  F38  1  0.335575  0.205643  0.160743  1
  F  F39  1  0.664425  0.705643  0.339257  1
  F  F40  1  0.005639  0.904982  0.954409  1
  F  F41  1  0.994361  0.404982  0.545591  1
  F  F42  1  0.505639  0.595018  0.045591  1
  F  F43  1  0.494361  0.095018  0.454409  1
  F  F44  1  0.003106  0.691065  0.853998  1
  F  F45  1  0.996894  0.191065  0.646002  1
  F  F46  1  0.503106  0.808935  0.146002  1
  F  F47  1  0.496894  0.308935  0.353998  1
  F  F48  1  0.859457  0.141834  0.274268  1
  F  F49  1  0.140543  0.641834  0.225732  1
  F  F50  1  0.359457  0.358166  0.725732  1
  F  F51  1  0.640543  0.858166  0.774268  1
  F  F52  1  0.644821  0.361714  0.722118  1
  F  F53  1  0.355179  0.861714  0.777882  1
  F  F54  1  0.144821  0.138286  0.277882  1
  F  F55  1  0.855179  0.638286  0.222118  1
  F  F56  1  0.669799  0.000450  0.054462  1
  F  F57  1  0.330201  0.500450  0.445538  1
  F  F58  1  0.169799  0.499550  0.945538  1
  F  F59  1  0.830201  0.999550  0.554462  1
  F  F60  1  0.832347  0.493526  0.950787  1
  F  F61  1  0.167653  0.993526  0.549213  1
  F  F62  1  0.332347  0.006474  0.049213  1
  F  F63  1  0.667653  0.506474  0.450787  1
  F  F64  1  0.864356  0.137754  0.051970  1
  F  F65  1  0.135644  0.637754  0.448030  1
  F  F66  1  0.364356  0.362246  0.948030  1
  F  F67  1  0.635644  0.862246  0.551970  1
  F  F68  1  0.633857  0.360268  0.945137  1
  F  F69  1  0.366143  0.860268  0.554863  1
  F  F70  1  0.133857  0.139732  0.054863  1
  F  F71  1  0.866143  0.639732  0.445137  1
  F  F72  1  0.800382  0.764299  0.972796  1
  F  F73  1  0.199618  0.264298  0.527204  1
  F  F74  1  0.300382  0.735701  0.027204  1
  F  F75  1  0.699618  0.235701  0.472796  1
