# generated using pymatgen
data_Y2Lu4Bi2Os
_symmetry_space_group_name_H-M   'P 1'
_cell_length_a   8.20698961
_cell_length_b   8.20698836
_cell_length_c   4.23713400
_cell_angle_alpha   90.00000000
_cell_angle_beta   90.00000000
_cell_angle_gamma   120.32113449
_symmetry_Int_Tables_number   1
_chemical_formula_structural   Y2Lu4Bi2Os
_chemical_formula_sum   'Y2 Lu4 Bi2 Os1'
_cell_volume   246.35197887
_cell_formula_units_Z   1
loop_
 _symmetry_equiv_pos_site_id
 _symmetry_equiv_pos_as_xyz
  1  'x, y, z'
loop_
 _atom_site_type_symbol
 _atom_site_label
 _atom_site_symmetry_multiplicity
 _atom_site_fract_x
 _atom_site_fract_y
 _atom_site_fract_z
 _atom_site_occupancy
  Y  Y0  1  0.612584  0.999097  0.000000  1
  Y  Y1  1  0.999097  0.612584  0.000000  1
  Lu  Lu2  1  0.231554  0.000308  0.500000  1
  Lu  Lu3  1  0.000308  0.231554  0.500000  1
  Lu  Lu4  1  0.772423  0.772423  0.500000  1
  Lu  Lu5  1  0.378677  0.378677  0.000000  1
  Bi  Bi6  1  0.333433  0.664372  0.500000  1
  Bi  Bi7  1  0.664372  0.333433  0.500000  1
  Os  Os8  1  0.007552  0.007552  0.000000  1
