# generated using pymatgen
data_ErPu6MgSb10
_symmetry_space_group_name_H-M   'P 1'
_cell_length_a   9.28252500
_cell_length_b   9.28252485
_cell_length_c   6.25528900
_cell_angle_alpha   90.00000000
_cell_angle_beta   90.00000000
_cell_angle_gamma   120.00000410
_symmetry_Int_Tables_number   1
_chemical_formula_structural   ErPu6MgSb10
_chemical_formula_sum   'Er1 Pu6 Mg1 Sb10'
_cell_volume   466.77785202
_cell_formula_units_Z   1
loop_
 _symmetry_equiv_pos_site_id
 _symmetry_equiv_pos_as_xyz
  1  'x, y, z'
loop_
 _atom_site_type_symbol
 _atom_site_label
 _atom_site_symmetry_multiplicity
 _atom_site_fract_x
 _atom_site_fract_y
 _atom_site_fract_z
 _atom_site_occupancy
  Er  Er0  1  0.000000  0.000000  0.500000  1
  Pu  Pu1  1  0.383588  0.000000  0.753528  1
  Pu  Pu2  1  0.383588  0.383588  0.246472  1
  Pu  Pu3  1  0.000000  0.616412  0.246472  1
  Pu  Pu4  1  0.000000  0.383588  0.753528  1
  Pu  Pu5  1  0.616412  0.616412  0.753528  1
  Pu  Pu6  1  0.616412  0.000000  0.246472  1
  Mg  Mg7  1  0.000000  0.000000  0.000000  1
  Sb  Sb8  1  0.666667  0.333333  0.500000  1
  Sb  Sb9  1  0.333333  0.666667  0.000000  1
  Sb  Sb10  1  0.726132  0.000000  0.750539  1
  Sb  Sb11  1  0.726132  0.726132  0.249461  1
  Sb  Sb12  1  0.333333  0.666667  0.500000  1
  Sb  Sb13  1  0.666667  0.333333  0.000000  1
  Sb  Sb14  1  0.273868  0.000000  0.249461  1
  Sb  Sb15  1  0.273868  0.273868  0.750539  1
  Sb  Sb16  1  0.000000  0.726132  0.750539  1
  Sb  Sb17  1  0.000000  0.273868  0.249461  1
