# generated using pymatgen
data_Y2Ho3CoBi2
_symmetry_space_group_name_H-M   'P 1'
_cell_length_a   7.98435300
_cell_length_b   8.86881500
_cell_length_c   12.42987500
_cell_angle_alpha   90.00000000
_cell_angle_beta   90.00000000
_cell_angle_gamma   90.00000000
_symmetry_Int_Tables_number   1
_chemical_formula_structural   Y2Ho3CoBi2
_chemical_formula_sum   'Y8 Ho12 Co4 Bi8'
_cell_volume   880.18119670
_cell_formula_units_Z   4
loop_
 _symmetry_equiv_pos_site_id
 _symmetry_equiv_pos_as_xyz
  1  'x, y, z'
loop_
 _atom_site_type_symbol
 _atom_site_label
 _atom_site_symmetry_multiplicity
 _atom_site_fract_x
 _atom_site_fract_y
 _atom_site_fract_z
 _atom_site_occupancy
  Y  Y0  1  0.346709  0.750000  0.700192  1
  Y  Y1  1  0.653291  0.250000  0.299808  1
  Y  Y2  1  0.846709  0.250000  0.799808  1
  Y  Y3  1  0.153291  0.750000  0.200192  1
  Y  Y4  1  0.884090  0.750000  0.810101  1
  Y  Y5  1  0.115910  0.250000  0.189899  1
  Y  Y6  1  0.384090  0.250000  0.689899  1
  Y  Y7  1  0.615910  0.750000  0.310101  1
  Ho  Ho8  1  0.675610  0.537886  0.562760  1
  Ho  Ho9  1  0.324390  0.462114  0.437240  1
  Ho  Ho10  1  0.175610  0.462114  0.937240  1
  Ho  Ho11  1  0.324390  0.037886  0.437240  1
  Ho  Ho12  1  0.824390  0.537886  0.062760  1
  Ho  Ho13  1  0.675610  0.962114  0.562760  1
  Ho  Ho14  1  0.824390  0.962114  0.062760  1
  Ho  Ho15  1  0.175610  0.037886  0.937240  1
  Ho  Ho16  1  0.052325  0.750000  0.497866  1
  Ho  Ho17  1  0.947675  0.250000  0.502134  1
  Ho  Ho18  1  0.552325  0.250000  0.002134  1
  Ho  Ho19  1  0.447675  0.750000  0.997866  1
  Co  Co20  1  0.066524  0.750000  0.991531  1
  Co  Co21  1  0.933476  0.250000  0.008469  1
  Co  Co22  1  0.566524  0.250000  0.508469  1
  Co  Co23  1  0.433476  0.750000  0.491531  1
  Bi  Bi24  1  0.571552  0.509526  0.827187  1
  Bi  Bi25  1  0.428448  0.490474  0.172813  1
  Bi  Bi26  1  0.071552  0.490474  0.672813  1
  Bi  Bi27  1  0.428448  0.009526  0.172813  1
  Bi  Bi28  1  0.928448  0.509526  0.327187  1
  Bi  Bi29  1  0.571552  0.990474  0.827187  1
  Bi  Bi30  1  0.928448  0.990474  0.327187  1
  Bi  Bi31  1  0.071552  0.009526  0.672813  1
