# generated using pymatgen
data_Pr6Mg(P3Rh5)4
_symmetry_space_group_name_H-M   'P 1'
_cell_length_a   13.66593700
_cell_length_b   13.66593622
_cell_length_c   3.94226000
_cell_angle_alpha   90.00000000
_cell_angle_beta   90.00000000
_cell_angle_gamma   119.99999946
_symmetry_Int_Tables_number   1
_chemical_formula_structural   Pr6Mg(P3Rh5)4
_chemical_formula_sum   'Pr6 Mg1 P12 Rh20'
_cell_volume   637.60938588
_cell_formula_units_Z   1
loop_
 _symmetry_equiv_pos_site_id
 _symmetry_equiv_pos_as_xyz
  1  'x, y, z'
loop_
 _atom_site_type_symbol
 _atom_site_label
 _atom_site_symmetry_multiplicity
 _atom_site_fract_x
 _atom_site_fract_y
 _atom_site_fract_z
 _atom_site_occupancy
  Pr  Pr0  1  0.530178  0.717100  0.251283  1
  Pr  Pr1  1  0.282900  0.813079  0.251283  1
  Pr  Pr2  1  0.186921  0.469822  0.251283  1
  Pr  Pr3  1  0.469822  0.282900  0.748717  1
  Pr  Pr4  1  0.717100  0.186921  0.748717  1
  Pr  Pr5  1  0.813079  0.530178  0.748717  1
  Mg  Mg6  1  0.000000  0.000000  0.000000  1
  P  P7  1  0.522203  0.134390  0.249875  1
  P  P8  1  0.865610  0.387815  0.249875  1
  P  P9  1  0.612185  0.477797  0.249875  1
  P  P10  1  0.950228  0.724266  0.245455  1
  P  P11  1  0.275734  0.225962  0.245455  1
  P  P12  1  0.774038  0.049772  0.245455  1
  P  P13  1  0.387815  0.522203  0.750125  1
  P  P14  1  0.477797  0.865610  0.750125  1
  P  P15  1  0.134390  0.612185  0.750125  1
  P  P16  1  0.724266  0.774038  0.754545  1
  P  P17  1  0.225962  0.950228  0.754545  1
  P  P18  1  0.049772  0.275734  0.754545  1
  Rh  Rh19  1  0.333333  0.666667  0.750524  1
  Rh  Rh20  1  0.924233  0.253656  0.245528  1
  Rh  Rh21  1  0.746344  0.670577  0.245528  1
  Rh  Rh22  1  0.329423  0.075767  0.245528  1
  Rh  Rh23  1  0.442692  0.026708  0.749055  1
  Rh  Rh24  1  0.973292  0.415987  0.749055  1
  Rh  Rh25  1  0.584013  0.557308  0.749055  1
  Rh  Rh26  1  0.666667  0.333333  0.249476  1
  Rh  Rh27  1  0.096865  0.204791  0.258603  1
  Rh  Rh28  1  0.795209  0.892073  0.258603  1
  Rh  Rh29  1  0.107927  0.903135  0.258603  1
  Rh  Rh30  1  0.026708  0.584013  0.250945  1
  Rh  Rh31  1  0.415987  0.442692  0.250945  1
  Rh  Rh32  1  0.557308  0.973292  0.250945  1
  Rh  Rh33  1  0.670577  0.924233  0.754472  1
  Rh  Rh34  1  0.075767  0.746344  0.754472  1
  Rh  Rh35  1  0.253656  0.329423  0.754472  1
  Rh  Rh36  1  0.903135  0.795209  0.741397  1
  Rh  Rh37  1  0.204791  0.107927  0.741397  1
  Rh  Rh38  1  0.892073  0.096865  0.741397  1
