# generated using pymatgen
data_LiHoNi9P7W3
_symmetry_space_group_name_H-M   'P 1'
_cell_length_a   9.16935000
_cell_length_b   9.16935047
_cell_length_c   3.67009100
_cell_angle_alpha   90.00000000
_cell_angle_beta   90.00000000
_cell_angle_gamma   120.00000552
_symmetry_Int_Tables_number   1
_chemical_formula_structural   LiHoNi9P7W3
_chemical_formula_sum   'Li1 Ho1 Ni9 P7 W3'
_cell_volume   267.22960094
_cell_formula_units_Z   1
loop_
 _symmetry_equiv_pos_site_id
 _symmetry_equiv_pos_as_xyz
  1  'x, y, z'
loop_
 _atom_site_type_symbol
 _atom_site_label
 _atom_site_symmetry_multiplicity
 _atom_site_fract_x
 _atom_site_fract_y
 _atom_site_fract_z
 _atom_site_occupancy
  Li  Li0  1  0.333333  0.666667  0.000000  1
  Ho  Ho1  1  0.666667  0.333333  0.500000  1
  Ni  Ni2  1  0.714599  0.874198  0.000000  1
  Ni  Ni3  1  0.159599  0.285401  0.000000  1
  Ni  Ni4  1  0.125802  0.840401  0.000000  1
  Ni  Ni5  1  0.628832  0.567296  0.000000  1
  Ni  Ni6  1  0.938464  0.371168  0.000000  1
  Ni  Ni7  1  0.432704  0.061536  0.000000  1
  Ni  Ni8  1  0.555899  0.941328  0.500000  1
  Ni  Ni9  1  0.385429  0.444101  0.500000  1
  Ni  Ni10  1  0.058672  0.614571  0.500000  1
  P  P11  1  0.585044  0.708951  0.500000  1
  P  P12  1  0.123907  0.414956  0.500000  1
  P  P13  1  0.291049  0.876093  0.500000  1
  P  P14  1  0.000000  0.000000  0.000000  1
  P  P15  1  0.886365  0.587465  0.000000  1
  P  P16  1  0.701100  0.113635  0.000000  1
  P  P17  1  0.412535  0.298900  0.000000  1
  W  W18  1  0.878083  0.779149  0.500000  1
  W  W19  1  0.901066  0.121917  0.500000  1
  W  W20  1  0.220851  0.098934  0.500000  1
