# generated using pymatgen
data_SrTm3(Rh2O7)2
_symmetry_space_group_name_H-M   'P 1'
_cell_length_a   7.24234422
_cell_length_b   7.21651512
_cell_length_c   7.21651600
_cell_angle_alpha   60.00000513
_cell_angle_beta   60.11791071
_cell_angle_gamma   60.11790531
_symmetry_Int_Tables_number   1
_chemical_formula_structural   SrTm3(Rh2O7)2
_chemical_formula_sum   'Sr1 Tm3 Rh4 O14'
_cell_volume   267.17202482
_cell_formula_units_Z   1
loop_
 _symmetry_equiv_pos_site_id
 _symmetry_equiv_pos_as_xyz
  1  'x, y, z'
loop_
 _atom_site_type_symbol
 _atom_site_label
 _atom_site_symmetry_multiplicity
 _atom_site_fract_x
 _atom_site_fract_y
 _atom_site_fract_z
 _atom_site_occupancy
  Sr  Sr0  1  0.125000  0.625000  0.625000  1
  Tm  Tm1  1  0.625000  0.625000  0.125000  1
  Tm  Tm2  1  0.625000  0.625000  0.625000  1
  Tm  Tm3  1  0.625000  0.125000  0.625000  1
  Rh  Rh4  1  0.125000  0.125000  0.125000  1
  Rh  Rh5  1  0.625000  0.125000  0.125000  1
  Rh  Rh6  1  0.125000  0.625000  0.125000  1
  Rh  Rh7  1  0.125000  0.125000  0.625000  1
  O  O8  1  0.027855  0.457026  0.457026  1
  O  O9  1  0.789112  0.791575  0.209657  1
  O  O10  1  0.789112  0.209657  0.209657  1
  O  O11  1  0.460888  0.040343  0.458425  1
  O  O12  1  0.027855  0.058091  0.457026  1
  O  O13  1  0.027855  0.457026  0.058091  1
  O  O14  1  0.723640  0.758786  0.758786  1
  O  O15  1  0.526360  0.491214  0.491214  1
  O  O16  1  0.789112  0.209657  0.791575  1
  O  O17  1  0.222145  0.792974  0.191909  1
  O  O18  1  0.222145  0.191909  0.792974  1
  O  O19  1  0.460888  0.040343  0.040343  1
  O  O20  1  0.460888  0.458425  0.040343  1
  O  O21  1  0.222145  0.792974  0.792974  1
