# generated using pymatgen
data_Tb2Y17LuPb16
_symmetry_space_group_name_H-M   'P 1'
_cell_length_a   8.22559000
_cell_length_b   8.30893575
_cell_length_c   15.69830014
_cell_angle_alpha   90.01499825
_cell_angle_beta   89.99796476
_cell_angle_gamma   89.94583210
_symmetry_Int_Tables_number   1
_chemical_formula_structural   Tb2Y17LuPb16
_chemical_formula_sum   'Tb2 Y17 Lu1 Pb16'
_cell_volume   1072.91391613
_cell_formula_units_Z   1
loop_
 _symmetry_equiv_pos_site_id
 _symmetry_equiv_pos_as_xyz
  1  'x, y, z'
loop_
 _atom_site_type_symbol
 _atom_site_label
 _atom_site_symmetry_multiplicity
 _atom_site_fract_x
 _atom_site_fract_y
 _atom_site_fract_z
 _atom_site_occupancy
  Tb  Tb0  1  0.533774  0.323707  0.600221  1
  Tb  Tb1  1  0.034425  0.177186  0.899822  1
  Y  Y2  1  0.376251  0.840675  0.879442  1
  Y  Y3  1  0.877385  0.658530  0.620632  1
  Y  Y4  1  0.623251  0.159010  0.379488  1
  Y  Y5  1  0.123326  0.341034  0.120261  1
  Y  Y6  1  0.623288  0.158961  0.120523  1
  Y  Y7  1  0.123356  0.341073  0.379716  1
  Y  Y8  1  0.376224  0.840713  0.620588  1
  Y  Y9  1  0.877361  0.658482  0.879351  1
  Y  Y10  1  0.533910  0.323791  0.899722  1
  Y  Y11  1  0.034558  0.177102  0.600238  1
  Y  Y12  1  0.465791  0.676570  0.399895  1
  Y  Y13  1  0.965732  0.823435  0.100274  1
  Y  Y14  1  0.465818  0.676605  0.100074  1
  Y  Y15  1  0.965758  0.823402  0.399742  1
  Y  Y16  1  0.708600  0.996404  0.749970  1
  Y  Y17  1  0.791321  0.496416  0.250012  1
  Y  Y18  1  0.291314  0.003720  0.249979  1
  Lu  Lu19  1  0.209069  0.504093  0.750034  1
  Pb  Pb20  1  0.281223  0.032981  0.042719  1
  Pb  Pb21  1  0.781130  0.466826  0.457311  1
  Pb  Pb22  1  0.719000  0.966866  0.542853  1
  Pb  Pb23  1  0.218866  0.532771  0.956375  1
  Pb  Pb24  1  0.718949  0.966849  0.957176  1
  Pb  Pb25  1  0.218807  0.532792  0.543592  1
  Pb  Pb26  1  0.281199  0.033085  0.457341  1
  Pb  Pb27  1  0.781105  0.466717  0.042631  1
  Pb  Pb28  1  0.570795  0.625468  0.749962  1
  Pb  Pb29  1  0.072802  0.872689  0.750051  1
  Pb  Pb30  1  0.427532  0.373716  0.249985  1
  Pb  Pb31  1  0.927609  0.126481  0.250011  1
  Pb  Pb32  1  0.345020  0.153763  0.750052  1
  Pb  Pb33  1  0.846160  0.348472  0.749958  1
  Pb  Pb34  1  0.654563  0.847954  0.249995  1
  Pb  Pb35  1  0.154735  0.651662  0.250005  1
