# generated using pymatgen
data_Hf3PaIn2PdPt3
_symmetry_space_group_name_H-M   'P 1'
_cell_length_a   7.52476188
_cell_length_b   7.52476166
_cell_length_c   7.04917281
_cell_angle_alpha   90.10186132
_cell_angle_beta   90.10186347
_cell_angle_gamma   91.94722445
_symmetry_Int_Tables_number   1
_chemical_formula_structural   Hf3PaIn2PdPt3
_chemical_formula_sum   'Hf6 Pa2 In4 Pd2 Pt6'
_cell_volume   398.90675483
_cell_formula_units_Z   2
loop_
 _symmetry_equiv_pos_site_id
 _symmetry_equiv_pos_as_xyz
  1  'x, y, z'
loop_
 _atom_site_type_symbol
 _atom_site_label
 _atom_site_symmetry_multiplicity
 _atom_site_fract_x
 _atom_site_fract_y
 _atom_site_fract_z
 _atom_site_occupancy
  Hf  Hf0  1  0.647921  0.352079  0.500000  1
  Hf  Hf1  1  0.352079  0.647921  0.500000  1
  Hf  Hf2  1  0.686358  0.313642  0.000000  1
  Hf  Hf3  1  0.313642  0.686358  0.000000  1
  Hf  Hf4  1  0.812780  0.812780  0.501622  1
  Hf  Hf5  1  0.187220  0.187220  0.498378  1
  Pa  Pa6  1  0.141957  0.141957  0.001399  1
  Pa  Pa7  1  0.858043  0.858043  0.998601  1
  In  In8  1  0.500903  0.998396  0.258743  1
  In  In9  1  0.499097  0.001604  0.741257  1
  In  In10  1  0.998396  0.500903  0.258743  1
  In  In11  1  0.001604  0.499097  0.741257  1
  Pd  Pd12  1  0.633898  0.633898  0.209631  1
  Pd  Pd13  1  0.366102  0.366102  0.790369  1
  Pt  Pt14  1  0.370256  0.370256  0.215829  1
  Pt  Pt15  1  0.629744  0.629744  0.784171  1
  Pt  Pt16  1  0.864020  0.135958  0.705815  1
  Pt  Pt17  1  0.864042  0.135980  0.294185  1
  Pt  Pt18  1  0.135980  0.864042  0.294185  1
  Pt  Pt19  1  0.135958  0.864020  0.705815  1
