# generated using pymatgen
data_Zn2Fe(PO4)2
_symmetry_space_group_name_H-M   'P 1'
_cell_length_a   5.07722721
_cell_length_b   7.77992196
_cell_length_c   8.68073274
_cell_angle_alpha   90.01951949
_cell_angle_beta   89.97348787
_cell_angle_gamma   95.99393265
_symmetry_Int_Tables_number   1
_chemical_formula_structural   Zn2Fe(PO4)2
_chemical_formula_sum   'Zn4 Fe2 P4 O16'
_cell_volume   341.01802878
_cell_formula_units_Z   2
loop_
 _symmetry_equiv_pos_site_id
 _symmetry_equiv_pos_as_xyz
  1  'x, y, z'
loop_
 _atom_site_type_symbol
 _atom_site_label
 _atom_site_symmetry_multiplicity
 _atom_site_fract_x
 _atom_site_fract_y
 _atom_site_fract_z
 _atom_site_occupancy
  Zn  Zn0  1  0.929242  0.379271  0.864557  1
  Zn  Zn1  1  0.070623  0.620866  0.135524  1
  Zn  Zn2  1  0.430439  0.879018  0.635595  1
  Zn  Zn3  1  0.569627  0.120860  0.364432  1
  Fe  Fe4  1  0.999956  0.499850  0.499988  1
  Fe  Fe5  1  0.500018  0.000064  0.999927  1
  P  P6  1  0.468788  0.296799  0.691685  1
  P  P7  1  0.969348  0.796839  0.808285  1
  P  P8  1  0.531225  0.703217  0.308284  1
  P  P9  1  0.030659  0.203165  0.191670  1
  O  O10  1  0.446458  0.135620  0.582446  1
  O  O11  1  0.946966  0.636010  0.917660  1
  O  O12  1  0.553669  0.864234  0.417592  1
  O  O13  1  0.053000  0.364173  0.082425  1
  O  O14  1  0.571374  0.244279  0.853503  1
  O  O15  1  0.071964  0.744150  0.646544  1
  O  O16  1  0.428596  0.755799  0.146594  1
  O  O17  1  0.928074  0.255752  0.353532  1
  O  O18  1  0.191977  0.363695  0.701390  1
  O  O19  1  0.692796  0.863835  0.798816  1
  O  O20  1  0.807762  0.636091  0.298623  1
  O  O21  1  0.307406  0.136330  0.201139  1
  O  O22  1  0.672200  0.439348  0.628106  1
  O  O23  1  0.172576  0.939437  0.871670  1
  O  O24  1  0.327924  0.560703  0.371820  1
  O  O25  1  0.827335  0.060596  0.128192  1
