# generated using pymatgen
data_Ta2CoH
_symmetry_space_group_name_H-M   'P 1'
_cell_length_a   5.08039331
_cell_length_b   5.08039329
_cell_length_c   5.08039394
_cell_angle_alpha   104.72469260
_cell_angle_beta   104.72469114
_cell_angle_gamma   119.44913295
_symmetry_Int_Tables_number   1
_chemical_formula_structural   Ta2CoH
_chemical_formula_sum   'Ta4 Co2 H2'
_cell_volume   98.61097586
_cell_formula_units_Z   2
loop_
 _symmetry_equiv_pos_site_id
 _symmetry_equiv_pos_as_xyz
  1  'x, y, z'
loop_
 _atom_site_type_symbol
 _atom_site_label
 _atom_site_symmetry_multiplicity
 _atom_site_fract_x
 _atom_site_fract_y
 _atom_site_fract_z
 _atom_site_occupancy
  Ta  Ta0  1  0.167649  0.667649  0.835300  1
  Ta  Ta1  1  0.832351  0.332351  0.164700  1
  Ta  Ta2  1  0.332351  0.167649  0.500000  1
  Ta  Ta3  1  0.667649  0.832351  0.500000  1
  Co  Co4  1  0.250000  0.250000  0.000000  1
  Co  Co5  1  0.750000  0.750000  0.000000  1
  H  H6  1  0.750000  0.250000  0.500000  1
  H  H7  1  0.250000  0.750000  0.500000  1
