# generated using pymatgen
data_Ho2Er6Sc12Si15B
_symmetry_space_group_name_H-M   'P 1'
_cell_length_a   7.00629037
_cell_length_b   7.35916810
_cell_length_c   13.89683116
_cell_angle_alpha   90.01733304
_cell_angle_beta   90.00179718
_cell_angle_gamma   89.38625956
_symmetry_Int_Tables_number   1
_chemical_formula_structural   Ho2Er6Sc12Si15B
_chemical_formula_sum   'Ho2 Er6 Sc12 Si15 B1'
_cell_volume   716.48598559
_cell_formula_units_Z   1
loop_
 _symmetry_equiv_pos_site_id
 _symmetry_equiv_pos_as_xyz
  1  'x, y, z'
loop_
 _atom_site_type_symbol
 _atom_site_label
 _atom_site_symmetry_multiplicity
 _atom_site_fract_x
 _atom_site_fract_y
 _atom_site_fract_z
 _atom_site_occupancy
  Ho  Ho0  1  0.511035  0.324881  0.404854  1
  Ho  Ho1  1  0.489487  0.678052  0.597906  1
  Er  Er2  1  0.009704  0.178789  0.096499  1
  Er  Er3  1  0.988845  0.829060  0.903104  1
  Er  Er4  1  0.489548  0.678179  0.902310  1
  Er  Er5  1  0.988848  0.828919  0.597304  1
  Er  Er6  1  0.510992  0.324579  0.095136  1
  Er  Er7  1  0.009891  0.178968  0.402926  1
  Sc  Sc8  1  0.168256  0.511384  0.750105  1
  Sc  Sc9  1  0.837874  0.497114  0.249881  1
  Sc  Sc10  1  0.337636  0.004330  0.249875  1
  Sc  Sc11  1  0.673089  0.996898  0.750194  1
  Sc  Sc12  1  0.314972  0.173692  0.629681  1
  Sc  Sc13  1  0.668915  0.823480  0.375802  1
  Sc  Sc14  1  0.167366  0.678115  0.375552  1
  Sc  Sc15  1  0.668702  0.823128  0.124121  1
  Sc  Sc16  1  0.850051  0.309218  0.632225  1
  Sc  Sc17  1  0.314967  0.174038  0.870414  1
  Sc  Sc18  1  0.850758  0.308797  0.867893  1
  Sc  Sc19  1  0.167358  0.677778  0.124265  1
  Si  Si20  1  0.965538  0.884920  0.249840  1
  Si  Si21  1  0.466487  0.615997  0.249881  1
  Si  Si22  1  0.539295  0.380575  0.750234  1
  Si  Si23  1  0.268028  0.884270  0.750224  1
  Si  Si24  1  0.711524  0.129964  0.249717  1
  Si  Si25  1  0.213997  0.372541  0.249632  1
  Si  Si26  1  0.788428  0.623478  0.750385  1
  Si  Si27  1  0.159697  0.466798  0.539867  1
  Si  Si28  1  0.839762  0.534488  0.465274  1
  Si  Si29  1  0.338510  0.965391  0.463098  1
  Si  Si30  1  0.838924  0.534184  0.034691  1
  Si  Si31  1  0.655351  0.037545  0.540831  1
  Si  Si32  1  0.160390  0.467113  0.960074  1
  Si  Si33  1  0.654999  0.037415  0.959200  1
  Si  Si34  1  0.338710  0.965267  0.036862  1
  B  B35  1  0.042071  0.100654  0.750143  1
