# generated using pymatgen
data_Y5Er(Lu2In3)2
_symmetry_space_group_name_H-M   'P 1'
_cell_length_a   9.09116007
_cell_length_b   9.09115972
_cell_length_c   9.09562400
_cell_angle_alpha   96.47903322
_cell_angle_beta   96.45585665
_cell_angle_gamma   140.76989269
_symmetry_Int_Tables_number   1
_chemical_formula_structural   Y5Er(Lu2In3)2
_chemical_formula_sum   'Y5 Er1 Lu4 In6'
_cell_volume   447.86973333
_cell_formula_units_Z   1
loop_
 _symmetry_equiv_pos_site_id
 _symmetry_equiv_pos_as_xyz
  1  'x, y, z'
loop_
 _atom_site_type_symbol
 _atom_site_label
 _atom_site_symmetry_multiplicity
 _atom_site_fract_x
 _atom_site_fract_y
 _atom_site_fract_z
 _atom_site_occupancy
  Y  Y0  1  0.716926  0.417213  0.134139  1
  Y  Y1  1  0.281658  0.580977  0.862635  1
  Y  Y2  1  0.582382  0.717820  0.300202  1
  Y  Y3  1  0.217914  0.082752  0.300665  1
  Y  Y4  1  0.917359  0.216813  0.134172  1
  Er  Er5  1  0.080403  0.781355  0.861757  1
  Lu  Lu6  1  0.750683  0.250935  0.501381  1
  Lu  Lu7  1  0.250446  0.750698  0.501381  1
  Lu  Lu8  1  0.784423  0.917757  0.702182  1
  Lu  Lu9  1  0.418078  0.284394  0.702472  1
  In  In10  1  0.840245  0.661689  0.501933  1
  In  In11  1  0.339288  0.840453  0.179742  1
  In  In12  1  0.749853  0.749308  0.998261  1
  In  In13  1  0.659859  0.159195  0.819054  1
  In  In14  1  0.161527  0.340234  0.501760  1
  In  In15  1  0.248954  0.248409  0.998261  1
