# generated using pymatgen
data_Zr5ZnSn2Sb
_symmetry_space_group_name_H-M   'P 1'
_cell_length_a   8.71132741
_cell_length_b   8.70274143
_cell_length_c   5.88290400
_cell_angle_alpha   90.00000000
_cell_angle_beta   90.00000000
_cell_angle_gamma   119.96739918
_symmetry_Int_Tables_number   1
_chemical_formula_structural   Zr5ZnSn2Sb
_chemical_formula_sum   'Zr10 Zn2 Sn4 Sb2'
_cell_volume   386.37176831
_cell_formula_units_Z   2
loop_
 _symmetry_equiv_pos_site_id
 _symmetry_equiv_pos_as_xyz
  1  'x, y, z'
loop_
 _atom_site_type_symbol
 _atom_site_label
 _atom_site_symmetry_multiplicity
 _atom_site_fract_x
 _atom_site_fract_y
 _atom_site_fract_z
 _atom_site_occupancy
  Zr  Zr0  1  0.666180  0.332965  0.000424  1
  Zr  Zr1  1  0.333820  0.666786  0.000424  1
  Zr  Zr2  1  0.333820  0.666786  0.499576  1
  Zr  Zr3  1  0.666180  0.332965  0.499576  1
  Zr  Zr4  1  0.731024  0.731345  0.750000  1
  Zr  Zr5  1  0.268976  0.000321  0.750000  1
  Zr  Zr6  1  0.000000  0.268334  0.750000  1
  Zr  Zr7  1  0.268937  0.268825  0.250000  1
  Zr  Zr8  1  0.731063  0.999889  0.250000  1
  Zr  Zr9  1  0.000000  0.731672  0.250000  1
  Zn  Zn10  1  0.000000  0.999469  0.000689  1
  Zn  Zn11  1  0.000000  0.999469  0.499311  1
  Sn  Sn12  1  0.000000  0.615922  0.750000  1
  Sn  Sn13  1  0.616484  0.616204  0.250000  1
  Sn  Sn14  1  0.383516  0.999720  0.250000  1
  Sn  Sn15  1  0.000000  0.384490  0.250000  1
  Sb  Sb16  1  0.384795  0.384816  0.750000  1
  Sb  Sb17  1  0.615205  0.000021  0.750000  1
