# generated using pymatgen
data_La3MgCd2IrPd2
_symmetry_space_group_name_H-M   'P 1'
_cell_length_a   7.81010556
_cell_length_b   7.78536756
_cell_length_c   4.11618300
_cell_angle_alpha   90.00000000
_cell_angle_beta   90.00000000
_cell_angle_gamma   120.64171431
_symmetry_Int_Tables_number   1
_chemical_formula_structural   La3MgCd2IrPd2
_chemical_formula_sum   'La3 Mg1 Cd2 Ir1 Pd2'
_cell_volume   215.33595931
_cell_formula_units_Z   1
loop_
 _symmetry_equiv_pos_site_id
 _symmetry_equiv_pos_as_xyz
  1  'x, y, z'
loop_
 _atom_site_type_symbol
 _atom_site_label
 _atom_site_symmetry_multiplicity
 _atom_site_fract_x
 _atom_site_fract_y
 _atom_site_fract_z
 _atom_site_occupancy
  La  La0  1  0.417855  0.402877  0.500000  1
  La  La1  1  0.593093  0.015338  0.500000  1
  La  La2  1  0.986752  0.580042  0.500000  1
  Mg  Mg3  1  0.757880  0.758609  0.000000  1
  Cd  Cd4  1  0.244780  0.995922  0.000000  1
  Cd  Cd5  1  0.002794  0.248243  0.000000  1
  Ir  Ir6  1  0.667920  0.341953  0.000000  1
  Pd  Pd7  1  0.340729  0.668371  0.000000  1
  Pd  Pd8  1  0.988194  0.988646  0.500000  1
