# generated using pymatgen
data_MgPa2TiPd12
_symmetry_space_group_name_H-M   'P 1'
_cell_length_a   5.72135500
_cell_length_b   5.72135595
_cell_length_c   9.42151000
_cell_angle_alpha   90.00000000
_cell_angle_beta   90.00000000
_cell_angle_gamma   120.00001188
_symmetry_Int_Tables_number   1
_chemical_formula_structural   MgPa2TiPd12
_chemical_formula_sum   'Mg1 Pa2 Ti1 Pd12'
_cell_volume   267.08466707
_cell_formula_units_Z   1
loop_
 _symmetry_equiv_pos_site_id
 _symmetry_equiv_pos_as_xyz
  1  'x, y, z'
loop_
 _atom_site_type_symbol
 _atom_site_label
 _atom_site_symmetry_multiplicity
 _atom_site_fract_x
 _atom_site_fract_y
 _atom_site_fract_z
 _atom_site_occupancy
  Mg  Mg0  1  0.333333  0.666667  0.250000  1
  Pa  Pa1  1  0.000000  0.000000  0.496560  1
  Pa  Pa2  1  0.000000  0.000000  0.003440  1
  Ti  Ti3  1  0.666667  0.333333  0.750000  1
  Pd  Pd4  1  0.501817  0.498183  0.504916  1
  Pd  Pd5  1  0.501817  0.003633  0.504916  1
  Pd  Pd6  1  0.996367  0.498183  0.504916  1
  Pd  Pd7  1  0.501817  0.498183  0.995084  1
  Pd  Pd8  1  0.501817  0.003633  0.995084  1
  Pd  Pd9  1  0.996367  0.498183  0.995084  1
  Pd  Pd10  1  0.829830  0.659661  0.250000  1
  Pd  Pd11  1  0.340339  0.170170  0.250000  1
  Pd  Pd12  1  0.829830  0.170170  0.250000  1
  Pd  Pd13  1  0.168675  0.337350  0.750000  1
  Pd  Pd14  1  0.662650  0.831325  0.750000  1
  Pd  Pd15  1  0.168675  0.831325  0.750000  1
