# generated using pymatgen
data_Rb(ZrSe2)3
_symmetry_space_group_name_H-M   'P 1'
_cell_length_a   6.56817339
_cell_length_b   6.56817266
_cell_length_c   9.07582555
_cell_angle_alpha   96.81140274
_cell_angle_beta   96.81140116
_cell_angle_gamma   119.91149654
_symmetry_Int_Tables_number   1
_chemical_formula_structural   Rb(ZrSe2)3
_chemical_formula_sum   'Rb1 Zr3 Se6'
_cell_volume   329.72515112
_cell_formula_units_Z   1
loop_
 _symmetry_equiv_pos_site_id
 _symmetry_equiv_pos_as_xyz
  1  'x, y, z'
loop_
 _atom_site_type_symbol
 _atom_site_label
 _atom_site_symmetry_multiplicity
 _atom_site_fract_x
 _atom_site_fract_y
 _atom_site_fract_z
 _atom_site_occupancy
  Rb  Rb0  1  0.000000  0.000000  0.500000  1
  Zr  Zr1  1  0.833553  0.166447  0.000000  1
  Zr  Zr2  1  0.500000  0.500000  0.000000  1
  Zr  Zr3  1  0.166447  0.833553  0.000000  1
  Se  Se4  1  0.229511  0.229511  0.183789  1
  Se  Se5  1  0.894679  0.560137  0.183477  1
  Se  Se6  1  0.560137  0.894679  0.183477  1
  Se  Se7  1  0.439863  0.105321  0.816524  1
  Se  Se8  1  0.105321  0.439863  0.816524  1
  Se  Se9  1  0.770491  0.770491  0.816212  1
