# generated using pymatgen
data_Ti2BeCo4Si
_symmetry_space_group_name_H-M   'P 1'
_cell_length_a   6.95090536
_cell_length_b   6.95090517
_cell_length_c   6.95090549
_cell_angle_alpha   33.53033648
_cell_angle_beta   33.53033935
_cell_angle_gamma   33.53034144
_symmetry_Int_Tables_number   1
_chemical_formula_structural   Ti2BeCo4Si
_chemical_formula_sum   'Ti2 Be1 Co4 Si1'
_cell_volume   91.26857636
_cell_formula_units_Z   1
loop_
 _symmetry_equiv_pos_site_id
 _symmetry_equiv_pos_as_xyz
  1  'x, y, z'
loop_
 _atom_site_type_symbol
 _atom_site_label
 _atom_site_symmetry_multiplicity
 _atom_site_fract_x
 _atom_site_fract_y
 _atom_site_fract_z
 _atom_site_occupancy
  Ti  Ti0  1  0.252406  0.252406  0.252406  1
  Ti  Ti1  1  0.747594  0.747594  0.747594  1
  Be  Be2  1  0.000000  0.000000  0.000000  1
  Co  Co3  1  0.875134  0.875134  0.875134  1
  Co  Co4  1  0.374948  0.374948  0.374948  1
  Co  Co5  1  0.124866  0.124866  0.124866  1
  Co  Co6  1  0.625052  0.625052  0.625052  1
  Si  Si7  1  0.500000  0.500000  0.500000  1
