# generated using pymatgen
data_Hf6Zn18BAu5
_symmetry_space_group_name_H-M   'P 1'
_cell_length_a   8.62569133
_cell_length_b   8.62714673
_cell_length_c   8.62946400
_cell_angle_alpha   59.99112198
_cell_angle_beta   59.98553833
_cell_angle_gamma   59.82010982
_symmetry_Int_Tables_number   1
_chemical_formula_structural   Hf6Zn18BAu5
_chemical_formula_sum   'Hf6 Zn18 B1 Au5'
_cell_volume   453.37710678
_cell_formula_units_Z   1
loop_
 _symmetry_equiv_pos_site_id
 _symmetry_equiv_pos_as_xyz
  1  'x, y, z'
loop_
 _atom_site_type_symbol
 _atom_site_label
 _atom_site_symmetry_multiplicity
 _atom_site_fract_x
 _atom_site_fract_y
 _atom_site_fract_z
 _atom_site_occupancy
  Hf  Hf0  1  0.694295  0.306316  0.310645  1
  Hf  Hf1  1  0.304882  0.693068  0.692128  1
  Hf  Hf2  1  0.304882  0.693068  0.309924  1
  Hf  Hf3  1  0.694295  0.306316  0.688744  1
  Hf  Hf4  1  0.310031  0.310318  0.689825  1
  Hf  Hf5  1  0.695534  0.689889  0.307288  1
  Zn  Zn6  1  0.880297  0.365596  0.877054  1
  Zn  Zn7  1  0.632919  0.119743  0.123669  1
  Zn  Zn8  1  0.361104  0.877224  0.880836  1
  Zn  Zn9  1  0.498055  0.999151  0.000173  1
  Zn  Zn10  1  0.998682  0.499199  0.503125  1
  Zn  Zn11  1  0.998682  0.499199  0.998995  1
  Zn  Zn12  1  0.498055  0.999151  0.502620  1
  Zn  Zn13  1  0.000831  0.000056  0.499557  1
  Zn  Zn14  1  0.511332  0.490926  0.998872  1
  Zn  Zn15  1  0.337440  0.334256  0.333172  1
  Zn  Zn16  1  0.662969  0.664029  0.667867  1
  Zn  Zn17  1  0.337440  0.334256  0.995131  1
  Zn  Zn18  1  0.336516  0.995991  0.333746  1
  Zn  Zn19  1  0.662969  0.664029  0.005134  1
  Zn  Zn20  1  0.664298  0.999762  0.667970  1
  Zn  Zn21  1  0.001550  0.333794  0.332328  1
  Zn  Zn22  1  0.000294  0.665886  0.666910  1
  Zn  Zn23  1  0.991148  0.008425  0.000214  1
  B  B24  1  0.500126  0.503030  0.498422  1
  Au  Au25  1  0.122054  0.121677  0.113669  1
  Au  Au26  1  0.874050  0.881827  0.883653  1
  Au  Au27  1  0.122054  0.121677  0.642600  1
  Au  Au28  1  0.129162  0.640314  0.115261  1
  Au  Au29  1  0.874050  0.881827  0.360471  1
