# generated using pymatgen
data_Nd3Mg3RuAu2
_symmetry_space_group_name_H-M   'P 1'
_cell_length_a   7.63429900
_cell_length_b   7.63429886
_cell_length_c   4.21289600
_cell_angle_alpha   90.00000000
_cell_angle_beta   90.00000000
_cell_angle_gamma   119.99999628
_symmetry_Int_Tables_number   1
_chemical_formula_structural   Nd3Mg3RuAu2
_chemical_formula_sum   'Nd3 Mg3 Ru1 Au2'
_cell_volume   212.64232330
_cell_formula_units_Z   1
loop_
 _symmetry_equiv_pos_site_id
 _symmetry_equiv_pos_as_xyz
  1  'x, y, z'
loop_
 _atom_site_type_symbol
 _atom_site_label
 _atom_site_symmetry_multiplicity
 _atom_site_fract_x
 _atom_site_fract_y
 _atom_site_fract_z
 _atom_site_occupancy
  Nd  Nd0  1  0.574078  0.976730  0.000000  1
  Nd  Nd1  1  0.023270  0.597348  0.000000  1
  Nd  Nd2  1  0.402652  0.425922  0.000000  1
  Mg  Mg3  1  0.245817  0.997113  0.500000  1
  Mg  Mg4  1  0.002887  0.248704  0.500000  1
  Mg  Mg5  1  0.751296  0.754183  0.500000  1
  Ru  Ru6  1  0.333333  0.666667  0.500000  1
  Au  Au7  1  0.666667  0.333333  0.500000  1
  Au  Au8  1  0.000000  0.000000  0.000000  1
