# generated using pymatgen
data_Tb11Y(TcOs)2
_symmetry_space_group_name_H-M   'P 1'
_cell_length_a   6.31904427
_cell_length_b   7.45478847
_cell_length_c   9.16587829
_cell_angle_alpha   90.01890844
_cell_angle_beta   89.97818492
_cell_angle_gamma   89.93059917
_symmetry_Int_Tables_number   1
_chemical_formula_structural   Tb11Y(TcOs)2
_chemical_formula_sum   'Tb11 Y1 Tc2 Os2'
_cell_volume   431.77792545
_cell_formula_units_Z   1
loop_
 _symmetry_equiv_pos_site_id
 _symmetry_equiv_pos_as_xyz
  1  'x, y, z'
loop_
 _atom_site_type_symbol
 _atom_site_label
 _atom_site_symmetry_multiplicity
 _atom_site_fract_x
 _atom_site_fract_y
 _atom_site_fract_z
 _atom_site_occupancy
  Tb  Tb0  1  0.337644  0.675462  0.063148  1
  Tb  Tb1  1  0.161880  0.175271  0.436495  1
  Tb  Tb2  1  0.664830  0.324247  0.563288  1
  Tb  Tb3  1  0.834944  0.824546  0.936929  1
  Tb  Tb4  1  0.665012  0.324549  0.936631  1
  Tb  Tb5  1  0.834834  0.824150  0.563261  1
  Tb  Tb6  1  0.337863  0.675655  0.436765  1
  Tb  Tb7  1  0.876006  0.540927  0.249928  1
  Tb  Tb8  1  0.624477  0.040696  0.249982  1
  Tb  Tb9  1  0.132296  0.458484  0.749845  1
  Tb  Tb10  1  0.367530  0.958533  0.749959  1
  Y  Y11  1  0.161588  0.175555  0.062905  1
  Tc  Tc12  1  0.037869  0.883416  0.250709  1
  Tc  Tc13  1  0.462929  0.384582  0.250134  1
  Os  Os14  1  0.959150  0.117007  0.750074  1
  Os  Os15  1  0.541148  0.616918  0.749946  1
