# generated using pymatgen
data_Zr5Al16GaPt7
_symmetry_space_group_name_H-M   'P 1'
_cell_length_a   8.75276352
_cell_length_b   8.82609551
_cell_length_c   8.82609614
_cell_angle_alpha   59.45106341
_cell_angle_beta   60.27447289
_cell_angle_gamma   60.27446886
_symmetry_Int_Tables_number   1
_chemical_formula_structural   Zr5Al16GaPt7
_chemical_formula_sum   'Zr5 Al16 Ga1 Pt7'
_cell_volume   482.06768295
_cell_formula_units_Z   1
loop_
 _symmetry_equiv_pos_site_id
 _symmetry_equiv_pos_as_xyz
  1  'x, y, z'
loop_
 _atom_site_type_symbol
 _atom_site_label
 _atom_site_symmetry_multiplicity
 _atom_site_fract_x
 _atom_site_fract_y
 _atom_site_fract_z
 _atom_site_occupancy
  Zr  Zr0  1  0.324265  0.675736  0.675736  1
  Zr  Zr1  1  0.292788  0.707213  0.295048  1
  Zr  Zr2  1  0.292788  0.295048  0.707213  1
  Zr  Zr3  1  0.704952  0.295049  0.707212  1
  Zr  Zr4  1  0.704952  0.707212  0.295049  1
  Al  Al5  1  0.959715  0.336649  0.336649  1
  Al  Al6  1  0.366986  0.336649  0.336649  1
  Al  Al7  1  0.343460  0.324081  0.988998  1
  Al  Al8  1  0.343460  0.988998  0.324081  1
  Al  Al9  1  0.675919  0.656540  0.656540  1
  Al  Al10  1  0.663351  0.633014  0.040285  1
  Al  Al11  1  0.663351  0.040285  0.633014  1
  Al  Al12  1  0.011002  0.656540  0.656540  1
  Al  Al13  1  0.115295  0.120097  0.120097  1
  Al  Al14  1  0.129485  0.114883  0.626146  1
  Al  Al15  1  0.644511  0.120097  0.120097  1
  Al  Al16  1  0.129485  0.626146  0.114883  1
  Al  Al17  1  0.885116  0.870514  0.870514  1
  Al  Al18  1  0.879902  0.884704  0.355490  1
  Al  Al19  1  0.879902  0.355490  0.884704  1
  Al  Al20  1  0.373855  0.870514  0.870514  1
  Ga  Ga21  1  0.563425  0.436576  0.436576  1
  Pt  Pt22  1  0.510356  0.989644  0.989644  1
  Pt  Pt23  1  0.010356  0.489644  0.489644  1
  Pt  Pt24  1  0.009293  0.498110  0.990707  1
  Pt  Pt25  1  0.009293  0.990707  0.498110  1
  Pt  Pt26  1  0.501890  0.990707  0.498110  1
  Pt  Pt27  1  0.501890  0.498110  0.990707  1
  Pt  Pt28  1  0.008957  0.991043  0.991043  1
