# generated using pymatgen
data_Th3Sc(ZnRh2)4
_symmetry_space_group_name_H-M   'P 1'
_cell_length_a   6.16212519
_cell_length_b   6.16186100
_cell_length_c   7.39953700
_cell_angle_alpha   89.99979543
_cell_angle_beta   90.01427251
_cell_angle_gamma   89.99994426
_symmetry_Int_Tables_number   1
_chemical_formula_structural   Th3Sc(ZnRh2)4
_chemical_formula_sum   'Th3 Sc1 Zn4 Rh8'
_cell_volume   280.96158691
_cell_formula_units_Z   1
loop_
 _symmetry_equiv_pos_site_id
 _symmetry_equiv_pos_as_xyz
  1  'x, y, z'
loop_
 _atom_site_type_symbol
 _atom_site_label
 _atom_site_symmetry_multiplicity
 _atom_site_fract_x
 _atom_site_fract_y
 _atom_site_fract_z
 _atom_site_occupancy
  Th  Th0  1  0.750057  0.250000  0.999999  1
  Th  Th1  1  0.249937  0.749999  0.000000  1
  Th  Th2  1  0.250046  0.749999  0.500005  1
  Sc  Sc3  1  0.749946  0.249997  0.499981  1
  Zn  Zn4  1  0.250035  0.249999  0.000010  1
  Zn  Zn5  1  0.749959  0.749999  0.000013  1
  Zn  Zn6  1  0.750023  0.749999  0.499959  1
  Zn  Zn7  1  0.250004  0.249999  0.500038  1
  Rh  Rh8  1  0.502907  0.002985  0.256125  1
  Rh  Rh9  1  0.502908  0.497014  0.256126  1
  Rh  Rh10  1  0.996965  0.002981  0.256215  1
  Rh  Rh11  1  0.996970  0.497018  0.256214  1
  Rh  Rh12  1  0.997071  0.002980  0.743799  1
  Rh  Rh13  1  0.997070  0.497022  0.743801  1
  Rh  Rh14  1  0.503051  0.002980  0.743856  1
  Rh  Rh15  1  0.503051  0.497026  0.743854  1
