# generated using pymatgen
data_Tb3Y3V2(Co4P3)4
_symmetry_space_group_name_H-M   'P 1'
_cell_length_a   3.69335000
_cell_length_b   10.55905400
_cell_length_c   12.23430500
_cell_angle_alpha   89.99959785
_cell_angle_beta   90.00000000
_cell_angle_gamma   90.00000000
_symmetry_Int_Tables_number   1
_chemical_formula_structural   Tb3Y3V2(Co4P3)4
_chemical_formula_sum   'Tb3 Y3 V2 Co16 P12'
_cell_volume   477.11687757
_cell_formula_units_Z   1
loop_
 _symmetry_equiv_pos_site_id
 _symmetry_equiv_pos_as_xyz
  1  'x, y, z'
loop_
 _atom_site_type_symbol
 _atom_site_label
 _atom_site_symmetry_multiplicity
 _atom_site_fract_x
 _atom_site_fract_y
 _atom_site_fract_z
 _atom_site_occupancy
  Tb  Tb0  1  0.000000  0.499991  0.523228  1
  Tb  Tb1  1  0.500000  0.000009  0.476785  1
  Tb  Tb2  1  0.500000  0.818257  0.204497  1
  Y  Y3  1  0.500000  0.181746  0.204487  1
  Y  Y4  1  0.000000  0.681728  0.795506  1
  Y  Y5  1  0.000000  0.318270  0.795503  1
  V  V6  1  0.500000  0.500004  0.153940  1
  V  V7  1  0.000000  0.000000  0.846064  1
  Co  Co8  1  0.500000  0.499998  0.702023  1
  Co  Co9  1  0.000000  0.000003  0.297983  1
  Co  Co10  1  0.000000  0.499999  0.986703  1
  Co  Co11  1  0.500000  0.000007  0.013303  1
  Co  Co12  1  0.500000  0.332561  0.992944  1
  Co  Co13  1  0.500000  0.667432  0.992941  1
  Co  Co14  1  0.000000  0.167451  0.007060  1
  Co  Co15  1  0.000000  0.832552  0.007052  1
  Co  Co16  1  0.500000  0.295999  0.431205  1
  Co  Co17  1  0.500000  0.703998  0.431200  1
  Co  Co18  1  0.000000  0.204005  0.568797  1
  Co  Co19  1  0.000000  0.795999  0.568803  1
  Co  Co20  1  0.500000  0.879095  0.707884  1
  Co  Co21  1  0.500000  0.120908  0.707880  1
  Co  Co22  1  0.000000  0.620893  0.292116  1
  Co  Co23  1  0.000000  0.379099  0.292115  1
  P  P24  1  0.500000  0.500001  0.882118  1
  P  P25  1  0.000000  0.000011  0.117862  1
  P  P26  1  0.500000  0.500008  0.346654  1
  P  P27  1  0.000000  0.999997  0.653319  1
  P  P28  1  0.500000  0.310768  0.615842  1
  P  P29  1  0.500000  0.689231  0.615845  1
  P  P30  1  0.000000  0.189240  0.384161  1
  P  P31  1  0.000000  0.810752  0.384175  1
  P  P32  1  0.500000  0.846298  0.892461  1
  P  P33  1  0.500000  0.153703  0.892459  1
  P  P34  1  0.000000  0.653670  0.107538  1
  P  P35  1  0.000000  0.346317  0.107546  1
