# generated using pymatgen
data_Sm2UCo(NiSb2)2
_symmetry_space_group_name_H-M   'P 1'
_cell_length_a   8.21470352
_cell_length_b   8.21545817
_cell_length_c   8.21470335
_cell_angle_alpha   109.86934673
_cell_angle_beta   109.21803010
_cell_angle_gamma   109.32328849
_symmetry_Int_Tables_number   1
_chemical_formula_structural   Sm2UCo(NiSb2)2
_chemical_formula_sum   'Sm4 U2 Co2 Ni4 Sb8'
_cell_volume   426.77364179
_cell_formula_units_Z   2
loop_
 _symmetry_equiv_pos_site_id
 _symmetry_equiv_pos_as_xyz
  1  'x, y, z'
loop_
 _atom_site_type_symbol
 _atom_site_label
 _atom_site_symmetry_multiplicity
 _atom_site_fract_x
 _atom_site_fract_y
 _atom_site_fract_z
 _atom_site_occupancy
  Sm  Sm0  1  0.873635  0.250000  0.123635  1
  Sm  Sm1  1  0.626078  0.750000  0.376078  1
  Sm  Sm2  1  0.250019  0.126827  0.876728  1
  Sm  Sm3  1  0.749900  0.373173  0.623192  1
  U  U4  1  0.134111  0.884114  0.250017  1
  U  U5  1  0.365903  0.615886  0.749997  1
  Co  Co6  1  0.363729  0.250000  0.613729  1
  Co  Co7  1  0.136357  0.750000  0.886357  1
  Ni  Ni8  1  0.249941  0.630419  0.381021  1
  Ni  Ni9  1  0.750602  0.869581  0.119522  1
  Ni  Ni10  1  0.626144  0.376257  0.249970  1
  Ni  Ni11  1  0.873713  0.123743  0.749887  1
  Sb  Sb12  1  0.655841  0.499129  0.997474  1
  Sb  Sb13  1  0.498344  0.000871  0.656712  1
  Sb  Sb14  1  0.001386  0.658319  0.502505  1
  Sb  Sb15  1  0.844186  0.841681  0.843067  1
  Sb  Sb16  1  0.501209  0.999624  0.154835  1
  Sb  Sb17  1  0.155210  0.500376  0.001585  1
  Sb  Sb18  1  0.999005  0.153808  0.498492  1
  Sb  Sb19  1  0.344684  0.346192  0.345197  1
