# generated using pymatgen
data_Sc8TaV10Si16Ag
_symmetry_space_group_name_H-M   'P 1'
_cell_length_a   6.68432076
_cell_length_b   6.68432049
_cell_length_c   12.34348722
_cell_angle_alpha   90.17958152
_cell_angle_beta   89.82042232
_cell_angle_gamma   89.62881384
_symmetry_Int_Tables_number   1
_chemical_formula_structural   Sc8TaV10Si16Ag
_chemical_formula_sum   'Sc8 Ta1 V10 Si16 Ag1'
_cell_volume   551.49173799
_cell_formula_units_Z   1
loop_
 _symmetry_equiv_pos_site_id
 _symmetry_equiv_pos_as_xyz
  1  'x, y, z'
loop_
 _atom_site_type_symbol
 _atom_site_label
 _atom_site_symmetry_multiplicity
 _atom_site_fract_x
 _atom_site_fract_y
 _atom_site_fract_z
 _atom_site_occupancy
  Sc  Sc0  1  0.001492  0.661781  0.030281  1
  Sc  Sc1  1  0.837075  0.501692  0.281194  1
  Sc  Sc2  1  0.162494  0.499512  0.780207  1
  Sc  Sc3  1  0.501692  0.837075  0.718806  1
  Sc  Sc4  1  0.499512  0.162494  0.219793  1
  Sc  Sc5  1  0.998631  0.337695  0.530228  1
  Sc  Sc6  1  0.661781  0.001492  0.969719  1
  Sc  Sc7  1  0.337695  0.998631  0.469772  1
  Ta  Ta8  1  0.668241  0.668241  0.500000  1
  V  V9  1  0.165738  0.833133  0.250180  1
  V  V10  1  0.833133  0.165738  0.749820  1
  V  V11  1  0.004867  0.154802  0.126544  1
  V  V12  1  0.345076  0.505401  0.376578  1
  V  V13  1  0.658386  0.496478  0.876842  1
  V  V14  1  0.505401  0.345076  0.623422  1
  V  V15  1  0.496478  0.658386  0.123158  1
  V  V16  1  0.991762  0.844476  0.628096  1
  V  V17  1  0.154802  0.004867  0.873456  1
  V  V18  1  0.844476  0.991762  0.371904  1
  Si  Si19  1  0.287366  0.945472  0.066676  1
  Si  Si20  1  0.535653  0.795890  0.310986  1
  Si  Si21  1  0.465150  0.203909  0.808583  1
  Si  Si22  1  0.795890  0.535653  0.689014  1
  Si  Si23  1  0.203909  0.465150  0.191417  1
  Si  Si24  1  0.706865  0.045324  0.565112  1
  Si  Si25  1  0.945472  0.287366  0.933324  1
  Si  Si26  1  0.045324  0.706865  0.434888  1
  Si  Si27  1  0.717468  0.376302  0.073622  1
  Si  Si28  1  0.131657  0.202880  0.319899  1
  Si  Si29  1  0.870020  0.796352  0.820303  1
  Si  Si30  1  0.202880  0.131657  0.680101  1
  Si  Si31  1  0.796352  0.870020  0.179697  1
  Si  Si32  1  0.290601  0.629772  0.571930  1
  Si  Si33  1  0.376302  0.717468  0.926378  1
  Si  Si34  1  0.629772  0.290601  0.428070  1
  Ag  Ag35  1  0.330589  0.330589  0.000000  1
