# generated using pymatgen
data_YbSc6Co6Sn23
_symmetry_space_group_name_H-M   'P 1'
_cell_length_a   9.56617400
_cell_length_b   9.56617253
_cell_length_c   9.79125500
_cell_angle_alpha   90.00000000
_cell_angle_beta   90.00000000
_cell_angle_gamma   120.00000509
_symmetry_Int_Tables_number   1
_chemical_formula_structural   YbSc6Co6Sn23
_chemical_formula_sum   'Yb1 Sc6 Co6 Sn23'
_cell_volume   775.97093752
_cell_formula_units_Z   1
loop_
 _symmetry_equiv_pos_site_id
 _symmetry_equiv_pos_as_xyz
  1  'x, y, z'
loop_
 _atom_site_type_symbol
 _atom_site_label
 _atom_site_symmetry_multiplicity
 _atom_site_fract_x
 _atom_site_fract_y
 _atom_site_fract_z
 _atom_site_occupancy
  Yb  Yb0  1  0.000000  0.000000  0.000000  1
  Sc  Sc1  1  0.482513  0.517487  0.307797  1
  Sc  Sc2  1  0.517487  0.482513  0.692203  1
  Sc  Sc3  1  0.482513  0.965026  0.307797  1
  Sc  Sc4  1  0.517487  0.034974  0.692203  1
  Sc  Sc5  1  0.034974  0.517487  0.307797  1
  Sc  Sc6  1  0.965026  0.482513  0.692203  1
  Co  Co7  1  0.829906  0.170094  0.200158  1
  Co  Co8  1  0.170094  0.829906  0.799842  1
  Co  Co9  1  0.829906  0.659813  0.200158  1
  Co  Co10  1  0.170094  0.340187  0.799842  1
  Co  Co11  1  0.340187  0.170094  0.200158  1
  Co  Co12  1  0.659813  0.829906  0.799842  1
  Sn  Sn13  1  0.121296  0.878704  0.275777  1
  Sn  Sn14  1  0.878704  0.121296  0.724223  1
  Sn  Sn15  1  0.121296  0.242592  0.275777  1
  Sn  Sn16  1  0.878704  0.757408  0.724223  1
  Sn  Sn17  1  0.757408  0.878704  0.275777  1
  Sn  Sn18  1  0.242592  0.121296  0.724223  1
  Sn  Sn19  1  0.779436  0.220564  0.454437  1
  Sn  Sn20  1  0.220564  0.779436  0.545563  1
  Sn  Sn21  1  0.779436  0.558873  0.454437  1
  Sn  Sn22  1  0.220564  0.441127  0.545563  1
  Sn  Sn23  1  0.441127  0.220564  0.454437  1
  Sn  Sn24  1  0.558873  0.779436  0.545563  1
  Sn  Sn25  1  0.347342  0.000000  0.000000  1
  Sn  Sn26  1  0.652658  0.000000  0.000000  1
  Sn  Sn27  1  0.000000  0.347342  0.000000  1
  Sn  Sn28  1  0.000000  0.652658  0.000000  1
  Sn  Sn29  1  0.652658  0.652658  0.000000  1
  Sn  Sn30  1  0.347342  0.347342  0.000000  1
  Sn  Sn31  1  0.333333  0.666667  0.135956  1
  Sn  Sn32  1  0.666667  0.333333  0.864044  1
  Sn  Sn33  1  0.333333  0.666667  0.820472  1
  Sn  Sn34  1  0.666667  0.333333  0.179528  1
  Sn  Sn35  1  0.000000  0.000000  0.500000  1
