# generated using pymatgen
data_PaAl3Si
_symmetry_space_group_name_H-M   'P 1'
_cell_length_a   7.75067444
_cell_length_b   7.69305583
_cell_length_c   7.69305400
_cell_angle_alpha   148.35765669
_cell_angle_beta   132.60047924
_cell_angle_gamma   58.04003611
_symmetry_Int_Tables_number   1
_chemical_formula_structural   PaAl3Si
_chemical_formula_sum   'Pa2 Al6 Si2'
_cell_volume   175.82426548
_cell_formula_units_Z   2
loop_
 _symmetry_equiv_pos_site_id
 _symmetry_equiv_pos_as_xyz
  1  'x, y, z'
loop_
 _atom_site_type_symbol
 _atom_site_label
 _atom_site_symmetry_multiplicity
 _atom_site_fract_x
 _atom_site_fract_y
 _atom_site_fract_z
 _atom_site_occupancy
  Pa  Pa0  1  0.625884  0.875903  0.749981  1
  Pa  Pa1  1  0.374116  0.124097  0.250019  1
  Al  Al2  1  0.000000  0.500000  0.500000  1
  Al  Al3  1  0.500000  0.500000  0.000000  1
  Al  Al4  1  0.847709  0.101072  0.746637  1
  Al  Al5  1  0.152291  0.898928  0.253363  1
  Al  Al6  1  0.139861  0.699922  0.439939  1
  Al  Al7  1  0.860139  0.300078  0.560061  1
  Si  Si8  1  0.273107  0.304246  0.968861  1
  Si  Si9  1  0.726893  0.695754  0.031139  1
