# generated using pymatgen
data_Y3Co(Si3Rh4)2
_symmetry_space_group_name_H-M   'P 1'
_cell_length_a   3.96849500
_cell_length_b   11.28004900
_cell_length_c   12.89870300
_cell_angle_alpha   90.00000000
_cell_angle_beta   90.00000000
_cell_angle_gamma   90.00000000
_symmetry_Int_Tables_number   1
_chemical_formula_structural   Y3Co(Si3Rh4)2
_chemical_formula_sum   'Y6 Co2 Si12 Rh16'
_cell_volume   577.40809296
_cell_formula_units_Z   2
loop_
 _symmetry_equiv_pos_site_id
 _symmetry_equiv_pos_as_xyz
  1  'x, y, z'
loop_
 _atom_site_type_symbol
 _atom_site_label
 _atom_site_symmetry_multiplicity
 _atom_site_fract_x
 _atom_site_fract_y
 _atom_site_fract_z
 _atom_site_occupancy
  Y  Y0  1  0.000000  0.500000  0.524393  1
  Y  Y1  1  0.500000  0.000000  0.475607  1
  Y  Y2  1  0.500000  0.815300  0.202268  1
  Y  Y3  1  0.500000  0.184700  0.202268  1
  Y  Y4  1  0.000000  0.684700  0.797732  1
  Y  Y5  1  0.000000  0.315300  0.797732  1
  Co  Co6  1  0.000000  0.500000  0.976047  1
  Co  Co7  1  0.500000  0.000000  0.023953  1
  Si  Si8  1  0.500000  0.500000  0.880699  1
  Si  Si9  1  0.000000  0.000000  0.119301  1
  Si  Si10  1  0.500000  0.500000  0.337847  1
  Si  Si11  1  0.000000  0.000000  0.662153  1
  Si  Si12  1  0.500000  0.304542  0.617109  1
  Si  Si13  1  0.500000  0.695458  0.617109  1
  Si  Si14  1  0.000000  0.195458  0.382891  1
  Si  Si15  1  0.000000  0.804542  0.382891  1
  Si  Si16  1  0.500000  0.857374  0.900884  1
  Si  Si17  1  0.500000  0.142626  0.900884  1
  Si  Si18  1  0.000000  0.642626  0.099116  1
  Si  Si19  1  0.000000  0.357374  0.099116  1
  Rh  Rh20  1  0.500000  0.500000  0.152656  1
  Rh  Rh21  1  0.000000  0.000000  0.847344  1
  Rh  Rh22  1  0.500000  0.500000  0.693950  1
  Rh  Rh23  1  0.000000  0.000000  0.306050  1
  Rh  Rh24  1  0.500000  0.333267  0.987278  1
  Rh  Rh25  1  0.500000  0.666733  0.987278  1
  Rh  Rh26  1  0.000000  0.166733  0.012722  1
  Rh  Rh27  1  0.000000  0.833267  0.012722  1
  Rh  Rh28  1  0.500000  0.302201  0.430188  1
  Rh  Rh29  1  0.500000  0.697799  0.430188  1
  Rh  Rh30  1  0.000000  0.197799  0.569812  1
  Rh  Rh31  1  0.000000  0.802201  0.569812  1
  Rh  Rh32  1  0.500000  0.877580  0.714675  1
  Rh  Rh33  1  0.500000  0.122420  0.714675  1
  Rh  Rh34  1  0.000000  0.622420  0.285325  1
  Rh  Rh35  1  0.000000  0.377580  0.285325  1
