# generated using pymatgen
data_Ce4MnAlFeB6
_symmetry_space_group_name_H-M   'P 1'
_cell_length_a   5.28527357
_cell_length_b   5.28527276
_cell_length_c   7.99973038
_cell_angle_alpha   70.71053306
_cell_angle_beta   70.71053811
_cell_angle_gamma   59.99999212
_symmetry_Int_Tables_number   1
_chemical_formula_structural   Ce4MnAlFeB6
_chemical_formula_sum   'Ce4 Mn1 Al1 Fe1 B6'
_cell_volume   178.89443718
_cell_formula_units_Z   1
loop_
 _symmetry_equiv_pos_site_id
 _symmetry_equiv_pos_as_xyz
  1  'x, y, z'
loop_
 _atom_site_type_symbol
 _atom_site_label
 _atom_site_symmetry_multiplicity
 _atom_site_fract_x
 _atom_site_fract_y
 _atom_site_fract_z
 _atom_site_occupancy
  Ce  Ce0  1  0.259467  0.259467  0.221601  1
  Ce  Ce1  1  0.740458  0.740458  0.778626  1
  Ce  Ce2  1  0.407015  0.407015  0.778957  1
  Ce  Ce3  1  0.593123  0.593123  0.220632  1
  Mn  Mn4  1  0.113867  0.113867  0.658402  1
  Al  Al5  1  0.999586  0.999586  0.001241  1
  Fe  Fe6  1  0.886454  0.886454  0.340636  1
  B  B7  1  0.168390  0.831371  0.499984  1
  B  B8  1  0.831371  0.500255  0.499984  1
  B  B9  1  0.500255  0.168390  0.499984  1
  B  B10  1  0.168390  0.500255  0.499984  1
  B  B11  1  0.500255  0.831371  0.499984  1
  B  B12  1  0.831371  0.168390  0.499984  1
