# generated using pymatgen
data_Dy20IrRh10Au
_symmetry_space_group_name_H-M   'P 1'
_cell_length_a   10.97929223
_cell_length_b   10.97929220
_cell_length_c   6.34104219
_cell_angle_alpha   89.97649807
_cell_angle_beta   89.97649682
_cell_angle_gamma   89.64413538
_symmetry_Int_Tables_number   1
_chemical_formula_structural   Dy20IrRh10Au
_chemical_formula_sum   'Dy20 Ir1 Rh10 Au1'
_cell_volume   764.36515637
_cell_formula_units_Z   1
loop_
 _symmetry_equiv_pos_site_id
 _symmetry_equiv_pos_as_xyz
  1  'x, y, z'
loop_
 _atom_site_type_symbol
 _atom_site_label
 _atom_site_symmetry_multiplicity
 _atom_site_fract_x
 _atom_site_fract_y
 _atom_site_fract_z
 _atom_site_occupancy
  Dy  Dy0  1  0.288616  0.087442  0.376554  1
  Dy  Dy1  1  0.291807  0.909707  0.877964  1
  Dy  Dy2  1  0.704462  0.085038  0.866288  1
  Dy  Dy3  1  0.705548  0.904453  0.380764  1
  Dy  Dy4  1  0.588977  0.790090  0.880132  1
  Dy  Dy5  1  0.580517  0.209991  0.378179  1
  Dy  Dy6  1  0.408614  0.790670  0.378722  1
  Dy  Dy7  1  0.408603  0.208209  0.879045  1
  Dy  Dy8  1  0.209910  0.411023  0.619868  1
  Dy  Dy9  1  0.209330  0.591386  0.121278  1
  Dy  Dy10  1  0.790009  0.419483  0.121821  1
  Dy  Dy11  1  0.791791  0.591397  0.620955  1
  Dy  Dy12  1  0.912558  0.711384  0.123446  1
  Dy  Dy13  1  0.914962  0.295538  0.633712  1
  Dy  Dy14  1  0.090293  0.708193  0.622036  1
  Dy  Dy15  1  0.095547  0.294452  0.119236  1
  Dy  Dy16  1  0.002728  0.995346  0.500886  1
  Dy  Dy17  1  0.004654  0.997272  0.999114  1
  Dy  Dy18  1  0.498664  0.498696  0.998643  1
  Dy  Dy19  1  0.501304  0.501336  0.501357  1
  Ir  Ir20  1  0.156091  0.843909  0.250000  1
  Rh  Rh21  1  0.845617  0.847571  0.749260  1
  Rh  Rh22  1  0.152429  0.154383  0.750740  1
  Rh  Rh23  1  0.655680  0.344320  0.750000  1
  Rh  Rh24  1  0.654346  0.652489  0.248230  1
  Rh  Rh25  1  0.347511  0.345654  0.251770  1
  Rh  Rh26  1  0.346376  0.653624  0.750000  1
  Rh  Rh27  1  0.500569  0.999825  0.125771  1
  Rh  Rh28  1  0.499695  0.000496  0.622511  1
  Rh  Rh29  1  0.999504  0.500305  0.877489  1
  Rh  Rh30  1  0.000175  0.499431  0.374229  1
  Au  Au31  1  0.843114  0.156886  0.250000  1
