# generated using pymatgen
data_Dy5ScTcTe2
_symmetry_space_group_name_H-M   'P 1'
_cell_length_a   8.18893870
_cell_length_b   8.30581657
_cell_length_c   4.04752000
_cell_angle_alpha   90.00000000
_cell_angle_beta   90.00000000
_cell_angle_gamma   120.47327350
_symmetry_Int_Tables_number   1
_chemical_formula_structural   Dy5ScTcTe2
_chemical_formula_sum   'Dy5 Sc1 Tc1 Te2'
_cell_volume   237.26769700
_cell_formula_units_Z   1
loop_
 _symmetry_equiv_pos_site_id
 _symmetry_equiv_pos_as_xyz
  1  'x, y, z'
loop_
 _atom_site_type_symbol
 _atom_site_label
 _atom_site_symmetry_multiplicity
 _atom_site_fract_x
 _atom_site_fract_y
 _atom_site_fract_z
 _atom_site_occupancy
  Dy  Dy0  1  0.000000  0.410530  0.500000  1
  Dy  Dy1  1  0.614073  0.612689  0.500000  1
  Dy  Dy2  1  0.385927  0.998616  0.500000  1
  Dy  Dy3  1  0.231932  0.236687  0.000000  1
  Dy  Dy4  1  0.768068  0.004754  0.000000  1
  Sc  Sc5  1  0.000000  0.761237  0.000000  1
  Tc  Tc6  1  0.000000  0.968204  0.500000  1
  Te  Te7  1  0.330206  0.668745  0.000000  1
  Te  Te8  1  0.669794  0.338537  0.000000  1
