# generated using pymatgen
data_TbErMnIr3
_symmetry_space_group_name_H-M   'P 1'
_cell_length_a   5.18906083
_cell_length_b   5.18906183
_cell_length_c   5.18906310
_cell_angle_alpha   63.84625274
_cell_angle_beta   63.84624833
_cell_angle_gamma   63.84625813
_symmetry_Int_Tables_number   1
_chemical_formula_structural   TbErMnIr3
_chemical_formula_sum   'Tb1 Er1 Mn1 Ir3'
_cell_volume   107.17846609
_cell_formula_units_Z   1
loop_
 _symmetry_equiv_pos_site_id
 _symmetry_equiv_pos_as_xyz
  1  'x, y, z'
loop_
 _atom_site_type_symbol
 _atom_site_label
 _atom_site_symmetry_multiplicity
 _atom_site_fract_x
 _atom_site_fract_y
 _atom_site_fract_z
 _atom_site_occupancy
  Tb  Tb0  1  0.251109  0.251109  0.251109  1
  Er  Er1  1  0.998394  0.998394  0.998394  1
  Mn  Mn2  1  0.625061  0.625061  0.625061  1
  Ir  Ir3  1  0.625342  0.625342  0.124751  1
  Ir  Ir4  1  0.625342  0.124751  0.625342  1
  Ir  Ir5  1  0.124751  0.625342  0.625342  1
