# generated using pymatgen
data_Cr20Tc2NiC6
_symmetry_space_group_name_H-M   'P 1'
_cell_length_a   7.50323824
_cell_length_b   7.50323889
_cell_length_c   7.50323900
_cell_angle_alpha   60.00000395
_cell_angle_beta   60.00000107
_cell_angle_gamma   59.99999850
_symmetry_Int_Tables_number   1
_chemical_formula_structural   Cr20Tc2NiC6
_chemical_formula_sum   'Cr20 Tc2 Ni1 C6'
_cell_volume   298.69730520
_cell_formula_units_Z   1
loop_
 _symmetry_equiv_pos_site_id
 _symmetry_equiv_pos_as_xyz
  1  'x, y, z'
loop_
 _atom_site_type_symbol
 _atom_site_label
 _atom_site_symmetry_multiplicity
 _atom_site_fract_x
 _atom_site_fract_y
 _atom_site_fract_z
 _atom_site_occupancy
  Cr  Cr0  1  0.617283  0.617283  0.148149  1
  Cr  Cr1  1  0.617283  0.148149  0.617283  1
  Cr  Cr2  1  0.148149  0.617283  0.617283  1
  Cr  Cr3  1  0.617283  0.617283  0.617283  1
  Cr  Cr4  1  0.382717  0.382717  0.851851  1
  Cr  Cr5  1  0.382717  0.851851  0.382717  1
  Cr  Cr6  1  0.851851  0.382717  0.382717  1
  Cr  Cr7  1  0.382717  0.382717  0.382717  1
  Cr  Cr8  1  0.000000  0.000000  0.332911  1
  Cr  Cr9  1  0.667089  0.000000  0.332911  1
  Cr  Cr10  1  0.000000  0.667089  0.332911  1
  Cr  Cr11  1  0.667089  0.332911  0.000000  1
  Cr  Cr12  1  0.000000  0.332911  0.000000  1
  Cr  Cr13  1  0.000000  0.332911  0.667089  1
  Cr  Cr14  1  0.332911  0.667089  0.000000  1
  Cr  Cr15  1  0.332911  0.000000  0.667089  1
  Cr  Cr16  1  0.332911  0.000000  0.000000  1
  Cr  Cr17  1  0.000000  0.000000  0.667089  1
  Cr  Cr18  1  0.000000  0.667089  0.000000  1
  Cr  Cr19  1  0.667089  0.000000  0.000000  1
  Tc  Tc20  1  0.750000  0.750000  0.750000  1
  Tc  Tc21  1  0.250000  0.250000  0.250000  1
  Ni  Ni22  1  0.000000  0.000000  0.000000  1
  C  C23  1  0.722918  0.722918  0.277082  1
  C  C24  1  0.277082  0.722918  0.277082  1
  C  C25  1  0.722918  0.277082  0.277082  1
  C  C26  1  0.277082  0.277082  0.722918  1
  C  C27  1  0.722918  0.277082  0.722918  1
  C  C28  1  0.277082  0.722918  0.722918  1
