# generated using pymatgen
data_Tb2Pr4Al24Ru5Pt3
_symmetry_space_group_name_H-M   'P 1'
_cell_length_a   8.91124906
_cell_length_b   8.90460687
_cell_length_c   9.61603518
_cell_angle_alpha   90.18742281
_cell_angle_beta   90.04575688
_cell_angle_gamma   119.78529856
_symmetry_Int_Tables_number   1
_chemical_formula_structural   Tb2Pr4Al24Ru5Pt3
_chemical_formula_sum   'Tb2 Pr4 Al24 Ru5 Pt3'
_cell_volume   662.23406317
_cell_formula_units_Z   1
loop_
 _symmetry_equiv_pos_site_id
 _symmetry_equiv_pos_as_xyz
  1  'x, y, z'
loop_
 _atom_site_type_symbol
 _atom_site_label
 _atom_site_symmetry_multiplicity
 _atom_site_fract_x
 _atom_site_fract_y
 _atom_site_fract_z
 _atom_site_occupancy
  Tb  Tb0  1  0.190218  0.806761  0.750303  1
  Tb  Tb1  1  0.188586  0.384476  0.751622  1
  Pr  Pr2  1  0.380026  0.188435  0.249968  1
  Pr  Pr3  1  0.810917  0.190867  0.250343  1
  Pr  Pr4  1  0.812195  0.618796  0.248433  1
  Pr  Pr5  1  0.619845  0.811336  0.750127  1
  Al  Al6  1  0.435879  0.871503  0.245901  1
  Al  Al7  1  0.126302  0.562512  0.251289  1
  Al  Al8  1  0.434360  0.564458  0.251087  1
  Al  Al9  1  0.561341  0.126204  0.753148  1
  Al  Al10  1  0.878441  0.439932  0.748981  1
  Al  Al11  1  0.563254  0.434923  0.749007  1
  Al  Al12  1  0.159350  0.832580  0.426834  1
  Al  Al13  1  0.158730  0.325958  0.428084  1
  Al  Al14  1  0.676175  0.837825  0.424529  1
  Al  Al15  1  0.843171  0.168416  0.578534  1
  Al  Al16  1  0.843417  0.675627  0.577057  1
  Al  Al17  1  0.321386  0.161130  0.579237  1
  Al  Al18  1  0.838675  0.165232  0.921897  1
  Al  Al19  1  0.843425  0.675481  0.921992  1
  Al  Al20  1  0.323118  0.157472  0.921875  1
  Al  Al21  1  0.163231  0.835421  0.072940  1
  Al  Al22  1  0.158625  0.325735  0.072891  1
  Al  Al23  1  0.674388  0.841260  0.074333  1
  Al  Al24  1  0.326298  0.663086  0.526887  1
  Al  Al25  1  0.672457  0.336374  0.480195  1
  Al  Al26  1  0.668586  0.329754  0.016750  1
  Al  Al27  1  0.329456  0.669094  0.976581  1
  Al  Al28  1  0.002914  0.999264  0.249821  1
  Al  Al29  1  0.001854  0.003123  0.750163  1
  Ru  Ru30  1  0.999979  0.999906  0.500819  1
  Ru  Ru31  1  0.999904  0.999912  0.999161  1
  Ru  Ru32  1  0.001157  0.500749  0.502219  1
  Ru  Ru33  1  0.497947  0.998635  0.998063  1
  Ru  Ru34  1  0.000899  0.500346  0.997756  1
  Pt  Pt35  1  0.497872  0.998770  0.501354  1
  Pt  Pt36  1  0.497926  0.499368  0.501487  1
  Pt  Pt37  1  0.497696  0.499280  0.998331  1
