# generated using pymatgen
data_La2Dy3YOsI10
_symmetry_space_group_name_H-M   'P 1'
_cell_length_a   7.89327372
_cell_length_b   9.95740732
_cell_length_c   9.88323826
_cell_angle_alpha   106.86876058
_cell_angle_beta   95.63756420
_cell_angle_gamma   105.81464375
_symmetry_Int_Tables_number   1
_chemical_formula_structural   La2Dy3YOsI10
_chemical_formula_sum   'La2 Dy3 Y1 Os1 I10'
_cell_volume   701.83905911
_cell_formula_units_Z   1
loop_
 _symmetry_equiv_pos_site_id
 _symmetry_equiv_pos_as_xyz
  1  'x, y, z'
loop_
 _atom_site_type_symbol
 _atom_site_label
 _atom_site_symmetry_multiplicity
 _atom_site_fract_x
 _atom_site_fract_y
 _atom_site_fract_z
 _atom_site_occupancy
  La  La0  1  0.385006  0.956893  0.730194  1
  La  La1  1  0.614825  0.042391  0.269571  1
  Dy  Dy2  1  0.526784  0.710653  0.411332  1
  Dy  Dy3  1  0.852006  0.129028  0.667033  1
  Dy  Dy4  1  0.147901  0.870987  0.332981  1
  Y  Y5  1  0.473162  0.291045  0.588892  1
  Os  Os6  1  0.499835  0.999626  0.499878  1
  I  I7  1  0.418055  0.622033  0.673544  1
  I  I8  1  0.582045  0.377603  0.326152  1
  I  I9  1  0.279582  0.264679  0.842307  1
  I  I10  1  0.720507  0.734765  0.157826  1
  I  I11  1  0.852492  0.448990  0.768589  1
  I  I12  1  0.148544  0.551181  0.231966  1
  I  I13  1  0.052636  0.179687  0.413079  1
  I  I14  1  0.229339  0.910489  0.046025  1
  I  I15  1  0.770530  0.089739  0.954020  1
  I  I16  1  0.946749  0.820208  0.586612  1
