# generated using pymatgen
data_Ho12Zn2Ru5
_symmetry_space_group_name_H-M   'P 1'
_cell_length_a   11.35435300
_cell_length_b   8.36507918
_cell_length_c   11.21859800
_cell_angle_alpha   56.08092710
_cell_angle_beta   90.00000000
_cell_angle_gamma   90.00000000
_symmetry_Int_Tables_number   1
_chemical_formula_structural   Ho12Zn2Ru5
_chemical_formula_sum   'Ho24 Zn4 Ru10'
_cell_volume   884.21600727
_cell_formula_units_Z   2
loop_
 _symmetry_equiv_pos_site_id
 _symmetry_equiv_pos_as_xyz
  1  'x, y, z'
loop_
 _atom_site_type_symbol
 _atom_site_label
 _atom_site_symmetry_multiplicity
 _atom_site_fract_x
 _atom_site_fract_y
 _atom_site_fract_z
 _atom_site_occupancy
  Ho  Ho0  1  0.704064  0.247754  0.530939  1
  Ho  Ho1  1  0.204064  0.752246  0.969061  1
  Ho  Ho2  1  0.847286  0.489873  0.663303  1
  Ho  Ho3  1  0.347286  0.510127  0.836697  1
  Ho  Ho4  1  0.152714  0.510127  0.336697  1
  Ho  Ho5  1  0.652714  0.489873  0.163303  1
  Ho  Ho6  1  0.005214  0.842634  0.356835  1
  Ho  Ho7  1  0.505214  0.157366  0.143165  1
  Ho  Ho8  1  0.994786  0.157366  0.643165  1
  Ho  Ho9  1  0.494786  0.842634  0.856835  1
  Ho  Ho10  1  0.795936  0.247754  0.030939  1
  Ho  Ho11  1  0.295936  0.752246  0.469061  1
  Ho  Ho12  1  0.932535  0.776650  0.089197  1
  Ho  Ho13  1  0.432535  0.223350  0.410803  1
  Ho  Ho14  1  0.067465  0.223350  0.910803  1
  Ho  Ho15  1  0.567465  0.776650  0.589197  1
  Ho  Ho16  1  0.303175  0.250663  0.660381  1
  Ho  Ho17  1  0.803175  0.749337  0.839619  1
  Ho  Ho18  1  0.696825  0.749337  0.339619  1
  Ho  Ho19  1  0.196825  0.250663  0.160381  1
  Ho  Ho20  1  0.921833  0.288848  0.286927  1
  Ho  Ho21  1  0.421833  0.711152  0.213073  1
  Ho  Ho22  1  0.078167  0.711152  0.713073  1
  Ho  Ho23  1  0.578167  0.288848  0.786927  1
  Zn  Zn24  1  0.658321  0.914802  0.036341  1
  Zn  Zn25  1  0.158321  0.085198  0.463659  1
  Zn  Zn26  1  0.341679  0.085198  0.963659  1
  Zn  Zn27  1  0.841679  0.914802  0.536341  1
  Ru  Ru28  1  0.500000  0.500000  0.500000  1
  Ru  Ru29  1  0.000000  0.500000  0.000000  1
  Ru  Ru30  1  0.396773  0.485417  0.106031  1
  Ru  Ru31  1  0.896773  0.514583  0.393969  1
  Ru  Ru32  1  0.603227  0.514583  0.893969  1
  Ru  Ru33  1  0.103227  0.485417  0.606031  1
  Ru  Ru34  1  0.817056  0.098087  0.845377  1
  Ru  Ru35  1  0.317056  0.901913  0.654623  1
  Ru  Ru36  1  0.182944  0.901913  0.154623  1
  Ru  Ru37  1  0.682944  0.098087  0.345377  1
