# generated using pymatgen
data_ZrInCo4
_symmetry_space_group_name_H-M   'P 1'
_cell_length_a   4.87958649
_cell_length_b   4.87958573
_cell_length_c   4.87958700
_cell_angle_alpha   59.99999814
_cell_angle_beta   60.00000331
_cell_angle_gamma   60.00000095
_symmetry_Int_Tables_number   1
_chemical_formula_structural   ZrInCo4
_chemical_formula_sum   'Zr1 In1 Co4'
_cell_volume   82.15500905
_cell_formula_units_Z   1
loop_
 _symmetry_equiv_pos_site_id
 _symmetry_equiv_pos_as_xyz
  1  'x, y, z'
loop_
 _atom_site_type_symbol
 _atom_site_label
 _atom_site_symmetry_multiplicity
 _atom_site_fract_x
 _atom_site_fract_y
 _atom_site_fract_z
 _atom_site_occupancy
  Zr  Zr0  1  0.000000  0.000000  0.000000  1
  In  In1  1  0.250000  0.250000  0.250000  1
  Co  Co2  1  0.624754  0.624754  0.125737  1
  Co  Co3  1  0.624754  0.125737  0.624754  1
  Co  Co4  1  0.125737  0.624754  0.624754  1
  Co  Co5  1  0.624754  0.624754  0.624754  1
