# generated using pymatgen
data_La2ZnIr6
_symmetry_space_group_name_H-M   'P 1'
_cell_length_a   13.28889869
_cell_length_b   13.28889853
_cell_length_c   13.28889765
_cell_angle_alpha   23.66240390
_cell_angle_beta   23.66240714
_cell_angle_gamma   23.66240328
_symmetry_Int_Tables_number   1
_chemical_formula_structural   La2ZnIr6
_chemical_formula_sum   'La4 Zn2 Ir12'
_cell_volume   332.01921968
_cell_formula_units_Z   2
loop_
 _symmetry_equiv_pos_site_id
 _symmetry_equiv_pos_as_xyz
  1  'x, y, z'
loop_
 _atom_site_type_symbol
 _atom_site_label
 _atom_site_symmetry_multiplicity
 _atom_site_fract_x
 _atom_site_fract_y
 _atom_site_fract_z
 _atom_site_occupancy
  La  La0  1  0.949588  0.949588  0.949588  1
  La  La1  1  0.050412  0.050412  0.050412  1
  La  La2  1  0.853199  0.853199  0.853199  1
  La  La3  1  0.146801  0.146801  0.146801  1
  Zn  Zn4  1  0.720802  0.720802  0.720802  1
  Zn  Zn5  1  0.279198  0.279198  0.279198  1
  Ir  Ir6  1  0.500000  0.500000  0.500000  1
  Ir  Ir7  1  0.611874  0.611874  0.611874  1
  Ir  Ir8  1  0.388126  0.388126  0.388126  1
  Ir  Ir9  1  0.500000  0.500000  0.000000  1
  Ir  Ir10  1  0.000000  0.500000  0.500000  1
  Ir  Ir11  1  0.500000  0.000000  0.500000  1
  Ir  Ir12  1  0.388423  0.893969  0.388423  1
  Ir  Ir13  1  0.388423  0.388423  0.893969  1
  Ir  Ir14  1  0.893969  0.388423  0.388423  1
  Ir  Ir15  1  0.611577  0.106031  0.611577  1
  Ir  Ir16  1  0.611577  0.611577  0.106031  1
  Ir  Ir17  1  0.106031  0.611577  0.611577  1
