# generated using pymatgen
data_Zr4FeBi2
_symmetry_space_group_name_H-M   'P 1'
_cell_length_a   8.31094241
_cell_length_b   8.31094266
_cell_length_c   8.31094258
_cell_angle_alpha   95.95904308
_cell_angle_beta   95.95904390
_cell_angle_gamma   142.40706792
_symmetry_Int_Tables_number   1
_chemical_formula_structural   Zr4FeBi2
_chemical_formula_sum   'Zr8 Fe2 Bi4'
_cell_volume   331.52223868
_cell_formula_units_Z   2
loop_
 _symmetry_equiv_pos_site_id
 _symmetry_equiv_pos_as_xyz
  1  'x, y, z'
loop_
 _atom_site_type_symbol
 _atom_site_label
 _atom_site_symmetry_multiplicity
 _atom_site_fract_x
 _atom_site_fract_y
 _atom_site_fract_z
 _atom_site_occupancy
  Zr  Zr0  1  0.580749  0.694229  0.274978  1
  Zr  Zr1  1  0.919251  0.194229  0.113481  1
  Zr  Zr2  1  0.305771  0.580749  0.886519  1
  Zr  Zr3  1  0.805771  0.919251  0.725022  1
  Zr  Zr4  1  0.694229  0.419251  0.113481  1
  Zr  Zr5  1  0.080749  0.805771  0.886519  1
  Zr  Zr6  1  0.419251  0.305771  0.725022  1
  Zr  Zr7  1  0.194229  0.080749  0.274978  1
  Fe  Fe8  1  0.750000  0.750000  0.000000  1
  Fe  Fe9  1  0.250000  0.250000  0.000000  1
  Bi  Bi10  1  0.360435  0.860435  0.220870  1
  Bi  Bi11  1  0.139565  0.360435  0.500000  1
  Bi  Bi12  1  0.639565  0.139565  0.779130  1
  Bi  Bi13  1  0.860435  0.639565  0.500000  1
