# generated using pymatgen
data_Pu2BiO2
_symmetry_space_group_name_H-M   'P 1'
_cell_length_a   7.15717443
_cell_length_b   7.15717483
_cell_length_c   7.15717577
_cell_angle_alpha   147.90661165
_cell_angle_beta   147.90661498
_cell_angle_gamma   46.02323766
_symmetry_Int_Tables_number   1
_chemical_formula_structural   Pu2BiO2
_chemical_formula_sum   'Pu2 Bi1 O2'
_cell_volume   103.13701290
_cell_formula_units_Z   1
loop_
 _symmetry_equiv_pos_site_id
 _symmetry_equiv_pos_as_xyz
  1  'x, y, z'
loop_
 _atom_site_type_symbol
 _atom_site_label
 _atom_site_symmetry_multiplicity
 _atom_site_fract_x
 _atom_site_fract_y
 _atom_site_fract_z
 _atom_site_occupancy
  Pu  Pu0  1  0.662546  0.662546  0.000000  1
  Pu  Pu1  1  0.337454  0.337454  0.000000  1
  Bi  Bi2  1  0.000000  0.000000  0.000000  1
  O  O3  1  0.750000  0.250000  0.500000  1
  O  O4  1  0.250000  0.750000  0.500000  1
