# generated using pymatgen
data_Y3Tm2(GaSb)2
_symmetry_space_group_name_H-M   'P 1'
_cell_length_a   8.62239312
_cell_length_b   8.62240391
_cell_length_c   7.90526900
_cell_angle_alpha   90.00264886
_cell_angle_beta   89.99707341
_cell_angle_gamma   125.45340995
_symmetry_Int_Tables_number   1
_chemical_formula_structural   Y3Tm2(GaSb)2
_chemical_formula_sum   'Y6 Tm4 Ga4 Sb4'
_cell_volume   478.75194202
_cell_formula_units_Z   2
loop_
 _symmetry_equiv_pos_site_id
 _symmetry_equiv_pos_as_xyz
  1  'x, y, z'
loop_
 _atom_site_type_symbol
 _atom_site_label
 _atom_site_symmetry_multiplicity
 _atom_site_fract_x
 _atom_site_fract_y
 _atom_site_fract_z
 _atom_site_occupancy
  Y  Y0  1  0.538995  0.799704  0.167899  1
  Y  Y1  1  0.299702  0.038991  0.332103  1
  Y  Y2  1  0.200428  0.460896  0.832205  1
  Y  Y3  1  0.960893  0.700425  0.667796  1
  Y  Y4  1  0.700667  0.961360  0.667336  1
  Y  Y5  1  0.461362  0.200668  0.832667  1
  Tm  Tm6  1  0.797747  0.539401  0.166996  1
  Tm  Tm7  1  0.039400  0.297749  0.333005  1
  Tm  Tm8  1  0.499680  0.499605  0.498728  1
  Tm  Tm9  1  0.999604  0.999678  0.001273  1
  Ga  Ga10  1  0.626888  0.625911  0.875392  1
  Ga  Ga11  1  0.125909  0.126884  0.624602  1
  Ga  Ga12  1  0.874338  0.874233  0.372913  1
  Ga  Ga13  1  0.374240  0.374346  0.127084  1
  Sb  Sb14  1  0.293895  0.702554  0.499012  1
  Sb  Sb15  1  0.202556  0.793896  0.000989  1
  Sb  Sb16  1  0.707038  0.296659  0.497377  1
  Sb  Sb17  1  0.796659  0.207038  0.002623  1
