# generated using pymatgen
data_K4SrAg6
_symmetry_space_group_name_H-M   'P 1'
_cell_length_a   16.68036220
_cell_length_b   16.68036243
_cell_length_c   4.76697000
_cell_angle_alpha   90.00000000
_cell_angle_beta   90.00000000
_cell_angle_gamma   163.13317068
_symmetry_Int_Tables_number   1
_chemical_formula_structural   K4SrAg6
_chemical_formula_sum   'K4 Sr1 Ag6'
_cell_volume   384.83385677
_cell_formula_units_Z   1
loop_
 _symmetry_equiv_pos_site_id
 _symmetry_equiv_pos_as_xyz
  1  'x, y, z'
loop_
 _atom_site_type_symbol
 _atom_site_label
 _atom_site_symmetry_multiplicity
 _atom_site_fract_x
 _atom_site_fract_y
 _atom_site_fract_z
 _atom_site_occupancy
  K  K0  1  0.617675  0.382323  0.000000  1
  K  K1  1  0.382323  0.617675  0.000000  1
  K  K2  1  0.804358  0.195640  0.500001  1
  K  K3  1  0.195640  0.804358  0.500001  1
  Sr  Sr4  1  0.000000  0.000000  0.000000  1
  Ag  Ag5  1  0.730778  0.269220  0.000000  1
  Ag  Ag6  1  0.269220  0.730778  0.000000  1
  Ag  Ag7  1  0.922830  0.077169  0.500001  1
  Ag  Ag8  1  0.541977  0.458021  0.500001  1
  Ag  Ag9  1  0.458021  0.541977  0.500001  1
  Ag  Ag10  1  0.077169  0.922830  0.500001  1
