# generated using pymatgen
data_PrTh3(AuBr6)4
_symmetry_space_group_name_H-M   'P 1'
_cell_length_a   8.58786726
_cell_length_b   10.73130658
_cell_length_c   14.99017790
_cell_angle_alpha   102.84439621
_cell_angle_beta   96.75530560
_cell_angle_gamma   112.96490639
_symmetry_Int_Tables_number   1
_chemical_formula_structural   PrTh3(AuBr6)4
_chemical_formula_sum   'Pr1 Th3 Au4 Br24'
_cell_volume   1207.59750667
_cell_formula_units_Z   1
loop_
 _symmetry_equiv_pos_site_id
 _symmetry_equiv_pos_as_xyz
  1  'x, y, z'
loop_
 _atom_site_type_symbol
 _atom_site_label
 _atom_site_symmetry_multiplicity
 _atom_site_fract_x
 _atom_site_fract_y
 _atom_site_fract_z
 _atom_site_occupancy
  Pr  Pr0  1  0.020565  0.689931  0.129923  1
  Th  Th1  1  0.568398  0.900297  0.621658  1
  Th  Th2  1  0.428036  0.094994  0.379324  1
  Th  Th3  1  0.982222  0.315444  0.870686  1
  Au  Au4  1  0.293923  0.627163  0.763105  1
  Au  Au5  1  0.705794  0.373063  0.237607  1
  Au  Au6  1  0.501383  0.501522  0.501112  1
  Au  Au7  1  0.998194  0.998006  0.997909  1
  Br  Br8  1  0.615045  0.732830  0.750297  1
  Br  Br9  1  0.390759  0.269665  0.250699  1
  Br  Br10  1  0.285099  0.850211  0.729928  1
  Br  Br11  1  0.714470  0.152386  0.269652  1
  Br  Br12  1  0.972563  0.527375  0.774901  1
  Br  Br13  1  0.020517  0.470026  0.227685  1
  Br  Br14  1  0.303097  0.401805  0.793434  1
  Br  Br15  1  0.688420  0.588759  0.201535  1
  Br  Br16  1  0.701330  0.371331  0.504817  1
  Br  Br17  1  0.297804  0.628521  0.494568  1
  Br  Br18  1  0.758936  0.742746  0.528067  1
  Br  Br19  1  0.244569  0.260611  0.473978  1
  Br  Br20  1  0.788695  0.106925  0.970104  1
  Br  Br21  1  0.211666  0.893905  0.025002  1
  Br  Br22  1  0.773717  0.796058  0.041213  1
  Br  Br23  1  0.223843  0.205748  0.958813  1
  Br  Br24  1  0.626977  0.182891  0.740680  1
  Br  Br25  1  0.379521  0.818974  0.260837  1
  Br  Br26  1  0.941889  0.055766  0.722515  1
  Br  Br27  1  0.061155  0.950605  0.281583  1
  Br  Br28  1  0.710892  0.040489  0.482188  1
  Br  Br29  1  0.289959  0.962113  0.521896  1
  Br  Br30  1  0.768740  0.430109  0.969569  1
  Br  Br31  1  0.231823  0.559731  0.024712  1
