# generated using pymatgen
data_Er4LuIr3
_symmetry_space_group_name_H-M   'P 1'
_cell_length_a   10.77474700
_cell_length_b   10.77474700
_cell_length_c   6.31274100
_cell_angle_alpha   90.00000000
_cell_angle_beta   90.00000000
_cell_angle_gamma   90.00000000
_symmetry_Int_Tables_number   1
_chemical_formula_structural   Er4LuIr3
_chemical_formula_sum   'Er16 Lu4 Ir12'
_cell_volume   732.87875796
_cell_formula_units_Z   4
loop_
 _symmetry_equiv_pos_site_id
 _symmetry_equiv_pos_as_xyz
  1  'x, y, z'
loop_
 _atom_site_type_symbol
 _atom_site_label
 _atom_site_symmetry_multiplicity
 _atom_site_fract_x
 _atom_site_fract_y
 _atom_site_fract_z
 _atom_site_occupancy
  Er  Er0  1  0.291080  0.087560  0.377903  1
  Er  Er1  1  0.291080  0.912440  0.877903  1
  Er  Er2  1  0.708920  0.087560  0.877903  1
  Er  Er3  1  0.708920  0.912440  0.377903  1
  Er  Er4  1  0.587560  0.791080  0.877903  1
  Er  Er5  1  0.587560  0.208920  0.377903  1
  Er  Er6  1  0.412440  0.791080  0.377903  1
  Er  Er7  1  0.412440  0.208920  0.877903  1
  Er  Er8  1  0.208920  0.412440  0.622097  1
  Er  Er9  1  0.208920  0.587560  0.122097  1
  Er  Er10  1  0.791080  0.412440  0.122097  1
  Er  Er11  1  0.791080  0.587560  0.622097  1
  Er  Er12  1  0.912440  0.708920  0.122097  1
  Er  Er13  1  0.912440  0.291080  0.622097  1
  Er  Er14  1  0.087560  0.708920  0.622097  1
  Er  Er15  1  0.087560  0.291080  0.122097  1
  Lu  Lu16  1  0.000000  0.000000  0.500000  1
  Lu  Lu17  1  0.000000  0.000000  0.000000  1
  Lu  Lu18  1  0.500000  0.500000  0.000000  1
  Lu  Lu19  1  0.500000  0.500000  0.500000  1
  Ir  Ir20  1  0.847287  0.152713  0.250000  1
  Ir  Ir21  1  0.847287  0.847287  0.750000  1
  Ir  Ir22  1  0.152713  0.152713  0.750000  1
  Ir  Ir23  1  0.152713  0.847287  0.250000  1
  Ir  Ir24  1  0.652713  0.347287  0.750000  1
  Ir  Ir25  1  0.652713  0.652713  0.250000  1
  Ir  Ir26  1  0.347287  0.347287  0.250000  1
  Ir  Ir27  1  0.347287  0.652713  0.750000  1
  Ir  Ir28  1  0.500000  0.000000  0.120558  1
  Ir  Ir29  1  0.500000  0.000000  0.620558  1
  Ir  Ir30  1  0.000000  0.500000  0.879442  1
  Ir  Ir31  1  0.000000  0.500000  0.379442  1
