# generated using pymatgen
data_Zr4Pd7Pt5
_symmetry_space_group_name_H-M   'P 1'
_cell_length_a   5.71600405
_cell_length_b   5.71467362
_cell_length_c   9.35722719
_cell_angle_alpha   89.99999849
_cell_angle_beta   89.93206953
_cell_angle_gamma   119.99229659
_symmetry_Int_Tables_number   1
_chemical_formula_structural   Zr4Pd7Pt5
_chemical_formula_sum   'Zr4 Pd7 Pt5'
_cell_volume   264.72506643
_cell_formula_units_Z   1
loop_
 _symmetry_equiv_pos_site_id
 _symmetry_equiv_pos_as_xyz
  1  'x, y, z'
loop_
 _atom_site_type_symbol
 _atom_site_label
 _atom_site_symmetry_multiplicity
 _atom_site_fract_x
 _atom_site_fract_y
 _atom_site_fract_z
 _atom_site_occupancy
  Zr  Zr0  1  0.000000  0.000000  0.500000  1
  Zr  Zr1  1  0.000000  0.000000  0.000000  1
  Zr  Zr2  1  0.333679  0.666840  0.250066  1
  Zr  Zr3  1  0.666321  0.333160  0.749934  1
  Pd  Pd4  1  0.000000  0.500000  0.000000  1
  Pd  Pd5  1  0.830585  0.169782  0.249845  1
  Pd  Pd6  1  0.830585  0.660802  0.249845  1
  Pd  Pd7  1  0.339596  0.169798  0.249668  1
  Pd  Pd8  1  0.169415  0.830218  0.750155  1
  Pd  Pd9  1  0.169415  0.339198  0.750155  1
  Pd  Pd10  1  0.660404  0.830202  0.750332  1
  Pt  Pt11  1  0.500000  0.500000  0.500000  1
  Pt  Pt12  1  0.500000  0.000000  0.500000  1
  Pt  Pt13  1  0.000000  0.500000  0.500000  1
  Pt  Pt14  1  0.500000  0.500000  0.000000  1
  Pt  Pt15  1  0.500000  0.000000  0.000000  1
