# generated using pymatgen
data_La9Bi16Cl3
_symmetry_space_group_name_H-M   'P 1'
_cell_length_a   21.78474400
_cell_length_b   21.78420597
_cell_length_c   4.43883200
_cell_angle_alpha   90.00000000
_cell_angle_beta   90.00000000
_cell_angle_gamma   120.00156109
_symmetry_Int_Tables_number   1
_chemical_formula_structural   La9Bi16Cl3
_chemical_formula_sum   'La18 Bi32 Cl6'
_cell_volume   1824.25986512
_cell_formula_units_Z   2
loop_
 _symmetry_equiv_pos_site_id
 _symmetry_equiv_pos_as_xyz
  1  'x, y, z'
loop_
 _atom_site_type_symbol
 _atom_site_label
 _atom_site_symmetry_multiplicity
 _atom_site_fract_x
 _atom_site_fract_y
 _atom_site_fract_z
 _atom_site_occupancy
  La  La0  1  0.691583  0.232483  0.250000  1
  La  La1  1  0.141602  0.234008  0.250000  1
  La  La2  1  0.540898  0.308426  0.250000  1
  La  La3  1  0.392770  0.400569  0.250000  1
  La  La4  1  0.767524  0.459108  0.250000  1
  La  La5  1  0.007813  0.607243  0.250000  1
  La  La6  1  0.092367  0.858393  0.250000  1
  La  La7  1  0.766033  0.907597  0.250000  1
  La  La8  1  0.599438  0.992210  0.250000  1
  La  La9  1  0.400562  0.007791  0.750001  1
  La  La10  1  0.233967  0.092402  0.750001  1
  La  La11  1  0.907632  0.141606  0.750001  1
  La  La12  1  0.992187  0.392757  0.750001  1
  La  La13  1  0.232476  0.540892  0.750001  1
  La  La14  1  0.607229  0.599431  0.750001  1
  La  La15  1  0.459102  0.691574  0.750001  1
  La  La16  1  0.858399  0.765992  0.750001  1
  La  La17  1  0.308416  0.767517  0.750001  1
  Bi  Bi18  1  0.775135  0.125670  0.250000  1
  Bi  Bi19  1  0.508829  0.136317  0.250000  1
  Bi  Bi20  1  0.350539  0.224871  0.250000  1
  Bi  Bi21  1  0.000289  0.277788  0.250000  1
  Bi  Bi22  1  0.863687  0.372522  0.250000  1
  Bi  Bi23  1  0.248285  0.424477  0.250000  1
  Bi  Bi24  1  0.627484  0.491171  0.250000  1
  Bi  Bi25  1  0.102916  0.509175  0.250000  1
  Bi  Bi26  1  0.490819  0.593738  0.250000  1
  Bi  Bi27  1  0.874329  0.649457  0.250000  1
  Bi  Bi28  1  0.333333  0.666663  0.250000  1
  Bi  Bi29  1  0.722213  0.722499  0.250000  1
  Bi  Bi30  1  0.176198  0.751715  0.250000  1
  Bi  Bi31  1  0.575525  0.823805  0.250000  1
  Bi  Bi32  1  0.406264  0.897077  0.250000  1
  Bi  Bi33  1  0.277500  0.999717  0.250000  1
  Bi  Bi34  1  0.722499  0.000283  0.750001  1
  Bi  Bi35  1  0.593736  0.102923  0.750001  1
  Bi  Bi36  1  0.424475  0.176195  0.750001  1
  Bi  Bi37  1  0.823802  0.248285  0.750001  1
  Bi  Bi38  1  0.277788  0.277501  0.750001  1
  Bi  Bi39  1  0.666667  0.333337  0.750001  1
  Bi  Bi40  1  0.125671  0.350544  0.750001  1
  Bi  Bi41  1  0.509181  0.406262  0.750001  1
  Bi  Bi42  1  0.897084  0.490825  0.750001  1
  Bi  Bi43  1  0.372516  0.508829  0.750001  1
  Bi  Bi44  1  0.751716  0.575523  0.750001  1
  Bi  Bi45  1  0.136313  0.627479  0.750001  1
  Bi  Bi46  1  0.999711  0.722212  0.750001  1
  Bi  Bi47  1  0.649461  0.775129  0.750001  1
  Bi  Bi48  1  0.491171  0.863683  0.750001  1
  Bi  Bi49  1  0.224865  0.874330  0.750001  1
  Cl  Cl50  1  0.900891  0.050249  0.250000  1
  Cl  Cl51  1  0.149375  0.099113  0.250000  1
  Cl  Cl52  1  0.949767  0.850641  0.250000  1
  Cl  Cl53  1  0.050233  0.149359  0.750001  1
  Cl  Cl54  1  0.850626  0.900887  0.750001  1
  Cl  Cl55  1  0.099109  0.949751  0.750001  1
