# generated using pymatgen
data_Zr4CuSi4Rh3
_symmetry_space_group_name_H-M   'P 1'
_cell_length_a   3.89390400
_cell_length_b   6.62541211
_cell_length_c   7.53464509
_cell_angle_alpha   90.44809668
_cell_angle_beta   90.00000000
_cell_angle_gamma   90.00000000
_symmetry_Int_Tables_number   1
_chemical_formula_structural   Zr4CuSi4Rh3
_chemical_formula_sum   'Zr4 Cu1 Si4 Rh3'
_cell_volume   194.37824468
_cell_formula_units_Z   1
loop_
 _symmetry_equiv_pos_site_id
 _symmetry_equiv_pos_as_xyz
  1  'x, y, z'
loop_
 _atom_site_type_symbol
 _atom_site_label
 _atom_site_symmetry_multiplicity
 _atom_site_fract_x
 _atom_site_fract_y
 _atom_site_fract_z
 _atom_site_occupancy
  Zr  Zr0  1  0.250000  0.520568  0.679028  1
  Zr  Zr1  1  0.750000  0.475117  0.318150  1
  Zr  Zr2  1  0.250000  0.020227  0.817300  1
  Zr  Zr3  1  0.750000  0.979294  0.184136  1
  Cu  Cu4  1  0.250000  0.650782  0.062976  1
  Si  Si5  1  0.250000  0.268742  0.117538  1
  Si  Si6  1  0.750000  0.728480  0.879018  1
  Si  Si7  1  0.250000  0.770200  0.384181  1
  Si  Si8  1  0.750000  0.225795  0.618258  1
  Rh  Rh9  1  0.750000  0.853960  0.563975  1
  Rh  Rh10  1  0.250000  0.146396  0.435065  1
  Rh  Rh11  1  0.750000  0.360437  0.940377  1
