# generated using pymatgen
data_CrNi8Mo12P3N4
_symmetry_space_group_name_H-M   'P 1'
_cell_length_a   7.81191011
_cell_length_b   7.81190946
_cell_length_c   7.81190909
_cell_angle_alpha   59.59220598
_cell_angle_beta   59.59221244
_cell_angle_gamma   59.59220084
_symmetry_Int_Tables_number   1
_chemical_formula_structural   CrNi8Mo12P3N4
_chemical_formula_sum   'Cr1 Ni8 Mo12 P3 N4'
_cell_volume   333.97374216
_cell_formula_units_Z   1
loop_
 _symmetry_equiv_pos_site_id
 _symmetry_equiv_pos_as_xyz
  1  'x, y, z'
loop_
 _atom_site_type_symbol
 _atom_site_label
 _atom_site_symmetry_multiplicity
 _atom_site_fract_x
 _atom_site_fract_y
 _atom_site_fract_z
 _atom_site_occupancy
  Cr  Cr0  1  0.125000  0.125000  0.125000  1
  Ni  Ni1  1  0.007615  0.335890  0.335890  1
  Ni  Ni2  1  0.915757  0.915757  0.915757  1
  Ni  Ni3  1  0.335890  0.335890  0.007615  1
  Ni  Ni4  1  0.914110  0.914110  0.242385  1
  Ni  Ni5  1  0.242385  0.914110  0.914110  1
  Ni  Ni6  1  0.335890  0.007615  0.335890  1
  Ni  Ni7  1  0.914110  0.242385  0.914110  1
  Ni  Ni8  1  0.334243  0.334243  0.334243  1
  Mo  Mo9  1  0.307364  0.692281  0.692281  1
  Mo  Mo10  1  0.557719  0.557719  0.942636  1
  Mo  Mo11  1  0.300684  0.703221  0.300684  1
  Mo  Mo12  1  0.300684  0.300684  0.703221  1
  Mo  Mo13  1  0.703221  0.300684  0.300684  1
  Mo  Mo14  1  0.949316  0.949316  0.546779  1
  Mo  Mo15  1  0.949316  0.546779  0.949316  1
  Mo  Mo16  1  0.942636  0.557719  0.557719  1
  Mo  Mo17  1  0.546779  0.949316  0.949316  1
  Mo  Mo18  1  0.692281  0.692281  0.307364  1
  Mo  Mo19  1  0.692281  0.307364  0.692281  1
  Mo  Mo20  1  0.557719  0.942636  0.557719  1
  P  P21  1  0.125000  0.125000  0.625000  1
  P  P22  1  0.625000  0.125000  0.125000  1
  P  P23  1  0.125000  0.625000  0.125000  1
  N  N24  1  0.625000  0.125000  0.625000  1
  N  N25  1  0.625000  0.625000  0.125000  1
  N  N26  1  0.125000  0.625000  0.625000  1
  N  N27  1  0.625000  0.625000  0.625000  1
