# generated using pymatgen
data_Na2Mg3P12Ru5Rh14
_symmetry_space_group_name_H-M   'P 1'
_cell_length_a   12.55485564
_cell_length_b   12.54890515
_cell_length_c   3.91170300
_cell_angle_alpha   90.00000000
_cell_angle_beta   90.00000000
_cell_angle_gamma   120.14144332
_symmetry_Int_Tables_number   1
_chemical_formula_structural   Na2Mg3P12Ru5Rh14
_chemical_formula_sum   'Na2 Mg3 P12 Ru5 Rh14'
_cell_volume   532.95839706
_cell_formula_units_Z   1
loop_
 _symmetry_equiv_pos_site_id
 _symmetry_equiv_pos_as_xyz
  1  'x, y, z'
loop_
 _atom_site_type_symbol
 _atom_site_label
 _atom_site_symmetry_multiplicity
 _atom_site_fract_x
 _atom_site_fract_y
 _atom_site_fract_z
 _atom_site_occupancy
  Na  Na0  1  0.817465  0.000566  0.500000  1
  Na  Na1  1  0.179629  0.183078  0.500000  1
  Mg  Mg2  1  0.665518  0.330094  0.000000  1
  Mg  Mg3  1  0.336709  0.668845  0.000000  1
  Mg  Mg4  1  0.999008  0.832119  0.500000  1
  P  P5  1  0.631616  0.998368  0.000000  1
  P  P6  1  0.366944  0.367469  0.000000  1
  P  P7  1  0.000424  0.633252  0.000000  1
  P  P8  1  0.688613  0.519207  0.500000  1
  P  P9  1  0.829999  0.307423  0.500000  1
  P  P10  1  0.317167  0.835868  0.500000  1
  P  P11  1  0.524084  0.690983  0.500000  1
  P  P12  1  0.177787  0.998684  0.000000  1
  P  P13  1  0.820401  0.818501  0.000000  1
  P  P14  1  0.994182  0.179982  0.000000  1
  P  P15  1  0.474135  0.164023  0.500000  1
  P  P16  1  0.169136  0.479724  0.500000  1
  Ru  Ru17  1  0.512037  0.870083  0.500000  1
  Ru  Ru18  1  0.720773  0.715905  0.500000  1
  Ru  Ru19  1  0.000764  0.285118  0.500000  1
  Ru  Ru20  1  0.812697  0.196010  0.000000  1
  Ru  Ru21  1  0.277172  0.996213  0.500000  1
  Rh  Rh22  1  0.623277  0.803848  0.000000  1
  Rh  Rh23  1  0.186600  0.381219  0.000000  1
  Rh  Rh24  1  0.376087  0.182539  0.000000  1
  Rh  Rh25  1  0.187539  0.814373  0.000000  1
  Rh  Rh26  1  0.811555  0.623729  0.000000  1
  Rh  Rh27  1  0.869024  0.505738  0.500000  1
  Rh  Rh28  1  0.492697  0.358343  0.500000  1
  Rh  Rh29  1  0.633331  0.130369  0.500000  1
  Rh  Rh30  1  0.136146  0.642046  0.500000  1
  Rh  Rh31  1  0.364035  0.494301  0.500000  1
  Rh  Rh32  1  0.998656  0.996496  0.000000  1
  Rh  Rh33  1  0.447394  0.995912  0.000000  1
  Rh  Rh34  1  0.552080  0.544265  0.000000  1
  Rh  Rh35  1  0.005317  0.455303  0.000000  1
