# generated using pymatgen
data_CsRb3(GaI4)4
_symmetry_space_group_name_H-M   'P 1'
_cell_length_a   8.35588736
_cell_length_b   9.02342354
_cell_length_c   16.92431935
_cell_angle_alpha   85.73729418
_cell_angle_beta   89.97383348
_cell_angle_gamma   89.84847422
_symmetry_Int_Tables_number   1
_chemical_formula_structural   CsRb3(GaI4)4
_chemical_formula_sum   'Cs1 Rb3 Ga4 I16'
_cell_volume   1272.53740086
_cell_formula_units_Z   1
loop_
 _symmetry_equiv_pos_site_id
 _symmetry_equiv_pos_as_xyz
  1  'x, y, z'
loop_
 _atom_site_type_symbol
 _atom_site_label
 _atom_site_symmetry_multiplicity
 _atom_site_fract_x
 _atom_site_fract_y
 _atom_site_fract_z
 _atom_site_occupancy
  Cs  Cs0  1  0.994324  0.256996  0.140054  1
  Rb  Rb1  1  0.504826  0.257090  0.640166  1
  Rb  Rb2  1  0.005154  0.742750  0.860267  1
  Rb  Rb3  1  0.495293  0.742845  0.359144  1
  Ga  Ga4  1  0.355523  0.246627  0.360381  1
  Ga  Ga5  1  0.858192  0.753344  0.139352  1
  Ga  Ga6  1  0.643258  0.753260  0.639268  1
  Ga  Ga7  1  0.142904  0.246520  0.861154  1
  I  I8  1  0.866262  0.146811  0.908647  1
  I  I9  1  0.367031  0.852655  0.590402  1
  I  I10  1  0.134445  0.851647  0.090606  1
  I  I11  1  0.631978  0.147449  0.409068  1
  I  I12  1  0.395523  0.404674  0.227190  1
  I  I13  1  0.894559  0.597181  0.273382  1
  I  I14  1  0.605896  0.596608  0.773080  1
  I  I15  1  0.105938  0.404464  0.727683  1
  I  I16  1  0.656050  0.966072  0.159596  1
  I  I17  1  0.157597  0.030668  0.341367  1
  I  I18  1  0.342414  0.031449  0.841184  1
  I  I19  1  0.842127  0.968048  0.659264  1
  I  I20  1  0.238193  0.416330  0.463596  1
  I  I21  1  0.738935  0.586616  0.035385  1
  I  I22  1  0.761332  0.583738  0.536152  1
  I  I23  1  0.262248  0.416159  0.963612  1
