# generated using pymatgen
data_K2LaYbB24
_symmetry_space_group_name_H-M   'P 1'
_cell_length_a   7.25388337
_cell_length_b   7.25388479
_cell_length_c   5.90396500
_cell_angle_alpha   90.00000000
_cell_angle_beta   90.00000000
_cell_angle_gamma   109.57722287
_symmetry_Int_Tables_number   1
_chemical_formula_structural   K2LaYbB24
_chemical_formula_sum   'K2 La1 Yb1 B24'
_cell_volume   292.70074277
_cell_formula_units_Z   1
loop_
 _symmetry_equiv_pos_site_id
 _symmetry_equiv_pos_as_xyz
  1  'x, y, z'
loop_
 _atom_site_type_symbol
 _atom_site_label
 _atom_site_symmetry_multiplicity
 _atom_site_fract_x
 _atom_site_fract_y
 _atom_site_fract_z
 _atom_site_occupancy
  K  K0  1  0.748531  0.251469  0.500000  1
  K  K1  1  0.251469  0.748531  0.500000  1
  La  La2  1  0.000000  0.000000  0.000000  1
  Yb  Yb3  1  0.500000  0.500000  0.000000  1
  B  B4  1  0.175913  0.325412  0.649219  1
  B  B5  1  0.925248  0.574038  0.149968  1
  B  B6  1  0.674588  0.824087  0.649219  1
  B  B7  1  0.425962  0.074752  0.149968  1
  B  B8  1  0.175913  0.325412  0.350781  1
  B  B9  1  0.925248  0.574038  0.850032  1
  B  B10  1  0.674588  0.824087  0.350781  1
  B  B11  1  0.425962  0.074752  0.850032  1
  B  B12  1  0.399645  0.399645  0.500000  1
  B  B13  1  0.149608  0.649174  0.000000  1
  B  B14  1  0.899109  0.899109  0.500000  1
  B  B15  1  0.649174  0.149608  0.000000  1
  B  B16  1  0.325412  0.175913  0.649219  1
  B  B17  1  0.074752  0.425962  0.149968  1
  B  B18  1  0.824087  0.674588  0.649219  1
  B  B19  1  0.574038  0.925248  0.149968  1
  B  B20  1  0.100891  0.100891  0.500000  1
  B  B21  1  0.850392  0.350826  0.000000  1
  B  B22  1  0.600355  0.600355  0.500000  1
  B  B23  1  0.350826  0.850392  0.000000  1
  B  B24  1  0.325412  0.175913  0.350781  1
  B  B25  1  0.074752  0.425962  0.850032  1
  B  B26  1  0.824087  0.674588  0.350781  1
  B  B27  1  0.574038  0.925248  0.850032  1
