# generated using pymatgen
data_Nd12Nb8ReMo11N48
_symmetry_space_group_name_H-M   'P 1'
_cell_length_a   11.32091617
_cell_length_b   11.32091600
_cell_length_c   11.32091614
_cell_angle_alpha   109.41666298
_cell_angle_beta   109.58039693
_cell_angle_gamma   109.41665952
_symmetry_Int_Tables_number   1
_chemical_formula_structural   Nd12Nb8ReMo11N48
_chemical_formula_sum   'Nd12 Nb8 Re1 Mo11 N48'
_cell_volume   1116.91887356
_cell_formula_units_Z   1
loop_
 _symmetry_equiv_pos_site_id
 _symmetry_equiv_pos_as_xyz
  1  'x, y, z'
loop_
 _atom_site_type_symbol
 _atom_site_label
 _atom_site_symmetry_multiplicity
 _atom_site_fract_x
 _atom_site_fract_y
 _atom_site_fract_z
 _atom_site_occupancy
  Nd  Nd0  1  0.252053  0.377630  0.125694  1
  Nd  Nd1  1  0.373968  0.750000  0.123968  1
  Nd  Nd2  1  0.375819  0.126492  0.250922  1
  Nd  Nd3  1  0.874306  0.626359  0.251936  1
  Nd  Nd4  1  0.748064  0.122370  0.374423  1
  Nd  Nd5  1  0.126262  0.250000  0.376262  1
  Nd  Nd6  1  0.876032  0.750000  0.626032  1
  Nd  Nd7  1  0.250673  0.875103  0.624181  1
  Nd  Nd8  1  0.124430  0.373508  0.749327  1
  Nd  Nd9  1  0.625577  0.873641  0.747947  1
  Nd  Nd10  1  0.623738  0.250000  0.873738  1
  Nd  Nd11  1  0.749078  0.624897  0.875570  1
  Nb  Nb12  1  0.007666  0.013532  0.011395  1
  Nb  Nb13  1  0.505866  0.003729  0.992334  1
  Nb  Nb14  1  0.988605  0.496271  0.002138  1
  Nb  Nb15  1  0.500047  0.499581  0.000182  1
  Nb  Nb16  1  0.999818  0.999865  0.499398  1
  Nb  Nb17  1  0.500602  0.000419  0.500466  1
  Nb  Nb18  1  0.997862  0.486468  0.494134  1
  Nb  Nb19  1  0.499534  0.500135  0.499953  1
  Re  Re20  1  0.125000  0.750000  0.875000  1
  Mo  Mo21  1  0.875000  0.250000  0.125000  1
  Mo  Mo22  1  0.749315  0.875572  0.123520  1
  Mo  Mo23  1  0.626257  0.374204  0.250685  1
  Mo  Mo24  1  0.126295  0.874667  0.250948  1
  Mo  Mo25  1  0.247948  0.624428  0.373743  1
  Mo  Mo26  1  0.625000  0.750000  0.375000  1
  Mo  Mo27  1  0.375000  0.250000  0.625000  1
  Mo  Mo28  1  0.749052  0.375347  0.623718  1
  Mo  Mo29  1  0.876480  0.125796  0.752052  1
  Mo  Mo30  1  0.376282  0.625333  0.751629  1
  Mo  Mo31  1  0.248371  0.124653  0.873705  1
  N  N32  1  0.310948  0.896443  0.011913  1
  N  N33  1  0.198945  0.114941  0.014682  1
  N  N34  1  0.884040  0.401626  0.086787  1
  N  N35  1  0.699840  0.685150  0.083759  1
  N  N36  1  0.616557  0.415852  0.100782  1
  N  N37  1  0.985318  0.684263  0.100260  1
  N  N38  1  0.017587  0.202748  0.115960  1
  N  N39  1  0.600634  0.916476  0.118029  1
  N  N40  1  0.201553  0.583523  0.184158  1
  N  N41  1  0.484612  0.600905  0.184414  1
  N  N42  1  0.582949  0.183114  0.201756  1
  N  N43  1  0.114026  0.013659  0.199487  1
  N  N44  1  0.485310  0.383920  0.300160  1
  N  N45  1  0.316200  0.916073  0.298672  1
  N  N46  1  0.899218  0.015776  0.315071  1
  N  N47  1  0.913212  0.297252  0.314839  1
  N  N48  1  0.299295  0.484224  0.383443  1
  N  N49  1  0.583508  0.899094  0.383707  1
  N  N50  1  0.815842  0.517396  0.399365  1
  N  N51  1  0.084691  0.884702  0.400194  1
  N  N52  1  0.100165  0.618806  0.417050  1
  N  N53  1  0.815586  0.800198  0.416491  1
  N  N54  1  0.599805  0.184497  0.484508  1
  N  N55  1  0.383332  0.298356  0.483086  1
  N  N56  1  0.616293  0.699802  0.515388  1
  N  N57  1  0.398609  0.814850  0.514690  1
  N  N58  1  0.184730  0.201644  0.584974  1
  N  N59  1  0.899740  0.385059  0.584003  1
  N  N60  1  0.916240  0.116080  0.601390  1
  N  N61  1  0.185828  0.486341  0.600367  1
  N  N62  1  0.415025  0.099756  0.616668  1
  N  N63  1  0.701328  0.517528  0.617401  1
  N  N64  1  0.085495  0.700965  0.689052  1
  N  N65  1  0.099874  0.982472  0.683800  1
  N  N66  1  0.684929  0.084147  0.700705  1
  N  N67  1  0.515492  0.615298  0.699989  1
  N  N68  1  0.415996  0.815737  0.801055  1
  N  N69  1  0.881971  0.982604  0.798447  1
  N  N70  1  0.516914  0.400244  0.815270  1
  N  N71  1  0.800513  0.414539  0.814172  1
  N  N72  1  0.399632  0.085460  0.885974  1
  N  N73  1  0.988087  0.799035  0.884531  1
  N  N74  1  0.018642  0.316886  0.899835  1
  N  N75  1  0.382599  0.583926  0.900126  1
  N  N76  1  0.300011  0.315503  0.915308  1
  N  N77  1  0.115469  0.603556  0.914504  1
  N  N78  1  0.685161  0.098374  0.982413  1
  N  N79  1  0.798244  0.881194  0.981358  1
