# generated using pymatgen
data_Er16Mg2Cd2FePd3
_symmetry_space_group_name_H-M   'P 1'
_cell_length_a   9.64687550
_cell_length_b   9.64687423
_cell_length_c   9.67876454
_cell_angle_alpha   59.38017650
_cell_angle_beta   59.38018159
_cell_angle_gamma   59.21312718
_symmetry_Int_Tables_number   1
_chemical_formula_structural   Er16Mg2Cd2FePd3
_chemical_formula_sum   'Er16 Mg2 Cd2 Fe1 Pd3'
_cell_volume   627.11152098
_cell_formula_units_Z   1
loop_
 _symmetry_equiv_pos_site_id
 _symmetry_equiv_pos_as_xyz
  1  'x, y, z'
loop_
 _atom_site_type_symbol
 _atom_site_label
 _atom_site_symmetry_multiplicity
 _atom_site_fract_x
 _atom_site_fract_y
 _atom_site_fract_z
 _atom_site_occupancy
  Er  Er0  1  0.352550  0.352550  0.354205  1
  Er  Er1  1  0.345396  0.345396  0.950395  1
  Er  Er2  1  0.343040  0.956473  0.344271  1
  Er  Er3  1  0.956473  0.343040  0.344271  1
  Er  Er4  1  0.821643  0.187745  0.187188  1
  Er  Er5  1  0.187550  0.810786  0.810702  1
  Er  Er6  1  0.187745  0.821643  0.187188  1
  Er  Er7  1  0.810786  0.187550  0.810702  1
  Er  Er8  1  0.188883  0.188883  0.820518  1
  Er  Er9  1  0.812330  0.812330  0.185665  1
  Er  Er10  1  0.934268  0.566997  0.566452  1
  Er  Er11  1  0.561219  0.937569  0.934997  1
  Er  Er12  1  0.566997  0.934268  0.566452  1
  Er  Er13  1  0.937569  0.561219  0.934997  1
  Er  Er14  1  0.567381  0.567381  0.931813  1
  Er  Er15  1  0.935819  0.935819  0.561669  1
  Mg  Mg16  1  0.575086  0.575086  0.579034  1
  Mg  Mg17  1  0.576179  0.576179  0.265987  1
  Cd  Cd18  1  0.581967  0.253376  0.580951  1
  Cd  Cd19  1  0.253376  0.581967  0.580951  1
  Fe  Fe20  1  0.144429  0.144429  0.140784  1
  Pd  Pd21  1  0.144341  0.144341  0.572077  1
  Pd  Pd22  1  0.144941  0.570030  0.144365  1
  Pd  Pd23  1  0.570030  0.144941  0.144365  1
