# generated using pymatgen
data_DyTm2ZnIn3Pt2
_symmetry_space_group_name_H-M   'P 1'
_cell_length_a   7.67263080
_cell_length_b   7.67263064
_cell_length_c   3.86045400
_cell_angle_alpha   90.00000000
_cell_angle_beta   90.00000000
_cell_angle_gamma   120.57262323
_symmetry_Int_Tables_number   1
_chemical_formula_structural   DyTm2ZnIn3Pt2
_chemical_formula_sum   'Dy1 Tm2 Zn1 In3 Pt2'
_cell_volume   195.66927633
_cell_formula_units_Z   1
loop_
 _symmetry_equiv_pos_site_id
 _symmetry_equiv_pos_as_xyz
  1  'x, y, z'
loop_
 _atom_site_type_symbol
 _atom_site_label
 _atom_site_symmetry_multiplicity
 _atom_site_fract_x
 _atom_site_fract_y
 _atom_site_fract_z
 _atom_site_occupancy
  Dy  Dy0  1  0.408298  0.408298  0.500000  1
  Tm  Tm1  1  0.591278  0.999975  0.500000  1
  Tm  Tm2  1  0.999975  0.591278  0.500000  1
  Zn  Zn3  1  0.999566  0.999566  0.500000  1
  In  In4  1  0.999365  0.259518  0.000000  1
  In  In5  1  0.740285  0.740285  0.000000  1
  In  In6  1  0.259518  0.999365  0.000000  1
  Pt  Pt7  1  0.668734  0.332982  0.000000  1
  Pt  Pt8  1  0.332982  0.668734  0.000000  1
