# generated using pymatgen
data_Ta11Nb4Co8OsN4
_symmetry_space_group_name_H-M   'P 1'
_cell_length_a   8.20376982
_cell_length_b   8.21949382
_cell_length_c   8.21949489
_cell_angle_alpha   59.40739048
_cell_angle_beta   59.45163402
_cell_angle_gamma   59.45162868
_symmetry_Int_Tables_number   1
_chemical_formula_structural   Ta11Nb4Co8OsN4
_chemical_formula_sum   'Ta11 Nb4 Co8 Os1 N4'
_cell_volume   386.89090134
_cell_formula_units_Z   1
loop_
 _symmetry_equiv_pos_site_id
 _symmetry_equiv_pos_as_xyz
  1  'x, y, z'
loop_
 _atom_site_type_symbol
 _atom_site_label
 _atom_site_symmetry_multiplicity
 _atom_site_fract_x
 _atom_site_fract_y
 _atom_site_fract_z
 _atom_site_occupancy
  Ta  Ta0  1  0.125971  0.623369  0.623369  1
  Ta  Ta1  1  0.623361  0.125800  0.626614  1
  Ta  Ta2  1  0.623361  0.626614  0.125800  1
  Ta  Ta3  1  0.198028  0.806028  0.806028  1
  Ta  Ta4  1  0.814182  0.185267  0.185267  1
  Ta  Ta5  1  0.443862  0.443502  0.052663  1
  Ta  Ta6  1  0.063876  0.063859  0.437303  1
  Ta  Ta7  1  0.443862  0.052663  0.443502  1
  Ta  Ta8  1  0.063876  0.437303  0.063859  1
  Ta  Ta9  1  0.054310  0.441549  0.441549  1
  Ta  Ta10  1  0.434460  0.066623  0.066623  1
  Nb  Nb11  1  0.807736  0.807411  0.196374  1
  Nb  Nb12  1  0.183937  0.183751  0.815737  1
  Nb  Nb13  1  0.807736  0.196374  0.807411  1
  Nb  Nb14  1  0.183937  0.815737  0.183751  1
  Co  Co15  1  0.735987  0.422585  0.422585  1
  Co  Co16  1  0.422137  0.736726  0.425149  1
  Co  Co17  1  0.422137  0.425149  0.736726  1
  Co  Co18  1  0.416881  0.412626  0.412626  1
  Co  Co19  1  0.516505  0.825741  0.825741  1
  Co  Co20  1  0.825484  0.516366  0.828828  1
  Co  Co21  1  0.825484  0.828828  0.516366  1
  Co  Co22  1  0.834934  0.831306  0.831306  1
  Os  Os23  1  0.626507  0.624684  0.624684  1
  N  N24  1  0.622656  0.126775  0.126775  1
  N  N25  1  0.127164  0.622059  0.123728  1
  N  N26  1  0.127164  0.123728  0.622059  1
  N  N27  1  0.124463  0.127576  0.127576  1
