# generated using pymatgen
data_Nd4Lu16Si15Ge
_symmetry_space_group_name_H-M   'P 1'
_cell_length_a   7.34138467
_cell_length_b   7.61352251
_cell_length_c   14.42300020
_cell_angle_alpha   89.97062241
_cell_angle_beta   89.57012130
_cell_angle_gamma   89.94085146
_symmetry_Int_Tables_number   1
_chemical_formula_structural   Nd4Lu16Si15Ge
_chemical_formula_sum   'Nd4 Lu16 Si15 Ge1'
_cell_volume   806.13302939
_cell_formula_units_Z   1
loop_
 _symmetry_equiv_pos_site_id
 _symmetry_equiv_pos_as_xyz
  1  'x, y, z'
loop_
 _atom_site_type_symbol
 _atom_site_label
 _atom_site_symmetry_multiplicity
 _atom_site_fract_x
 _atom_site_fract_y
 _atom_site_fract_z
 _atom_site_occupancy
  Nd  Nd0  1  0.232144  0.677880  0.155361  1
  Nd  Nd1  1  0.733106  0.821343  0.846076  1
  Nd  Nd2  1  0.266805  0.322479  0.654926  1
  Nd  Nd3  1  0.767414  0.177988  0.344842  1
  Lu  Lu4  1  0.923161  0.673175  0.623632  1
  Lu  Lu5  1  0.426290  0.823815  0.375065  1
  Lu  Lu6  1  0.573838  0.323524  0.125236  1
  Lu  Lu7  1  0.077258  0.176478  0.875177  1
  Lu  Lu8  1  0.575987  0.321719  0.873169  1
  Lu  Lu9  1  0.074075  0.178861  0.127883  1
  Lu  Lu10  1  0.926067  0.678436  0.372243  1
  Lu  Lu11  1  0.425083  0.821712  0.627522  1
  Lu  Lu12  1  0.093558  0.008059  0.500074  1
  Lu  Lu13  1  0.593557  0.491710  0.499659  1
  Lu  Lu14  1  0.407146  0.991334  0.000110  1
  Lu  Lu15  1  0.906056  0.507991  0.998930  1
  Lu  Lu16  1  0.274888  0.319637  0.351903  1
  Lu  Lu17  1  0.768407  0.181015  0.648039  1
  Lu  Lu18  1  0.229148  0.678909  0.851898  1
  Lu  Lu19  1  0.725682  0.819915  0.147817  1
  Si  Si20  1  0.592516  0.536579  0.287810  1
  Si  Si21  1  0.407809  0.036139  0.212054  1
  Si  Si22  1  0.909931  0.463495  0.788069  1
  Si  Si23  1  0.403763  0.027787  0.793152  1
  Si  Si24  1  0.892283  0.476252  0.206509  1
  Si  Si25  1  0.107519  0.976007  0.293224  1
  Si  Si26  1  0.602705  0.526168  0.707698  1
  Si  Si27  1  0.973775  0.372156  0.498130  1
  Si  Si28  1  0.473320  0.127349  0.501039  1
  Si  Si29  1  0.526003  0.626967  0.999426  1
  Si  Si30  1  0.027062  0.872922  0.001515  1
  Si  Si31  1  0.222335  0.611347  0.498672  1
  Si  Si32  1  0.722052  0.888329  0.499847  1
  Si  Si33  1  0.277610  0.388831  0.000198  1
  Si  Si34  1  0.779171  0.111364  0.001667  1
  Ge  Ge35  1  0.082474  0.962330  0.711424  1
