# generated using pymatgen
data_Y2ThIn3PdPt2
_symmetry_space_group_name_H-M   'P 1'
_cell_length_a   7.78093801
_cell_length_b   7.78093719
_cell_length_c   3.88368300
_cell_angle_alpha   90.00000000
_cell_angle_beta   90.00000000
_cell_angle_gamma   119.89211714
_symmetry_Int_Tables_number   1
_chemical_formula_structural   Y2ThIn3PdPt2
_chemical_formula_sum   'Y2 Th1 In3 Pd1 Pt2'
_cell_volume   203.84936668
_cell_formula_units_Z   1
loop_
 _symmetry_equiv_pos_site_id
 _symmetry_equiv_pos_as_xyz
  1  'x, y, z'
loop_
 _atom_site_type_symbol
 _atom_site_label
 _atom_site_symmetry_multiplicity
 _atom_site_fract_x
 _atom_site_fract_y
 _atom_site_fract_z
 _atom_site_occupancy
  Y  Y0  1  0.589435  0.997813  0.500000  1
  Y  Y1  1  0.997813  0.589435  0.500000  1
  Th  Th2  1  0.413436  0.413436  0.500000  1
  In  In3  1  0.754001  0.754001  0.000000  1
  In  In4  1  0.256266  0.987850  0.000000  1
  In  In5  1  0.987850  0.256266  0.000000  1
  Pd  Pd6  1  0.008242  0.008242  0.500000  1
  Pt  Pt7  1  0.658410  0.334547  0.000000  1
  Pt  Pt8  1  0.334547  0.658410  0.000000  1
