# generated using pymatgen
data_Tm4CoNi3(P3Ir4)4
_symmetry_space_group_name_H-M   'P 1'
_cell_length_a   3.93140300
_cell_length_b   10.73028749
_cell_length_c   12.36809990
_cell_angle_alpha   89.89662566
_cell_angle_beta   90.00000000
_cell_angle_gamma   90.00000000
_symmetry_Int_Tables_number   1
_chemical_formula_structural   Tm4CoNi3(P3Ir4)4
_chemical_formula_sum   'Tm4 Co1 Ni3 P12 Ir16'
_cell_volume   521.74848896
_cell_formula_units_Z   1
loop_
 _symmetry_equiv_pos_site_id
 _symmetry_equiv_pos_as_xyz
  1  'x, y, z'
loop_
 _atom_site_type_symbol
 _atom_site_label
 _atom_site_symmetry_multiplicity
 _atom_site_fract_x
 _atom_site_fract_y
 _atom_site_fract_z
 _atom_site_occupancy
  Tm  Tm0  1  0.250000  0.588530  0.709764  1
  Tm  Tm1  1  0.250000  0.910723  0.208524  1
  Tm  Tm2  1  0.750000  0.411612  0.291385  1
  Tm  Tm3  1  0.750000  0.088181  0.790928  1
  Co  Co4  1  0.750000  0.971027  0.565183  1
  Ni  Ni5  1  0.250000  0.458782  0.935642  1
  Ni  Ni6  1  0.250000  0.029640  0.433337  1
  Ni  Ni7  1  0.750000  0.540026  0.064004  1
  P  P8  1  0.250000  0.419665  0.108961  1
  P  P9  1  0.250000  0.077438  0.607100  1
  P  P10  1  0.750000  0.578026  0.891062  1
  P  P11  1  0.750000  0.918989  0.394828  1
  P  P12  1  0.250000  0.268020  0.867516  1
  P  P13  1  0.250000  0.228734  0.379075  1
  P  P14  1  0.750000  0.730539  0.130967  1
  P  P15  1  0.750000  0.775738  0.623548  1
  P  P16  1  0.250000  0.595360  0.379065  1
  P  P17  1  0.250000  0.910223  0.887009  1
  P  P18  1  0.750000  0.406984  0.620619  1
  P  P19  1  0.750000  0.088398  0.113288  1
  Ir  Ir20  1  0.250000  0.713206  0.963662  1
  Ir  Ir21  1  0.250000  0.774049  0.484865  1
  Ir  Ir22  1  0.750000  0.286274  0.038299  1
  Ir  Ir23  1  0.750000  0.232996  0.508794  1
  Ir  Ir24  1  0.250000  0.415524  0.477101  1
  Ir  Ir25  1  0.250000  0.097163  0.982754  1
  Ir  Ir26  1  0.750000  0.591349  0.525505  1
  Ir  Ir27  1  0.750000  0.902085  0.017025  1
  Ir  Ir28  1  0.250000  0.231242  0.192082  1
  Ir  Ir29  1  0.250000  0.272576  0.673980  1
  Ir  Ir30  1  0.750000  0.768297  0.811029  1
  Ir  Ir31  1  0.750000  0.725863  0.323710  1
  Ir  Ir32  1  0.250000  0.894371  0.701307  1
  Ir  Ir33  1  0.250000  0.615805  0.192751  1
  Ir  Ir34  1  0.750000  0.100731  0.298391  1
  Ir  Ir35  1  0.750000  0.381835  0.806941  1
