# generated using pymatgen
data_Nd7Th(AlNi)8
_symmetry_space_group_name_H-M   'P 1'
_cell_length_a   4.12964900
_cell_length_b   7.05943148
_cell_length_c   16.03846709
_cell_angle_alpha   90.13190834
_cell_angle_beta   90.00000000
_cell_angle_gamma   90.00000000
_symmetry_Int_Tables_number   1
_chemical_formula_structural   Nd7Th(AlNi)8
_chemical_formula_sum   'Nd7 Th1 Al8 Ni8'
_cell_volume   467.56777766
_cell_formula_units_Z   1
loop_
 _symmetry_equiv_pos_site_id
 _symmetry_equiv_pos_as_xyz
  1  'x, y, z'
loop_
 _atom_site_type_symbol
 _atom_site_label
 _atom_site_symmetry_multiplicity
 _atom_site_fract_x
 _atom_site_fract_y
 _atom_site_fract_z
 _atom_site_occupancy
  Nd  Nd0  1  0.750000  0.853242  0.938612  1
  Nd  Nd1  1  0.250000  0.143600  0.062018  1
  Nd  Nd2  1  0.250000  0.642391  0.436322  1
  Nd  Nd3  1  0.750000  0.358498  0.562998  1
  Nd  Nd4  1  0.750000  0.988100  0.720730  1
  Nd  Nd5  1  0.250000  0.010756  0.278651  1
  Nd  Nd6  1  0.250000  0.511977  0.221028  1
  Th  Th7  1  0.750000  0.488828  0.778786  1
  Al  Al8  1  0.750000  0.834659  0.145907  1
  Al  Al9  1  0.250000  0.164496  0.854109  1
  Al  Al10  1  0.250000  0.669218  0.645378  1
  Al  Al11  1  0.750000  0.332575  0.353549  1
  Al  Al12  1  0.750000  0.991050  0.439284  1
  Al  Al13  1  0.250000  0.010042  0.560438  1
  Al  Al14  1  0.250000  0.508900  0.940142  1
  Al  Al15  1  0.750000  0.490575  0.061021  1
  Ni  Ni16  1  0.750000  0.792024  0.568876  1
  Ni  Ni17  1  0.250000  0.209438  0.431037  1
  Ni  Ni18  1  0.250000  0.708160  0.069963  1
  Ni  Ni19  1  0.750000  0.295709  0.927520  1
  Ni  Ni20  1  0.750000  0.722498  0.317991  1
  Ni  Ni21  1  0.250000  0.288468  0.687715  1
  Ni  Ni22  1  0.250000  0.761792  0.817542  1
  Ni  Ni23  1  0.750000  0.223001  0.180381  1
