# generated using pymatgen
data_K4Ti(TeSe)2
_symmetry_space_group_name_H-M   'P 1'
_cell_length_a   8.74516900
_cell_length_b   10.37028400
_cell_length_c   15.17347400
_cell_angle_alpha   90.00000000
_cell_angle_beta   90.00000000
_cell_angle_gamma   90.00000000
_symmetry_Int_Tables_number   1
_chemical_formula_structural   K4Ti(TeSe)2
_chemical_formula_sum   'K16 Ti4 Te8 Se8'
_cell_volume   1376.08062968
_cell_formula_units_Z   4
loop_
 _symmetry_equiv_pos_site_id
 _symmetry_equiv_pos_as_xyz
  1  'x, y, z'
loop_
 _atom_site_type_symbol
 _atom_site_label
 _atom_site_symmetry_multiplicity
 _atom_site_fract_x
 _atom_site_fract_y
 _atom_site_fract_z
 _atom_site_occupancy
  K  K0  1  0.500000  0.500000  0.500000  1
  K  K1  1  0.145120  0.457626  0.273989  1
  K  K2  1  0.145120  0.042374  0.273989  1
  K  K3  1  0.997561  0.750000  0.438259  1
  K  K4  1  0.002439  0.250000  0.561741  1
  K  K5  1  0.645120  0.957626  0.226011  1
  K  K6  1  0.354880  0.042374  0.773989  1
  K  K7  1  0.854880  0.957626  0.726011  1
  K  K8  1  0.354880  0.457626  0.773989  1
  K  K9  1  0.000000  0.500000  0.000000  1
  K  K10  1  0.497561  0.250000  0.061741  1
  K  K11  1  0.645120  0.542374  0.226011  1
  K  K12  1  0.502439  0.750000  0.938259  1
  K  K13  1  0.000000  0.000000  0.000000  1
  K  K14  1  0.854880  0.542374  0.726011  1
  K  K15  1  0.500000  0.000000  0.500000  1
  Ti  Ti16  1  0.740103  0.250000  0.837114  1
  Ti  Ti17  1  0.759897  0.250000  0.337114  1
  Ti  Ti18  1  0.240103  0.750000  0.662886  1
  Ti  Ti19  1  0.259897  0.750000  0.162886  1
  Te  Te20  1  0.543577  0.750000  0.669703  1
  Te  Te21  1  0.456423  0.250000  0.330297  1
  Te  Te22  1  0.368164  0.750000  0.327005  1
  Te  Te23  1  0.131836  0.750000  0.827005  1
  Te  Te24  1  0.043577  0.250000  0.830297  1
  Te  Te25  1  0.956423  0.750000  0.169703  1
  Te  Te26  1  0.631836  0.250000  0.672995  1
  Te  Te27  1  0.868164  0.250000  0.172995  1
  Se  Se28  1  0.843061  0.442469  0.408532  1
  Se  Se29  1  0.656939  0.057531  0.908532  1
  Se  Se30  1  0.343061  0.942469  0.091468  1
  Se  Se31  1  0.343061  0.557531  0.091468  1
  Se  Se32  1  0.156939  0.557531  0.591468  1
  Se  Se33  1  0.843061  0.057531  0.408532  1
  Se  Se34  1  0.156939  0.942469  0.591468  1
  Se  Se35  1  0.656939  0.442469  0.908532  1
