# generated using pymatgen
data_Dy3Tm5Hg4
_symmetry_space_group_name_H-M   'P 1'
_cell_length_a   5.05447500
_cell_length_b   7.07393050
_cell_length_c   9.13540405
_cell_angle_alpha   89.95661390
_cell_angle_beta   90.00000000
_cell_angle_gamma   90.00000000
_symmetry_Int_Tables_number   1
_chemical_formula_structural   Dy3Tm5Hg4
_chemical_formula_sum   'Dy3 Tm5 Hg4'
_cell_volume   326.63632283
_cell_formula_units_Z   1
loop_
 _symmetry_equiv_pos_site_id
 _symmetry_equiv_pos_as_xyz
  1  'x, y, z'
loop_
 _atom_site_type_symbol
 _atom_site_label
 _atom_site_symmetry_multiplicity
 _atom_site_fract_x
 _atom_site_fract_y
 _atom_site_fract_z
 _atom_site_occupancy
  Dy  Dy0  1  0.250000  0.514965  0.190665  1
  Dy  Dy1  1  0.750000  0.985061  0.690598  1
  Dy  Dy2  1  0.750000  0.485452  0.809232  1
  Tm  Tm3  1  0.250000  0.165192  0.925528  1
  Tm  Tm4  1  0.250000  0.665861  0.573857  1
  Tm  Tm5  1  0.750000  0.835186  0.076452  1
  Tm  Tm6  1  0.750000  0.333182  0.424533  1
  Tm  Tm7  1  0.250000  0.015016  0.309816  1
  Hg  Hg8  1  0.250000  0.241953  0.601451  1
  Hg  Hg9  1  0.250000  0.742533  0.897211  1
  Hg  Hg10  1  0.750000  0.758325  0.397969  1
  Hg  Hg11  1  0.750000  0.257276  0.102688  1
