# generated using pymatgen
data_Ho4Al24AgPd8
_symmetry_space_group_name_H-M   'P 1'
_cell_length_a   7.53247495
_cell_length_b   7.56168794
_cell_length_c   13.17570300
_cell_angle_alpha   84.59407640
_cell_angle_beta   79.12325867
_cell_angle_gamma   60.00080671
_symmetry_Int_Tables_number   1
_chemical_formula_structural   Ho4Al24AgPd8
_chemical_formula_sum   'Ho4 Al24 Ag1 Pd8'
_cell_volume   638.25105324
_cell_formula_units_Z   1
loop_
 _symmetry_equiv_pos_site_id
 _symmetry_equiv_pos_as_xyz
  1  'x, y, z'
loop_
 _atom_site_type_symbol
 _atom_site_label
 _atom_site_symmetry_multiplicity
 _atom_site_fract_x
 _atom_site_fract_y
 _atom_site_fract_z
 _atom_site_occupancy
  Ho  Ho0  1  0.393725  0.168257  0.808303  1
  Ho  Ho1  1  0.604363  0.831561  0.190981  1
  Ho  Ho2  1  0.733513  0.498321  0.808237  1
  Ho  Ho3  1  0.266591  0.504226  0.191114  1
  Al  Al4  1  0.684403  0.833519  0.943971  1
  Al  Al5  1  0.316541  0.167478  0.054590  1
  Al  Al6  1  0.143244  0.833271  0.569286  1
  Al  Al7  1  0.848714  0.171311  0.440229  1
  Al  Al8  1  0.479078  0.166995  0.560984  1
  Al  Al9  1  0.526778  0.833652  0.442244  1
  Al  Al10  1  0.218449  0.169722  0.326120  1
  Al  Al11  1  0.780617  0.834808  0.671674  1
  Al  Al12  1  0.437954  0.505212  0.672067  1
  Al  Al13  1  0.570938  0.486540  0.326174  1
  Al  Al14  1  0.108884  0.161271  0.670682  1
  Al  Al15  1  0.887393  0.840492  0.327116  1
  Al  Al16  1  0.353302  0.499209  0.944018  1
  Al  Al17  1  0.647567  0.500347  0.054686  1
  Al  Al18  1  0.015833  0.167645  0.953310  1
  Al  Al19  1  0.983995  0.831994  0.044876  1
  Al  Al20  1  0.186006  0.493011  0.442368  1
  Al  Al21  1  0.812345  0.500129  0.560877  1
  Al  Al22  1  0.732238  0.163367  0.183010  1
  Al  Al23  1  0.266544  0.836091  0.816086  1
  Al  Al24  1  0.061607  0.630470  0.815052  1
  Al  Al25  1  0.939512  0.370436  0.184230  1
  Al  Al26  1  0.854862  0.042081  0.816088  1
  Al  Al27  1  0.142966  0.960656  0.180444  1
  Ag  Ag28  1  0.222903  0.823643  0.362671  1
  Pd  Pd29  1  0.119715  0.492527  0.638528  1
  Pd  Pd30  1  0.880318  0.507451  0.362023  1
  Pd  Pd31  1  0.657148  0.171420  0.999884  1
  Pd  Pd32  1  0.343466  0.828260  0.999706  1
  Pd  Pd33  1  0.538096  0.166643  0.362105  1
  Pd  Pd34  1  0.461593  0.833416  0.638404  1
  Pd  Pd35  1  0.778809  0.174634  0.637738  1
  Pd  Pd36  1  0.999988  0.499938  0.000129  1
