# generated using pymatgen
data_Rb2UCr3Se8
_symmetry_space_group_name_H-M   'P 1'
_cell_length_a   6.47840500
_cell_length_b   7.54442947
_cell_length_c   16.70334279
_cell_angle_alpha   90.19416823
_cell_angle_beta   90.00000000
_cell_angle_gamma   90.00000000
_symmetry_Int_Tables_number   1
_chemical_formula_structural   Rb2UCr3Se8
_chemical_formula_sum   'Rb4 U2 Cr6 Se16'
_cell_volume   816.38571621
_cell_formula_units_Z   2
loop_
 _symmetry_equiv_pos_site_id
 _symmetry_equiv_pos_as_xyz
  1  'x, y, z'
loop_
 _atom_site_type_symbol
 _atom_site_label
 _atom_site_symmetry_multiplicity
 _atom_site_fract_x
 _atom_site_fract_y
 _atom_site_fract_z
 _atom_site_occupancy
  Rb  Rb0  1  0.348750  0.000000  0.000000  1
  Rb  Rb1  1  0.651250  0.500000  0.500000  1
  Rb  Rb2  1  0.015458  0.000000  0.500000  1
  Rb  Rb3  1  0.984542  0.500000  0.000000  1
  U  U4  1  0.500000  0.250000  0.250000  1
  U  U5  1  0.500000  0.750000  0.750000  1
  Cr  Cr6  1  0.000891  0.995126  0.249645  1
  Cr  Cr7  1  0.000891  0.004874  0.750355  1
  Cr  Cr8  1  0.999109  0.504874  0.250355  1
  Cr  Cr9  1  0.999109  0.495126  0.749645  1
  Cr  Cr10  1  0.500000  0.750000  0.250000  1
  Cr  Cr11  1  0.500000  0.250000  0.750000  1
  Se  Se12  1  0.857864  0.251983  0.339686  1
  Se  Se13  1  0.857864  0.748017  0.660314  1
  Se  Se14  1  0.165815  0.748961  0.168412  1
  Se  Se15  1  0.165815  0.251039  0.831588  1
  Se  Se16  1  0.142136  0.248017  0.160314  1
  Se  Se17  1  0.142136  0.751983  0.839686  1
  Se  Se18  1  0.834185  0.751039  0.331588  1
  Se  Se19  1  0.834185  0.248961  0.668412  1
  Se  Se20  1  0.681027  0.979589  0.161259  1
  Se  Se21  1  0.681027  0.020411  0.838741  1
  Se  Se22  1  0.318973  0.520411  0.338741  1
  Se  Se23  1  0.318973  0.479589  0.661259  1
  Se  Se24  1  0.325024  0.980301  0.338150  1
  Se  Se25  1  0.325024  0.019699  0.661850  1
  Se  Se26  1  0.674976  0.519699  0.161850  1
  Se  Se27  1  0.674976  0.480301  0.838150  1
