# generated using pymatgen
data_Zr20Si12P
_symmetry_space_group_name_H-M   'P 1'
_cell_length_a   5.63392402
_cell_length_b   8.05455893
_cell_length_c   13.91657600
_cell_angle_alpha   89.99999289
_cell_angle_beta   90.00000000
_cell_angle_gamma   89.97692533
_symmetry_Int_Tables_number   1
_chemical_formula_structural   Zr20Si12P
_chemical_formula_sum   'Zr20 Si12 P1'
_cell_volume   631.51709248
_cell_formula_units_Z   1
loop_
 _symmetry_equiv_pos_site_id
 _symmetry_equiv_pos_as_xyz
  1  'x, y, z'
loop_
 _atom_site_type_symbol
 _atom_site_label
 _atom_site_symmetry_multiplicity
 _atom_site_fract_x
 _atom_site_fract_y
 _atom_site_fract_z
 _atom_site_occupancy
  Zr  Zr0  1  0.499999  0.000001  0.335561  1
  Zr  Zr1  1  0.500002  0.500000  0.831465  1
  Zr  Zr2  1  0.500002  0.500000  0.168535  1
  Zr  Zr3  1  0.499999  0.000001  0.664439  1
  Zr  Zr4  1  0.999998  0.500000  0.166003  1
  Zr  Zr5  1  0.000002  0.999999  0.667194  1
  Zr  Zr6  1  0.000002  0.999999  0.332806  1
  Zr  Zr7  1  0.999998  0.500000  0.833997  1
  Zr  Zr8  1  0.738986  0.259542  0.000000  1
  Zr  Zr9  1  0.749879  0.756142  0.500000  1
  Zr  Zr10  1  0.749336  0.375297  0.375673  1
  Zr  Zr11  1  0.739966  0.869784  0.868834  1
  Zr  Zr12  1  0.739966  0.869784  0.131166  1
  Zr  Zr13  1  0.749336  0.375297  0.624327  1
  Zr  Zr14  1  0.261014  0.740458  0.000000  1
  Zr  Zr15  1  0.250119  0.243857  0.500000  1
  Zr  Zr16  1  0.260035  0.130216  0.131166  1
  Zr  Zr17  1  0.250664  0.624703  0.624327  1
  Zr  Zr18  1  0.250664  0.624703  0.375673  1
  Zr  Zr19  1  0.260035  0.130216  0.868834  1
  Si  Si20  1  0.747936  0.608955  0.000000  1
  Si  Si21  1  0.752445  0.111924  0.500000  1
  Si  Si22  1  0.749907  0.197841  0.198691  1
  Si  Si23  1  0.751207  0.693891  0.693284  1
  Si  Si24  1  0.751207  0.693891  0.306716  1
  Si  Si25  1  0.749907  0.197841  0.801309  1
  Si  Si26  1  0.252064  0.391045  0.000000  1
  Si  Si27  1  0.247554  0.888076  0.500000  1
  Si  Si28  1  0.248792  0.306109  0.306716  1
  Si  Si29  1  0.250095  0.802160  0.801309  1
  Si  Si30  1  0.250095  0.802160  0.198691  1
  Si  Si31  1  0.248792  0.306109  0.693284  1
  P  P32  1  0.000001  0.000001  0.000000  1
