# generated using pymatgen
data_CrOs3Pb4O13
_symmetry_space_group_name_H-M   'P 1'
_cell_length_a   7.38365418
_cell_length_b   7.38365457
_cell_length_c   7.38365312
_cell_angle_alpha   59.89705706
_cell_angle_beta   59.89706451
_cell_angle_gamma   59.89705860
_symmetry_Int_Tables_number   1
_chemical_formula_structural   CrOs3Pb4O13
_chemical_formula_sum   'Cr1 Os3 Pb4 O13'
_cell_volume   283.97725875
_cell_formula_units_Z   1
loop_
 _symmetry_equiv_pos_site_id
 _symmetry_equiv_pos_as_xyz
  1  'x, y, z'
loop_
 _atom_site_type_symbol
 _atom_site_label
 _atom_site_symmetry_multiplicity
 _atom_site_fract_x
 _atom_site_fract_y
 _atom_site_fract_z
 _atom_site_occupancy
  Cr  Cr0  1  0.500780  0.500780  0.500780  1
  Os  Os1  1  0.000689  0.501704  0.501704  1
  Os  Os2  1  0.501704  0.501704  0.000689  1
  Os  Os3  1  0.501704  0.000689  0.501704  1
  Pb  Pb4  1  0.997007  0.997007  0.997007  1
  Pb  Pb5  1  0.506650  0.002430  0.002430  1
  Pb  Pb6  1  0.002430  0.002430  0.506650  1
  Pb  Pb7  1  0.002430  0.506650  0.002430  1
  O  O8  1  0.837813  0.420398  0.420398  1
  O  O9  1  0.428362  0.810658  0.810658  1
  O  O10  1  0.420398  0.420398  0.837813  1
  O  O11  1  0.810658  0.810658  0.428362  1
  O  O12  1  0.810658  0.428362  0.810658  1
  O  O13  1  0.420398  0.837813  0.420398  1
  O  O14  1  0.172279  0.572460  0.572460  1
  O  O15  1  0.580382  0.181576  0.181576  1
  O  O16  1  0.572460  0.572460  0.172279  1
  O  O17  1  0.181576  0.181576  0.580382  1
  O  O18  1  0.181576  0.580382  0.181576  1
  O  O19  1  0.572460  0.172279  0.572460  1
  O  O20  1  0.122588  0.122588  0.122588  1
