# generated using pymatgen
data_Sm8In(Pd2Pt)8
_symmetry_space_group_name_H-M   'P 1'
_cell_length_a   8.49218114
_cell_length_b   8.50529400
_cell_length_c   8.50169014
_cell_angle_alpha   90.00000000
_cell_angle_beta   90.02058672
_cell_angle_gamma   90.00000000
_symmetry_Int_Tables_number   1
_chemical_formula_structural   Sm8In(Pd2Pt)8
_chemical_formula_sum   'Sm8 In1 Pd16 Pt8'
_cell_volume   614.06426324
_cell_formula_units_Z   1
loop_
 _symmetry_equiv_pos_site_id
 _symmetry_equiv_pos_as_xyz
  1  'x, y, z'
loop_
 _atom_site_type_symbol
 _atom_site_label
 _atom_site_symmetry_multiplicity
 _atom_site_fract_x
 _atom_site_fract_y
 _atom_site_fract_z
 _atom_site_occupancy
  Sm  Sm0  1  0.251397  0.250812  0.250847  1
  Sm  Sm1  1  0.748753  0.748109  0.748677  1
  Sm  Sm2  1  0.748492  0.748661  0.251361  1
  Sm  Sm3  1  0.748753  0.251891  0.748677  1
  Sm  Sm4  1  0.251209  0.251236  0.749242  1
  Sm  Sm5  1  0.251397  0.749188  0.250847  1
  Sm  Sm6  1  0.251209  0.748764  0.749242  1
  Sm  Sm7  1  0.748492  0.251339  0.251361  1
  In  In8  1  0.000411  0.000000  0.000169  1
  Pd  Pd9  1  0.266943  0.000000  0.500010  1
  Pd  Pd10  1  0.500019  0.000000  0.732413  1
  Pd  Pd11  1  0.732753  0.000000  0.499979  1
  Pd  Pd12  1  0.999933  0.500000  0.267141  1
  Pd  Pd13  1  0.999922  0.500000  0.732963  1
  Pd  Pd14  1  0.255164  0.500000  0.500094  1
  Pd  Pd15  1  0.744954  0.500000  0.500117  1
  Pd  Pd16  1  0.500108  0.255158  0.499841  1
  Pd  Pd17  1  0.500108  0.744842  0.499841  1
  Pd  Pd18  1  0.500091  0.500000  0.255404  1
  Pd  Pd19  1  0.500114  0.500000  0.744535  1
  Pd  Pd20  1  0.686411  0.000000  0.999816  1
  Pd  Pd21  1  0.999714  0.314857  0.999947  1
  Pd  Pd22  1  0.999714  0.685143  0.999947  1
  Pd  Pd23  1  0.999691  0.000000  0.314804  1
  Pd  Pd24  1  0.999690  0.000000  0.685250  1
  Pt  Pt25  1  0.265998  0.500000  0.999977  1
  Pt  Pt26  1  0.733469  0.500000  0.999971  1
  Pt  Pt27  1  0.999963  0.266503  0.500077  1
  Pt  Pt28  1  0.499847  0.266805  0.999833  1
  Pt  Pt29  1  0.999963  0.733497  0.500077  1
  Pt  Pt30  1  0.499847  0.733195  0.999833  1
  Pt  Pt31  1  0.500029  0.000000  0.267792  1
  Pt  Pt32  1  0.315439  0.000000  0.999913  1
