# generated using pymatgen
data_HoTm2Al5Ni
_symmetry_space_group_name_H-M   'P 1'
_cell_length_a   6.88124900
_cell_length_b   6.91382967
_cell_length_c   4.25563800
_cell_angle_alpha   90.00000000
_cell_angle_beta   90.00000000
_cell_angle_gamma   119.84425173
_symmetry_Int_Tables_number   1
_chemical_formula_structural   HoTm2Al5Ni
_chemical_formula_sum   'Ho1 Tm2 Al5 Ni1'
_cell_volume   175.61463834
_cell_formula_units_Z   1
loop_
 _symmetry_equiv_pos_site_id
 _symmetry_equiv_pos_as_xyz
  1  'x, y, z'
loop_
 _atom_site_type_symbol
 _atom_site_label
 _atom_site_symmetry_multiplicity
 _atom_site_fract_x
 _atom_site_fract_y
 _atom_site_fract_z
 _atom_site_occupancy
  Ho  Ho0  1  0.593999  0.000000  0.000000  1
  Tm  Tm1  1  0.999191  0.596079  0.000000  1
  Tm  Tm2  1  0.403111  0.403921  0.000000  1
  Al  Al3  1  0.230642  0.000000  0.500000  1
  Al  Al4  1  0.000325  0.230732  0.500000  1
  Al  Al5  1  0.769592  0.769268  0.500000  1
  Al  Al6  1  0.332315  0.664883  0.500000  1
  Al  Al7  1  0.667433  0.335117  0.500000  1
  Ni  Ni8  1  0.003392  0.000000  0.000000  1
