# generated using pymatgen
data_NpCl8
_symmetry_space_group_name_H-M   'P 1'
_cell_length_a   7.25811901
_cell_length_b   9.73924064
_cell_length_c   11.36580918
_cell_angle_alpha   86.11439498
_cell_angle_beta   78.28449042
_cell_angle_gamma   82.33681737
_symmetry_Int_Tables_number   1
_chemical_formula_structural   NpCl8
_chemical_formula_sum   'Np2 Cl16'
_cell_volume   778.98405048
_cell_formula_units_Z   2
loop_
 _symmetry_equiv_pos_site_id
 _symmetry_equiv_pos_as_xyz
  1  'x, y, z'
loop_
 _atom_site_type_symbol
 _atom_site_label
 _atom_site_symmetry_multiplicity
 _atom_site_fract_x
 _atom_site_fract_y
 _atom_site_fract_z
 _atom_site_occupancy
  Np  Np0  1  0.950074  0.491094  0.107200  1
  Np  Np1  1  0.219454  0.913731  0.545762  1
  Cl  Cl2  1  0.493476  0.081452  0.054923  1
  Cl  Cl3  1  0.758552  0.474901  0.617602  1
  Cl  Cl4  1  0.878764  0.255248  0.085441  1
  Cl  Cl5  1  0.199309  0.391329  0.216777  1
  Cl  Cl6  1  0.444658  0.899946  0.353259  1
  Cl  Cl7  1  0.405649  0.013286  0.916847  1
  Cl  Cl8  1  0.027346  0.725279  0.129189  1
  Cl  Cl9  1  0.174349  0.478152  0.913569  1
  Cl  Cl10  1  0.700514  0.588385  0.997333  1
  Cl  Cl11  1  0.143834  0.680411  0.519848  1
  Cl  Cl12  1  0.473028  0.815873  0.652108  1
  Cl  Cl13  1  0.718984  0.503755  0.298574  1
  Cl  Cl14  1  0.693893  0.311746  0.726126  1
  Cl  Cl15  1  0.300200  0.145874  0.568662  1
  Cl  Cl16  1  0.997221  0.925319  0.740143  1
  Cl  Cl17  1  0.967698  0.013317  0.439039  1
