# generated using pymatgen
data_LiPr8Zn7Rh8
_symmetry_space_group_name_H-M   'P 1'
_cell_length_a   4.10197800
_cell_length_b   7.30356849
_cell_length_c   16.57276603
_cell_angle_alpha   90.16422054
_cell_angle_beta   90.00000000
_cell_angle_gamma   90.00000000
_symmetry_Int_Tables_number   1
_chemical_formula_structural   LiPr8Zn7Rh8
_chemical_formula_sum   'Li1 Pr8 Zn7 Rh8'
_cell_volume   496.50273895
_cell_formula_units_Z   1
loop_
 _symmetry_equiv_pos_site_id
 _symmetry_equiv_pos_as_xyz
  1  'x, y, z'
loop_
 _atom_site_type_symbol
 _atom_site_label
 _atom_site_symmetry_multiplicity
 _atom_site_fract_x
 _atom_site_fract_y
 _atom_site_fract_z
 _atom_site_occupancy
  Li  Li0  1  0.250000  0.991996  0.439438  1
  Pr  Pr1  1  0.750000  0.455082  0.217589  1
  Pr  Pr2  1  0.750000  0.956003  0.282415  1
  Pr  Pr3  1  0.750000  0.832931  0.060134  1
  Pr  Pr4  1  0.250000  0.044610  0.717089  1
  Pr  Pr5  1  0.250000  0.168149  0.939765  1
  Pr  Pr6  1  0.250000  0.545468  0.782597  1
  Pr  Pr7  1  0.750000  0.335515  0.440451  1
  Pr  Pr8  1  0.250000  0.668017  0.560656  1
  Zn  Zn9  1  0.750000  0.501641  0.939585  1
  Zn  Zn10  1  0.750000  0.002507  0.558480  1
  Zn  Zn11  1  0.250000  0.631168  0.350920  1
  Zn  Zn12  1  0.750000  0.373326  0.649296  1
  Zn  Zn13  1  0.750000  0.873669  0.850883  1
  Zn  Zn14  1  0.250000  0.498846  0.060674  1
  Zn  Zn15  1  0.250000  0.126997  0.149502  1
  Rh  Rh16  1  0.250000  0.244760  0.566085  1
  Rh  Rh17  1  0.750000  0.256816  0.064935  1
  Rh  Rh18  1  0.250000  0.250841  0.311482  1
  Rh  Rh19  1  0.750000  0.253850  0.812502  1
  Rh  Rh20  1  0.250000  0.741580  0.934982  1
  Rh  Rh21  1  0.750000  0.753319  0.686929  1
  Rh  Rh22  1  0.750000  0.745853  0.436059  1
  Rh  Rh23  1  0.250000  0.747057  0.187552  1
