# generated using pymatgen
data_Ti3Co4Si3MoP
_symmetry_space_group_name_H-M   'P 1'
_cell_length_a   3.61292500
_cell_length_b   6.09458314
_cell_length_c   6.91066053
_cell_angle_alpha   89.71079890
_cell_angle_beta   90.00000000
_cell_angle_gamma   90.00000000
_symmetry_Int_Tables_number   1
_chemical_formula_structural   Ti3Co4Si3MoP
_chemical_formula_sum   'Ti3 Co4 Si3 Mo1 P1'
_cell_volume   152.16577403
_cell_formula_units_Z   1
loop_
 _symmetry_equiv_pos_site_id
 _symmetry_equiv_pos_as_xyz
  1  'x, y, z'
loop_
 _atom_site_type_symbol
 _atom_site_label
 _atom_site_symmetry_multiplicity
 _atom_site_fract_x
 _atom_site_fract_y
 _atom_site_fract_z
 _atom_site_occupancy
  Ti  Ti0  1  0.750000  0.481023  0.317040  1
  Ti  Ti1  1  0.250000  0.523392  0.683012  1
  Ti  Ti2  1  0.750000  0.977778  0.183934  1
  Co  Co3  1  0.250000  0.647077  0.070587  1
  Co  Co4  1  0.750000  0.363169  0.937253  1
  Co  Co5  1  0.250000  0.136381  0.434257  1
  Co  Co6  1  0.750000  0.851428  0.554374  1
  Si  Si7  1  0.750000  0.732240  0.880291  1
  Si  Si8  1  0.750000  0.224686  0.620469  1
  Si  Si9  1  0.250000  0.271064  0.115516  1
  Mo  Mo10  1  0.250000  0.023883  0.821315  1
  P  P11  1  0.250000  0.767877  0.381952  1
