# generated using pymatgen
data_Tb13Pr2Nd5Sn16
_symmetry_space_group_name_H-M   'P 1'
_cell_length_a   8.15056249
_cell_length_b   8.32027967
_cell_length_c   15.69351603
_cell_angle_alpha   90.03122819
_cell_angle_beta   90.23237368
_cell_angle_gamma   89.78851808
_symmetry_Int_Tables_number   1
_chemical_formula_structural   Tb13Pr2Nd5Sn16
_chemical_formula_sum   'Tb13 Pr2 Nd5 Sn16'
_cell_volume   1064.23900057
_cell_formula_units_Z   1
loop_
 _symmetry_equiv_pos_site_id
 _symmetry_equiv_pos_as_xyz
  1  'x, y, z'
loop_
 _atom_site_type_symbol
 _atom_site_label
 _atom_site_symmetry_multiplicity
 _atom_site_fract_x
 _atom_site_fract_y
 _atom_site_fract_z
 _atom_site_occupancy
  Tb  Tb0  1  0.362895  0.835734  0.877460  1
  Tb  Tb1  1  0.861122  0.663791  0.622964  1
  Tb  Tb2  1  0.638237  0.164133  0.377389  1
  Tb  Tb3  1  0.135899  0.336821  0.121252  1
  Tb  Tb4  1  0.635853  0.164020  0.122150  1
  Tb  Tb5  1  0.138237  0.335847  0.377794  1
  Tb  Tb6  1  0.362096  0.836488  0.623758  1
  Tb  Tb7  1  0.863657  0.663430  0.878358  1
  Tb  Tb8  1  0.518996  0.321760  0.901332  1
  Tb  Tb9  1  0.197243  0.501597  0.750927  1
  Tb  Tb10  1  0.696739  0.997929  0.750667  1
  Tb  Tb11  1  0.802602  0.497900  0.249445  1
  Tb  Tb12  1  0.302973  0.002134  0.249656  1
  Pr  Pr13  1  0.513342  0.321444  0.596629  1
  Pr  Pr14  1  0.014975  0.180272  0.902879  1
  Nd  Nd15  1  0.014666  0.179546  0.598455  1
  Nd  Nd16  1  0.485848  0.679021  0.403118  1
  Nd  Nd17  1  0.984895  0.820577  0.096441  1
  Nd  Nd18  1  0.484184  0.677648  0.096582  1
  Nd  Nd19  1  0.985933  0.821162  0.403315  1
  Sn  Sn20  1  0.301462  0.039844  0.041764  1
  Sn  Sn21  1  0.802341  0.459803  0.457942  1
  Sn  Sn22  1  0.698196  0.960135  0.542370  1
  Sn  Sn23  1  0.205406  0.536096  0.956460  1
  Sn  Sn24  1  0.697532  0.962419  0.957332  1
  Sn  Sn25  1  0.197356  0.541806  0.542202  1
  Sn  Sn26  1  0.302059  0.039647  0.458364  1
  Sn  Sn27  1  0.796081  0.457564  0.040282  1
  Sn  Sn28  1  0.562461  0.620882  0.750672  1
  Sn  Sn29  1  0.062154  0.877689  0.750244  1
  Sn  Sn30  1  0.436785  0.377957  0.249877  1
  Sn  Sn31  1  0.937584  0.122902  0.249547  1
  Sn  Sn32  1  0.327147  0.143975  0.751856  1
  Sn  Sn33  1  0.821773  0.358203  0.750670  1
  Sn  Sn34  1  0.675669  0.857851  0.249854  1
  Sn  Sn35  1  0.175602  0.641975  0.249990  1
