# generated using pymatgen
data_LuPa5(AlPt)6
_symmetry_space_group_name_H-M   'P 1'
_cell_length_a   7.03209467
_cell_length_b   7.03300375
_cell_length_c   8.35360900
_cell_angle_alpha   90.00000000
_cell_angle_beta   90.00000000
_cell_angle_gamma   120.10146178
_symmetry_Int_Tables_number   1
_chemical_formula_structural   LuPa5(AlPt)6
_chemical_formula_sum   'Lu1 Pa5 Al6 Pt6'
_cell_volume   357.42539339
_cell_formula_units_Z   1
loop_
 _symmetry_equiv_pos_site_id
 _symmetry_equiv_pos_as_xyz
  1  'x, y, z'
loop_
 _atom_site_type_symbol
 _atom_site_label
 _atom_site_symmetry_multiplicity
 _atom_site_fract_x
 _atom_site_fract_y
 _atom_site_fract_z
 _atom_site_occupancy
  Lu  Lu0  1  0.412600  0.412744  0.250000  1
  Pa  Pa1  1  0.998654  0.579692  0.750000  1
  Pa  Pa2  1  0.000766  0.576826  0.250000  1
  Pa  Pa3  1  0.577627  0.001583  0.250000  1
  Pa  Pa4  1  0.580029  0.998177  0.750000  1
  Pa  Pa5  1  0.428146  0.428766  0.750000  1
  Al  Al6  1  0.003548  0.238806  0.498646  1
  Al  Al7  1  0.758179  0.758307  0.004117  1
  Al  Al8  1  0.003548  0.238806  0.001354  1
  Al  Al9  1  0.239484  0.003908  0.498548  1
  Al  Al10  1  0.239484  0.003908  0.001452  1
  Al  Al11  1  0.758179  0.758307  0.495883  1
  Pt  Pt12  1  0.331381  0.670045  0.499321  1
  Pt  Pt13  1  0.670056  0.332045  0.499728  1
  Pt  Pt14  1  0.670056  0.332045  0.000272  1
  Pt  Pt15  1  0.994211  0.993794  0.250000  1
  Pt  Pt16  1  0.002672  0.002194  0.750000  1
  Pt  Pt17  1  0.331381  0.670045  0.000679  1
