# generated using pymatgen
data_Dy3Tm6Lu3Os4
_symmetry_space_group_name_H-M   'P 1'
_cell_length_a   7.37287077
_cell_length_b   8.88077168
_cell_length_c   6.23498957
_cell_angle_alpha   90.04423218
_cell_angle_beta   89.93878836
_cell_angle_gamma   89.99221165
_symmetry_Int_Tables_number   1
_chemical_formula_structural   Dy3Tm6Lu3Os4
_chemical_formula_sum   'Dy3 Tm6 Lu3 Os4'
_cell_volume   408.24669399
_cell_formula_units_Z   1
loop_
 _symmetry_equiv_pos_site_id
 _symmetry_equiv_pos_as_xyz
  1  'x, y, z'
loop_
 _atom_site_type_symbol
 _atom_site_label
 _atom_site_symmetry_multiplicity
 _atom_site_fract_x
 _atom_site_fract_y
 _atom_site_fract_z
 _atom_site_occupancy
  Dy  Dy0  1  0.539372  0.250199  0.872629  1
  Dy  Dy1  1  0.039400  0.250104  0.627683  1
  Dy  Dy2  1  0.460696  0.749906  0.128034  1
  Tm  Tm3  1  0.675495  0.062317  0.335108  1
  Tm  Tm4  1  0.173537  0.438020  0.165487  1
  Tm  Tm5  1  0.324954  0.562725  0.664302  1
  Tm  Tm6  1  0.825793  0.936845  0.834094  1
  Tm  Tm7  1  0.324747  0.937291  0.664442  1
  Tm  Tm8  1  0.960335  0.749860  0.371918  1
  Lu  Lu9  1  0.825729  0.563034  0.833869  1
  Lu  Lu10  1  0.675366  0.437877  0.335174  1
  Lu  Lu11  1  0.173475  0.061993  0.165556  1
  Os  Os12  1  0.883055  0.250270  0.043014  1
  Os  Os13  1  0.383009  0.249933  0.456634  1
  Os  Os14  1  0.116112  0.750100  0.960623  1
  Os  Os15  1  0.618927  0.749524  0.541435  1
