# generated using pymatgen
data_HoLu2ScCo4(Ni2P3)2
_symmetry_space_group_name_H-M   'P 1'
_cell_length_a   3.70163000
_cell_length_b   10.61825800
_cell_length_c   12.28283000
_cell_angle_alpha   90.00000000
_cell_angle_beta   90.00000000
_cell_angle_gamma   90.00000000
_symmetry_Int_Tables_number   1
_chemical_formula_structural   HoLu2ScCo4(Ni2P3)2
_chemical_formula_sum   'Ho2 Lu4 Sc2 Co8 Ni8 P12'
_cell_volume   482.77494255
_cell_formula_units_Z   2
loop_
 _symmetry_equiv_pos_site_id
 _symmetry_equiv_pos_as_xyz
  1  'x, y, z'
loop_
 _atom_site_type_symbol
 _atom_site_label
 _atom_site_symmetry_multiplicity
 _atom_site_fract_x
 _atom_site_fract_y
 _atom_site_fract_z
 _atom_site_occupancy
  Ho  Ho0  1  0.000000  0.500000  0.528174  1
  Ho  Ho1  1  0.500000  0.000000  0.470698  1
  Lu  Lu2  1  0.500000  0.821973  0.203877  1
  Lu  Lu3  1  0.500000  0.178027  0.203877  1
  Lu  Lu4  1  0.000000  0.677417  0.796234  1
  Lu  Lu5  1  0.000000  0.322583  0.796234  1
  Sc  Sc6  1  0.500000  0.500000  0.156908  1
  Sc  Sc7  1  0.000000  0.000000  0.842354  1
  Co  Co8  1  0.000000  0.500000  0.988449  1
  Co  Co9  1  0.500000  0.000000  0.012303  1
  Co  Co10  1  0.000000  0.622886  0.294196  1
  Co  Co11  1  0.000000  0.377114  0.294196  1
  Co  Co12  1  0.500000  0.332110  0.994792  1
  Co  Co13  1  0.500000  0.667890  0.994792  1
  Co  Co14  1  0.000000  0.168154  0.005654  1
  Co  Co15  1  0.000000  0.831846  0.005654  1
  Ni  Ni16  1  0.500000  0.298435  0.432377  1
  Ni  Ni17  1  0.500000  0.701565  0.432377  1
  Ni  Ni18  1  0.000000  0.203079  0.566866  1
  Ni  Ni19  1  0.000000  0.796921  0.566866  1
  Ni  Ni20  1  0.500000  0.877594  0.705609  1
  Ni  Ni21  1  0.500000  0.122406  0.705609  1
  Ni  Ni22  1  0.500000  0.500000  0.706893  1
  Ni  Ni23  1  0.000000  0.000000  0.294252  1
  P  P24  1  0.500000  0.315816  0.618831  1
  P  P25  1  0.500000  0.684184  0.618831  1
  P  P26  1  0.000000  0.186857  0.379685  1
  P  P27  1  0.000000  0.813143  0.379685  1
  P  P28  1  0.500000  0.500000  0.885084  1
  P  P29  1  0.000000  0.000000  0.115558  1
  P  P30  1  0.500000  0.837513  0.894731  1
  P  P31  1  0.500000  0.162487  0.894731  1
  P  P32  1  0.000000  0.661809  0.108354  1
  P  P33  1  0.000000  0.338191  0.108354  1
  P  P34  1  0.500000  0.500000  0.359929  1
  P  P35  1  0.000000  0.000000  0.636985  1
