# generated using pymatgen
data_K(ZrSe2)4
_symmetry_space_group_name_H-M   'P 1'
_cell_length_a   9.79985878
_cell_length_b   9.79985914
_cell_length_c   9.79985800
_cell_angle_alpha   45.15725354
_cell_angle_beta   45.15725144
_cell_angle_gamma   45.15725443
_symmetry_Int_Tables_number   1
_chemical_formula_structural   K(ZrSe2)4
_chemical_formula_sum   'K1 Zr4 Se8'
_cell_volume   430.80306587
_cell_formula_units_Z   1
loop_
 _symmetry_equiv_pos_site_id
 _symmetry_equiv_pos_as_xyz
  1  'x, y, z'
loop_
 _atom_site_type_symbol
 _atom_site_label
 _atom_site_symmetry_multiplicity
 _atom_site_fract_x
 _atom_site_fract_y
 _atom_site_fract_z
 _atom_site_occupancy
  K  K0  1  0.500000  0.500000  0.500000  1
  Zr  Zr1  1  0.000000  0.500000  0.500000  1
  Zr  Zr2  1  0.500000  0.000000  0.500000  1
  Zr  Zr3  1  0.500000  0.500000  0.000000  1
  Zr  Zr4  1  0.000000  0.000000  0.000000  1
  Se  Se5  1  0.270270  0.771879  0.771879  1
  Se  Se6  1  0.228121  0.228121  0.729730  1
  Se  Se7  1  0.729730  0.228121  0.228121  1
  Se  Se8  1  0.228121  0.729730  0.228121  1
  Se  Se9  1  0.271969  0.271969  0.271969  1
  Se  Se10  1  0.728031  0.728031  0.728031  1
  Se  Se11  1  0.771879  0.270270  0.771879  1
  Se  Se12  1  0.771879  0.771879  0.270270  1
