# generated using pymatgen
data_Ta12Tc5B12Os7
_symmetry_space_group_name_H-M   'P 1'
_cell_length_a   3.15146900
_cell_length_b   9.06803162
_cell_length_c   15.69134941
_cell_angle_alpha   90.05060397
_cell_angle_beta   90.00000000
_cell_angle_gamma   90.00000000
_symmetry_Int_Tables_number   1
_chemical_formula_structural   Ta12Tc5B12Os7
_chemical_formula_sum   'Ta12 Tc5 B12 Os7'
_cell_volume   448.42125437
_cell_formula_units_Z   1
loop_
 _symmetry_equiv_pos_site_id
 _symmetry_equiv_pos_as_xyz
  1  'x, y, z'
loop_
 _atom_site_type_symbol
 _atom_site_label
 _atom_site_symmetry_multiplicity
 _atom_site_fract_x
 _atom_site_fract_y
 _atom_site_fract_z
 _atom_site_occupancy
  Ta  Ta0  1  0.000000  0.799111  0.494508  1
  Ta  Ta1  1  0.000000  0.200970  0.505266  1
  Ta  Ta2  1  0.000000  0.301769  0.006634  1
  Ta  Ta3  1  0.000000  0.699512  0.995153  1
  Ta  Ta4  1  0.000000  0.514721  0.594146  1
  Ta  Ta5  1  0.000000  0.485401  0.405557  1
  Ta  Ta6  1  0.000000  0.015451  0.906055  1
  Ta  Ta7  1  0.000000  0.985651  0.094453  1
  Ta  Ta8  1  0.000000  0.680655  0.204155  1
  Ta  Ta9  1  0.000000  0.316091  0.794095  1
  Ta  Ta10  1  0.000000  0.183672  0.293392  1
  Ta  Ta11  1  0.000000  0.815978  0.706219  1
  Tc  Tc12  1  0.500000  0.717780  0.358090  1
  Tc  Tc13  1  0.500000  0.281809  0.642264  1
  Tc  Tc14  1  0.500000  0.217076  0.142938  1
  Tc  Tc15  1  0.500000  0.782214  0.857576  1
  Tc  Tc16  1  0.500000  0.519826  0.094744  1
  B  B17  1  0.500000  0.604986  0.496342  1
  B  B18  1  0.500000  0.395013  0.503729  1
  B  B19  1  0.500000  0.105614  0.004061  1
  B  B20  1  0.500000  0.895721  0.996204  1
  B  B21  1  0.000000  0.612259  0.833696  1
  B  B22  1  0.000000  0.389750  0.165463  1
  B  B23  1  0.000000  0.112143  0.666413  1
  B  B24  1  0.000000  0.887145  0.333291  1
  B  B25  1  0.500000  0.714113  0.600521  1
  B  B26  1  0.500000  0.285740  0.399410  1
  B  B27  1  0.500000  0.214820  0.899846  1
  B  B28  1  0.500000  0.786445  0.100712  1
  Os  Os29  1  0.500000  0.480315  0.904081  1
  Os  Os30  1  0.500000  0.019156  0.405387  1
  Os  Os31  1  0.500000  0.980693  0.594969  1
  Os  Os32  1  0.500000  0.567495  0.732755  1
  Os  Os33  1  0.500000  0.431943  0.267622  1
  Os  Os34  1  0.500000  0.067356  0.766762  1
  Os  Os35  1  0.500000  0.931609  0.233491  1
