# generated using pymatgen
data_Ca4TeP2
_symmetry_space_group_name_H-M   'P 1'
_cell_length_a   7.79335762
_cell_length_b   7.79335592
_cell_length_c   7.79321284
_cell_angle_alpha   109.15244258
_cell_angle_beta   109.15243478
_cell_angle_gamma   110.10913624
_symmetry_Int_Tables_number   1
_chemical_formula_structural   Ca4TeP2
_chemical_formula_sum   'Ca8 Te2 P4'
_cell_volume   364.34391973
_cell_formula_units_Z   2
loop_
 _symmetry_equiv_pos_site_id
 _symmetry_equiv_pos_as_xyz
  1  'x, y, z'
loop_
 _atom_site_type_symbol
 _atom_site_label
 _atom_site_symmetry_multiplicity
 _atom_site_fract_x
 _atom_site_fract_y
 _atom_site_fract_z
 _atom_site_occupancy
  Ca  Ca0  1  0.647666  0.892664  0.897586  1
  Ca  Ca1  1  0.249922  0.352333  0.245000  1
  Ca  Ca2  1  0.107332  0.004919  0.755010  1
  Ca  Ca3  1  0.500084  0.245076  0.602410  1
  Ca  Ca4  1  0.102333  0.499922  0.745000  1
  Ca  Ca5  1  0.754919  0.357332  0.255010  1
  Ca  Ca6  1  0.995076  0.750084  0.102410  1
  Ca  Ca7  1  0.642664  0.897666  0.397586  1
  Te  Te8  1  0.499997  0.499998  0.999998  1
  Te  Te9  1  0.249998  0.749997  0.499998  1
  P  P10  1  0.375002  0.994557  0.119557  1
  P  P11  1  0.005442  0.125007  0.380440  1
  P  P12  1  0.875007  0.255442  0.880440  1
  P  P13  1  0.744557  0.625002  0.619557  1
