# generated using pymatgen
data_Hf17Ni4Rh3
_symmetry_space_group_name_H-M   'P 1'
_cell_length_a   8.69771301
_cell_length_b   8.61587628
_cell_length_c   8.61587700
_cell_angle_alpha   60.00000108
_cell_angle_beta   60.31076302
_cell_angle_gamma   60.31076433
_symmetry_Int_Tables_number   1
_chemical_formula_structural   Hf17Ni4Rh3
_chemical_formula_sum   'Hf17 Ni4 Rh3'
_cell_volume   458.68347810
_cell_formula_units_Z   1
loop_
 _symmetry_equiv_pos_site_id
 _symmetry_equiv_pos_as_xyz
  1  'x, y, z'
loop_
 _atom_site_type_symbol
 _atom_site_label
 _atom_site_symmetry_multiplicity
 _atom_site_fract_x
 _atom_site_fract_y
 _atom_site_fract_z
 _atom_site_occupancy
  Hf  Hf0  1  0.669548  0.110150  0.110150  1
  Hf  Hf1  1  0.101730  0.698404  0.099932  1
  Hf  Hf2  1  0.101730  0.099932  0.698404  1
  Hf  Hf3  1  0.101730  0.099932  0.099932  1
  Hf  Hf4  1  0.317264  0.314917  0.683910  1
  Hf  Hf5  1  0.693011  0.678120  0.314435  1
  Hf  Hf6  1  0.317264  0.683910  0.314917  1
  Hf  Hf7  1  0.693011  0.314435  0.678120  1
  Hf  Hf8  1  0.693011  0.314435  0.314435  1
  Hf  Hf9  1  0.317264  0.683910  0.683910  1
  Hf  Hf10  1  0.941771  0.946756  0.555737  1
  Hf  Hf11  1  0.551317  0.550914  0.948884  1
  Hf  Hf12  1  0.941771  0.555737  0.946756  1
  Hf  Hf13  1  0.551317  0.948884  0.550914  1
  Hf  Hf14  1  0.551317  0.948884  0.948884  1
  Hf  Hf15  1  0.941771  0.555737  0.555737  1
  Hf  Hf16  1  0.020389  0.326536  0.326536  1
  Ni  Ni17  1  0.328260  0.890580  0.890580  1
  Ni  Ni18  1  0.885620  0.319971  0.897205  1
  Ni  Ni19  1  0.885620  0.897205  0.319971  1
  Ni  Ni20  1  0.885620  0.897205  0.897205  1
  Rh  Rh21  1  0.336554  0.986062  0.338692  1
  Rh  Rh22  1  0.336554  0.338692  0.986062  1
  Rh  Rh23  1  0.336554  0.338692  0.338692  1
