# generated using pymatgen
data_Zr8Al14GaRuRh6
_symmetry_space_group_name_H-M   'P 1'
_cell_length_a   8.91920259
_cell_length_b   8.93598837
_cell_length_c   8.92299077
_cell_angle_alpha   120.22181925
_cell_angle_beta   119.85361751
_cell_angle_gamma   89.88449872
_symmetry_Int_Tables_number   1
_chemical_formula_structural   Zr8Al14GaRuRh6
_chemical_formula_sum   'Zr8 Al14 Ga1 Ru1 Rh6'
_cell_volume   502.80682283
_cell_formula_units_Z   1
loop_
 _symmetry_equiv_pos_site_id
 _symmetry_equiv_pos_as_xyz
  1  'x, y, z'
loop_
 _atom_site_type_symbol
 _atom_site_label
 _atom_site_symmetry_multiplicity
 _atom_site_fract_x
 _atom_site_fract_y
 _atom_site_fract_z
 _atom_site_occupancy
  Zr  Zr0  1  0.800277  0.295145  0.080869  1
  Zr  Zr1  1  0.211222  0.294199  0.494876  1
  Zr  Zr2  1  0.195672  0.699232  0.499730  1
  Zr  Zr3  1  0.213153  0.719362  0.918964  1
  Zr  Zr4  1  0.802797  0.721769  0.505521  1
  Zr  Zr5  1  0.782518  0.276918  0.500249  1
  Zr  Zr6  1  0.376983  0.119059  0.739609  1
  Zr  Zr7  1  0.379109  0.638412  0.259572  1
  Al  Al8  1  0.159383  0.332593  0.174034  1
  Al  Al9  1  0.160299  0.987743  0.827956  1
  Al  Al10  1  0.151987  0.342091  0.810365  1
  Al  Al11  1  0.535207  0.342750  0.192980  1
  Al  Al12  1  0.839282  0.657219  0.816564  1
  Al  Al13  1  0.839555  0.019398  0.180073  1
  Al  Al14  1  0.837157  0.662004  0.175030  1
  Al  Al15  1  0.483606  0.660743  0.822621  1
  Al  Al16  1  0.379641  0.122711  0.258161  1
  Al  Al17  1  0.865667  0.121943  0.743316  1
  Al  Al18  1  0.623872  0.875114  0.253294  1
  Al  Al19  1  0.621748  0.368936  0.745909  1
  Al  Al20  1  0.623632  0.878594  0.745553  1
  Al  Al21  1  0.132397  0.878594  0.255771  1
  Ga  Ga22  1  0.986283  0.487625  0.499293  1
  Ru  Ru23  1  0.998243  0.999710  0.501363  1
  Rh  Rh24  1  0.498707  0.999411  0.001955  1
  Rh  Rh25  1  0.498994  0.498837  0.000120  1
  Rh  Rh26  1  0.498590  0.497163  0.499229  1
  Rh  Rh27  1  0.997467  0.497137  0.998210  1
  Rh  Rh28  1  0.998856  0.998205  0.999630  1
  Rh  Rh29  1  0.507693  0.007377  0.499180  1
