# generated using pymatgen
data_Y16Er4(Ir3Os)3
_symmetry_space_group_name_H-M   'P 1'
_cell_length_a   10.90060200
_cell_length_b   10.90060200
_cell_length_c   6.42159800
_cell_angle_alpha   90.00000000
_cell_angle_beta   90.00000000
_cell_angle_gamma   90.00000000
_symmetry_Int_Tables_number   1
_chemical_formula_structural   Y16Er4(Ir3Os)3
_chemical_formula_sum   'Y16 Er4 Ir9 Os3'
_cell_volume   763.03433519
_cell_formula_units_Z   1
loop_
 _symmetry_equiv_pos_site_id
 _symmetry_equiv_pos_as_xyz
  1  'x, y, z'
loop_
 _atom_site_type_symbol
 _atom_site_label
 _atom_site_symmetry_multiplicity
 _atom_site_fract_x
 _atom_site_fract_y
 _atom_site_fract_z
 _atom_site_occupancy
  Y  Y0  1  0.293383  0.086494  0.377842  1
  Y  Y1  1  0.293397  0.913827  0.878021  1
  Y  Y2  1  0.706603  0.086173  0.878021  1
  Y  Y3  1  0.706617  0.913506  0.377842  1
  Y  Y4  1  0.586173  0.793397  0.878021  1
  Y  Y5  1  0.586494  0.206617  0.377842  1
  Y  Y6  1  0.413506  0.793383  0.377842  1
  Y  Y7  1  0.413827  0.206603  0.878021  1
  Y  Y8  1  0.208460  0.412929  0.623890  1
  Y  Y9  1  0.207951  0.587173  0.119920  1
  Y  Y10  1  0.792049  0.412827  0.119920  1
  Y  Y11  1  0.791540  0.587071  0.623890  1
  Y  Y12  1  0.912827  0.707951  0.119920  1
  Y  Y13  1  0.912929  0.291540  0.623890  1
  Y  Y14  1  0.087071  0.708460  0.623890  1
  Y  Y15  1  0.087173  0.292049  0.119920  1
  Er  Er16  1  0.000000  0.000000  0.499559  1
  Er  Er17  1  0.000000  0.000000  0.999756  1
  Er  Er18  1  0.500000  0.500000  0.999756  1
  Er  Er19  1  0.500000  0.500000  0.499559  1
  Ir  Ir20  1  0.849887  0.151605  0.250176  1
  Ir  Ir21  1  0.849610  0.848681  0.749665  1
  Ir  Ir22  1  0.150390  0.151319  0.749665  1
  Ir  Ir23  1  0.150113  0.848395  0.250176  1
  Ir  Ir24  1  0.651319  0.349610  0.749665  1
  Ir  Ir25  1  0.651605  0.650113  0.250176  1
  Ir  Ir26  1  0.348395  0.349887  0.250176  1
  Ir  Ir27  1  0.348681  0.650390  0.749665  1
  Ir  Ir28  1  0.000000  0.500000  0.377067  1
  Os  Os29  1  0.500000  0.000000  0.125626  1
  Os  Os30  1  0.500000  0.000000  0.625409  1
  Os  Os31  1  0.000000  0.500000  0.875212  1
