# generated using pymatgen
data_LiPr4Al3Pd4
_symmetry_space_group_name_H-M   'P 1'
_cell_length_a   4.53087500
_cell_length_b   7.10019600
_cell_length_c   8.00303500
_cell_angle_alpha   89.91399411
_cell_angle_beta   90.00000000
_cell_angle_gamma   90.00000000
_symmetry_Int_Tables_number   1
_chemical_formula_structural   LiPr4Al3Pd4
_chemical_formula_sum   'Li1 Pr4 Al3 Pd4'
_cell_volume   257.45815058
_cell_formula_units_Z   1
loop_
 _symmetry_equiv_pos_site_id
 _symmetry_equiv_pos_as_xyz
  1  'x, y, z'
loop_
 _atom_site_type_symbol
 _atom_site_label
 _atom_site_symmetry_multiplicity
 _atom_site_fract_x
 _atom_site_fract_y
 _atom_site_fract_z
 _atom_site_occupancy
  Li  Li0  1  0.750000  0.870852  0.932942  1
  Pr  Pr1  1  0.750000  0.463147  0.185352  1
  Pr  Pr2  1  0.250000  0.031564  0.683514  1
  Pr  Pr3  1  0.750000  0.969826  0.314715  1
  Pr  Pr4  1  0.250000  0.531835  0.816956  1
  Al  Al5  1  0.250000  0.643098  0.435790  1
  Al  Al6  1  0.750000  0.347354  0.566943  1
  Al  Al7  1  0.250000  0.142058  0.064270  1
  Pd  Pd8  1  0.750000  0.712016  0.599534  1
  Pd  Pd9  1  0.750000  0.236199  0.887175  1
  Pd  Pd10  1  0.250000  0.278388  0.390338  1
  Pd  Pd11  1  0.250000  0.773664  0.122471  1
