# generated using pymatgen
data_CsAg3I20
_symmetry_space_group_name_H-M   'P 1'
_cell_length_a   10.58954649
_cell_length_b   10.51218312
_cell_length_c   14.63474802
_cell_angle_alpha   104.97876406
_cell_angle_beta   85.35878557
_cell_angle_gamma   95.37515060
_symmetry_Int_Tables_number   1
_chemical_formula_structural   CsAg3I20
_chemical_formula_sum   'Cs1 Ag3 I20'
_cell_volume   1564.12817156
_cell_formula_units_Z   1
loop_
 _symmetry_equiv_pos_site_id
 _symmetry_equiv_pos_as_xyz
  1  'x, y, z'
loop_
 _atom_site_type_symbol
 _atom_site_label
 _atom_site_symmetry_multiplicity
 _atom_site_fract_x
 _atom_site_fract_y
 _atom_site_fract_z
 _atom_site_occupancy
  Cs  Cs0  1  0.110171  0.756623  0.458654  1
  Ag  Ag1  1  0.426319  0.855665  0.972590  1
  Ag  Ag2  1  0.553633  0.144539  0.035836  1
  Ag  Ag3  1  0.915527  0.164968  0.522740  1
  I  I4  1  0.235353  0.500737  0.596436  1
  I  I5  1  0.779971  0.501612  0.388005  1
  I  I6  1  0.672661  0.499409  0.902489  1
  I  I7  1  0.323187  0.509042  0.117900  1
  I  I8  1  0.046408  0.339617  0.675947  1
  I  I9  1  0.846258  0.694611  0.287552  1
  I  I10  1  0.575759  0.690947  0.826852  1
  I  I11  1  0.426706  0.317061  0.190836  1
  I  I12  1  0.402992  0.893188  0.707586  1
  I  I13  1  0.648707  0.093060  0.297006  1
  I  I14  1  0.800177  0.096873  0.773502  1
  I  I15  1  0.169172  0.927215  0.228780  1
  I  I16  1  0.209794  0.720630  0.043118  1
  I  I17  1  0.780164  0.274265  0.968897  1
  I  I18  1  0.693245  0.274241  0.487862  1
  I  I19  1  0.441329  0.691650  0.527940  1
  I  I20  1  0.807592  0.934247  0.579463  1
  I  I21  1  0.145268  0.120488  0.407528  1
  I  I22  1  0.357537  0.068917  0.899251  1
  I  I23  1  0.632070  0.930393  0.103230  1
