# generated using pymatgen
data_Er10Zn3NiBi2
_symmetry_space_group_name_H-M   'P 1'
_cell_length_a   8.50143447
_cell_length_b   8.50143479
_cell_length_c   8.60305883
_cell_angle_alpha   124.12399280
_cell_angle_beta   124.12398770
_cell_angle_gamma   82.21922295
_symmetry_Int_Tables_number   1
_chemical_formula_structural   Er10Zn3NiBi2
_chemical_formula_sum   'Er10 Zn3 Ni1 Bi2'
_cell_volume   411.25670615
_cell_formula_units_Z   1
loop_
 _symmetry_equiv_pos_site_id
 _symmetry_equiv_pos_as_xyz
  1  'x, y, z'
loop_
 _atom_site_type_symbol
 _atom_site_label
 _atom_site_symmetry_multiplicity
 _atom_site_fract_x
 _atom_site_fract_y
 _atom_site_fract_z
 _atom_site_occupancy
  Er  Er0  1  0.002659  0.000660  0.003319  1
  Er  Er1  1  0.499340  0.497341  0.996681  1
  Er  Er2  1  0.781139  0.293515  0.794895  1
  Er  Er3  1  0.206485  0.718861  0.205105  1
  Er  Er4  1  0.486243  0.998619  0.205105  1
  Er  Er5  1  0.303248  0.470160  0.500000  1
  Er  Er6  1  0.029840  0.196752  0.500000  1
  Er  Er7  1  0.501381  0.013757  0.794895  1
  Er  Er8  1  0.706152  0.513609  0.500000  1
  Er  Er9  1  0.986391  0.793848  0.500000  1
  Zn  Zn10  1  0.138533  0.639491  0.778025  1
  Zn  Zn11  1  0.860509  0.361467  0.221975  1
  Zn  Zn12  1  0.634931  0.865069  0.500000  1
  Ni  Ni13  1  0.372066  0.127934  0.500000  1
  Bi  Bi14  1  0.245541  0.254459  0.000000  1
  Bi  Bi15  1  0.745541  0.754459  0.000000  1
