# generated using pymatgen
data_Ce3Er2Ir2Os
_symmetry_space_group_name_H-M   'P 1'
_cell_length_a   10.95750500
_cell_length_b   11.10750200
_cell_length_c   6.28359800
_cell_angle_alpha   90.00000000
_cell_angle_beta   90.00000000
_cell_angle_gamma   90.00000000
_symmetry_Int_Tables_number   1
_chemical_formula_structural   Ce3Er2Ir2Os
_chemical_formula_sum   'Ce12 Er8 Ir8 Os4'
_cell_volume   764.77990906
_cell_formula_units_Z   4
loop_
 _symmetry_equiv_pos_site_id
 _symmetry_equiv_pos_as_xyz
  1  'x, y, z'
loop_
 _atom_site_type_symbol
 _atom_site_label
 _atom_site_symmetry_multiplicity
 _atom_site_fract_x
 _atom_site_fract_y
 _atom_site_fract_z
 _atom_site_occupancy
  Ce  Ce0  1  0.292582  0.089841  0.378561  1
  Ce  Ce1  1  0.292582  0.910159  0.878561  1
  Ce  Ce2  1  0.707418  0.089841  0.878561  1
  Ce  Ce3  1  0.707418  0.910159  0.378561  1
  Ce  Ce4  1  0.591826  0.788519  0.881935  1
  Ce  Ce5  1  0.591826  0.211481  0.381935  1
  Ce  Ce6  1  0.408174  0.788519  0.381935  1
  Ce  Ce7  1  0.408174  0.211481  0.881935  1
  Ce  Ce8  1  0.201704  0.412327  0.619225  1
  Ce  Ce9  1  0.201704  0.587673  0.119225  1
  Ce  Ce10  1  0.798296  0.412327  0.119225  1
  Ce  Ce11  1  0.798296  0.587673  0.619225  1
  Er  Er12  1  0.914560  0.712059  0.121113  1
  Er  Er13  1  0.914560  0.287941  0.621113  1
  Er  Er14  1  0.085440  0.712059  0.621113  1
  Er  Er15  1  0.085440  0.287941  0.121113  1
  Er  Er16  1  0.000000  0.000000  0.496728  1
  Er  Er17  1  0.000000  0.000000  0.996728  1
  Er  Er18  1  0.500000  0.500000  0.005956  1
  Er  Er19  1  0.500000  0.500000  0.505956  1
  Ir  Ir20  1  0.844662  0.151123  0.242879  1
  Ir  Ir21  1  0.844662  0.848877  0.742879  1
  Ir  Ir22  1  0.155338  0.151123  0.742879  1
  Ir  Ir23  1  0.155338  0.848877  0.242879  1
  Ir  Ir24  1  0.654915  0.344275  0.754263  1
  Ir  Ir25  1  0.654915  0.655725  0.254263  1
  Ir  Ir26  1  0.345085  0.344275  0.254263  1
  Ir  Ir27  1  0.345085  0.655725  0.754263  1
  Os  Os28  1  0.500000  0.000000  0.125679  1
  Os  Os29  1  0.500000  0.000000  0.625679  1
  Os  Os30  1  0.000000  0.500000  0.875688  1
  Os  Os31  1  0.000000  0.500000  0.375688  1
