# generated using pymatgen
data_YbSc9(In2Pt)4
_symmetry_space_group_name_H-M   'P 1'
_cell_length_a   3.45456000
_cell_length_b   7.79730584
_cell_length_c   17.61580600
_cell_angle_alpha   90.03937140
_cell_angle_beta   90.00000000
_cell_angle_gamma   90.00000000
_symmetry_Int_Tables_number   1
_chemical_formula_structural   YbSc9(In2Pt)4
_chemical_formula_sum   'Yb1 Sc9 In8 Pt4'
_cell_volume   474.50383375
_cell_formula_units_Z   1
loop_
 _symmetry_equiv_pos_site_id
 _symmetry_equiv_pos_as_xyz
  1  'x, y, z'
loop_
 _atom_site_type_symbol
 _atom_site_label
 _atom_site_symmetry_multiplicity
 _atom_site_fract_x
 _atom_site_fract_y
 _atom_site_fract_z
 _atom_site_occupancy
  Yb  Yb0  1  0.000000  0.746846  0.281108  1
  Sc  Sc1  1  0.000000  0.121301  0.417699  1
  Sc  Sc2  1  0.000000  0.881229  0.585709  1
  Sc  Sc3  1  0.000000  0.378932  0.915093  1
  Sc  Sc4  1  0.000000  0.619612  0.082589  1
  Sc  Sc5  1  0.000000  0.248757  0.220880  1
  Sc  Sc6  1  0.000000  0.750069  0.778296  1
  Sc  Sc7  1  0.000000  0.251544  0.721540  1
  Sc  Sc8  1  0.000000  0.999693  0.998372  1
  Sc  Sc9  1  0.000000  0.501175  0.500243  1
  In  In10  1  0.500000  0.422089  0.353712  1
  In  In11  1  0.500000  0.575001  0.647339  1
  In  In12  1  0.500000  0.074557  0.852120  1
  In  In13  1  0.500000  0.927860  0.145131  1
  In  In14  1  0.500000  0.291582  0.063419  1
  In  In15  1  0.500000  0.705349  0.933819  1
  In  In16  1  0.500000  0.207201  0.566265  1
  In  In17  1  0.500000  0.797799  0.438594  1
  Pt  Pt18  1  0.500000  0.043607  0.305885  1
  Pt  Pt19  1  0.500000  0.967118  0.695706  1
  Pt  Pt20  1  0.500000  0.466672  0.804889  1
  Pt  Pt21  1  0.500000  0.522010  0.191590  1
