# generated using pymatgen
data_VMoAsCl13
_symmetry_space_group_name_H-M   'P 1'
_cell_length_a   9.93428296
_cell_length_b   9.93428255
_cell_length_c   12.20314400
_cell_angle_alpha   90.00000000
_cell_angle_beta   90.00000000
_cell_angle_gamma   115.83963502
_symmetry_Int_Tables_number   1
_chemical_formula_structural   VMoAsCl13
_chemical_formula_sum   'V2 Mo2 As2 Cl26'
_cell_volume   1083.91621718
_cell_formula_units_Z   2
loop_
 _symmetry_equiv_pos_site_id
 _symmetry_equiv_pos_as_xyz
  1  'x, y, z'
loop_
 _atom_site_type_symbol
 _atom_site_label
 _atom_site_symmetry_multiplicity
 _atom_site_fract_x
 _atom_site_fract_y
 _atom_site_fract_z
 _atom_site_occupancy
  V  V0  1  0.139651  0.860349  0.034091  1
  V  V1  1  0.860349  0.139651  0.534091  1
  Mo  Mo2  1  0.793779  0.206221  0.995386  1
  Mo  Mo3  1  0.206221  0.793779  0.495386  1
  As  As4  1  0.546715  0.453285  0.845157  1
  As  As5  1  0.453285  0.546715  0.345157  1
  Cl  Cl6  1  0.247321  0.082681  0.093413  1
  Cl  Cl7  1  0.320653  0.679347  0.601956  1
  Cl  Cl8  1  0.694969  0.624269  0.373274  1
  Cl  Cl9  1  0.545887  0.454113  0.664146  1
  Cl  Cl10  1  0.004954  0.307730  0.104863  1
  Cl  Cl11  1  0.917319  0.752679  0.093413  1
  Cl  Cl12  1  0.258650  0.741350  0.089901  1
  Cl  Cl13  1  0.995046  0.692270  0.604863  1
  Cl  Cl14  1  0.082681  0.247321  0.593413  1
  Cl  Cl15  1  0.892222  0.417659  0.882598  1
  Cl  Cl16  1  0.692270  0.995046  0.104863  1
  Cl  Cl17  1  0.417659  0.892222  0.382598  1
  Cl  Cl18  1  0.375731  0.305031  0.373274  1
  Cl  Cl19  1  0.862320  0.137680  0.360481  1
  Cl  Cl20  1  0.305031  0.375731  0.873274  1
  Cl  Cl21  1  0.137680  0.862320  0.860481  1
  Cl  Cl22  1  0.624269  0.694969  0.873274  1
  Cl  Cl23  1  0.752679  0.917319  0.593413  1
  Cl  Cl24  1  0.092635  0.907365  0.386887  1
  Cl  Cl25  1  0.907365  0.092635  0.886887  1
  Cl  Cl26  1  0.454113  0.545887  0.164146  1
  Cl  Cl27  1  0.307730  0.004954  0.604863  1
  Cl  Cl28  1  0.582341  0.107778  0.882598  1
  Cl  Cl29  1  0.741350  0.258650  0.589901  1
  Cl  Cl30  1  0.679347  0.320653  0.101956  1
  Cl  Cl31  1  0.107778  0.582341  0.382598  1
