# generated using pymatgen
data_Tm2Zn(Co3B2)3
_symmetry_space_group_name_H-M   'P 1'
_cell_length_a   5.72415322
_cell_length_b   5.72415364
_cell_length_c   5.72415339
_cell_angle_alpha   96.17154635
_cell_angle_beta   96.17155404
_cell_angle_gamma   96.17156789
_symmetry_Int_Tables_number   1
_chemical_formula_structural   Tm2Zn(Co3B2)3
_chemical_formula_sum   'Tm2 Zn1 Co9 B6'
_cell_volume   184.03966026
_cell_formula_units_Z   1
loop_
 _symmetry_equiv_pos_site_id
 _symmetry_equiv_pos_as_xyz
  1  'x, y, z'
loop_
 _atom_site_type_symbol
 _atom_site_label
 _atom_site_symmetry_multiplicity
 _atom_site_fract_x
 _atom_site_fract_y
 _atom_site_fract_z
 _atom_site_occupancy
  Tm  Tm0  1  0.678563  0.678563  0.678563  1
  Tm  Tm1  1  0.321437  0.321437  0.321437  1
  Zn  Zn2  1  0.000000  0.000000  0.000000  1
  Co  Co3  1  0.000000  0.000000  0.500000  1
  Co  Co4  1  0.500000  0.000000  0.000000  1
  Co  Co5  1  0.000000  0.500000  0.000000  1
  Co  Co6  1  0.706573  0.196960  0.706573  1
  Co  Co7  1  0.706573  0.706573  0.196960  1
  Co  Co8  1  0.196960  0.706573  0.706573  1
  Co  Co9  1  0.293427  0.803040  0.293427  1
  Co  Co10  1  0.293427  0.293427  0.803040  1
  Co  Co11  1  0.803040  0.293427  0.293427  1
  B  B12  1  0.615058  0.384942  0.000000  1
  B  B13  1  0.000000  0.615058  0.384942  1
  B  B14  1  0.384942  0.000000  0.615058  1
  B  B15  1  0.000000  0.384942  0.615058  1
  B  B16  1  0.615058  0.000000  0.384942  1
  B  B17  1  0.384942  0.615058  0.000000  1
