# generated using pymatgen
data_Dy16MgIn3RuRh3
_symmetry_space_group_name_H-M   'P 1'
_cell_length_a   9.67650771
_cell_length_b   9.67650800
_cell_length_c   9.69117888
_cell_angle_alpha   59.84128316
_cell_angle_beta   59.84128270
_cell_angle_gamma   59.63556639
_symmetry_Int_Tables_number   1
_chemical_formula_structural   Dy16MgIn3RuRh3
_chemical_formula_sum   'Dy16 Mg1 In3 Ru1 Rh3'
_cell_volume   638.33428609
_cell_formula_units_Z   1
loop_
 _symmetry_equiv_pos_site_id
 _symmetry_equiv_pos_as_xyz
  1  'x, y, z'
loop_
 _atom_site_type_symbol
 _atom_site_label
 _atom_site_symmetry_multiplicity
 _atom_site_fract_x
 _atom_site_fract_y
 _atom_site_fract_z
 _atom_site_occupancy
  Dy  Dy0  1  0.687391  0.311948  0.312451  1
  Dy  Dy1  1  0.688385  0.688385  0.314589  1
  Dy  Dy2  1  0.311948  0.687391  0.312451  1
  Dy  Dy3  1  0.935112  0.935112  0.565073  1
  Dy  Dy4  1  0.150172  0.150172  0.547559  1
  Dy  Dy5  1  0.561183  0.941208  0.560549  1
  Dy  Dy6  1  0.152254  0.152254  0.152820  1
  Dy  Dy7  1  0.309496  0.309496  0.689068  1
  Dy  Dy8  1  0.941208  0.561183  0.560549  1
  Dy  Dy9  1  0.561108  0.561108  0.940826  1
  Dy  Dy10  1  0.563879  0.937089  0.935756  1
  Dy  Dy11  1  0.937089  0.563879  0.935756  1
  Dy  Dy12  1  0.152080  0.543857  0.150238  1
  Dy  Dy13  1  0.310462  0.690909  0.692137  1
  Dy  Dy14  1  0.690909  0.310462  0.692137  1
  Dy  Dy15  1  0.543857  0.152080  0.150238  1
  Mg  Mg16  1  0.923572  0.923572  0.231731  1
  In  In17  1  0.247600  0.917333  0.919378  1
  In  In18  1  0.917333  0.247600  0.919378  1
  In  In19  1  0.917917  0.917917  0.917952  1
  Ru  Ru20  1  0.357297  0.357297  0.360178  1
  Rh  Rh21  1  0.924409  0.357531  0.357804  1
  Rh  Rh22  1  0.357810  0.357810  0.923580  1
  Rh  Rh23  1  0.357531  0.924409  0.357804  1
