# generated using pymatgen
data_Tb3Y3CrCo17P12
_symmetry_space_group_name_H-M   'P 1'
_cell_length_a   3.69777400
_cell_length_b   10.53719305
_cell_length_c   12.21463805
_cell_angle_alpha   90.01084367
_cell_angle_beta   90.00000000
_cell_angle_gamma   90.00000000
_symmetry_Int_Tables_number   1
_chemical_formula_structural   Tb3Y3CrCo17P12
_chemical_formula_sum   'Tb3 Y3 Cr1 Co17 P12'
_cell_volume   475.93308445
_cell_formula_units_Z   1
loop_
 _symmetry_equiv_pos_site_id
 _symmetry_equiv_pos_as_xyz
  1  'x, y, z'
loop_
 _atom_site_type_symbol
 _atom_site_label
 _atom_site_symmetry_multiplicity
 _atom_site_fract_x
 _atom_site_fract_y
 _atom_site_fract_z
 _atom_site_occupancy
  Tb  Tb0  1  0.000000  0.500004  0.522667  1
  Tb  Tb1  1  0.500000  0.000019  0.477789  1
  Tb  Tb2  1  0.000000  0.682373  0.795548  1
  Y  Y3  1  0.500000  0.817561  0.206125  1
  Y  Y4  1  0.500000  0.182476  0.206187  1
  Y  Y5  1  0.000000  0.317414  0.795655  1
  Cr  Cr6  1  0.500000  0.499972  0.155328  1
  Co  Co7  1  0.000000  0.999963  0.840220  1
  Co  Co8  1  0.500000  0.500006  0.703164  1
  Co  Co9  1  0.000000  0.000045  0.296471  1
  Co  Co10  1  0.000000  0.499869  0.987938  1
  Co  Co11  1  0.500000  0.000063  0.014510  1
  Co  Co12  1  0.500000  0.332531  0.993514  1
  Co  Co13  1  0.500000  0.667340  0.993643  1
  Co  Co14  1  0.000000  0.166507  0.005781  1
  Co  Co15  1  0.000000  0.833539  0.005819  1
  Co  Co16  1  0.500000  0.296664  0.430509  1
  Co  Co17  1  0.500000  0.703337  0.430371  1
  Co  Co18  1  0.000000  0.203264  0.569284  1
  Co  Co19  1  0.000000  0.796792  0.569136  1
  Co  Co20  1  0.500000  0.879532  0.709030  1
  Co  Co21  1  0.500000  0.120638  0.709126  1
  Co  Co22  1  0.000000  0.620278  0.290468  1
  Co  Co23  1  0.000000  0.379733  0.290555  1
  P  P24  1  0.500000  0.499862  0.882901  1
  P  P25  1  0.000000  0.000051  0.117046  1
  P  P26  1  0.500000  0.500024  0.344942  1
  P  P27  1  0.000000  0.999949  0.656703  1
  P  P28  1  0.500000  0.310567  0.616232  1
  P  P29  1  0.500000  0.689586  0.615966  1
  P  P30  1  0.000000  0.189253  0.384379  1
  P  P31  1  0.000000  0.810814  0.384286  1
  P  P32  1  0.500000  0.849326  0.892690  1
  P  P33  1  0.500000  0.150691  0.892563  1
  P  P34  1  0.000000  0.653670  0.106700  1
  P  P35  1  0.000000  0.346286  0.106761  1
