# generated using pymatgen
data_LiDy9Cd3Ru
_symmetry_space_group_name_H-M   'P 1'
_cell_length_a   9.45307700
_cell_length_b   9.45307740
_cell_length_c   9.71553800
_cell_angle_alpha   90.00000000
_cell_angle_beta   90.00000000
_cell_angle_gamma   120.00000210
_symmetry_Int_Tables_number   1
_chemical_formula_structural   LiDy9Cd3Ru
_chemical_formula_sum   'Li2 Dy18 Cd6 Ru2'
_cell_volume   751.87195629
_cell_formula_units_Z   2
loop_
 _symmetry_equiv_pos_site_id
 _symmetry_equiv_pos_as_xyz
  1  'x, y, z'
loop_
 _atom_site_type_symbol
 _atom_site_label
 _atom_site_symmetry_multiplicity
 _atom_site_fract_x
 _atom_site_fract_y
 _atom_site_fract_z
 _atom_site_occupancy
  Li  Li0  1  0.000000  0.000000  0.500000  1
  Li  Li1  1  0.000000  0.000000  0.000000  1
  Dy  Dy2  1  0.208189  0.791811  0.441258  1
  Dy  Dy3  1  0.208189  0.416378  0.441258  1
  Dy  Dy4  1  0.583622  0.791811  0.441258  1
  Dy  Dy5  1  0.791811  0.208189  0.558742  1
  Dy  Dy6  1  0.791811  0.583622  0.558742  1
  Dy  Dy7  1  0.416378  0.208189  0.558742  1
  Dy  Dy8  1  0.791811  0.208189  0.941258  1
  Dy  Dy9  1  0.791811  0.583622  0.941258  1
  Dy  Dy10  1  0.416378  0.208189  0.941258  1
  Dy  Dy11  1  0.208189  0.791811  0.058742  1
  Dy  Dy12  1  0.208189  0.416378  0.058742  1
  Dy  Dy13  1  0.583622  0.791811  0.058742  1
  Dy  Dy14  1  0.542402  0.457598  0.250000  1
  Dy  Dy15  1  0.542402  0.084806  0.250000  1
  Dy  Dy16  1  0.915194  0.457598  0.250000  1
  Dy  Dy17  1  0.457598  0.542402  0.750000  1
  Dy  Dy18  1  0.457598  0.915194  0.750000  1
  Dy  Dy19  1  0.084806  0.542402  0.750000  1
  Cd  Cd20  1  0.891615  0.108385  0.250000  1
  Cd  Cd21  1  0.891615  0.783231  0.250000  1
  Cd  Cd22  1  0.216769  0.108385  0.250000  1
  Cd  Cd23  1  0.108385  0.891615  0.750000  1
  Cd  Cd24  1  0.108385  0.216769  0.750000  1
  Cd  Cd25  1  0.783231  0.891615  0.750000  1
  Ru  Ru26  1  0.333333  0.666667  0.250000  1
  Ru  Ru27  1  0.666667  0.333333  0.750000  1
