# generated using pymatgen
data_Li6AcPu2N6
_symmetry_space_group_name_H-M   'P 1'
_cell_length_a   6.28990600
_cell_length_b   6.28990753
_cell_length_c   5.46712700
_cell_angle_alpha   90.00000000
_cell_angle_beta   90.00000000
_cell_angle_gamma   120.00001297
_symmetry_Int_Tables_number   1
_chemical_formula_structural   Li6AcPu2N6
_chemical_formula_sum   'Li6 Ac1 Pu2 N6'
_cell_volume   187.31741408
_cell_formula_units_Z   1
loop_
 _symmetry_equiv_pos_site_id
 _symmetry_equiv_pos_as_xyz
  1  'x, y, z'
loop_
 _atom_site_type_symbol
 _atom_site_label
 _atom_site_symmetry_multiplicity
 _atom_site_fract_x
 _atom_site_fract_y
 _atom_site_fract_z
 _atom_site_occupancy
  Li  Li0  1  0.907321  0.600660  0.583267  1
  Li  Li1  1  0.399340  0.306662  0.583267  1
  Li  Li2  1  0.693338  0.092679  0.583267  1
  Li  Li3  1  0.092679  0.399340  0.416733  1
  Li  Li4  1  0.600660  0.693338  0.416733  1
  Li  Li5  1  0.306662  0.907321  0.416733  1
  Ac  Ac6  1  0.000000  0.000000  0.000000  1
  Pu  Pu7  1  0.333333  0.666667  0.974327  1
  Pu  Pu8  1  0.666667  0.333333  0.025673  1
  N  N9  1  0.014914  0.633295  0.225291  1
  N  N10  1  0.366705  0.381619  0.225291  1
  N  N11  1  0.618381  0.985086  0.225291  1
  N  N12  1  0.985086  0.366705  0.774709  1
  N  N13  1  0.633295  0.618381  0.774709  1
  N  N14  1  0.381619  0.014914  0.774709  1
