# generated using pymatgen
data_MnCd3P6SN12
_symmetry_space_group_name_H-M   'P 1'
_cell_length_a   7.35420070
_cell_length_b   7.36985059
_cell_length_c   7.36985108
_cell_angle_alpha   109.51419423
_cell_angle_beta   109.42821100
_cell_angle_gamma   109.42821459
_symmetry_Int_Tables_number   1
_chemical_formula_structural   MnCd3P6SN12
_chemical_formula_sum   'Mn1 Cd3 P6 S1 N12'
_cell_volume   307.65304632
_cell_formula_units_Z   1
loop_
 _symmetry_equiv_pos_site_id
 _symmetry_equiv_pos_as_xyz
  1  'x, y, z'
loop_
 _atom_site_type_symbol
 _atom_site_label
 _atom_site_symmetry_multiplicity
 _atom_site_fract_x
 _atom_site_fract_y
 _atom_site_fract_z
 _atom_site_occupancy
  Mn  Mn0  1  0.361806  0.000000  0.000000  1
  Cd  Cd1  1  0.998007  0.325687  0.000000  1
  Cd  Cd2  1  0.998007  0.000000  0.325687  1
  Cd  Cd3  1  0.672322  0.674315  0.674315  1
  P  P4  1  0.746257  0.498779  0.249838  1
  P  P5  1  0.496419  0.750163  0.248940  1
  P  P6  1  0.746257  0.249838  0.498779  1
  P  P7  1  0.247478  0.751061  0.501223  1
  P  P8  1  0.496419  0.248940  0.750163  1
  P  P9  1  0.247478  0.501223  0.751061  1
  S  S10  1  0.028590  0.000000  0.000000  1
  N  N11  1  0.567540  0.278454  0.000000  1
  N  N12  1  0.278833  0.573956  0.000000  1
  N  N13  1  0.567540  0.000000  0.278454  1
  N  N14  1  0.997361  0.570126  0.284830  1
  N  N15  1  0.712530  0.715170  0.285296  1
  N  N16  1  0.704878  0.426044  0.426044  1
  N  N17  1  0.427235  0.714705  0.429874  1
  N  N18  1  0.278833  0.000000  0.573956  1
  N  N19  1  0.997361  0.284830  0.570126  1
  N  N20  1  0.427235  0.429874  0.714705  1
  N  N21  1  0.712530  0.285296  0.715170  1
  N  N22  1  0.289087  0.721546  0.721546  1
