# generated using pymatgen
data_Rb2Cu3(SeO3)4
_symmetry_space_group_name_H-M   'P 1'
_cell_length_a   5.51847514
_cell_length_b   7.97693477
_cell_length_c   8.68268324
_cell_angle_alpha   98.63191268
_cell_angle_beta   107.74134780
_cell_angle_gamma   93.25698153
_symmetry_Int_Tables_number   1
_chemical_formula_structural   Rb2Cu3(SeO3)4
_chemical_formula_sum   'Rb2 Cu3 Se4 O12'
_cell_volume   357.77457392
_cell_formula_units_Z   1
loop_
 _symmetry_equiv_pos_site_id
 _symmetry_equiv_pos_as_xyz
  1  'x, y, z'
loop_
 _atom_site_type_symbol
 _atom_site_label
 _atom_site_symmetry_multiplicity
 _atom_site_fract_x
 _atom_site_fract_y
 _atom_site_fract_z
 _atom_site_occupancy
  Rb  Rb0  1  0.852694  0.426057  0.712902  1
  Rb  Rb1  1  0.147306  0.573943  0.287098  1
  Cu  Cu2  1  0.596384  0.234588  0.220654  1
  Cu  Cu3  1  0.403616  0.765412  0.779346  1
  Cu  Cu4  1  0.000000  0.000000  0.000000  1
  Se  Se5  1  0.424633  0.173768  0.875264  1
  Se  Se6  1  0.187060  0.137002  0.408647  1
  Se  Se7  1  0.812940  0.862998  0.591353  1
  Se  Se8  1  0.575367  0.826232  0.124736  1
  O  O9  1  0.563795  0.731232  0.607943  1
  O  O10  1  0.722138  0.228304  0.032158  1
  O  O11  1  0.940095  0.266483  0.382440  1
  O  O12  1  0.372993  0.344402  0.784426  1
  O  O13  1  0.893785  0.021473  0.764268  1
  O  O14  1  0.627007  0.655598  0.215574  1
  O  O15  1  0.059905  0.733517  0.617560  1
  O  O16  1  0.277862  0.771696  0.967842  1
  O  O17  1  0.731056  0.802909  0.966591  1
  O  O18  1  0.268944  0.197091  0.033409  1
  O  O19  1  0.436205  0.268768  0.392057  1
  O  O20  1  0.106215  0.978527  0.235732  1
