# generated using pymatgen
data_Nd3MgCd2Pb2Au
_symmetry_space_group_name_H-M   'P 1'
_cell_length_a   7.70258470
_cell_length_b   7.70258346
_cell_length_c   4.71377400
_cell_angle_alpha   90.00000000
_cell_angle_beta   90.00000000
_cell_angle_gamma   120.61712027
_symmetry_Int_Tables_number   1
_chemical_formula_structural   Nd3MgCd2Pb2Au
_chemical_formula_sum   'Nd3 Mg1 Cd2 Pb2 Au1'
_cell_volume   240.67882850
_cell_formula_units_Z   1
loop_
 _symmetry_equiv_pos_site_id
 _symmetry_equiv_pos_as_xyz
  1  'x, y, z'
loop_
 _atom_site_type_symbol
 _atom_site_label
 _atom_site_symmetry_multiplicity
 _atom_site_fract_x
 _atom_site_fract_y
 _atom_site_fract_z
 _atom_site_occupancy
  Nd  Nd0  1  0.595928  0.002941  0.000000  1
  Nd  Nd1  1  0.002941  0.595928  0.000000  1
  Nd  Nd2  1  0.398702  0.398702  0.000000  1
  Mg  Mg3  1  0.776920  0.776920  0.500000  1
  Cd  Cd4  1  0.232884  0.998361  0.500000  1
  Cd  Cd5  1  0.998361  0.232884  0.500000  1
  Pb  Pb6  1  0.340306  0.667491  0.500000  1
  Pb  Pb7  1  0.667491  0.340306  0.500000  1
  Au  Au8  1  0.986467  0.986467  0.000000  1
