# generated using pymatgen
data_Tb3Al3ZnGeIr
_symmetry_space_group_name_H-M   'P 1'
_cell_length_a   7.02730400
_cell_length_b   7.02730419
_cell_length_c   4.24267100
_cell_angle_alpha   90.00000000
_cell_angle_beta   90.00000000
_cell_angle_gamma   119.99999912
_symmetry_Int_Tables_number   1
_chemical_formula_structural   Tb3Al3ZnGeIr
_chemical_formula_sum   'Tb3 Al3 Zn1 Ge1 Ir1'
_cell_volume   181.44603632
_cell_formula_units_Z   1
loop_
 _symmetry_equiv_pos_site_id
 _symmetry_equiv_pos_as_xyz
  1  'x, y, z'
loop_
 _atom_site_type_symbol
 _atom_site_label
 _atom_site_symmetry_multiplicity
 _atom_site_fract_x
 _atom_site_fract_y
 _atom_site_fract_z
 _atom_site_occupancy
  Tb  Tb0  1  0.415610  0.999495  0.000000  1
  Tb  Tb1  1  0.000505  0.416114  0.000000  1
  Tb  Tb2  1  0.583886  0.584390  0.000000  1
  Al  Al3  1  0.775569  0.008575  0.499999  1
  Al  Al4  1  0.233006  0.224431  0.499999  1
  Al  Al5  1  0.991425  0.766995  0.499999  1
  Zn  Zn6  1  0.666667  0.333333  0.499999  1
  Ge  Ge7  1  0.333333  0.666667  0.499999  1
  Ir  Ir8  1  0.000000  0.000000  0.000000  1
