# generated using pymatgen
data_LaPr6Nd13Si16
_symmetry_space_group_name_H-M   'P 1'
_cell_length_a   7.89609670
_cell_length_b   7.89795094
_cell_length_c   15.29006704
_cell_angle_alpha   90.04977450
_cell_angle_beta   89.96243158
_cell_angle_gamma   90.02090539
_symmetry_Int_Tables_number   1
_chemical_formula_structural   LaPr6Nd13Si16
_chemical_formula_sum   'La1 Pr6 Nd13 Si16'
_cell_volume   953.53358354
_cell_formula_units_Z   1
loop_
 _symmetry_equiv_pos_site_id
 _symmetry_equiv_pos_as_xyz
  1  'x, y, z'
loop_
 _atom_site_type_symbol
 _atom_site_label
 _atom_site_symmetry_multiplicity
 _atom_site_fract_x
 _atom_site_fract_y
 _atom_site_fract_z
 _atom_site_occupancy
  La  La0  1  0.377669  0.013014  0.447360  1
  Pr  Pr1  1  0.012467  0.378517  0.552759  1
  Pr  Pr2  1  0.622039  0.987041  0.947690  1
  Pr  Pr3  1  0.121485  0.513025  0.803087  1
  Pr  Pr4  1  0.878123  0.487120  0.302337  1
  Pr  Pr5  1  0.512600  0.121821  0.197117  1
  Pr  Pr6  1  0.487276  0.878219  0.697510  1
  Nd  Nd7  1  0.373502  0.481117  0.373135  1
  Nd  Nd8  1  0.873159  0.018739  0.376332  1
  Nd  Nd9  1  0.980790  0.126223  0.123114  1
  Nd  Nd10  1  0.018969  0.873360  0.623392  1
  Nd  Nd11  1  0.627070  0.519875  0.873742  1
  Nd  Nd12  1  0.481189  0.373497  0.626773  1
  Nd  Nd13  1  0.519543  0.627091  0.126258  1
  Nd  Nd14  1  0.126068  0.980875  0.876971  1
  Nd  Nd15  1  0.988680  0.619684  0.053503  1
  Nd  Nd16  1  0.691581  0.691575  0.500116  1
  Nd  Nd17  1  0.808425  0.191811  0.750210  1
  Nd  Nd18  1  0.191423  0.807894  0.249752  1
  Nd  Nd19  1  0.308289  0.308539  0.000102  1
  Si  Si20  1  0.079371  0.713269  0.439411  1
  Si  Si21  1  0.921283  0.287750  0.939827  1
  Si  Si22  1  0.714071  0.079689  0.560476  1
  Si  Si23  1  0.213130  0.421186  0.189121  1
  Si  Si24  1  0.786222  0.579220  0.689556  1
  Si  Si25  1  0.420640  0.213547  0.810598  1
  Si  Si26  1  0.580084  0.785990  0.310007  1
  Si  Si27  1  0.285229  0.920075  0.060505  1
  Si  Si28  1  0.830350  0.806769  0.796050  1
  Si  Si29  1  0.168835  0.194361  0.295849  1
  Si  Si30  1  0.807033  0.829923  0.202748  1
  Si  Si31  1  0.306008  0.668779  0.546464  1
  Si  Si32  1  0.694686  0.332054  0.046704  1
  Si  Si33  1  0.669728  0.306425  0.453630  1
  Si  Si34  1  0.329031  0.692756  0.954107  1
  Si  Si35  1  0.193954  0.169172  0.703690  1
