# generated using pymatgen
data_La10Al(GaOs2)3
_symmetry_space_group_name_H-M   'P 1'
_cell_length_a   8.65217178
_cell_length_b   8.69564228
_cell_length_c   8.65217166
_cell_angle_alpha   109.57303171
_cell_angle_beta   109.36922510
_cell_angle_gamma   109.57302348
_symmetry_Int_Tables_number   1
_chemical_formula_structural   La10Al(GaOs2)3
_chemical_formula_sum   'La10 Al1 Ga3 Os6'
_cell_volume   500.47548945
_cell_formula_units_Z   1
loop_
 _symmetry_equiv_pos_site_id
 _symmetry_equiv_pos_as_xyz
  1  'x, y, z'
loop_
 _atom_site_type_symbol
 _atom_site_label
 _atom_site_symmetry_multiplicity
 _atom_site_fract_x
 _atom_site_fract_y
 _atom_site_fract_z
 _atom_site_occupancy
  La  La0  1  0.250097  0.686541  0.436999  1
  La  La1  1  0.749047  0.812557  0.061772  1
  La  La2  1  0.438229  0.250785  0.687275  1
  La  La3  1  0.686900  0.436445  0.249903  1
  La  La4  1  0.063002  0.749543  0.813100  1
  La  La5  1  0.812725  0.063510  0.750953  1
  La  La6  1  0.211290  0.212001  0.212401  1
  La  La7  1  0.501112  0.000711  0.288710  1
  La  La8  1  0.287599  0.499601  0.998889  1
  La  La9  1  0.000000  0.289587  0.500001  1
  Al  Al10  1  0.000000  0.913426  0.500001  1
  Ga  Ga11  1  0.499675  0.999750  0.913827  1
  Ga  Ga12  1  0.586173  0.585923  0.585847  1
  Ga  Ga13  1  0.914153  0.500077  0.000326  1
  Os  Os14  1  0.247635  0.114882  0.864074  1
  Os  Os15  1  0.749685  0.383181  0.633252  1
  Os  Os16  1  0.866747  0.249930  0.116432  1
  Os  Os17  1  0.116440  0.867248  0.252367  1
  Os  Os18  1  0.635925  0.750808  0.383559  1
  Os  Os19  1  0.383567  0.633496  0.750315  1
