# generated using pymatgen
data_K4PuO5
_symmetry_space_group_name_H-M   'P 1'
_cell_length_a   6.52771624
_cell_length_b   6.52617121
_cell_length_c   9.75439962
_cell_angle_alpha   101.60212168
_cell_angle_beta   109.06771316
_cell_angle_gamma   102.31607747
_symmetry_Int_Tables_number   1
_chemical_formula_structural   K4PuO5
_chemical_formula_sum   'K8 Pu2 O10'
_cell_volume   366.83709247
_cell_formula_units_Z   2
loop_
 _symmetry_equiv_pos_site_id
 _symmetry_equiv_pos_as_xyz
  1  'x, y, z'
loop_
 _atom_site_type_symbol
 _atom_site_label
 _atom_site_symmetry_multiplicity
 _atom_site_fract_x
 _atom_site_fract_y
 _atom_site_fract_z
 _atom_site_occupancy
  K  K0  1  0.581223  0.799619  0.097369  1
  K  K1  1  0.205265  0.597541  0.700405  1
  K  K2  1  0.596964  0.295900  0.595595  1
  K  K3  1  0.403036  0.704100  0.404405  1
  K  K4  1  0.418777  0.200381  0.902631  1
  K  K5  1  0.000000  0.000000  0.500000  1
  K  K6  1  0.000000  0.500000  0.000000  1
  K  K7  1  0.794735  0.402459  0.299595  1
  Pu  Pu8  1  0.186691  0.098738  0.192526  1
  Pu  Pu9  1  0.813309  0.901262  0.807474  1
  O  O10  1  0.352470  0.367527  0.157236  1
  O  O11  1  0.647530  0.632473  0.842764  1
  O  O12  1  0.175821  0.294958  0.386766  1
  O  O13  1  0.824179  0.705042  0.613234  1
  O  O14  1  0.970141  0.167678  0.765828  1
  O  O15  1  0.029859  0.832322  0.234172  1
  O  O16  1  0.852993  0.107483  0.036268  1
  O  O17  1  0.147007  0.892517  0.963732  1
  O  O18  1  0.501267  0.940314  0.695230  1
  O  O19  1  0.498733  0.059686  0.304770  1
