# generated using pymatgen
data_Ba4Tb3F17
_symmetry_space_group_name_H-M   'P 1'
_cell_length_a   9.48647166
_cell_length_b   9.42775465
_cell_length_c   9.42441500
_cell_angle_alpha   72.98063330
_cell_angle_beta   72.92447355
_cell_angle_gamma   72.77210689
_symmetry_Int_Tables_number   1
_chemical_formula_structural   Ba4Tb3F17
_chemical_formula_sum   'Ba8 Tb6 F34'
_cell_volume   749.78728804
_cell_formula_units_Z   2
loop_
 _symmetry_equiv_pos_site_id
 _symmetry_equiv_pos_as_xyz
  1  'x, y, z'
loop_
 _atom_site_type_symbol
 _atom_site_label
 _atom_site_symmetry_multiplicity
 _atom_site_fract_x
 _atom_site_fract_y
 _atom_site_fract_z
 _atom_site_occupancy
  Ba  Ba0  1  0.046546  0.310889  0.892731  1
  Ba  Ba1  1  0.266601  0.263948  0.269081  1
  Ba  Ba2  1  0.314314  0.885576  0.058224  1
  Ba  Ba3  1  0.110644  0.947762  0.687630  1
  Ba  Ba4  1  0.883826  0.055268  0.314426  1
  Ba  Ba5  1  0.685582  0.112971  0.950447  1
  Ba  Ba6  1  0.732183  0.730874  0.737859  1
  Ba  Ba7  1  0.945290  0.688043  0.112095  1
  Tb  Tb8  1  0.162189  0.608655  0.468526  1
  Tb  Tb9  1  0.467782  0.160185  0.609202  1
  Tb  Tb10  1  0.391007  0.530655  0.840014  1
  Tb  Tb11  1  0.607443  0.473367  0.185928  1
  Tb  Tb12  1  0.535354  0.816678  0.391145  1
  Tb  Tb13  1  0.826046  0.395169  0.526983  1
  F  F14  1  0.994784  0.005811  0.998596  1
  F  F15  1  0.012033  0.182482  0.456250  1
  F  F16  1  0.137980  0.136755  0.140634  1
  F  F17  1  0.042679  0.488778  0.363446  1
  F  F18  1  0.182489  0.452485  0.012095  1
  F  F19  1  0.083314  0.783125  0.264276  1
  F  F20  1  0.451785  0.011564  0.188219  1
  F  F21  1  0.362339  0.035054  0.492254  1
  F  F22  1  0.263106  0.086406  0.783138  1
  F  F23  1  0.266095  0.349602  0.543236  1
  F  F24  1  0.213946  0.589202  0.694479  1
  F  F25  1  0.344946  0.548629  0.259606  1
  F  F26  1  0.485136  0.360067  0.043409  1
  F  F27  1  0.300154  0.791800  0.406817  1
  F  F28  1  0.217542  0.736798  0.915429  1
  F  F29  1  0.545247  0.257082  0.351246  1
  F  F30  1  0.416179  0.303991  0.785675  1
  F  F31  1  0.554544  0.526279  0.432294  1
  F  F32  1  0.596668  0.720813  0.175545  1
  F  F33  1  0.456489  0.733846  0.651685  1
  F  F34  1  0.773390  0.268192  0.090870  1
  F  F35  1  0.698311  0.206552  0.582309  1
  F  F36  1  0.508984  0.635216  0.962191  1
  F  F37  1  0.648484  0.456810  0.735841  1
  F  F38  1  0.821891  0.403990  0.284942  1
  F  F39  1  0.755812  0.658423  0.451540  1
  F  F40  1  0.733776  0.914266  0.221299  1
  F  F41  1  0.637024  0.954729  0.513795  1
  F  F42  1  0.545519  0.987321  0.818433  1
  F  F43  1  0.907410  0.223109  0.733881  1
  F  F44  1  0.816274  0.546258  0.988720  1
  F  F45  1  0.959799  0.509351  0.640576  1
  F  F46  1  0.861735  0.862667  0.860100  1
  F  F47  1  0.986831  0.815815  0.548584  1
