# generated using pymatgen
data_Tm5Sc7In2FeTc2
_symmetry_space_group_name_H-M   'P 1'
_cell_length_a   8.07616826
_cell_length_b   8.04472420
_cell_length_c   8.07616801
_cell_angle_alpha   108.49107533
_cell_angle_beta   108.67666659
_cell_angle_gamma   111.42436536
_symmetry_Int_Tables_number   1
_chemical_formula_structural   Tm5Sc7In2FeTc2
_chemical_formula_sum   'Tm5 Sc7 In2 Fe1 Tc2'
_cell_volume   402.78212562
_cell_formula_units_Z   1
loop_
 _symmetry_equiv_pos_site_id
 _symmetry_equiv_pos_as_xyz
  1  'x, y, z'
loop_
 _atom_site_type_symbol
 _atom_site_label
 _atom_site_symmetry_multiplicity
 _atom_site_fract_x
 _atom_site_fract_y
 _atom_site_fract_z
 _atom_site_occupancy
  Tm  Tm0  1  0.300785  0.298189  0.604812  1
  Tm  Tm1  1  0.702062  0.697386  0.397655  1
  Tm  Tm2  1  0.693377  0.298189  0.997404  1
  Tm  Tm3  1  0.299731  0.697386  0.995324  1
  Tm  Tm4  1  0.192224  0.437588  0.245363  1
  Sc  Sc5  1  0.806879  0.574156  0.767277  1
  Sc  Sc6  1  0.188524  0.950722  0.762198  1
  Sc  Sc7  1  0.949767  0.187820  0.759325  1
  Sc  Sc8  1  0.806669  0.040245  0.233576  1
  Sc  Sc9  1  0.041587  0.809931  0.231906  1
  Sc  Sc10  1  0.428493  0.187820  0.238051  1
  Sc  Sc11  1  0.578026  0.809931  0.768345  1
  In  In12  1  0.990183  0.493801  0.503618  1
  In  In13  1  0.497034  0.995819  0.498785  1
  Fe  Fe14  1  0.640505  0.640700  0.000195  1
  Tc  Tc15  1  0.383342  0.381660  0.998317  1
  Tc  Tc16  1  0.000814  0.998660  0.997846  1
