# generated using pymatgen
data_PrNd15(InRu)4
_symmetry_space_group_name_H-M   'P 1'
_cell_length_a   9.94107290
_cell_length_b   9.94107370
_cell_length_c   9.96459400
_cell_angle_alpha   59.92170337
_cell_angle_beta   59.92170071
_cell_angle_gamma   59.85383262
_symmetry_Int_Tables_number   1
_chemical_formula_structural   PrNd15(InRu)4
_chemical_formula_sum   'Pr1 Nd15 In4 Ru4'
_cell_volume   694.72873537
_cell_formula_units_Z   1
loop_
 _symmetry_equiv_pos_site_id
 _symmetry_equiv_pos_as_xyz
  1  'x, y, z'
loop_
 _atom_site_type_symbol
 _atom_site_label
 _atom_site_symmetry_multiplicity
 _atom_site_fract_x
 _atom_site_fract_y
 _atom_site_fract_z
 _atom_site_occupancy
  Pr  Pr0  1  0.439823  0.439819  0.060378  1
  Nd  Nd1  1  0.652462  0.652483  0.041332  1
  Nd  Nd2  1  0.193388  0.807817  0.193791  1
  Nd  Nd3  1  0.058954  0.440263  0.059253  1
  Nd  Nd4  1  0.192978  0.807258  0.806456  1
  Nd  Nd5  1  0.059706  0.440158  0.440529  1
  Nd  Nd6  1  0.807814  0.193378  0.193805  1
  Nd  Nd7  1  0.653193  0.653212  0.652955  1
  Nd  Nd8  1  0.807254  0.192973  0.806455  1
  Nd  Nd9  1  0.193491  0.193476  0.807402  1
  Nd  Nd10  1  0.041551  0.652485  0.652216  1
  Nd  Nd11  1  0.440266  0.058954  0.059256  1
  Nd  Nd12  1  0.059648  0.059648  0.439886  1
  Nd  Nd13  1  0.652473  0.041540  0.652224  1
  Nd  Nd14  1  0.806887  0.806890  0.193250  1
  Nd  Nd15  1  0.440159  0.059706  0.440526  1
  In  In16  1  0.419520  0.419507  0.420091  1
  In  In17  1  0.419441  0.419440  0.742148  1
  In  In18  1  0.419673  0.742559  0.419327  1
  In  In19  1  0.742558  0.419671  0.419327  1
  Ru  Ru20  1  0.411746  0.862545  0.862180  1
  Ru  Ru21  1  0.862539  0.862544  0.863085  1
  Ru  Ru22  1  0.862548  0.411741  0.862182  1
  Ru  Ru23  1  0.861927  0.861934  0.411947  1
