# generated using pymatgen
data_KBa3As8(IrRu)4
_symmetry_space_group_name_H-M   'P 1'
_cell_length_a   7.05681012
_cell_length_b   9.27805506
_cell_length_c   8.29530241
_cell_angle_alpha   63.43623709
_cell_angle_beta   72.98792144
_cell_angle_gamma   97.56754708
_symmetry_Int_Tables_number   1
_chemical_formula_structural   KBa3As8(IrRu)4
_chemical_formula_sum   'K1 Ba3 As8 Ir4 Ru4'
_cell_volume   442.10758554
_cell_formula_units_Z   1
loop_
 _symmetry_equiv_pos_site_id
 _symmetry_equiv_pos_as_xyz
  1  'x, y, z'
loop_
 _atom_site_type_symbol
 _atom_site_label
 _atom_site_symmetry_multiplicity
 _atom_site_fract_x
 _atom_site_fract_y
 _atom_site_fract_z
 _atom_site_occupancy
  K  K0  1  0.000706  0.000020  0.999806  1
  Ba  Ba1  1  0.001386  0.494076  0.752631  1
  Ba  Ba2  1  0.001444  0.999793  0.500022  1
  Ba  Ba3  1  0.001444  0.506358  0.246321  1
  As  As4  1  0.294033  0.323069  0.514289  1
  As  As5  1  0.293136  0.323545  0.014465  1
  As  As6  1  0.294940  0.823738  0.263971  1
  As  As7  1  0.293876  0.823423  0.764061  1
  As  As8  1  0.705725  0.676414  0.485944  1
  As  As9  1  0.706114  0.676869  0.985337  1
  As  As10  1  0.705094  0.176448  0.235947  1
  As  As11  1  0.704224  0.176160  0.736635  1
  Ir  Ir12  1  0.499246  0.624303  0.313105  1
  Ir  Ir13  1  0.500233  0.624760  0.812840  1
  Ir  Ir14  1  0.499231  0.125361  0.063230  1
  Ir  Ir15  1  0.500730  0.125295  0.562054  1
  Ru  Ru16  1  0.499980  0.375399  0.687363  1
  Ru  Ru17  1  0.498975  0.375437  0.187060  1
  Ru  Ru18  1  0.499608  0.874682  0.437825  1
  Ru  Ru19  1  0.499878  0.874851  0.937093  1
