# generated using pymatgen
data_Zr8MnSiBi4
_symmetry_space_group_name_H-M   'P 1'
_cell_length_a   8.30428320
_cell_length_b   8.30428334
_cell_length_c   8.30428259
_cell_angle_alpha   95.96674553
_cell_angle_beta   95.96673889
_cell_angle_gamma   142.38197628
_symmetry_Int_Tables_number   1
_chemical_formula_structural   Zr8MnSiBi4
_chemical_formula_sum   'Zr8 Mn1 Si1 Bi4'
_cell_volume   330.88934696
_cell_formula_units_Z   1
loop_
 _symmetry_equiv_pos_site_id
 _symmetry_equiv_pos_as_xyz
  1  'x, y, z'
loop_
 _atom_site_type_symbol
 _atom_site_label
 _atom_site_symmetry_multiplicity
 _atom_site_fract_x
 _atom_site_fract_y
 _atom_site_fract_z
 _atom_site_occupancy
  Zr  Zr0  1  0.700429  0.585247  0.279907  1
  Zr  Zr1  1  0.305340  0.420523  0.720093  1
  Zr  Zr2  1  0.585247  0.305340  0.884817  1
  Zr  Zr3  1  0.079477  0.194660  0.279907  1
  Zr  Zr4  1  0.799571  0.079477  0.884817  1
  Zr  Zr5  1  0.420523  0.700429  0.115183  1
  Zr  Zr6  1  0.914753  0.799571  0.720093  1
  Zr  Zr7  1  0.194660  0.914753  0.115183  1
  Mn  Mn8  1  0.750000  0.750000  0.000000  1
  Si  Si9  1  0.250000  0.250000  0.000000  1
  Bi  Bi10  1  0.139254  0.639254  0.778510  1
  Bi  Bi11  1  0.360746  0.139254  0.500000  1
  Bi  Bi12  1  0.860746  0.360746  0.221490  1
  Bi  Bi13  1  0.639254  0.860746  0.500000  1
