# generated using pymatgen
data_Tb4Mn3Fe4P12Ir13
_symmetry_space_group_name_H-M   'P 1'
_cell_length_a   3.89894200
_cell_length_b   10.65457622
_cell_length_c   12.41252526
_cell_angle_alpha   90.22762544
_cell_angle_beta   90.00000000
_cell_angle_gamma   90.00000000
_symmetry_Int_Tables_number   1
_chemical_formula_structural   Tb4Mn3Fe4P12Ir13
_chemical_formula_sum   'Tb4 Mn3 Fe4 P12 Ir13'
_cell_volume   515.63177620
_cell_formula_units_Z   1
loop_
 _symmetry_equiv_pos_site_id
 _symmetry_equiv_pos_as_xyz
  1  'x, y, z'
loop_
 _atom_site_type_symbol
 _atom_site_label
 _atom_site_symmetry_multiplicity
 _atom_site_fract_x
 _atom_site_fract_y
 _atom_site_fract_z
 _atom_site_occupancy
  Tb  Tb0  1  0.250000  0.581803  0.711914  1
  Tb  Tb1  1  0.250000  0.918331  0.209473  1
  Tb  Tb2  1  0.750000  0.421422  0.288880  1
  Tb  Tb3  1  0.750000  0.079331  0.793184  1
  Mn  Mn4  1  0.250000  0.712484  0.984477  1
  Mn  Mn5  1  0.250000  0.786131  0.482244  1
  Mn  Mn6  1  0.750000  0.285164  0.015365  1
  Fe  Fe7  1  0.250000  0.461281  0.933765  1
  Fe  Fe8  1  0.250000  0.045069  0.436717  1
  Fe  Fe9  1  0.750000  0.537133  0.064571  1
  Fe  Fe10  1  0.750000  0.964631  0.566620  1
  P  P11  1  0.250000  0.428595  0.103124  1
  P  P12  1  0.250000  0.066760  0.608689  1
  P  P13  1  0.750000  0.570420  0.895643  1
  P  P14  1  0.750000  0.928224  0.396517  1
  P  P15  1  0.250000  0.269508  0.872627  1
  P  P16  1  0.250000  0.232330  0.365724  1
  P  P17  1  0.750000  0.728680  0.127992  1
  P  P18  1  0.750000  0.770984  0.629480  1
  P  P19  1  0.250000  0.604072  0.388601  1
  P  P20  1  0.250000  0.893737  0.891698  1
  P  P21  1  0.750000  0.403733  0.612956  1
  P  P22  1  0.750000  0.103452  0.108351  1
  Ir  Ir23  1  0.750000  0.216663  0.514211  1
  Ir  Ir24  1  0.250000  0.407307  0.479404  1
  Ir  Ir25  1  0.250000  0.093542  0.981593  1
  Ir  Ir26  1  0.750000  0.595211  0.519653  1
  Ir  Ir27  1  0.750000  0.904702  0.019545  1
  Ir  Ir28  1  0.250000  0.232792  0.174923  1
  Ir  Ir29  1  0.250000  0.264871  0.677412  1
  Ir  Ir30  1  0.750000  0.766536  0.825126  1
  Ir  Ir31  1  0.750000  0.733181  0.323095  1
  Ir  Ir32  1  0.250000  0.877651  0.698200  1
  Ir  Ir33  1  0.250000  0.618299  0.197079  1
  Ir  Ir34  1  0.750000  0.115938  0.300099  1
  Ir  Ir35  1  0.750000  0.380035  0.801049  1
