# generated using pymatgen
data_Ho12Tl2Tc3
_symmetry_space_group_name_H-M   'P 1'
_cell_length_a   8.45373117
_cell_length_b   8.45373068
_cell_length_c   8.45373119
_cell_angle_alpha   108.88414675
_cell_angle_beta   108.88414614
_cell_angle_gamma   110.65185674
_symmetry_Int_Tables_number   1
_chemical_formula_structural   Ho12Tl2Tc3
_chemical_formula_sum   'Ho12 Tl2 Tc3'
_cell_volume   464.92697750
_cell_formula_units_Z   1
loop_
 _symmetry_equiv_pos_site_id
 _symmetry_equiv_pos_as_xyz
  1  'x, y, z'
loop_
 _atom_site_type_symbol
 _atom_site_label
 _atom_site_symmetry_multiplicity
 _atom_site_fract_x
 _atom_site_fract_y
 _atom_site_fract_z
 _atom_site_occupancy
  Ho  Ho0  1  0.189266  0.428468  0.239203  1
  Ho  Ho1  1  0.810734  0.571532  0.760797  1
  Ho  Ho2  1  0.189266  0.950065  0.760797  1
  Ho  Ho3  1  0.950065  0.189266  0.760797  1
  Ho  Ho4  1  0.810734  0.049935  0.239203  1
  Ho  Ho5  1  0.049935  0.810734  0.239203  1
  Ho  Ho6  1  0.428468  0.189266  0.239203  1
  Ho  Ho7  1  0.571532  0.810734  0.760797  1
  Ho  Ho8  1  0.306322  0.306322  0.612644  1
  Ho  Ho9  1  0.693678  0.693678  0.387356  1
  Ho  Ho10  1  0.693678  0.306322  0.000000  1
  Ho  Ho11  1  0.306322  0.693678  0.000000  1
  Tl  Tl12  1  0.000000  0.500000  0.500000  1
  Tl  Tl13  1  0.500000  0.000000  0.500000  1
  Tc  Tc14  1  0.371819  0.371819  0.000000  1
  Tc  Tc15  1  0.628181  0.628181  0.000000  1
  Tc  Tc16  1  0.000000  0.000000  0.000000  1
