# generated using pymatgen
data_Tb6P13IrRh19
_symmetry_space_group_name_H-M   'P 1'
_cell_length_a   13.34352200
_cell_length_b   13.34352148
_cell_length_c   3.93252100
_cell_angle_alpha   90.00000000
_cell_angle_beta   90.00000000
_cell_angle_gamma   119.99999634
_symmetry_Int_Tables_number   1
_chemical_formula_structural   Tb6P13IrRh19
_chemical_formula_sum   'Tb6 P13 Ir1 Rh19'
_cell_volume   606.37687862
_cell_formula_units_Z   1
loop_
 _symmetry_equiv_pos_site_id
 _symmetry_equiv_pos_as_xyz
  1  'x, y, z'
loop_
 _atom_site_type_symbol
 _atom_site_label
 _atom_site_symmetry_multiplicity
 _atom_site_fract_x
 _atom_site_fract_y
 _atom_site_fract_z
 _atom_site_occupancy
  Tb  Tb0  1  0.528824  0.717495  0.248079  1
  Tb  Tb1  1  0.282505  0.811328  0.248079  1
  Tb  Tb2  1  0.188672  0.471176  0.248079  1
  Tb  Tb3  1  0.470711  0.282158  0.751997  1
  Tb  Tb4  1  0.717842  0.188553  0.751997  1
  Tb  Tb5  1  0.811447  0.529289  0.751997  1
  P  P6  1  0.525267  0.138468  0.250360  1
  P  P7  1  0.861532  0.386799  0.250360  1
  P  P8  1  0.613201  0.474733  0.250360  1
  P  P9  1  0.944616  0.714757  0.255004  1
  P  P10  1  0.285243  0.229858  0.255004  1
  P  P11  1  0.770142  0.055384  0.255004  1
  P  P12  1  0.386483  0.525270  0.749357  1
  P  P13  1  0.474730  0.861212  0.749357  1
  P  P14  1  0.138788  0.613517  0.749357  1
  P  P15  1  0.714820  0.770344  0.745121  1
  P  P16  1  0.229656  0.944476  0.745121  1
  P  P17  1  0.055524  0.285180  0.745121  1
  P  P18  1  0.000000  0.000000  0.001229  1
  Ir  Ir19  1  0.333333  0.666667  0.751211  1
  Rh  Rh20  1  0.922520  0.250587  0.254236  1
  Rh  Rh21  1  0.749413  0.671934  0.254236  1
  Rh  Rh22  1  0.328066  0.077480  0.254236  1
  Rh  Rh23  1  0.438101  0.022192  0.751573  1
  Rh  Rh24  1  0.977808  0.415910  0.751573  1
  Rh  Rh25  1  0.584090  0.561899  0.751573  1
  Rh  Rh26  1  0.666667  0.333333  0.248452  1
  Rh  Rh27  1  0.094779  0.186549  0.247184  1
  Rh  Rh28  1  0.813451  0.908230  0.247184  1
  Rh  Rh29  1  0.091770  0.905221  0.247184  1
  Rh  Rh30  1  0.021971  0.583811  0.248320  1
  Rh  Rh31  1  0.416189  0.438159  0.248320  1
  Rh  Rh32  1  0.561841  0.978029  0.248320  1
  Rh  Rh33  1  0.671835  0.922582  0.745725  1
  Rh  Rh34  1  0.077418  0.749253  0.745725  1
  Rh  Rh35  1  0.250747  0.328165  0.745725  1
  Rh  Rh36  1  0.905170  0.813647  0.752746  1
  Rh  Rh37  1  0.186353  0.091521  0.752746  1
  Rh  Rh38  1  0.908479  0.094830  0.752746  1
