# generated using pymatgen
data_Ho16AlCo4Ag3
_symmetry_space_group_name_H-M   'P 1'
_cell_length_a   9.35194680
_cell_length_b   9.37095745
_cell_length_c   9.37095900
_cell_angle_alpha   59.99999805
_cell_angle_beta   59.93273071
_cell_angle_gamma   59.93273681
_symmetry_Int_Tables_number   1
_chemical_formula_structural   Ho16AlCo4Ag3
_chemical_formula_sum   'Ho16 Al1 Co4 Ag3'
_cell_volume   580.11316067
_cell_formula_units_Z   1
loop_
 _symmetry_equiv_pos_site_id
 _symmetry_equiv_pos_as_xyz
  1  'x, y, z'
loop_
 _atom_site_type_symbol
 _atom_site_label
 _atom_site_symmetry_multiplicity
 _atom_site_fract_x
 _atom_site_fract_y
 _atom_site_fract_z
 _atom_site_occupancy
  Ho  Ho0  1  0.345835  0.349155  0.349155  1
  Ho  Ho1  1  0.345835  0.349155  0.955854  1
  Ho  Ho2  1  0.345835  0.955854  0.349155  1
  Ho  Ho3  1  0.957961  0.347346  0.347346  1
  Ho  Ho4  1  0.812707  0.188271  0.188271  1
  Ho  Ho5  1  0.189407  0.809616  0.809616  1
  Ho  Ho6  1  0.189407  0.809616  0.191361  1
  Ho  Ho7  1  0.812707  0.188271  0.810750  1
  Ho  Ho8  1  0.189407  0.191361  0.809616  1
  Ho  Ho9  1  0.812707  0.810750  0.188271  1
  Ho  Ho10  1  0.936307  0.563769  0.563769  1
  Ho  Ho11  1  0.560868  0.938414  0.938414  1
  Ho  Ho12  1  0.560868  0.938414  0.562305  1
  Ho  Ho13  1  0.936307  0.563769  0.936155  1
  Ho  Ho14  1  0.560868  0.562305  0.938414  1
  Ho  Ho15  1  0.936307  0.936155  0.563769  1
  Al  Al16  1  0.268753  0.577083  0.577083  1
  Co  Co17  1  0.142056  0.140554  0.140554  1
  Co  Co18  1  0.142056  0.140554  0.576836  1
  Co  Co19  1  0.142056  0.576836  0.140554  1
  Co  Co20  1  0.575705  0.141431  0.141431  1
  Ag  Ag21  1  0.578681  0.581582  0.581582  1
  Ag  Ag22  1  0.578681  0.581582  0.258155  1
  Ag  Ag23  1  0.578681  0.258155  0.581582  1
