# generated using pymatgen
data_Tb3YReI4
_symmetry_space_group_name_H-M   'P 1'
_cell_length_a   11.44114023
_cell_length_b   11.42603988
_cell_length_c   6.21138100
_cell_angle_alpha   90.01582574
_cell_angle_beta   90.02652170
_cell_angle_gamma   88.37281735
_symmetry_Int_Tables_number   1
_chemical_formula_structural   Tb3YReI4
_chemical_formula_sum   'Tb6 Y2 Re2 I8'
_cell_volume   811.66718773
_cell_formula_units_Z   2
loop_
 _symmetry_equiv_pos_site_id
 _symmetry_equiv_pos_as_xyz
  1  'x, y, z'
loop_
 _atom_site_type_symbol
 _atom_site_label
 _atom_site_symmetry_multiplicity
 _atom_site_fract_x
 _atom_site_fract_y
 _atom_site_fract_z
 _atom_site_occupancy
  Tb  Tb0  1  0.801185  0.084586  0.999107  1
  Tb  Tb1  1  0.084166  0.801363  0.499170  1
  Tb  Tb2  1  0.078883  0.196405  0.000063  1
  Tb  Tb3  1  0.196537  0.079023  0.500129  1
  Tb  Tb4  1  0.921433  0.803692  0.999953  1
  Tb  Tb5  1  0.915528  0.198731  0.500848  1
  Y  Y6  1  0.199095  0.915374  0.001054  1
  Y  Y7  1  0.803188  0.920956  0.499799  1
  Re  Re8  1  0.999891  0.000408  0.249928  1
  Re  Re9  1  0.000079  0.000225  0.750092  1
  I  I10  1  0.643600  0.151875  0.509244  1
  I  I11  1  0.857180  0.648109  0.505211  1
  I  I12  1  0.352349  0.141525  0.994810  1
  I  I13  1  0.142290  0.352361  0.494838  1
  I  I14  1  0.647856  0.857629  0.005364  1
  I  I15  1  0.356235  0.847295  0.490456  1
  I  I16  1  0.153155  0.643976  0.009209  1
  I  I17  1  0.847350  0.356466  0.990725  1
