# generated using pymatgen
data_TbY7Hf7Si16Mo5
_symmetry_space_group_name_H-M   'P 1'
_cell_length_a   7.14015222
_cell_length_b   7.13359029
_cell_length_c   13.08336748
_cell_angle_alpha   89.78159134
_cell_angle_beta   89.98388617
_cell_angle_gamma   90.09503251
_symmetry_Int_Tables_number   1
_chemical_formula_structural   TbY7Hf7Si16Mo5
_chemical_formula_sum   'Tb1 Y7 Hf7 Si16 Mo5'
_cell_volume   666.39449688
_cell_formula_units_Z   1
loop_
 _symmetry_equiv_pos_site_id
 _symmetry_equiv_pos_as_xyz
  1  'x, y, z'
loop_
 _atom_site_type_symbol
 _atom_site_label
 _atom_site_symmetry_multiplicity
 _atom_site_fract_x
 _atom_site_fract_y
 _atom_site_fract_z
 _atom_site_occupancy
  Tb  Tb0  1  0.655733  0.000975  0.284263  1
  Y  Y1  1  0.999071  0.344771  0.218698  1
  Y  Y2  1  0.001475  0.657007  0.713985  1
  Y  Y3  1  0.154943  0.500264  0.465636  1
  Y  Y4  1  0.499379  0.845161  0.036045  1
  Y  Y5  1  0.844349  0.501673  0.965665  1
  Y  Y6  1  0.499473  0.154799  0.532154  1
  Y  Y7  1  0.345121  0.999571  0.784150  1
  Hf  Hf8  1  0.852863  0.006612  0.874494  1
  Hf  Hf9  1  0.504866  0.648450  0.621057  1
  Hf  Hf10  1  0.353109  0.492658  0.876013  1
  Hf  Hf11  1  0.491453  0.349320  0.125839  1
  Hf  Hf12  1  0.647449  0.510507  0.377040  1
  Hf  Hf13  1  0.993804  0.147456  0.625888  1
  Hf  Hf14  1  0.004263  0.852047  0.124427  1
  Si  Si15  1  0.361310  0.289172  0.320590  1
  Si  Si16  1  0.638787  0.702090  0.815300  1
  Si  Si17  1  0.199587  0.863953  0.560904  1
  Si  Si18  1  0.139314  0.796581  0.932856  1
  Si  Si19  1  0.797758  0.140279  0.066989  1
  Si  Si20  1  0.870678  0.196982  0.430434  1
  Si  Si21  1  0.299575  0.360383  0.682750  1
  Si  Si22  1  0.702740  0.638217  0.183664  1
  Si  Si23  1  0.293508  0.046137  0.189405  1
  Si  Si24  1  0.705297  0.949049  0.683564  1
  Si  Si25  1  0.438916  0.797531  0.430667  1
  Si  Si26  1  0.204335  0.550150  0.066536  1
  Si  Si27  1  0.550566  0.204041  0.934511  1
  Si  Si28  1  0.794597  0.446415  0.566512  1
  Si  Si29  1  0.050571  0.296200  0.816461  1
  Si  Si30  1  0.956538  0.714822  0.317816  1
  Mo  Mo31  1  0.173829  0.174045  0.002014  1
  Mo  Mo32  1  0.827270  0.827184  0.499122  1
  Mo  Mo33  1  0.323155  0.674589  0.250178  1
  Mo  Mo34  1  0.676518  0.325208  0.750015  1
  Mo  Mo35  1  0.147800  0.995697  0.374356  1
