# generated using pymatgen
data_HoEr3Al18ZnIr5
_symmetry_space_group_name_H-M   'P 1'
_cell_length_a   7.57414113
_cell_length_b   7.57481462
_cell_length_c   9.41731053
_cell_angle_alpha   90.05670194
_cell_angle_beta   90.03370788
_cell_angle_gamma   119.60305820
_symmetry_Int_Tables_number   1
_chemical_formula_structural   HoEr3Al18ZnIr5
_chemical_formula_sum   'Ho1 Er3 Al18 Zn1 Ir5'
_cell_volume   469.77038161
_cell_formula_units_Z   1
loop_
 _symmetry_equiv_pos_site_id
 _symmetry_equiv_pos_as_xyz
  1  'x, y, z'
loop_
 _atom_site_type_symbol
 _atom_site_label
 _atom_site_symmetry_multiplicity
 _atom_site_fract_x
 _atom_site_fract_y
 _atom_site_fract_z
 _atom_site_occupancy
  Ho  Ho0  1  0.325030  0.004721  0.750311  1
  Er  Er1  1  0.996200  0.674922  0.250078  1
  Er  Er2  1  0.004040  0.324817  0.749945  1
  Er  Er3  1  0.674328  0.995312  0.250002  1
  Al  Al4  1  0.134131  0.133853  0.255560  1
  Al  Al5  1  0.864772  0.865466  0.744152  1
  Al  Al6  1  0.001752  0.344240  0.080120  1
  Al  Al7  1  0.998563  0.655617  0.920228  1
  Al  Al8  1  0.000944  0.664600  0.572452  1
  Al  Al9  1  0.335253  0.999138  0.427521  1
  Al  Al10  1  0.998922  0.335313  0.427158  1
  Al  Al11  1  0.664412  0.000886  0.572266  1
  Al  Al12  1  0.655685  0.998309  0.920244  1
  Al  Al13  1  0.344335  0.001901  0.079794  1
  Al  Al14  1  0.332286  0.332616  0.552060  1
  Al  Al15  1  0.667629  0.667530  0.447527  1
  Al  Al16  1  0.659177  0.658956  0.060138  1
  Al  Al17  1  0.341591  0.341834  0.940617  1
  Al  Al18  1  0.339687  0.550903  0.251298  1
  Al  Al19  1  0.661194  0.448899  0.748766  1
  Al  Al20  1  0.551623  0.339432  0.251368  1
  Al  Al21  1  0.448040  0.659907  0.748625  1
  Zn  Zn22  1  0.999711  0.999944  0.999879  1
  Ir  Ir23  1  0.672651  0.328322  0.000311  1
  Ir  Ir24  1  0.328205  0.672341  0.000368  1
  Ir  Ir25  1  0.328393  0.671613  0.499620  1
  Ir  Ir26  1  0.672069  0.328700  0.499883  1
  Ir  Ir27  1  0.999375  0.999906  0.499707  1
