# generated using pymatgen
data_Er8Lu4InCo4Os
_symmetry_space_group_name_H-M   'P 1'
_cell_length_a   8.17643113
_cell_length_b   8.17643230
_cell_length_c   8.17643107
_cell_angle_alpha   111.45970843
_cell_angle_beta   110.82133181
_cell_angle_gamma   106.18253275
_symmetry_Int_Tables_number   1
_chemical_formula_structural   Er8Lu4InCo4Os
_chemical_formula_sum   'Er8 Lu4 In1 Co4 Os1'
_cell_volume   419.74794463
_cell_formula_units_Z   1
loop_
 _symmetry_equiv_pos_site_id
 _symmetry_equiv_pos_as_xyz
  1  'x, y, z'
loop_
 _atom_site_type_symbol
 _atom_site_label
 _atom_site_symmetry_multiplicity
 _atom_site_fract_x
 _atom_site_fract_y
 _atom_site_fract_z
 _atom_site_occupancy
  Er  Er0  1  0.419775  0.224430  0.195346  1
  Er  Er1  1  0.580225  0.775570  0.804654  1
  Er  Er2  1  0.029084  0.224430  0.804654  1
  Er  Er3  1  0.970916  0.775570  0.195346  1
  Er  Er4  1  0.181979  0.277565  0.459544  1
  Er  Er5  1  0.818021  0.722435  0.540456  1
  Er  Er6  1  0.181979  0.722435  0.904416  1
  Er  Er7  1  0.818021  0.277565  0.095584  1
  Lu  Lu8  1  0.315569  0.622113  0.306543  1
  Lu  Lu9  1  0.684431  0.377887  0.693457  1
  Lu  Lu10  1  0.315569  0.009024  0.693457  1
  Lu  Lu11  1  0.684431  0.990976  0.306543  1
  In  In12  1  0.500000  0.500000  0.000000  1
  Co  Co13  1  0.375321  0.000000  0.375321  1
  Co  Co14  1  0.624679  0.000000  0.624679  1
  Co  Co15  1  0.112614  0.612614  0.500000  1
  Co  Co16  1  0.887386  0.387386  0.500000  1
  Os  Os17  1  0.000000  0.000000  0.000000  1
