# generated using pymatgen
data_ThGaSiTc4
_symmetry_space_group_name_H-M   'P 1'
_cell_length_a   4.23234100
_cell_length_b   7.25078100
_cell_length_c   15.72583500
_cell_angle_alpha   90.00000000
_cell_angle_beta   90.00000000
_cell_angle_gamma   90.00000000
_symmetry_Int_Tables_number   1
_chemical_formula_structural   ThGaSiTc4
_chemical_formula_sum   'Th4 Ga4 Si4 Tc16'
_cell_volume   482.59092876
_cell_formula_units_Z   4
loop_
 _symmetry_equiv_pos_site_id
 _symmetry_equiv_pos_as_xyz
  1  'x, y, z'
loop_
 _atom_site_type_symbol
 _atom_site_label
 _atom_site_symmetry_multiplicity
 _atom_site_fract_x
 _atom_site_fract_y
 _atom_site_fract_z
 _atom_site_occupancy
  Th  Th0  1  0.000000  0.595810  0.119014  1
  Th  Th1  1  0.000000  0.404190  0.880986  1
  Th  Th2  1  0.500000  0.095810  0.380986  1
  Th  Th3  1  0.500000  0.904190  0.619014  1
  Ga  Ga4  1  0.000000  0.831611  0.473099  1
  Ga  Ga5  1  0.000000  0.168389  0.526901  1
  Ga  Ga6  1  0.500000  0.331611  0.026901  1
  Ga  Ga7  1  0.500000  0.668389  0.973099  1
  Si  Si8  1  0.000000  0.310961  0.273287  1
  Si  Si9  1  0.000000  0.689039  0.726713  1
  Si  Si10  1  0.500000  0.810961  0.226713  1
  Si  Si11  1  0.500000  0.189039  0.773287  1
  Tc  Tc12  1  0.000000  0.133047  0.054342  1
  Tc  Tc13  1  0.000000  0.866953  0.945658  1
  Tc  Tc14  1  0.500000  0.633047  0.445658  1
  Tc  Tc15  1  0.500000  0.366953  0.554342  1
  Tc  Tc16  1  0.000000  0.730714  0.315638  1
  Tc  Tc17  1  0.000000  0.269286  0.684362  1
  Tc  Tc18  1  0.500000  0.230714  0.184362  1
  Tc  Tc19  1  0.500000  0.769286  0.815638  1
  Tc  Tc20  1  0.000000  0.441545  0.419536  1
  Tc  Tc21  1  0.000000  0.558455  0.580464  1
  Tc  Tc22  1  0.500000  0.941545  0.080464  1
  Tc  Tc23  1  0.500000  0.058455  0.919536  1
  Tc  Tc24  1  0.000000  0.003165  0.207526  1
  Tc  Tc25  1  0.000000  0.996835  0.792474  1
  Tc  Tc26  1  0.500000  0.503165  0.292474  1
  Tc  Tc27  1  0.500000  0.496835  0.707526  1
