# generated using pymatgen
data_Tb4Tm4Tc3B24Os
_symmetry_space_group_name_H-M   'P 1'
_cell_length_a   3.66214300
_cell_length_b   9.12844546
_cell_length_c   11.52567701
_cell_angle_alpha   89.95263143
_cell_angle_beta   90.00000000
_cell_angle_gamma   90.00000000
_symmetry_Int_Tables_number   1
_chemical_formula_structural   Tb4Tm4Tc3B24Os
_chemical_formula_sum   'Tb4 Tm4 Tc3 B24 Os1'
_cell_volume   385.29947771
_cell_formula_units_Z   1
loop_
 _symmetry_equiv_pos_site_id
 _symmetry_equiv_pos_as_xyz
  1  'x, y, z'
loop_
 _atom_site_type_symbol
 _atom_site_label
 _atom_site_symmetry_multiplicity
 _atom_site_fract_x
 _atom_site_fract_y
 _atom_site_fract_z
 _atom_site_occupancy
  Tb  Tb0  1  0.000000  0.323115  0.413787  1
  Tb  Tb1  1  0.000000  0.675950  0.584563  1
  Tb  Tb2  1  0.000000  0.822577  0.087260  1
  Tb  Tb3  1  0.000000  0.178379  0.914434  1
  Tm  Tm4  1  0.000000  0.942689  0.370109  1
  Tm  Tm5  1  0.000000  0.058090  0.629940  1
  Tm  Tm6  1  0.000000  0.442961  0.130110  1
  Tm  Tm7  1  0.000000  0.556849  0.869543  1
  Tc  Tc8  1  0.000000  0.638853  0.319927  1
  Tc  Tc9  1  0.000000  0.361149  0.680555  1
  Tc  Tc10  1  0.000000  0.138418  0.179000  1
  B  B11  1  0.500000  0.553473  0.432417  1
  B  B12  1  0.500000  0.446457  0.567345  1
  B  B13  1  0.500000  0.053485  0.067442  1
  B  B14  1  0.500000  0.945921  0.932423  1
  B  B15  1  0.500000  0.749509  0.418249  1
  B  B16  1  0.500000  0.250158  0.581796  1
  B  B17  1  0.500000  0.250059  0.081831  1
  B  B18  1  0.500000  0.750426  0.917941  1
  B  B19  1  0.500000  0.792030  0.265819  1
  B  B20  1  0.500000  0.208196  0.734698  1
  B  B21  1  0.500000  0.291918  0.234421  1
  B  B22  1  0.500000  0.708796  0.765521  1
  B  B23  1  0.500000  0.630260  0.185440  1
  B  B24  1  0.500000  0.369667  0.815054  1
  B  B25  1  0.500000  0.129827  0.314265  1
  B  B26  1  0.500000  0.869698  0.685555  1
  B  B27  1  0.500000  0.981844  0.212422  1
  B  B28  1  0.500000  0.017007  0.787640  1
  B  B29  1  0.500000  0.482082  0.287413  1
  B  B30  1  0.500000  0.517703  0.712397  1
  B  B31  1  0.500000  0.600228  0.027579  1
  B  B32  1  0.500000  0.400844  0.972239  1
  B  B33  1  0.500000  0.099915  0.472359  1
  B  B34  1  0.500000  0.900136  0.528110  1
  Os  Os35  1  0.000000  0.861331  0.820396  1
