# generated using pymatgen
data_Al4Fe3Ni(BO4)4
_symmetry_space_group_name_H-M   'P 1'
_cell_length_a   4.36671207
_cell_length_b   5.77358200
_cell_length_c   10.19787669
_cell_angle_alpha   90.00000000
_cell_angle_beta   89.96839665
_cell_angle_gamma   90.00000000
_symmetry_Int_Tables_number   1
_chemical_formula_structural   Al4Fe3Ni(BO4)4
_chemical_formula_sum   'Al4 Fe3 Ni1 B4 O16'
_cell_volume   257.10444520
_cell_formula_units_Z   1
loop_
 _symmetry_equiv_pos_site_id
 _symmetry_equiv_pos_as_xyz
  1  'x, y, z'
loop_
 _atom_site_type_symbol
 _atom_site_label
 _atom_site_symmetry_multiplicity
 _atom_site_fract_x
 _atom_site_fract_y
 _atom_site_fract_z
 _atom_site_occupancy
  Al  Al0  1  0.499888  0.500444  0.497794  1
  Al  Al1  1  0.000460  0.500051  0.001651  1
  Al  Al2  1  0.499888  0.999556  0.497794  1
  Al  Al3  1  0.000460  0.999949  0.001651  1
  Fe  Fe4  1  0.481453  0.750000  0.776092  1
  Fe  Fe5  1  0.980966  0.250000  0.722272  1
  Fe  Fe6  1  0.519628  0.250000  0.224860  1
  Ni  Ni7  1  0.009969  0.750000  0.274980  1
  B  B8  1  0.090151  0.250000  0.413666  1
  B  B9  1  0.910931  0.750000  0.582790  1
  B  B10  1  0.408500  0.250000  0.915990  1
  B  B11  1  0.591542  0.750000  0.087262  1
  O  O12  1  0.766031  0.541258  0.643611  1
  O  O13  1  0.265037  0.459670  0.855239  1
  O  O14  1  0.232990  0.037758  0.353414  1
  O  O15  1  0.737439  0.957919  0.148705  1
  O  O16  1  0.265037  0.040330  0.855239  1
  O  O17  1  0.232990  0.462242  0.353414  1
  O  O18  1  0.766031  0.958742  0.643611  1
  O  O19  1  0.737439  0.542081  0.148705  1
  O  O20  1  0.261123  0.750000  0.080453  1
  O  O21  1  0.761037  0.250000  0.422444  1
  O  O22  1  0.738304  0.250000  0.924645  1
  O  O23  1  0.240366  0.750000  0.575961  1
  O  O24  1  0.744947  0.750000  0.443536  1
  O  O25  1  0.243026  0.250000  0.053581  1
  O  O26  1  0.257929  0.250000  0.551416  1
  O  O27  1  0.756439  0.750000  0.949221  1
