# generated using pymatgen
data_Tb3ErAl19Ga5Pt9
_symmetry_space_group_name_H-M   'P 1'
_cell_length_a   7.53075728
_cell_length_b   7.53052362
_cell_length_c   13.22084826
_cell_angle_alpha   84.67792149
_cell_angle_beta   100.77390008
_cell_angle_gamma   119.88087343
_symmetry_Int_Tables_number   1
_chemical_formula_structural   Tb3ErAl19Ga5Pt9
_chemical_formula_sum   'Tb3 Er1 Al19 Ga5 Pt9'
_cell_volume   638.63102141
_cell_formula_units_Z   1
loop_
 _symmetry_equiv_pos_site_id
 _symmetry_equiv_pos_as_xyz
  1  'x, y, z'
loop_
 _atom_site_type_symbol
 _atom_site_label
 _atom_site_symmetry_multiplicity
 _atom_site_fract_x
 _atom_site_fract_y
 _atom_site_fract_z
 _atom_site_occupancy
  Tb  Tb0  1  0.736203  0.000055  0.191156  1
  Tb  Tb1  1  0.263688  0.997459  0.808718  1
  Tb  Tb2  1  0.060812  0.668395  0.189723  1
  Er  Er3  1  0.941654  0.334196  0.809473  1
  Al  Al4  1  0.601571  0.335121  0.183938  1
  Al  Al5  1  0.880851  0.664539  0.668009  1
  Al  Al6  1  0.118635  0.335032  0.332397  1
  Al  Al7  1  0.602673  0.456570  0.815868  1
  Al  Al8  1  0.396298  0.541639  0.184576  1
  Al  Al9  1  0.230234  0.339780  0.668654  1
  Al  Al10  1  0.769203  0.659816  0.330648  1
  Al  Al11  1  0.853514  0.333003  0.558494  1
  Al  Al12  1  0.186099  0.999460  0.558800  1
  Al  Al13  1  0.813598  0.000461  0.441019  1
  Al  Al14  1  0.352148  0.000356  0.055509  1
  Al  Al15  1  0.648260  0.000514  0.944535  1
  Al  Al16  1  0.556413  0.995030  0.669056  1
  Al  Al17  1  0.444340  0.005742  0.330555  1
  Al  Al18  1  0.519648  0.667969  0.560157  1
  Al  Al19  1  0.479905  0.331907  0.439259  1
  Al  Al20  1  0.684210  0.667005  0.048594  1
  Al  Al21  1  0.315607  0.333287  0.952948  1
  Al  Al22  1  0.145889  0.667110  0.441020  1
  Ga  Ga23  1  0.802164  0.869791  0.814712  1
  Ga  Ga24  1  0.199740  0.133585  0.185463  1
  Ga  Ga25  1  0.980886  0.664754  0.938806  1
  Ga  Ga26  1  0.017908  0.334080  0.060579  1
  Ga  Ga27  1  0.400353  0.662102  0.816380  1
  Pt  Pt28  1  0.336308  0.674929  0.003081  1
  Pt  Pt29  1  0.546963  0.325901  0.637690  1
  Pt  Pt30  1  0.453091  0.674274  0.362606  1
  Pt  Pt31  1  0.887596  0.008611  0.636713  1
  Pt  Pt32  1  0.112203  0.991675  0.363549  1
  Pt  Pt33  1  0.663551  0.326272  0.999172  1
  Pt  Pt34  1  0.203345  0.666637  0.637032  1
  Pt  Pt35  1  0.795097  0.333272  0.361183  1
  Pt  Pt36  1  0.999342  0.999672  0.999930  1
