# generated using pymatgen
data_Na2Li2Ni10P7
_symmetry_space_group_name_H-M   'P 1'
_cell_length_a   9.11459909
_cell_length_b   9.05535609
_cell_length_c   3.66845500
_cell_angle_alpha   90.00000000
_cell_angle_beta   90.00000000
_cell_angle_gamma   120.07159229
_symmetry_Int_Tables_number   1
_chemical_formula_structural   Na2Li2Ni10P7
_chemical_formula_sum   'Na2 Li2 Ni10 P7'
_cell_volume   262.02526837
_cell_formula_units_Z   1
loop_
 _symmetry_equiv_pos_site_id
 _symmetry_equiv_pos_as_xyz
  1  'x, y, z'
loop_
 _atom_site_type_symbol
 _atom_site_label
 _atom_site_symmetry_multiplicity
 _atom_site_fract_x
 _atom_site_fract_y
 _atom_site_fract_z
 _atom_site_occupancy
  Na  Na0  1  0.666205  0.333770  0.500000  1
  Na  Na1  1  0.336490  0.665453  0.000000  1
  Li  Li2  1  0.215386  0.101981  0.500000  1
  Li  Li3  1  0.892804  0.110249  0.500000  1
  Ni  Ni4  1  0.715965  0.881195  0.000000  1
  Ni  Ni5  1  0.945438  0.377265  0.000000  1
  Ni  Ni6  1  0.156472  0.275460  0.000000  1
  Ni  Ni7  1  0.386407  0.434733  0.500000  1
  Ni  Ni8  1  0.123702  0.837141  0.000000  1
  Ni  Ni9  1  0.428628  0.055549  0.000000  1
  Ni  Ni10  1  0.048593  0.614242  0.500000  1
  Ni  Ni11  1  0.565565  0.953606  0.500000  1
  Ni  Ni12  1  0.628269  0.571120  0.000000  1
  Ni  Ni13  1  0.888099  0.792199  0.500000  1
  P  P14  1  0.414179  0.301577  0.000000  1
  P  P15  1  0.293329  0.882327  0.500000  1
  P  P16  1  0.698971  0.117309  0.000000  1
  P  P17  1  0.602675  0.712438  0.500000  1
  P  P18  1  0.884033  0.589099  0.000000  1
  P  P19  1  0.116726  0.406742  0.500000  1
  P  P20  1  0.992063  0.986543  0.000000  1
