# generated using pymatgen
data_TbPr8ErIr6
_symmetry_space_group_name_H-M   'P 1'
_cell_length_a   11.27793500
_cell_length_b   11.27793500
_cell_length_c   6.57506300
_cell_angle_alpha   90.00000000
_cell_angle_beta   90.00000000
_cell_angle_gamma   90.00000000
_symmetry_Int_Tables_number   1
_chemical_formula_structural   TbPr8ErIr6
_chemical_formula_sum   'Tb2 Pr16 Er2 Ir12'
_cell_volume   836.29421554
_cell_formula_units_Z   2
loop_
 _symmetry_equiv_pos_site_id
 _symmetry_equiv_pos_as_xyz
  1  'x, y, z'
loop_
 _atom_site_type_symbol
 _atom_site_label
 _atom_site_symmetry_multiplicity
 _atom_site_fract_x
 _atom_site_fract_y
 _atom_site_fract_z
 _atom_site_occupancy
  Tb  Tb0  1  0.000000  0.000000  0.500000  1
  Tb  Tb1  1  0.000000  0.000000  0.000000  1
  Pr  Pr2  1  0.289148  0.087663  0.381063  1
  Pr  Pr3  1  0.289148  0.912337  0.881063  1
  Pr  Pr4  1  0.710852  0.087663  0.881063  1
  Pr  Pr5  1  0.710852  0.912337  0.381063  1
  Pr  Pr6  1  0.587548  0.788528  0.880941  1
  Pr  Pr7  1  0.587548  0.211472  0.380941  1
  Pr  Pr8  1  0.412452  0.788528  0.380941  1
  Pr  Pr9  1  0.412452  0.211472  0.880941  1
  Pr  Pr10  1  0.211472  0.412452  0.619059  1
  Pr  Pr11  1  0.211472  0.587548  0.119059  1
  Pr  Pr12  1  0.788528  0.412452  0.119059  1
  Pr  Pr13  1  0.788528  0.587548  0.619059  1
  Pr  Pr14  1  0.912337  0.710852  0.118937  1
  Pr  Pr15  1  0.912337  0.289148  0.618937  1
  Pr  Pr16  1  0.087663  0.710852  0.618937  1
  Pr  Pr17  1  0.087663  0.289148  0.118937  1
  Er  Er18  1  0.500000  0.500000  0.000000  1
  Er  Er19  1  0.500000  0.500000  0.500000  1
  Ir  Ir20  1  0.851193  0.148807  0.250000  1
  Ir  Ir21  1  0.851193  0.851193  0.750000  1
  Ir  Ir22  1  0.148807  0.148807  0.750000  1
  Ir  Ir23  1  0.148807  0.851193  0.250000  1
  Ir  Ir24  1  0.647053  0.352947  0.750000  1
  Ir  Ir25  1  0.647053  0.647053  0.250000  1
  Ir  Ir26  1  0.352947  0.352947  0.250000  1
  Ir  Ir27  1  0.352947  0.647053  0.750000  1
  Ir  Ir28  1  0.500000  0.000000  0.117553  1
  Ir  Ir29  1  0.500000  0.000000  0.617553  1
  Ir  Ir30  1  0.000000  0.500000  0.882447  1
  Ir  Ir31  1  0.000000  0.500000  0.382447  1
