# generated using pymatgen
data_Ho4Tm4Sc12Si15Os
_symmetry_space_group_name_H-M   'P 1'
_cell_length_a   7.05862929
_cell_length_b   7.41186327
_cell_length_c   13.91168909
_cell_angle_alpha   90.00342680
_cell_angle_beta   89.98762916
_cell_angle_gamma   90.18953952
_symmetry_Int_Tables_number   1
_chemical_formula_structural   Ho4Tm4Sc12Si15Os
_chemical_formula_sum   'Ho4 Tm4 Sc12 Si15 Os1'
_cell_volume   727.82211663
_cell_formula_units_Z   1
loop_
 _symmetry_equiv_pos_site_id
 _symmetry_equiv_pos_as_xyz
  1  'x, y, z'
loop_
 _atom_site_type_symbol
 _atom_site_label
 _atom_site_symmetry_multiplicity
 _atom_site_fract_x
 _atom_site_fract_y
 _atom_site_fract_z
 _atom_site_occupancy
  Ho  Ho0  1  0.511102  0.322874  0.095873  1
  Ho  Ho1  1  0.011177  0.178705  0.404228  1
  Ho  Ho2  1  0.511090  0.322888  0.403848  1
  Ho  Ho3  1  0.488522  0.676850  0.595553  1
  Tm  Tm4  1  0.011443  0.179198  0.096115  1
  Tm  Tm5  1  0.990940  0.827929  0.903707  1
  Tm  Tm6  1  0.488314  0.677468  0.904045  1
  Tm  Tm7  1  0.990869  0.827934  0.596500  1
  Sc  Sc8  1  0.156212  0.498247  0.750117  1
  Sc  Sc9  1  0.838135  0.495093  0.249865  1
  Sc  Sc10  1  0.339211  0.006054  0.249881  1
  Sc  Sc11  1  0.668896  0.996952  0.750092  1
  Sc  Sc12  1  0.317608  0.171761  0.627368  1
  Sc  Sc13  1  0.672166  0.825489  0.373943  1
  Sc  Sc14  1  0.171024  0.678397  0.374166  1
  Sc  Sc15  1  0.671998  0.825406  0.125846  1
  Sc  Sc16  1  0.837552  0.318876  0.627608  1
  Sc  Sc17  1  0.317435  0.171900  0.872825  1
  Sc  Sc18  1  0.837758  0.318647  0.872628  1
  Sc  Sc19  1  0.171054  0.678450  0.125666  1
  Si  Si20  1  0.968840  0.886405  0.249819  1
  Si  Si21  1  0.469113  0.613883  0.249913  1
  Si  Si22  1  0.529278  0.389947  0.750251  1
  Si  Si23  1  0.286042  0.865188  0.750306  1
  Si  Si24  1  0.713877  0.130947  0.249685  1
  Si  Si25  1  0.213474  0.369980  0.249693  1
  Si  Si26  1  0.778953  0.628047  0.750340  1
  Si  Si27  1  0.159980  0.469517  0.537147  1
  Si  Si28  1  0.843942  0.536363  0.461746  1
  Si  Si29  1  0.344307  0.965954  0.460071  1
  Si  Si30  1  0.844029  0.535823  0.038354  1
  Si  Si31  1  0.656378  0.033695  0.538370  1
  Si  Si32  1  0.160679  0.469419  0.962906  1
  Si  Si33  1  0.656260  0.033145  0.961571  1
  Si  Si34  1  0.343645  0.965866  0.039906  1
  Os  Os35  1  0.028697  0.106707  0.750046  1
