# generated using pymatgen
data_EuGa3CuRu
_symmetry_space_group_name_H-M   'P 1'
_cell_length_a   6.48845030
_cell_length_b   6.48845128
_cell_length_c   5.38560100
_cell_angle_alpha   90.00000000
_cell_angle_beta   90.00000000
_cell_angle_gamma   102.41773917
_symmetry_Int_Tables_number   1
_chemical_formula_structural   EuGa3CuRu
_chemical_formula_sum   'Eu2 Ga6 Cu2 Ru2'
_cell_volume   221.42950107
_cell_formula_units_Z   2
loop_
 _symmetry_equiv_pos_site_id
 _symmetry_equiv_pos_as_xyz
  1  'x, y, z'
loop_
 _atom_site_type_symbol
 _atom_site_label
 _atom_site_symmetry_multiplicity
 _atom_site_fract_x
 _atom_site_fract_y
 _atom_site_fract_z
 _atom_site_occupancy
  Eu  Eu0  1  0.339929  0.339929  0.250000  1
  Eu  Eu1  1  0.660071  0.660071  0.750000  1
  Ga  Ga2  1  0.910330  0.534604  0.250432  1
  Ga  Ga3  1  0.089670  0.465396  0.750432  1
  Ga  Ga4  1  0.049891  0.049891  0.750000  1
  Ga  Ga5  1  0.950109  0.950109  0.250000  1
  Ga  Ga6  1  0.465396  0.089670  0.749568  1
  Ga  Ga7  1  0.534604  0.910330  0.249568  1
  Cu  Cu8  1  0.784917  0.215083  0.000000  1
  Cu  Cu9  1  0.215083  0.784917  0.500000  1
  Ru  Ru10  1  0.206450  0.793550  0.000000  1
  Ru  Ru11  1  0.793550  0.206450  0.500000  1
