# generated using pymatgen
data_Nd2Ir5Pd
_symmetry_space_group_name_H-M   'P 1'
_cell_length_a   5.38931800
_cell_length_b   5.38931106
_cell_length_c   17.65591400
_cell_angle_alpha   90.00000000
_cell_angle_beta   90.00000000
_cell_angle_gamma   120.00068644
_symmetry_Int_Tables_number   1
_chemical_formula_structural   Nd2Ir5Pd
_chemical_formula_sum   'Nd6 Ir15 Pd3'
_cell_volume   444.10421305
_cell_formula_units_Z   3
loop_
 _symmetry_equiv_pos_site_id
 _symmetry_equiv_pos_as_xyz
  1  'x, y, z'
loop_
 _atom_site_type_symbol
 _atom_site_label
 _atom_site_symmetry_multiplicity
 _atom_site_fract_x
 _atom_site_fract_y
 _atom_site_fract_z
 _atom_site_occupancy
  Nd  Nd0  1  0.333332  0.666668  0.540550  1
  Nd  Nd1  1  0.666668  0.333332  0.040830  1
  Nd  Nd2  1  0.666668  0.333332  0.459170  1
  Nd  Nd3  1  0.333332  0.666668  0.959450  1
  Nd  Nd4  1  0.333332  0.666664  0.750000  1
  Nd  Nd5  1  0.666665  0.333332  0.250000  1
  Ir  Ir6  1  0.166728  0.333448  0.126280  1
  Ir  Ir7  1  0.832193  0.664391  0.624314  1
  Ir  Ir8  1  0.666555  0.833274  0.126280  1
  Ir  Ir9  1  0.166724  0.833275  0.126280  1
  Ir  Ir10  1  0.832195  0.167806  0.624313  1
  Ir  Ir11  1  0.335609  0.167807  0.624313  1
  Ir  Ir12  1  0.832193  0.664391  0.875686  1
  Ir  Ir13  1  0.832195  0.167806  0.875687  1
  Ir  Ir14  1  0.335609  0.167807  0.875687  1
  Ir  Ir15  1  0.666555  0.833274  0.373720  1
  Ir  Ir16  1  0.166724  0.833275  0.373720  1
  Ir  Ir17  1  0.166728  0.333448  0.373720  1
  Ir  Ir18  1  0.000005  0.999999  0.250000  1
  Ir  Ir19  1  0.000000  0.000001  0.000157  1
  Ir  Ir20  1  0.000000  0.000001  0.499843  1
  Pd  Pd21  1  0.999996  0.000006  0.750000  1
  Pd  Pd22  1  0.333330  0.666668  0.250000  1
  Pd  Pd23  1  0.666668  0.333330  0.750000  1
