# generated using pymatgen
data_Tb16MgIn3PdRh3
_symmetry_space_group_name_H-M   'P 1'
_cell_length_a   9.72291337
_cell_length_b   9.71885544
_cell_length_c   9.72291192
_cell_angle_alpha   60.10830004
_cell_angle_beta   60.17418407
_cell_angle_gamma   60.10829865
_symmetry_Int_Tables_number   1
_chemical_formula_structural   Tb16MgIn3PdRh3
_chemical_formula_sum   'Tb16 Mg1 In3 Pd1 Rh3'
_cell_volume   651.58666256
_cell_formula_units_Z   1
loop_
 _symmetry_equiv_pos_site_id
 _symmetry_equiv_pos_as_xyz
  1  'x, y, z'
loop_
 _atom_site_type_symbol
 _atom_site_label
 _atom_site_symmetry_multiplicity
 _atom_site_fract_x
 _atom_site_fract_y
 _atom_site_fract_z
 _atom_site_occupancy
  Tb  Tb0  1  0.809515  0.809932  0.190751  1
  Tb  Tb1  1  0.809925  0.185784  0.809925  1
  Tb  Tb2  1  0.192344  0.183189  0.812620  1
  Tb  Tb3  1  0.650173  0.047635  0.650173  1
  Tb  Tb4  1  0.061519  0.062698  0.437981  1
  Tb  Tb5  1  0.434270  0.437002  0.063082  1
  Tb  Tb6  1  0.648909  0.654095  0.648909  1
  Tb  Tb7  1  0.812620  0.183189  0.192344  1
  Tb  Tb8  1  0.190751  0.809932  0.809515  1
  Tb  Tb9  1  0.051667  0.652898  0.646672  1
  Tb  Tb10  1  0.437981  0.062698  0.061519  1
  Tb  Tb11  1  0.435119  0.064169  0.435119  1
  Tb  Tb12  1  0.062350  0.439358  0.062350  1
  Tb  Tb13  1  0.646672  0.652898  0.051667  1
  Tb  Tb14  1  0.187376  0.812941  0.187376  1
  Tb  Tb15  1  0.063082  0.437002  0.434270  1
  Mg  Mg16  1  0.422443  0.422391  0.422443  1
  In  In17  1  0.418474  0.417694  0.746604  1
  In  In18  1  0.417933  0.747032  0.417933  1
  In  In19  1  0.746604  0.417694  0.418474  1
  Pd  Pd20  1  0.857170  0.429242  0.857170  1
  Rh  Rh21  1  0.857224  0.856707  0.857224  1
  Rh  Rh22  1  0.857967  0.856908  0.427913  1
  Rh  Rh23  1  0.427913  0.856908  0.857967  1
