# generated using pymatgen
data_Tm5(Hg2Pt)2
_symmetry_space_group_name_H-M   'P 1'
_cell_length_a   3.58505700
_cell_length_b   7.90995500
_cell_length_c   18.06605100
_cell_angle_alpha   90.00000000
_cell_angle_beta   90.00000000
_cell_angle_gamma   90.00000000
_symmetry_Int_Tables_number   1
_chemical_formula_structural   Tm5(Hg2Pt)2
_chemical_formula_sum   'Tm10 Hg8 Pt4'
_cell_volume   512.31056221
_cell_formula_units_Z   2
loop_
 _symmetry_equiv_pos_site_id
 _symmetry_equiv_pos_as_xyz
  1  'x, y, z'
loop_
 _atom_site_type_symbol
 _atom_site_label
 _atom_site_symmetry_multiplicity
 _atom_site_fract_x
 _atom_site_fract_y
 _atom_site_fract_z
 _atom_site_occupancy
  Tm  Tm0  1  0.000000  0.112989  0.415157  1
  Tm  Tm1  1  0.000000  0.887011  0.584843  1
  Tm  Tm2  1  0.000000  0.387011  0.915157  1
  Tm  Tm3  1  0.000000  0.612989  0.084843  1
  Tm  Tm4  1  0.000000  0.241273  0.216662  1
  Tm  Tm5  1  0.000000  0.758727  0.783338  1
  Tm  Tm6  1  0.000000  0.258727  0.716662  1
  Tm  Tm7  1  0.000000  0.741273  0.283338  1
  Tm  Tm8  1  0.000000  0.000000  0.000000  1
  Tm  Tm9  1  0.000000  0.500000  0.500000  1
  Hg  Hg10  1  0.500000  0.423612  0.354837  1
  Hg  Hg11  1  0.500000  0.576388  0.645163  1
  Hg  Hg12  1  0.500000  0.076388  0.854837  1
  Hg  Hg13  1  0.500000  0.923612  0.145163  1
  Hg  Hg14  1  0.500000  0.287113  0.062385  1
  Hg  Hg15  1  0.500000  0.712887  0.937615  1
  Hg  Hg16  1  0.500000  0.212887  0.562385  1
  Hg  Hg17  1  0.500000  0.787113  0.437615  1
  Pt  Pt18  1  0.500000  0.028364  0.303479  1
  Pt  Pt19  1  0.500000  0.971636  0.696521  1
  Pt  Pt20  1  0.500000  0.471636  0.803479  1
  Pt  Pt21  1  0.500000  0.528364  0.196521  1
