# generated using pymatgen
data_Tb17Tm2InIr12
_symmetry_space_group_name_H-M   'P 1'
_cell_length_a   10.91031900
_cell_length_b   10.91031900
_cell_length_c   6.32725300
_cell_angle_alpha   90.00000000
_cell_angle_beta   90.00000000
_cell_angle_gamma   90.00000000
_symmetry_Int_Tables_number   1
_chemical_formula_structural   Tb17Tm2InIr12
_chemical_formula_sum   'Tb17 Tm2 In1 Ir12'
_cell_volume   753.16494480
_cell_formula_units_Z   1
loop_
 _symmetry_equiv_pos_site_id
 _symmetry_equiv_pos_as_xyz
  1  'x, y, z'
loop_
 _atom_site_type_symbol
 _atom_site_label
 _atom_site_symmetry_multiplicity
 _atom_site_fract_x
 _atom_site_fract_y
 _atom_site_fract_z
 _atom_site_occupancy
  Tb  Tb0  1  0.283413  0.085090  0.381082  1
  Tb  Tb1  1  0.290900  0.911450  0.880971  1
  Tb  Tb2  1  0.709100  0.088550  0.880971  1
  Tb  Tb3  1  0.716587  0.914910  0.381082  1
  Tb  Tb4  1  0.588424  0.790739  0.882529  1
  Tb  Tb5  1  0.587901  0.208982  0.378681  1
  Tb  Tb6  1  0.412099  0.791018  0.378681  1
  Tb  Tb7  1  0.411576  0.209261  0.882529  1
  Tb  Tb8  1  0.208982  0.412099  0.621319  1
  Tb  Tb9  1  0.209261  0.588424  0.117471  1
  Tb  Tb10  1  0.790739  0.411576  0.117471  1
  Tb  Tb11  1  0.791018  0.587901  0.621319  1
  Tb  Tb12  1  0.911450  0.709100  0.119029  1
  Tb  Tb13  1  0.914910  0.283413  0.618918  1
  Tb  Tb14  1  0.085090  0.716587  0.618918  1
  Tb  Tb15  1  0.088550  0.290900  0.119029  1
  Tb  Tb16  1  0.000000  0.000000  0.000000  1
  Tm  Tm17  1  0.500000  0.500000  0.000000  1
  Tm  Tm18  1  0.500000  0.500000  0.500000  1
  In  In19  1  0.000000  0.000000  0.500000  1
  Ir  Ir20  1  0.845896  0.155699  0.245802  1
  Ir  Ir21  1  0.844301  0.845896  0.754198  1
  Ir  Ir22  1  0.155699  0.154104  0.754198  1
  Ir  Ir23  1  0.154104  0.844301  0.245802  1
  Ir  Ir24  1  0.652516  0.348528  0.746900  1
  Ir  Ir25  1  0.651472  0.652516  0.253100  1
  Ir  Ir26  1  0.348528  0.347484  0.253100  1
  Ir  Ir27  1  0.347484  0.651472  0.746900  1
  Ir  Ir28  1  0.500000  0.000000  0.125499  1
  Ir  Ir29  1  0.500000  0.000000  0.620788  1
  Ir  Ir30  1  0.000000  0.500000  0.874501  1
  Ir  Ir31  1  0.000000  0.500000  0.379212  1
