# generated using pymatgen
data_Gd5Tm3(P3Ir4)4
_symmetry_space_group_name_H-M   'P 1'
_cell_length_a   12.96577500
_cell_length_b   12.96577566
_cell_length_c   4.00242700
_cell_angle_alpha   90.00000000
_cell_angle_beta   90.00000000
_cell_angle_gamma   120.00000087
_symmetry_Int_Tables_number   1
_chemical_formula_structural   Gd5Tm3(P3Ir4)4
_chemical_formula_sum   'Gd5 Tm3 P12 Ir16'
_cell_volume   582.70806793
_cell_formula_units_Z   1
loop_
 _symmetry_equiv_pos_site_id
 _symmetry_equiv_pos_as_xyz
  1  'x, y, z'
loop_
 _atom_site_type_symbol
 _atom_site_label
 _atom_site_symmetry_multiplicity
 _atom_site_fract_x
 _atom_site_fract_y
 _atom_site_fract_z
 _atom_site_occupancy
  Gd  Gd0  1  0.333333  0.666667  0.500000  1
  Gd  Gd1  1  0.666667  0.333333  0.500000  1
  Gd  Gd2  1  0.000000  0.814899  0.000000  1
  Gd  Gd3  1  0.185101  0.185101  0.000000  1
  Gd  Gd4  1  0.814899  0.000000  0.000000  1
  Tm  Tm5  1  0.000000  0.445669  0.500000  1
  Tm  Tm6  1  0.554331  0.554331  0.500000  1
  Tm  Tm7  1  0.445669  0.000000  0.500000  1
  P  P8  1  0.000000  0.651247  0.500000  1
  P  P9  1  0.348753  0.348753  0.500000  1
  P  P10  1  0.651247  0.000000  0.500000  1
  P  P11  1  0.517344  0.688547  0.000000  1
  P  P12  1  0.311453  0.828798  0.000000  1
  P  P13  1  0.171202  0.482656  0.000000  1
  P  P14  1  0.482656  0.171202  0.000000  1
  P  P15  1  0.688547  0.517344  0.000000  1
  P  P16  1  0.828798  0.311453  0.000000  1
  P  P17  1  0.000000  0.177244  0.500000  1
  P  P18  1  0.822756  0.822756  0.500000  1
  P  P19  1  0.177244  0.000000  0.500000  1
  Ir  Ir20  1  0.510520  0.867260  0.000000  1
  Ir  Ir21  1  0.132740  0.643260  0.000000  1
  Ir  Ir22  1  0.356740  0.489480  0.000000  1
  Ir  Ir23  1  0.489480  0.356740  0.000000  1
  Ir  Ir24  1  0.867260  0.510520  0.000000  1
  Ir  Ir25  1  0.643260  0.132740  0.000000  1
  Ir  Ir26  1  0.000000  0.275828  0.000000  1
  Ir  Ir27  1  0.724172  0.724172  0.000000  1
  Ir  Ir28  1  0.275828  0.000000  0.000000  1
  Ir  Ir29  1  0.629416  0.808308  0.500000  1
  Ir  Ir30  1  0.191692  0.821108  0.500000  1
  Ir  Ir31  1  0.178892  0.370584  0.500000  1
  Ir  Ir32  1  0.370584  0.178892  0.500000  1
  Ir  Ir33  1  0.808308  0.629416  0.500000  1
  Ir  Ir34  1  0.821108  0.191692  0.500000  1
  Ir  Ir35  1  0.000000  0.000000  0.500000  1
