# generated using pymatgen
data_YRuBr18
_symmetry_space_group_name_H-M   'P 1'
_cell_length_a   9.29953577
_cell_length_b   9.32571638
_cell_length_c   9.23178617
_cell_angle_alpha   87.71801084
_cell_angle_beta   87.65809807
_cell_angle_gamma   88.47736740
_symmetry_Int_Tables_number   1
_chemical_formula_structural   YRuBr18
_chemical_formula_sum   'Y1 Ru1 Br18'
_cell_volume   799.07248132
_cell_formula_units_Z   1
loop_
 _symmetry_equiv_pos_site_id
 _symmetry_equiv_pos_as_xyz
  1  'x, y, z'
loop_
 _atom_site_type_symbol
 _atom_site_label
 _atom_site_symmetry_multiplicity
 _atom_site_fract_x
 _atom_site_fract_y
 _atom_site_fract_z
 _atom_site_occupancy
  Y  Y0  1  0.000000  0.000000  0.000000  1
  Ru  Ru1  1  0.500000  0.500000  0.500000  1
  Br  Br2  1  0.768869  0.483330  0.503541  1
  Br  Br3  1  0.501711  0.767977  0.468338  1
  Br  Br4  1  0.479978  0.512644  0.769833  1
  Br  Br5  1  0.231131  0.516670  0.496459  1
  Br  Br6  1  0.498289  0.232023  0.531662  1
  Br  Br7  1  0.520022  0.487356  0.230167  1
  Br  Br8  1  0.881806  0.382712  0.736531  1
  Br  Br9  1  0.737461  0.882786  0.378532  1
  Br  Br10  1  0.381726  0.745611  0.880089  1
  Br  Br11  1  0.118194  0.617288  0.263469  1
  Br  Br12  1  0.262539  0.117214  0.621468  1
  Br  Br13  1  0.618274  0.254389  0.119911  1
  Br  Br14  1  0.034851  0.968722  0.697314  1
  Br  Br15  1  0.698834  0.031573  0.971346  1
  Br  Br16  1  0.970071  0.698979  0.038504  1
  Br  Br17  1  0.965149  0.031278  0.302686  1
  Br  Br18  1  0.301166  0.968427  0.028654  1
  Br  Br19  1  0.029929  0.301021  0.961496  1
