# generated using pymatgen
data_Y2Co3Ni7P6
_symmetry_space_group_name_H-M   'P 1'
_cell_length_a   3.70473500
_cell_length_b   10.33716203
_cell_length_c   11.85827103
_cell_angle_alpha   90.00846793
_cell_angle_beta   90.00000000
_cell_angle_gamma   90.00000000
_symmetry_Int_Tables_number   1
_chemical_formula_structural   Y2Co3Ni7P6
_chemical_formula_sum   'Y4 Co6 Ni14 P12'
_cell_volume   454.12963089
_cell_formula_units_Z   2
loop_
 _symmetry_equiv_pos_site_id
 _symmetry_equiv_pos_as_xyz
  1  'x, y, z'
loop_
 _atom_site_type_symbol
 _atom_site_label
 _atom_site_symmetry_multiplicity
 _atom_site_fract_x
 _atom_site_fract_y
 _atom_site_fract_z
 _atom_site_occupancy
  Y  Y0  1  0.250000  0.919062  0.203142  1
  Y  Y1  1  0.750000  0.080938  0.796858  1
  Y  Y2  1  0.750000  0.418324  0.296971  1
  Y  Y3  1  0.250000  0.581676  0.703029  1
  Co  Co4  1  0.750000  0.119059  0.301117  1
  Co  Co5  1  0.250000  0.880941  0.698883  1
  Co  Co6  1  0.250000  0.032825  0.433252  1
  Co  Co7  1  0.750000  0.967175  0.566748  1
  Co  Co8  1  0.750000  0.533254  0.067411  1
  Co  Co9  1  0.250000  0.466746  0.932589  1
  Ni  Ni10  1  0.250000  0.788130  0.492127  1
  Ni  Ni11  1  0.750000  0.211870  0.507873  1
  Ni  Ni12  1  0.750000  0.287695  0.009540  1
  Ni  Ni13  1  0.250000  0.712305  0.990460  1
  Ni  Ni14  1  0.250000  0.093956  0.987761  1
  Ni  Ni15  1  0.750000  0.906044  0.012239  1
  Ni  Ni16  1  0.750000  0.596449  0.512704  1
  Ni  Ni17  1  0.250000  0.403551  0.487296  1
  Ni  Ni18  1  0.250000  0.274332  0.676834  1
  Ni  Ni19  1  0.750000  0.725668  0.323166  1
  Ni  Ni20  1  0.750000  0.776152  0.823637  1
  Ni  Ni21  1  0.250000  0.223848  0.176363  1
  Ni  Ni22  1  0.250000  0.620184  0.199723  1
  Ni  Ni23  1  0.750000  0.379816  0.800277  1
  P  P24  1  0.250000  0.074866  0.613438  1
  P  P25  1  0.750000  0.925134  0.386562  1
  P  P26  1  0.750000  0.576969  0.887484  1
  P  P27  1  0.250000  0.423031  0.112516  1
  P  P28  1  0.250000  0.226880  0.367344  1
  P  P29  1  0.750000  0.773120  0.632656  1
  P  P30  1  0.750000  0.729817  0.130518  1
  P  P31  1  0.250000  0.270183  0.869482  1
  P  P32  1  0.250000  0.896990  0.890350  1
  P  P33  1  0.750000  0.103010  0.109650  1
  P  P34  1  0.750000  0.397360  0.606188  1
  P  P35  1  0.250000  0.602640  0.393812  1
