# generated using pymatgen
data_DyTm(Be12Cu)2
_symmetry_space_group_name_H-M   'P 1'
_cell_length_a   7.24223705
_cell_length_b   7.29383080
_cell_length_c   7.22629602
_cell_angle_alpha   59.83546737
_cell_angle_beta   59.82733140
_cell_angle_gamma   59.61916400
_symmetry_Int_Tables_number   1
_chemical_formula_structural   DyTm(Be12Cu)2
_chemical_formula_sum   'Dy1 Tm1 Be24 Cu2'
_cell_volume   268.44695524
_cell_formula_units_Z   1
loop_
 _symmetry_equiv_pos_site_id
 _symmetry_equiv_pos_as_xyz
  1  'x, y, z'
loop_
 _atom_site_type_symbol
 _atom_site_label
 _atom_site_symmetry_multiplicity
 _atom_site_fract_x
 _atom_site_fract_y
 _atom_site_fract_z
 _atom_site_occupancy
  Dy  Dy0  1  0.252801  0.247199  0.252801  1
  Tm  Tm1  1  0.747262  0.752738  0.747262  1
  Be  Be2  1  0.500000  0.500000  0.500000  1
  Be  Be3  1  0.000000  0.000000  0.000000  1
  Be  Be4  1  0.564723  0.793631  0.435748  1
  Be  Be5  1  0.435748  0.205898  0.564723  1
  Be  Be6  1  0.290557  0.936000  0.709850  1
  Be  Be7  1  0.709850  0.063593  0.290557  1
  Be  Be8  1  0.931290  0.278963  0.068457  1
  Be  Be9  1  0.068457  0.721290  0.931290  1
  Be  Be10  1  0.207321  0.799974  0.557588  1
  Be  Be11  1  0.792379  0.199552  0.442796  1
  Be  Be12  1  0.442796  0.565272  0.792379  1
  Be  Be13  1  0.557588  0.435118  0.207321  1
  Be  Be14  1  0.711301  0.286673  0.936222  1
  Be  Be15  1  0.289028  0.713563  0.063463  1
  Be  Be16  1  0.063463  0.933946  0.289028  1
  Be  Be17  1  0.936222  0.065804  0.711301  1
  Be  Be18  1  0.565836  0.205928  0.792053  1
  Be  Be19  1  0.434491  0.793660  0.207595  1
  Be  Be20  1  0.792053  0.436183  0.565836  1
  Be  Be21  1  0.207595  0.564254  0.434491  1
  Be  Be22  1  0.936203  0.712368  0.291707  1
  Be  Be23  1  0.063401  0.287945  0.708742  1
  Be  Be24  1  0.291707  0.059723  0.936203  1
  Be  Be25  1  0.708742  0.939911  0.063401  1
  Cu  Cu26  1  0.803561  0.557840  0.195625  1
  Cu  Cu27  1  0.195625  0.442974  0.803561  1
