# generated using pymatgen
data_KNpCl4O
_symmetry_space_group_name_H-M   'P 1'
_cell_length_a   7.31631989
_cell_length_b   7.31545103
_cell_length_c   7.71027860
_cell_angle_alpha   106.66631741
_cell_angle_beta   106.66861247
_cell_angle_gamma   32.67570156
_symmetry_Int_Tables_number   1
_chemical_formula_structural   KNpCl4O
_chemical_formula_sum   'K1 Np1 Cl4 O1'
_cell_volume   212.61001477
_cell_formula_units_Z   1
loop_
 _symmetry_equiv_pos_site_id
 _symmetry_equiv_pos_as_xyz
  1  'x, y, z'
loop_
 _atom_site_type_symbol
 _atom_site_label
 _atom_site_symmetry_multiplicity
 _atom_site_fract_x
 _atom_site_fract_y
 _atom_site_fract_z
 _atom_site_occupancy
  K  K0  1  0.997428  0.002568  0.000001  1
  Np  Np1  1  0.501813  0.498188  0.500000  1
  Cl  Cl2  1  0.367284  0.368287  0.185207  1
  Cl  Cl3  1  0.629367  0.630451  0.324713  1
  Cl  Cl4  1  0.369547  0.370635  0.675284  1
  Cl  Cl5  1  0.631718  0.632714  0.814795  1
  O  O6  1  0.002155  0.997846  0.500000  1
