# generated using pymatgen
data_Dy7Ho3(SnBi2)2
_symmetry_space_group_name_H-M   'P 1'
_cell_length_a   9.10743190
_cell_length_b   9.07212366
_cell_length_c   6.43128801
_cell_angle_alpha   90.00464877
_cell_angle_beta   89.99768560
_cell_angle_gamma   119.87183155
_symmetry_Int_Tables_number   1
_chemical_formula_structural   Dy7Ho3(SnBi2)2
_chemical_formula_sum   'Dy7 Ho3 Sn2 Bi4'
_cell_volume   460.77926825
_cell_formula_units_Z   1
loop_
 _symmetry_equiv_pos_site_id
 _symmetry_equiv_pos_as_xyz
  1  'x, y, z'
loop_
 _atom_site_type_symbol
 _atom_site_label
 _atom_site_symmetry_multiplicity
 _atom_site_fract_x
 _atom_site_fract_y
 _atom_site_fract_z
 _atom_site_occupancy
  Dy  Dy0  1  0.994412  0.758633  0.750038  1
  Dy  Dy1  1  0.994412  0.235779  0.249962  1
  Dy  Dy2  1  0.756723  0.761665  0.249957  1
  Dy  Dy3  1  0.756723  0.995057  0.750043  1
  Dy  Dy4  1  0.245077  0.245287  0.750016  1
  Dy  Dy5  1  0.245077  0.999790  0.249984  1
  Dy  Dy6  1  0.340609  0.670305  0.500000  1
  Ho  Ho7  1  0.664899  0.332449  0.000000  1
  Ho  Ho8  1  0.664860  0.332429  0.500000  1
  Ho  Ho9  1  0.340811  0.670406  0.000000  1
  Sn  Sn10  1  0.608429  0.606120  0.750173  1
  Sn  Sn11  1  0.608429  0.002311  0.249827  1
  Bi  Bi12  1  0.388809  0.999051  0.750146  1
  Bi  Bi13  1  0.388809  0.389758  0.249854  1
  Bi  Bi14  1  0.000961  0.609221  0.249862  1
  Bi  Bi15  1  0.000961  0.391740  0.750138  1
