# generated using pymatgen
data_NdDy(Cu2Ni3)2
_symmetry_space_group_name_H-M   'P 1'
_cell_length_a   3.98892100
_cell_length_b   4.98266300
_cell_length_c   8.62528900
_cell_angle_alpha   90.00000000
_cell_angle_beta   90.00000000
_cell_angle_gamma   90.00000000
_symmetry_Int_Tables_number   1
_chemical_formula_structural   NdDy(Cu2Ni3)2
_chemical_formula_sum   'Nd1 Dy1 Cu4 Ni6'
_cell_volume   171.43149229
_cell_formula_units_Z   1
loop_
 _symmetry_equiv_pos_site_id
 _symmetry_equiv_pos_as_xyz
  1  'x, y, z'
loop_
 _atom_site_type_symbol
 _atom_site_label
 _atom_site_symmetry_multiplicity
 _atom_site_fract_x
 _atom_site_fract_y
 _atom_site_fract_z
 _atom_site_occupancy
  Nd  Nd0  1  0.000000  0.500000  0.504141  1
  Dy  Dy1  1  0.000000  0.000000  0.996288  1
  Cu  Cu2  1  0.000000  0.000000  0.325690  1
  Cu  Cu3  1  0.000000  0.500000  0.836327  1
  Cu  Cu4  1  0.000000  0.500000  0.164577  1
  Cu  Cu5  1  0.500000  0.000000  0.500892  1
  Ni  Ni6  1  0.000000  0.000000  0.675787  1
  Ni  Ni7  1  0.500000  0.500000  0.999808  1
  Ni  Ni8  1  0.500000  0.246637  0.243360  1
  Ni  Ni9  1  0.500000  0.753910  0.754885  1
  Ni  Ni10  1  0.500000  0.753363  0.243360  1
  Ni  Ni11  1  0.500000  0.246090  0.754885  1
