# generated using pymatgen
data_Li6CaGd5(WO6)4
_symmetry_space_group_name_H-M   'P 1'
_cell_length_a   10.79875108
_cell_length_b   10.80587087
_cell_length_c   10.79610666
_cell_angle_alpha   109.51970866
_cell_angle_beta   109.49045807
_cell_angle_gamma   109.42825237
_symmetry_Int_Tables_number   1
_chemical_formula_structural   Li6CaGd5(WO6)4
_chemical_formula_sum   'Li12 Ca2 Gd10 W8 O48'
_cell_volume   969.49505665
_cell_formula_units_Z   2
loop_
 _symmetry_equiv_pos_site_id
 _symmetry_equiv_pos_as_xyz
  1  'x, y, z'
loop_
 _atom_site_type_symbol
 _atom_site_label
 _atom_site_symmetry_multiplicity
 _atom_site_fract_x
 _atom_site_fract_y
 _atom_site_fract_z
 _atom_site_occupancy
  Li  Li0  1  0.751080  0.373800  0.124491  1
  Li  Li1  1  0.873274  0.750575  0.124438  1
  Li  Li2  1  0.123273  0.374531  0.248731  1
  Li  Li3  1  0.625446  0.874209  0.248688  1
  Li  Li4  1  0.251019  0.123866  0.375883  1
  Li  Li5  1  0.624849  0.252033  0.375876  1
  Li  Li6  1  0.375968  0.749556  0.625382  1
  Li  Li7  1  0.749430  0.875865  0.625291  1
  Li  Li8  1  0.375326  0.124966  0.748611  1
  Li  Li9  1  0.873252  0.623611  0.748537  1
  Li  Li10  1  0.125689  0.249918  0.876642  1
  Li  Li11  1  0.251017  0.626704  0.876655  1
  Ca  Ca12  1  0.375226  0.250122  0.125379  1
  Ca  Ca13  1  0.250218  0.875297  0.125364  1
  Gd  Gd14  1  0.873426  0.123441  0.246858  1
  Gd  Gd15  1  0.375578  0.625575  0.251122  1
  Gd  Gd16  1  0.125098  0.749698  0.374575  1
  Gd  Gd17  1  0.749501  0.624892  0.374595  1
  Gd  Gd18  1  0.874046  0.249115  0.625258  1
  Gd  Gd19  1  0.251174  0.376113  0.625234  1
  Gd  Gd20  1  0.625725  0.375709  0.751446  1
  Gd  Gd21  1  0.125490  0.875473  0.750967  1
  Gd  Gd22  1  0.750093  0.125230  0.874728  1
  Gd  Gd23  1  0.624537  0.749460  0.874705  1
  W  W24  1  0.006606  0.001581  0.002560  1
  W  W25  1  0.495950  0.000911  0.002569  1
  W  W26  1  0.003084  0.503460  0.001179  1
  W  W27  1  0.498105  0.497742  0.001183  1
  W  W28  1  0.497651  0.998652  0.497257  1
  W  W29  1  0.000230  0.500085  0.500056  1
  W  W30  1  0.999853  0.999975  0.500053  1
  W  W31  1  0.499618  0.498641  0.497283  1
  O  O32  1  0.197765  0.613559  0.024398  1
  O  O33  1  0.326637  0.410831  0.024395  1
  O  O34  1  0.700445  0.171707  0.081038  1
  O  O35  1  0.880581  0.909300  0.081014  1
  O  O36  1  0.970663  0.171464  0.088402  1
  O  O37  1  0.617740  0.916950  0.088462  1
  O  O38  1  0.018945  0.693013  0.116504  1
  O  O39  1  0.597532  0.423489  0.116500  1
  O  O40  1  0.193556  0.081390  0.175060  1
  O  O41  1  0.481479  0.093661  0.175062  1
  O  O42  1  0.117483  0.525522  0.198888  1
  O  O43  1  0.581415  0.673375  0.198881  1
  O  O44  1  0.326427  0.424080  0.306763  1
  O  O45  1  0.480321  0.882680  0.306746  1
  O  O46  1  0.919267  0.801911  0.327094  1
  O  O47  1  0.907844  0.525186  0.327091  1
  O  O48  1  0.585028  0.412136  0.387263  1
  O  O49  1  0.302221  0.975130  0.387258  1
  O  O50  1  0.826925  0.025924  0.407422  1
  O  O51  1  0.080517  0.381501  0.407398  1
  O  O52  1  0.827291  0.302067  0.419601  1
  O  O53  1  0.092336  0.117539  0.419603  1
  O  O54  1  0.382459  0.801127  0.475190  1
  O  O55  1  0.592733  0.674078  0.475191  1
  O  O56  1  0.408575  0.327402  0.525718  1
  O  O57  1  0.617131  0.198334  0.525705  1
  O  O58  1  0.173082  0.698111  0.579936  1
  O  O59  1  0.906885  0.881841  0.579931  1
  O  O60  1  0.920220  0.618214  0.592507  1
  O  O61  1  0.172321  0.974312  0.592526  1
  O  O62  1  0.419306  0.591843  0.620291  1
  O  O63  1  0.700972  0.028453  0.620269  1
  O  O64  1  0.080293  0.198464  0.673230  1
  O  O65  1  0.092956  0.474786  0.673209  1
  O  O66  1  0.672067  0.582118  0.700652  1
  O  O67  1  0.528599  0.118576  0.700658  1
  O  O68  1  0.418360  0.326834  0.800508  1
  O  O69  1  0.882186  0.473699  0.800528  1
  O  O70  1  0.531839  0.910546  0.828520  1
  O  O71  1  0.796613  0.917877  0.828498  1
  O  O72  1  0.971974  0.300072  0.881789  1
  O  O73  1  0.409761  0.581677  0.881784  1
  O  O74  1  0.018830  0.825418  0.902489  1
  O  O75  1  0.383677  0.077050  0.902500  1
  O  O76  1  0.112812  0.088726  0.914695  1
  O  O77  1  0.301873  0.825941  0.914690  1
  O  O78  1  0.799427  0.379866  0.971281  1
  O  O79  1  0.671801  0.591418  0.971265  1
