# generated using pymatgen
data_Tb2SmCo8P6W
_symmetry_space_group_name_H-M   'P 1'
_cell_length_a   3.74243500
_cell_length_b   10.59795300
_cell_length_c   12.31450800
_cell_angle_alpha   90.00000000
_cell_angle_beta   90.00000000
_cell_angle_gamma   90.00000000
_symmetry_Int_Tables_number   1
_chemical_formula_structural   Tb2SmCo8P6W
_chemical_formula_sum   'Tb4 Sm2 Co16 P12 W2'
_cell_volume   488.41986637
_cell_formula_units_Z   2
loop_
 _symmetry_equiv_pos_site_id
 _symmetry_equiv_pos_as_xyz
  1  'x, y, z'
loop_
 _atom_site_type_symbol
 _atom_site_label
 _atom_site_symmetry_multiplicity
 _atom_site_fract_x
 _atom_site_fract_y
 _atom_site_fract_z
 _atom_site_occupancy
  Tb  Tb0  1  0.500000  0.819186  0.204567  1
  Tb  Tb1  1  0.500000  0.180814  0.204567  1
  Tb  Tb2  1  0.000000  0.680814  0.795433  1
  Tb  Tb3  1  0.000000  0.319186  0.795433  1
  Sm  Sm4  1  0.000000  0.500000  0.524404  1
  Sm  Sm5  1  0.500000  0.000000  0.475596  1
  Co  Co6  1  0.500000  0.500000  0.702889  1
  Co  Co7  1  0.000000  0.000000  0.297111  1
  Co  Co8  1  0.000000  0.500000  0.987296  1
  Co  Co9  1  0.500000  0.000000  0.012704  1
  Co  Co10  1  0.500000  0.332635  0.990648  1
  Co  Co11  1  0.500000  0.667365  0.990648  1
  Co  Co12  1  0.000000  0.167365  0.009352  1
  Co  Co13  1  0.000000  0.832635  0.009352  1
  Co  Co14  1  0.500000  0.295500  0.430669  1
  Co  Co15  1  0.500000  0.704500  0.430669  1
  Co  Co16  1  0.000000  0.204500  0.569331  1
  Co  Co17  1  0.000000  0.795500  0.569331  1
  Co  Co18  1  0.500000  0.878804  0.708795  1
  Co  Co19  1  0.500000  0.121196  0.708795  1
  Co  Co20  1  0.000000  0.621196  0.291205  1
  Co  Co21  1  0.000000  0.378804  0.291205  1
  P  P22  1  0.500000  0.500000  0.881590  1
  P  P23  1  0.000000  0.000000  0.118410  1
  P  P24  1  0.500000  0.500000  0.347798  1
  P  P25  1  0.000000  0.000000  0.652202  1
  P  P26  1  0.500000  0.309199  0.616163  1
  P  P27  1  0.500000  0.690801  0.616163  1
  P  P28  1  0.000000  0.190801  0.383837  1
  P  P29  1  0.000000  0.809199  0.383837  1
  P  P30  1  0.500000  0.844587  0.893326  1
  P  P31  1  0.500000  0.155413  0.893326  1
  P  P32  1  0.000000  0.655413  0.106674  1
  P  P33  1  0.000000  0.344587  0.106674  1
  W  W34  1  0.500000  0.500000  0.155128  1
  W  W35  1  0.000000  0.000000  0.844872  1
