# generated using pymatgen
data_Tb6Ce2Hf11ScSi16
_symmetry_space_group_name_H-M   'P 1'
_cell_length_a   7.31656999
_cell_length_b   7.32072630
_cell_length_c   13.43776314
_cell_angle_alpha   89.98201557
_cell_angle_beta   90.07625220
_cell_angle_gamma   89.96813391
_symmetry_Int_Tables_number   1
_chemical_formula_structural   Tb6Ce2Hf11ScSi16
_chemical_formula_sum   'Tb6 Ce2 Hf11 Sc1 Si16'
_cell_volume   719.76083279
_cell_formula_units_Z   1
loop_
 _symmetry_equiv_pos_site_id
 _symmetry_equiv_pos_as_xyz
  1  'x, y, z'
loop_
 _atom_site_type_symbol
 _atom_site_label
 _atom_site_symmetry_multiplicity
 _atom_site_fract_x
 _atom_site_fract_y
 _atom_site_fract_z
 _atom_site_occupancy
  Tb  Tb0  1  0.154875  0.496040  0.465884  1
  Tb  Tb1  1  0.503066  0.844627  0.034851  1
  Tb  Tb2  1  0.843675  0.504052  0.965749  1
  Tb  Tb3  1  0.496592  0.154409  0.534671  1
  Tb  Tb4  1  0.343557  0.994352  0.785126  1
  Tb  Tb5  1  0.655720  0.005639  0.285570  1
  Ce  Ce6  1  0.994489  0.344072  0.213197  1
  Ce  Ce7  1  0.006582  0.655460  0.713211  1
  Hf  Hf8  1  0.824790  0.823935  0.501005  1
  Hf  Hf9  1  0.323998  0.675011  0.250220  1
  Hf  Hf10  1  0.676753  0.325556  0.749854  1
  Hf  Hf11  1  0.151113  0.998284  0.374713  1
  Hf  Hf12  1  0.848891  0.000486  0.874140  1
  Hf  Hf13  1  0.504508  0.648515  0.624282  1
  Hf  Hf14  1  0.352580  0.496132  0.874977  1
  Hf  Hf15  1  0.496149  0.353704  0.124644  1
  Hf  Hf16  1  0.649181  0.504442  0.375030  1
  Hf  Hf17  1  0.996317  0.149767  0.625199  1
  Hf  Hf18  1  0.002662  0.850310  0.126378  1
  Sc  Sc19  1  0.174385  0.175266  0.000926  1
  Si  Si20  1  0.362871  0.296521  0.317479  1
  Si  Si21  1  0.637806  0.703509  0.817015  1
  Si  Si22  1  0.205605  0.863703  0.565990  1
  Si  Si23  1  0.135403  0.792132  0.932912  1
  Si  Si24  1  0.790705  0.134414  0.066620  1
  Si  Si25  1  0.863029  0.204855  0.433587  1
  Si  Si26  1  0.296878  0.360720  0.683051  1
  Si  Si27  1  0.703417  0.639448  0.182881  1
  Si  Si28  1  0.295304  0.048544  0.186788  1
  Si  Si29  1  0.704912  0.951704  0.685750  1
  Si  Si30  1  0.451484  0.795170  0.434973  1
  Si  Si31  1  0.207702  0.554008  0.064142  1
  Si  Si32  1  0.551602  0.206226  0.934661  1
  Si  Si33  1  0.793762  0.449452  0.564030  1
  Si  Si34  1  0.048329  0.292845  0.814468  1
  Si  Si35  1  0.951310  0.706689  0.316024  1
