# generated using pymatgen
data_Ba3Tc2(P3Os2)2
_symmetry_space_group_name_H-M   'P 1'
_cell_length_a   8.92823362
_cell_length_b   8.93033359
_cell_length_c   8.93033283
_cell_angle_alpha   153.53190622
_cell_angle_beta   91.90178924
_cell_angle_gamma   94.10908781
_symmetry_Int_Tables_number   1
_chemical_formula_structural   Ba3Tc2(P3Os2)2
_chemical_formula_sum   'Ba3 Tc2 P6 Os4'
_cell_volume   308.85759729
_cell_formula_units_Z   1
loop_
 _symmetry_equiv_pos_site_id
 _symmetry_equiv_pos_as_xyz
  1  'x, y, z'
loop_
 _atom_site_type_symbol
 _atom_site_label
 _atom_site_symmetry_multiplicity
 _atom_site_fract_x
 _atom_site_fract_y
 _atom_site_fract_z
 _atom_site_occupancy
  Ba  Ba0  1  0.332450  0.332480  0.999970  1
  Ba  Ba1  1  0.668016  0.666728  0.001288  1
  Ba  Ba2  1  0.000697  0.000762  0.999935  1
  Tc  Tc3  1  0.585328  0.833820  0.751508  1
  Tc  Tc4  1  0.251225  0.499556  0.751668  1
  P  P5  1  0.321124  0.666680  0.654444  1
  P  P6  1  0.678860  0.333826  0.345034  1
  P  P7  1  0.987466  0.332721  0.654743  1
  P  P8  1  0.344855  0.999650  0.345205  1
  P  P9  1  0.011485  0.666614  0.344871  1
  P  P10  1  0.655181  0.000512  0.654670  1
  Os  Os11  1  0.748271  0.500406  0.247864  1
  Os  Os12  1  0.081008  0.832949  0.248059  1
  Os  Os13  1  0.415110  0.166655  0.248455  1
  Os  Os14  1  0.918924  0.166637  0.752288  1
