# generated using pymatgen
data_SrHoEr5CoBr12
_symmetry_space_group_name_H-M   'P 1'
_cell_length_a   9.16064884
_cell_length_b   9.04764875
_cell_length_c   9.16554312
_cell_angle_alpha   105.73851516
_cell_angle_beta   105.87553308
_cell_angle_gamma   106.03013031
_symmetry_Int_Tables_number   1
_chemical_formula_structural   SrHoEr5CoBr12
_chemical_formula_sum   'Sr1 Ho1 Er5 Co1 Br12'
_cell_volume   650.99138608
_cell_formula_units_Z   1
loop_
 _symmetry_equiv_pos_site_id
 _symmetry_equiv_pos_as_xyz
  1  'x, y, z'
loop_
 _atom_site_type_symbol
 _atom_site_label
 _atom_site_symmetry_multiplicity
 _atom_site_fract_x
 _atom_site_fract_y
 _atom_site_fract_z
 _atom_site_occupancy
  Sr  Sr0  1  0.998059  0.998417  0.998180  1
  Ho  Ho1  1  0.405559  0.206090  0.481030  1
  Er  Er2  1  0.517429  0.595291  0.801059  1
  Er  Er3  1  0.801819  0.516384  0.595453  1
  Er  Er4  1  0.591942  0.790417  0.516787  1
  Er  Er5  1  0.480494  0.402639  0.196897  1
  Er  Er6  1  0.196105  0.481241  0.402319  1
  Co  Co7  1  0.498903  0.498581  0.499053  1
  Br  Br8  1  0.281256  0.824180  0.427627  1
  Br  Br9  1  0.425901  0.278429  0.823385  1
  Br  Br10  1  0.824889  0.426741  0.279920  1
  Br  Br11  1  0.717816  0.173195  0.570179  1
  Br  Br12  1  0.572112  0.720287  0.175773  1
  Br  Br13  1  0.173043  0.571564  0.717882  1
  Br  Br14  1  0.055331  0.134888  0.361936  1
  Br  Br15  1  0.361930  0.054665  0.135158  1
  Br  Br16  1  0.135519  0.364435  0.054862  1
  Br  Br17  1  0.940866  0.862529  0.634107  1
  Br  Br18  1  0.634355  0.942926  0.860932  1
  Br  Br19  1  0.862039  0.632476  0.942834  1
