# generated using pymatgen
data_Nd3Th(InPd2)2
_symmetry_space_group_name_H-M   'P 1'
_cell_length_a   7.92865768
_cell_length_b   7.92865768
_cell_length_c   3.85353400
_cell_angle_alpha   90.00000000
_cell_angle_beta   90.00000000
_cell_angle_gamma   91.51582834
_symmetry_Int_Tables_number   1
_chemical_formula_structural   Nd3Th(InPd2)2
_chemical_formula_sum   'Nd3 Th1 In2 Pd4'
_cell_volume   242.16229536
_cell_formula_units_Z   1
loop_
 _symmetry_equiv_pos_site_id
 _symmetry_equiv_pos_as_xyz
  1  'x, y, z'
loop_
 _atom_site_type_symbol
 _atom_site_label
 _atom_site_symmetry_multiplicity
 _atom_site_fract_x
 _atom_site_fract_y
 _atom_site_fract_z
 _atom_site_occupancy
  Nd  Nd0  1  0.823938  0.672958  0.500000  1
  Nd  Nd1  1  0.172958  0.323938  0.500000  1
  Nd  Nd2  1  0.676984  0.176984  0.500000  1
  Th  Th3  1  0.327213  0.827213  0.500000  1
  In  In4  1  0.997635  0.998947  0.000000  1
  In  In5  1  0.498947  0.497635  0.000000  1
  Pd  Pd6  1  0.370033  0.119130  0.000000  1
  Pd  Pd7  1  0.877957  0.377957  0.000000  1
  Pd  Pd8  1  0.135204  0.635204  0.000000  1
  Pd  Pd9  1  0.619130  0.870033  0.000000  1
