# generated using pymatgen
data_Hf16Fe4TcPd3
_symmetry_space_group_name_H-M   'P 1'
_cell_length_a   8.63975490
_cell_length_b   8.60103504
_cell_length_c   8.60103500
_cell_angle_alpha   60.00000399
_cell_angle_beta   60.14814345
_cell_angle_gamma   60.14814466
_symmetry_Int_Tables_number   1
_chemical_formula_structural   Hf16Fe4TcPd3
_chemical_formula_sum   'Hf16 Fe4 Tc1 Pd3'
_cell_volume   452.95673261
_cell_formula_units_Z   1
loop_
 _symmetry_equiv_pos_site_id
 _symmetry_equiv_pos_as_xyz
  1  'x, y, z'
loop_
 _atom_site_type_symbol
 _atom_site_label
 _atom_site_symmetry_multiplicity
 _atom_site_fract_x
 _atom_site_fract_y
 _atom_site_fract_z
 _atom_site_occupancy
  Hf  Hf0  1  0.181948  0.606017  0.606017  1
  Hf  Hf1  1  0.602972  0.190222  0.603403  1
  Hf  Hf2  1  0.602972  0.603403  0.190222  1
  Hf  Hf3  1  0.602972  0.603403  0.603403  1
  Hf  Hf4  1  0.811179  0.811217  0.188802  1
  Hf  Hf5  1  0.196390  0.180676  0.811467  1
  Hf  Hf6  1  0.811179  0.188802  0.811217  1
  Hf  Hf7  1  0.196390  0.811467  0.180676  1
  Hf  Hf8  1  0.196390  0.811467  0.811467  1
  Hf  Hf9  1  0.811179  0.188802  0.188802  1
  Hf  Hf10  1  0.440403  0.446779  0.056409  1
  Hf  Hf11  1  0.058248  0.058136  0.441808  1
  Hf  Hf12  1  0.440403  0.056409  0.446779  1
  Hf  Hf13  1  0.058248  0.441808  0.058136  1
  Hf  Hf14  1  0.058248  0.441808  0.441808  1
  Hf  Hf15  1  0.440403  0.056409  0.056409  1
  Fe  Fe16  1  0.826685  0.391105  0.391105  1
  Fe  Fe17  1  0.389886  0.822535  0.393790  1
  Fe  Fe18  1  0.389886  0.393790  0.822535  1
  Fe  Fe19  1  0.389886  0.393790  0.393790  1
  Tc  Tc20  1  0.497551  0.834150  0.834150  1
  Pd  Pd21  1  0.832195  0.496240  0.835783  1
  Pd  Pd22  1  0.832195  0.835783  0.496240  1
  Pd  Pd23  1  0.832195  0.835783  0.835783  1
