# generated using pymatgen
data_SmTm5Rh18
_symmetry_space_group_name_H-M   'P 1'
_cell_length_a   5.24375900
_cell_length_b   5.24375918
_cell_length_c   17.50199700
_cell_angle_alpha   90.00000000
_cell_angle_beta   90.00000000
_cell_angle_gamma   119.99999257
_symmetry_Int_Tables_number   1
_chemical_formula_structural   SmTm5Rh18
_chemical_formula_sum   'Sm1 Tm5 Rh18'
_cell_volume   416.77698748
_cell_formula_units_Z   1
loop_
 _symmetry_equiv_pos_site_id
 _symmetry_equiv_pos_as_xyz
  1  'x, y, z'
loop_
 _atom_site_type_symbol
 _atom_site_label
 _atom_site_symmetry_multiplicity
 _atom_site_fract_x
 _atom_site_fract_y
 _atom_site_fract_z
 _atom_site_occupancy
  Sm  Sm0  1  0.666667  0.333333  0.250000  1
  Tm  Tm1  1  0.333333  0.666667  0.957976  1
  Tm  Tm2  1  0.666667  0.333333  0.041446  1
  Tm  Tm3  1  0.666667  0.333333  0.458554  1
  Tm  Tm4  1  0.333333  0.666667  0.542024  1
  Tm  Tm5  1  0.333333  0.666667  0.750000  1
  Rh  Rh6  1  0.167360  0.832640  0.375355  1
  Rh  Rh7  1  0.167360  0.334721  0.375355  1
  Rh  Rh8  1  0.665279  0.832640  0.375355  1
  Rh  Rh9  1  0.832622  0.167378  0.625233  1
  Rh  Rh10  1  0.832622  0.665244  0.625233  1
  Rh  Rh11  1  0.334756  0.167378  0.625233  1
  Rh  Rh12  1  0.832622  0.167378  0.874767  1
  Rh  Rh13  1  0.832622  0.665244  0.874767  1
  Rh  Rh14  1  0.334756  0.167378  0.874767  1
  Rh  Rh15  1  0.167360  0.832640  0.124645  1
  Rh  Rh16  1  0.167360  0.334721  0.124645  1
  Rh  Rh17  1  0.665279  0.832640  0.124645  1
  Rh  Rh18  1  0.333333  0.666667  0.250000  1
  Rh  Rh19  1  0.666667  0.333333  0.750000  1
  Rh  Rh20  1  0.000000  0.000000  0.250000  1
  Rh  Rh21  1  0.000000  0.000000  0.750000  1
  Rh  Rh22  1  0.000000  0.000000  0.500183  1
  Rh  Rh23  1  0.000000  0.000000  0.999817  1
