# generated using pymatgen
data_Ba6PrHo(BO3)6
_symmetry_space_group_name_H-M   'P 1'
_cell_length_a   8.29694696
_cell_length_b   8.29694724
_cell_length_c   8.29694652
_cell_angle_alpha   105.63022287
_cell_angle_beta   105.63022860
_cell_angle_gamma   105.63023502
_symmetry_Int_Tables_number   1
_chemical_formula_structural   Ba6PrHo(BO3)6
_chemical_formula_sum   'Ba6 Pr1 Ho1 B6 O18'
_cell_volume   492.35836768
_cell_formula_units_Z   1
loop_
 _symmetry_equiv_pos_site_id
 _symmetry_equiv_pos_as_xyz
  1  'x, y, z'
loop_
 _atom_site_type_symbol
 _atom_site_label
 _atom_site_symmetry_multiplicity
 _atom_site_fract_x
 _atom_site_fract_y
 _atom_site_fract_z
 _atom_site_occupancy
  Ba  Ba0  1  0.355144  0.731355  0.846747  1
  Ba  Ba1  1  0.846747  0.355144  0.731355  1
  Ba  Ba2  1  0.731355  0.846747  0.355144  1
  Ba  Ba3  1  0.644856  0.268645  0.153253  1
  Ba  Ba4  1  0.153253  0.644856  0.268645  1
  Ba  Ba5  1  0.268645  0.153253  0.644856  1
  Pr  Pr6  1  0.000000  0.000000  0.000000  1
  Ho  Ho7  1  0.500000  0.500000  0.500000  1
  B  B8  1  0.707564  0.615160  0.953528  1
  B  B9  1  0.953528  0.707564  0.615160  1
  B  B10  1  0.615160  0.953528  0.707564  1
  B  B11  1  0.046472  0.292436  0.384840  1
  B  B12  1  0.384840  0.046472  0.292436  1
  B  B13  1  0.292436  0.384840  0.046472  1
  O  O14  1  0.051462  0.805064  0.539554  1
  O  O15  1  0.539554  0.051462  0.805064  1
  O  O16  1  0.427692  0.492776  0.216220  1
  O  O17  1  0.492776  0.216220  0.427692  1
  O  O18  1  0.216220  0.427692  0.492776  1
  O  O19  1  0.783780  0.572308  0.507224  1
  O  O20  1  0.572308  0.507224  0.783780  1
  O  O21  1  0.507224  0.783780  0.572308  1
  O  O22  1  0.262079  0.201033  0.979881  1
  O  O23  1  0.201033  0.979881  0.262079  1
  O  O24  1  0.979881  0.262079  0.201033  1
  O  O25  1  0.737921  0.798967  0.020119  1
  O  O26  1  0.798967  0.020119  0.737921  1
  O  O27  1  0.020119  0.737921  0.798967  1
  O  O28  1  0.194936  0.460446  0.948538  1
  O  O29  1  0.460446  0.948538  0.194936  1
  O  O30  1  0.948538  0.194936  0.460446  1
  O  O31  1  0.805064  0.539554  0.051462  1
