# generated using pymatgen
data_Ni3Sn2Sb
_symmetry_space_group_name_H-M   'P 1'
_cell_length_a   6.90168522
_cell_length_b   6.90168477
_cell_length_c   5.09962800
_cell_angle_alpha   90.00000000
_cell_angle_beta   90.00000000
_cell_angle_gamma   59.51444314
_symmetry_Int_Tables_number   1
_chemical_formula_structural   Ni3Sn2Sb
_chemical_formula_sum   'Ni6 Sn4 Sb2'
_cell_volume   209.33103517
_cell_formula_units_Z   2
loop_
 _symmetry_equiv_pos_site_id
 _symmetry_equiv_pos_as_xyz
  1  'x, y, z'
loop_
 _atom_site_type_symbol
 _atom_site_label
 _atom_site_symmetry_multiplicity
 _atom_site_fract_x
 _atom_site_fract_y
 _atom_site_fract_z
 _atom_site_occupancy
  Ni  Ni0  1  0.161569  0.161569  0.000000  1
  Ni  Ni1  1  0.500000  0.500000  0.000000  1
  Ni  Ni2  1  0.838431  0.838431  0.000000  1
  Ni  Ni3  1  0.161569  0.161569  0.500000  1
  Ni  Ni4  1  0.500000  0.500000  0.500000  1
  Ni  Ni5  1  0.838431  0.838431  0.500000  1
  Sn  Sn6  1  0.168645  0.491347  0.249999  1
  Sn  Sn7  1  0.508653  0.831355  0.249999  1
  Sn  Sn8  1  0.491347  0.168645  0.749999  1
  Sn  Sn9  1  0.831355  0.508653  0.749999  1
  Sb  Sb10  1  0.828867  0.171133  0.249999  1
  Sb  Sb11  1  0.171133  0.828867  0.749999  1
