# generated using pymatgen
data_Li2Sc4Co17P12Ru
_symmetry_space_group_name_H-M   'P 1'
_cell_length_a   3.61895400
_cell_length_b   10.16930772
_cell_length_c   11.72872071
_cell_angle_alpha   90.21103839
_cell_angle_beta   90.00000000
_cell_angle_gamma   90.00000000
_symmetry_Int_Tables_number   1
_chemical_formula_structural   Li2Sc4Co17P12Ru
_chemical_formula_sum   'Li2 Sc4 Co17 P12 Ru1'
_cell_volume   431.64046396
_cell_formula_units_Z   1
loop_
 _symmetry_equiv_pos_site_id
 _symmetry_equiv_pos_as_xyz
  1  'x, y, z'
loop_
 _atom_site_type_symbol
 _atom_site_label
 _atom_site_symmetry_multiplicity
 _atom_site_fract_x
 _atom_site_fract_y
 _atom_site_fract_z
 _atom_site_occupancy
  Li  Li0  1  0.750000  0.296384  0.009472  1
  Li  Li1  1  0.750000  0.202908  0.509912  1
  Sc  Sc2  1  0.250000  0.578860  0.703161  1
  Sc  Sc3  1  0.250000  0.923955  0.199758  1
  Sc  Sc4  1  0.750000  0.419970  0.295911  1
  Sc  Sc5  1  0.750000  0.081871  0.794954  1
  Co  Co6  1  0.250000  0.785401  0.492745  1
  Co  Co7  1  0.250000  0.407901  0.483274  1
  Co  Co8  1  0.250000  0.092717  0.982337  1
  Co  Co9  1  0.750000  0.593357  0.514243  1
  Co  Co10  1  0.750000  0.909087  0.012946  1
  Co  Co11  1  0.250000  0.219422  0.175433  1
  Co  Co12  1  0.250000  0.279041  0.674183  1
  Co  Co13  1  0.750000  0.775984  0.823850  1
  Co  Co14  1  0.750000  0.725434  0.324608  1
  Co  Co15  1  0.250000  0.879160  0.701004  1
  Co  Co16  1  0.250000  0.617634  0.204423  1
  Co  Co17  1  0.750000  0.118274  0.300932  1
  Co  Co18  1  0.750000  0.381421  0.799264  1
  Co  Co19  1  0.250000  0.462844  0.933131  1
  Co  Co20  1  0.250000  0.033663  0.433010  1
  Co  Co21  1  0.750000  0.537166  0.071206  1
  Co  Co22  1  0.750000  0.961069  0.569164  1
  P  P23  1  0.250000  0.421088  0.118673  1
  P  P24  1  0.250000  0.076256  0.618389  1
  P  P25  1  0.750000  0.575785  0.885142  1
  P  P26  1  0.750000  0.922997  0.385260  1
  P  P27  1  0.250000  0.264619  0.861759  1
  P  P28  1  0.250000  0.234664  0.362288  1
  P  P29  1  0.750000  0.737855  0.135951  1
  P  P30  1  0.750000  0.762365  0.633235  1
  P  P31  1  0.250000  0.599534  0.392346  1
  P  P32  1  0.250000  0.905610  0.888155  1
  P  P33  1  0.750000  0.401004  0.608580  1
  P  P34  1  0.750000  0.100867  0.108816  1
  Ru  Ru35  1  0.250000  0.713831  0.992489  1
