# generated using pymatgen
data_Sc8Fe5Si16Ru7
_symmetry_space_group_name_H-M   'P 1'
_cell_length_a   9.84544700
_cell_length_b   9.83751944
_cell_length_c   13.20050804
_cell_angle_alpha   53.57225088
_cell_angle_beta   53.56654514
_cell_angle_gamma   30.70045380
_symmetry_Int_Tables_number   1
_chemical_formula_structural   Sc8Fe5Si16Ru7
_chemical_formula_sum   'Sc8 Fe5 Si16 Ru7'
_cell_volume   514.29778599
_cell_formula_units_Z   1
loop_
 _symmetry_equiv_pos_site_id
 _symmetry_equiv_pos_as_xyz
  1  'x, y, z'
loop_
 _atom_site_type_symbol
 _atom_site_label
 _atom_site_symmetry_multiplicity
 _atom_site_fract_x
 _atom_site_fract_y
 _atom_site_fract_z
 _atom_site_occupancy
  Sc  Sc0  1  0.295381  0.557630  0.645733  1
  Sc  Sc1  1  0.706924  0.959661  0.860795  1
  Sc  Sc2  1  0.289013  0.040894  0.137511  1
  Sc  Sc3  1  0.439576  0.705799  0.856685  1
  Sc  Sc4  1  0.036439  0.292009  0.641965  1
  Sc  Sc5  1  0.563255  0.293980  0.142828  1
  Sc  Sc6  1  0.963394  0.708724  0.362273  1
  Sc  Sc7  1  0.701322  0.440859  0.355399  1
  Fe  Fe8  1  0.140577  0.900056  0.085087  1
  Fe  Fe9  1  0.167197  0.354654  0.218342  1
  Fe  Fe10  1  0.351246  0.166378  0.722594  1
  Fe  Fe11  1  0.831782  0.648000  0.778563  1
  Fe  Fe12  1  0.502310  0.253159  0.433299  1
  Si  Si13  1  0.037097  0.738413  0.109667  1
  Si  Si14  1  0.609228  0.866436  0.605853  1
  Si  Si15  1  0.977075  0.256238  0.891577  1
  Si  Si16  1  0.378163  0.619403  0.247575  1
  Si  Si17  1  0.388690  0.146359  0.398454  1
  Si  Si18  1  0.570412  0.083688  0.068865  1
  Si  Si19  1  0.138305  0.389421  0.892285  1
  Si  Si20  1  0.248973  0.983624  0.387343  1
  Si  Si21  1  0.091773  0.559316  0.572884  1
  Si  Si22  1  0.425073  0.917882  0.929576  1
  Si  Si23  1  0.128450  0.871708  0.749576  1
  Si  Si24  1  0.738868  0.020977  0.612944  1
  Si  Si25  1  0.872056  0.124204  0.248963  1
  Si  Si26  1  0.617312  0.382490  0.750243  1
  Si  Si27  1  0.927122  0.421913  0.428968  1
  Si  Si28  1  0.863293  0.608643  0.104194  1
  Ru  Ru29  1  0.859403  0.103341  0.914974  1
  Ru  Ru30  1  0.648564  0.834131  0.280265  1
  Ru  Ru31  1  0.246705  0.505683  0.935354  1
  Ru  Ru32  1  0.751036  0.494826  0.062740  1
  Ru  Ru33  1  0.103225  0.855530  0.414709  1
  Ru  Ru34  1  0.894216  0.142039  0.585096  1
  Ru  Ru35  1  0.496547  0.751931  0.566820  1
