# generated using pymatgen
data_Zr2U5Pa(Bi2Sb3)2
_symmetry_space_group_name_H-M   'P 1'
_cell_length_a   9.38192500
_cell_length_b   9.37818343
_cell_length_c   6.29375800
_cell_angle_alpha   90.00000000
_cell_angle_beta   90.00000000
_cell_angle_gamma   120.01319500
_symmetry_Int_Tables_number   1
_chemical_formula_structural   Zr2U5Pa(Bi2Sb3)2
_chemical_formula_sum   'Zr2 U5 Pa1 Bi4 Sb6'
_cell_volume   479.50549869
_cell_formula_units_Z   1
loop_
 _symmetry_equiv_pos_site_id
 _symmetry_equiv_pos_as_xyz
  1  'x, y, z'
loop_
 _atom_site_type_symbol
 _atom_site_label
 _atom_site_symmetry_multiplicity
 _atom_site_fract_x
 _atom_site_fract_y
 _atom_site_fract_z
 _atom_site_occupancy
  Zr  Zr0  1  0.998082  0.000000  0.000656  1
  Zr  Zr1  1  0.998082  0.000000  0.499344  1
  U  U2  1  0.381125  0.380775  0.250000  1
  U  U3  1  0.000349  0.619225  0.250000  1
  U  U4  1  0.000734  0.380710  0.750000  1
  U  U5  1  0.620025  0.619290  0.750000  1
  U  U6  1  0.618826  0.000000  0.250000  1
  Pa  Pa7  1  0.382355  0.000000  0.750000  1
  Bi  Bi8  1  0.667453  0.333691  0.499981  1
  Bi  Bi9  1  0.333761  0.666309  0.000019  1
  Bi  Bi10  1  0.333761  0.666309  0.499981  1
  Bi  Bi11  1  0.667453  0.333691  0.000019  1
  Sb  Sb12  1  0.727132  0.000000  0.750000  1
  Sb  Sb13  1  0.727284  0.727769  0.250000  1
  Sb  Sb14  1  0.272350  0.000000  0.250000  1
  Sb  Sb15  1  0.271361  0.271009  0.750000  1
  Sb  Sb16  1  0.000352  0.728991  0.750000  1
  Sb  Sb17  1  0.999514  0.272231  0.250000  1
