# generated using pymatgen
data_HoSc7Ti8(Si4Mo)4
_symmetry_space_group_name_H-M   'P 1'
_cell_length_a   6.83251138
_cell_length_b   6.83481581
_cell_length_c   12.55405603
_cell_angle_alpha   89.91197459
_cell_angle_beta   90.01553822
_cell_angle_gamma   89.95624479
_symmetry_Int_Tables_number   1
_chemical_formula_structural   HoSc7Ti8(Si4Mo)4
_chemical_formula_sum   'Ho1 Sc7 Ti8 Si16 Mo4'
_cell_volume   586.26043570
_cell_formula_units_Z   1
loop_
 _symmetry_equiv_pos_site_id
 _symmetry_equiv_pos_as_xyz
  1  'x, y, z'
loop_
 _atom_site_type_symbol
 _atom_site_label
 _atom_site_symmetry_multiplicity
 _atom_site_fract_x
 _atom_site_fract_y
 _atom_site_fract_z
 _atom_site_occupancy
  Ho  Ho0  1  0.997719  0.659893  0.032016  1
  Sc  Sc1  1  0.341383  0.998501  0.468378  1
  Sc  Sc2  1  0.501350  0.841701  0.716908  1
  Sc  Sc3  1  0.497631  0.158859  0.219196  1
  Sc  Sc4  1  0.841958  0.502304  0.282970  1
  Sc  Sc5  1  0.158473  0.497688  0.781961  1
  Sc  Sc6  1  0.656879  0.002213  0.966610  1
  Sc  Sc7  1  0.998258  0.341958  0.531906  1
  Ti  Ti8  1  0.151960  0.005657  0.873210  1
  Ti  Ti9  1  0.494023  0.649971  0.125128  1
  Ti  Ti10  1  0.507004  0.350585  0.623996  1
  Ti  Ti11  1  0.650175  0.490549  0.874000  1
  Ti  Ti12  1  0.350837  0.507177  0.376628  1
  Ti  Ti13  1  0.850619  0.993535  0.376016  1
  Ti  Ti14  1  0.008100  0.150788  0.125910  1
  Ti  Ti15  1  0.992855  0.850758  0.624539  1
  Si  Si16  1  0.203831  0.136976  0.678915  1
  Si  Si17  1  0.368123  0.704406  0.928537  1
  Si  Si18  1  0.637008  0.296142  0.429638  1
  Si  Si19  1  0.700210  0.359209  0.069671  1
  Si  Si20  1  0.295567  0.636768  0.570794  1
  Si  Si21  1  0.792480  0.868956  0.183307  1
  Si  Si22  1  0.136672  0.204011  0.321480  1
  Si  Si23  1  0.862329  0.797590  0.817636  1
  Si  Si24  1  0.299897  0.955759  0.065169  1
  Si  Si25  1  0.545272  0.797769  0.316039  1
  Si  Si26  1  0.453024  0.202532  0.813828  1
  Si  Si27  1  0.797362  0.546338  0.684354  1
  Si  Si28  1  0.206314  0.451321  0.187430  1
  Si  Si29  1  0.702281  0.046776  0.564874  1
  Si  Si30  1  0.952522  0.290757  0.933750  1
  Si  Si31  1  0.046748  0.702884  0.435298  1
  Mo  Mo32  1  0.327427  0.325350  0.999691  1
  Mo  Mo33  1  0.173955  0.828156  0.251310  1
  Mo  Mo34  1  0.826458  0.172805  0.748821  1
  Mo  Mo35  1  0.673291  0.673353  0.500088  1
