# generated using pymatgen
data_Tb15Ce(CdNi)4
_symmetry_space_group_name_H-M   'P 1'
_cell_length_a   9.61777241
_cell_length_b   9.61777208
_cell_length_c   9.61777212
_cell_angle_alpha   59.75811846
_cell_angle_beta   59.75812111
_cell_angle_gamma   59.75811816
_symmetry_Int_Tables_number   1
_chemical_formula_structural   Tb15Ce(CdNi)4
_chemical_formula_sum   'Tb15 Ce1 Cd4 Ni4'
_cell_volume   625.62861053
_cell_formula_units_Z   1
loop_
 _symmetry_equiv_pos_site_id
 _symmetry_equiv_pos_as_xyz
  1  'x, y, z'
loop_
 _atom_site_type_symbol
 _atom_site_label
 _atom_site_symmetry_multiplicity
 _atom_site_fract_x
 _atom_site_fract_y
 _atom_site_fract_z
 _atom_site_occupancy
  Tb  Tb0  1  0.348570  0.348570  0.951711  1
  Tb  Tb1  1  0.348570  0.951711  0.348570  1
  Tb  Tb2  1  0.951711  0.348570  0.348570  1
  Tb  Tb3  1  0.811832  0.190287  0.190287  1
  Tb  Tb4  1  0.190002  0.812134  0.812134  1
  Tb  Tb5  1  0.190287  0.811832  0.190287  1
  Tb  Tb6  1  0.812134  0.190002  0.812134  1
  Tb  Tb7  1  0.190287  0.190287  0.811832  1
  Tb  Tb8  1  0.812134  0.812134  0.190002  1
  Tb  Tb9  1  0.939605  0.563161  0.563161  1
  Tb  Tb10  1  0.562822  0.935356  0.935356  1
  Tb  Tb11  1  0.563161  0.939605  0.563161  1
  Tb  Tb12  1  0.935356  0.562822  0.935356  1
  Tb  Tb13  1  0.563161  0.563161  0.939605  1
  Tb  Tb14  1  0.935356  0.935356  0.562822  1
  Ce  Ce15  1  0.342723  0.342723  0.342723  1
  Cd  Cd16  1  0.581136  0.581136  0.581136  1
  Cd  Cd17  1  0.580469  0.580469  0.257319  1
  Cd  Cd18  1  0.580469  0.257319  0.580469  1
  Cd  Cd19  1  0.257319  0.580469  0.580469  1
  Ni  Ni20  1  0.142880  0.142880  0.142880  1
  Ni  Ni21  1  0.144574  0.144574  0.570864  1
  Ni  Ni22  1  0.144574  0.570864  0.144574  1
  Ni  Ni23  1  0.570864  0.144574  0.144574  1
