# generated using pymatgen
data_LiYb4Ag13
_symmetry_space_group_name_H-M   'P 1'
_cell_length_a   5.40787871
_cell_length_b   5.58437922
_cell_length_c   14.13908500
_cell_angle_alpha   90.00000000
_cell_angle_beta   90.00000000
_cell_angle_gamma   119.27884241
_symmetry_Int_Tables_number   1
_chemical_formula_structural   LiYb4Ag13
_chemical_formula_sum   'Li1 Yb4 Ag13'
_cell_volume   372.44666716
_cell_formula_units_Z   1
loop_
 _symmetry_equiv_pos_site_id
 _symmetry_equiv_pos_as_xyz
  1  'x, y, z'
loop_
 _atom_site_type_symbol
 _atom_site_label
 _atom_site_symmetry_multiplicity
 _atom_site_fract_x
 _atom_site_fract_y
 _atom_site_fract_z
 _atom_site_occupancy
  Li  Li0  1  0.168760  0.671103  0.750000  1
  Yb  Yb1  1  0.818830  0.814433  0.114744  1
  Yb  Yb2  1  0.180100  0.183057  0.887625  1
  Yb  Yb3  1  0.818830  0.814433  0.385256  1
  Yb  Yb4  1  0.180100  0.183057  0.612375  1
  Ag  Ag5  1  0.162607  0.484428  0.074589  1
  Ag  Ag6  1  0.499236  0.831601  0.922131  1
  Ag  Ag7  1  0.496455  0.166383  0.073719  1
  Ag  Ag8  1  0.844289  0.519767  0.578362  1
  Ag  Ag9  1  0.496455  0.166383  0.426281  1
  Ag  Ag10  1  0.844289  0.519767  0.921638  1
  Ag  Ag11  1  0.668626  0.167393  0.750000  1
  Ag  Ag12  1  0.665269  0.664840  0.750000  1
  Ag  Ag13  1  0.329800  0.831863  0.250000  1
  Ag  Ag14  1  0.830237  0.330043  0.250000  1
  Ag  Ag15  1  0.499236  0.831601  0.577869  1
  Ag  Ag16  1  0.162607  0.484428  0.425411  1
  Ag  Ag17  1  0.334273  0.335420  0.250000  1
