# generated using pymatgen
data_PuHO
_symmetry_space_group_name_H-M   'P 1'
_cell_length_a   7.67315800
_cell_length_b   7.67315800
_cell_length_c   5.39880100
_cell_angle_alpha   90.00000000
_cell_angle_beta   90.00000000
_cell_angle_gamma   90.00000000
_symmetry_Int_Tables_number   1
_chemical_formula_structural   PuHO
_chemical_formula_sum   'Pu8 H8 O8'
_cell_volume   317.86711599
_cell_formula_units_Z   8
loop_
 _symmetry_equiv_pos_site_id
 _symmetry_equiv_pos_as_xyz
  1  'x, y, z'
loop_
 _atom_site_type_symbol
 _atom_site_label
 _atom_site_symmetry_multiplicity
 _atom_site_fract_x
 _atom_site_fract_y
 _atom_site_fract_z
 _atom_site_occupancy
  Pu  Pu0  1  0.000000  0.000000  0.000000  1
  Pu  Pu1  1  0.500000  0.500000  0.000000  1
  Pu  Pu2  1  0.500000  0.000000  0.040274  1
  Pu  Pu3  1  0.000000  0.500000  0.959726  1
  Pu  Pu4  1  0.250000  0.750000  0.500000  1
  Pu  Pu5  1  0.250000  0.250000  0.500000  1
  Pu  Pu6  1  0.750000  0.750000  0.500000  1
  Pu  Pu7  1  0.750000  0.250000  0.500000  1
  H  H8  1  0.500000  0.233004  0.755726  1
  H  H9  1  0.500000  0.766996  0.755726  1
  H  H10  1  0.733004  0.000000  0.755726  1
  H  H11  1  0.266996  0.000000  0.755726  1
  H  H12  1  0.000000  0.266996  0.244274  1
  H  H13  1  0.000000  0.733004  0.244274  1
  H  H14  1  0.766996  0.500000  0.244274  1
  H  H15  1  0.233004  0.500000  0.244274  1
  O  O16  1  0.500000  0.265060  0.262115  1
  O  O17  1  0.500000  0.734940  0.262115  1
  O  O18  1  0.765060  0.000000  0.262115  1
  O  O19  1  0.234940  0.000000  0.262115  1
  O  O20  1  0.000000  0.234940  0.737885  1
  O  O21  1  0.000000  0.765060  0.737885  1
  O  O22  1  0.734940  0.500000  0.737885  1
  O  O23  1  0.265060  0.500000  0.737885  1
