# generated using pymatgen
data_Dy7Er8Th(CdNi)4
_symmetry_space_group_name_H-M   'P 1'
_cell_length_a   9.51523404
_cell_length_b   9.51523478
_cell_length_c   9.51219310
_cell_angle_alpha   60.11549581
_cell_angle_beta   60.11550200
_cell_angle_gamma   60.13041908
_symmetry_Int_Tables_number   1
_chemical_formula_structural   Dy7Er8Th(CdNi)4
_chemical_formula_sum   'Dy7 Er8 Th1 Cd4 Ni4'
_cell_volume   610.64434729
_cell_formula_units_Z   1
loop_
 _symmetry_equiv_pos_site_id
 _symmetry_equiv_pos_as_xyz
  1  'x, y, z'
loop_
 _atom_site_type_symbol
 _atom_site_label
 _atom_site_symmetry_multiplicity
 _atom_site_fract_x
 _atom_site_fract_y
 _atom_site_fract_z
 _atom_site_occupancy
  Dy  Dy0  1  0.062864  0.062864  0.439027  1
  Dy  Dy1  1  0.187755  0.814236  0.814771  1
  Dy  Dy2  1  0.812368  0.186971  0.186662  1
  Dy  Dy3  1  0.814236  0.187755  0.814771  1
  Dy  Dy4  1  0.186971  0.812368  0.186662  1
  Dy  Dy5  1  0.814490  0.814490  0.187506  1
  Dy  Dy6  1  0.186754  0.186754  0.812680  1
  Er  Er7  1  0.598460  0.598460  0.201272  1
  Er  Er8  1  0.597987  0.201420  0.598684  1
  Er  Er9  1  0.201420  0.597987  0.598684  1
  Er  Er10  1  0.063691  0.438717  0.438190  1
  Er  Er11  1  0.439477  0.062873  0.062439  1
  Er  Er12  1  0.438717  0.063691  0.438190  1
  Er  Er13  1  0.062873  0.439477  0.062439  1
  Er  Er14  1  0.438287  0.438287  0.063700  1
  Th  Th15  1  0.594128  0.594128  0.594039  1
  Cd  Cd16  1  0.830550  0.830550  0.830891  1
  Cd  Cd17  1  0.831841  0.831841  0.505974  1
  Cd  Cd18  1  0.831989  0.505908  0.831981  1
  Cd  Cd19  1  0.505908  0.831989  0.831981  1
  Ni  Ni20  1  0.392734  0.392734  0.392826  1
  Ni  Ni21  1  0.392229  0.392229  0.822101  1
  Ni  Ni22  1  0.392771  0.821500  0.392265  1
  Ni  Ni23  1  0.821500  0.392771  0.392265  1
