# generated using pymatgen
data_Ba2SrYb2(SiN3)2
_symmetry_space_group_name_H-M   'P 1'
_cell_length_a   6.02819519
_cell_length_b   6.02819530
_cell_length_c   13.09945208
_cell_angle_alpha   81.90960058
_cell_angle_beta   81.90959022
_cell_angle_gamma   68.61829767
_symmetry_Int_Tables_number   1
_chemical_formula_structural   Ba2SrYb2(SiN3)2
_chemical_formula_sum   'Ba4 Sr2 Yb4 Si4 N12'
_cell_volume   436.77808118
_cell_formula_units_Z   2
loop_
 _symmetry_equiv_pos_site_id
 _symmetry_equiv_pos_as_xyz
  1  'x, y, z'
loop_
 _atom_site_type_symbol
 _atom_site_label
 _atom_site_symmetry_multiplicity
 _atom_site_fract_x
 _atom_site_fract_y
 _atom_site_fract_z
 _atom_site_occupancy
  Ba  Ba0  1  0.202831  0.677469  0.988116  1
  Ba  Ba1  1  0.322531  0.797169  0.511884  1
  Ba  Ba2  1  0.797169  0.322531  0.011884  1
  Ba  Ba3  1  0.677469  0.202831  0.488116  1
  Sr  Sr4  1  0.605939  0.394061  0.750000  1
  Sr  Sr5  1  0.394061  0.605939  0.250000  1
  Yb  Yb6  1  0.905076  0.787592  0.714553  1
  Yb  Yb7  1  0.212408  0.094924  0.785447  1
  Yb  Yb8  1  0.094924  0.212408  0.285447  1
  Yb  Yb9  1  0.787592  0.905076  0.214553  1
  Si  Si10  1  0.073538  0.371056  0.581556  1
  Si  Si11  1  0.628944  0.926462  0.918444  1
  Si  Si12  1  0.926462  0.628944  0.418444  1
  Si  Si13  1  0.371056  0.073538  0.081556  1
  N  N14  1  0.004586  0.119302  0.633698  1
  N  N15  1  0.880698  0.995414  0.866302  1
  N  N16  1  0.995414  0.880698  0.366302  1
  N  N17  1  0.119302  0.004586  0.133698  1
  N  N18  1  0.808678  0.633186  0.555395  1
  N  N19  1  0.366814  0.191322  0.944605  1
  N  N20  1  0.191322  0.366814  0.444605  1
  N  N21  1  0.633186  0.808678  0.055395  1
  N  N22  1  0.244936  0.433142  0.664270  1
  N  N23  1  0.566858  0.755064  0.835730  1
  N  N24  1  0.755064  0.566858  0.335730  1
  N  N25  1  0.433142  0.244936  0.164270  1
