# generated using pymatgen
data_Rb2CrFeSe4
_symmetry_space_group_name_H-M   'P 1'
_cell_length_a   7.27316965
_cell_length_b   7.27317039
_cell_length_c   5.56115755
_cell_angle_alpha   78.95631807
_cell_angle_beta   78.95632090
_cell_angle_gamma   116.60605759
_symmetry_Int_Tables_number   1
_chemical_formula_structural   Rb2CrFeSe4
_chemical_formula_sum   'Rb2 Cr1 Fe1 Se4'
_cell_volume   244.92494581
_cell_formula_units_Z   1
loop_
 _symmetry_equiv_pos_site_id
 _symmetry_equiv_pos_as_xyz
  1  'x, y, z'
loop_
 _atom_site_type_symbol
 _atom_site_label
 _atom_site_symmetry_multiplicity
 _atom_site_fract_x
 _atom_site_fract_y
 _atom_site_fract_z
 _atom_site_occupancy
  Rb  Rb0  1  0.140803  0.859197  0.250000  1
  Rb  Rb1  1  0.859039  0.140961  0.750000  1
  Cr  Cr2  1  0.500831  0.499169  0.250000  1
  Fe  Fe3  1  0.499121  0.500879  0.750000  1
  Se  Se4  1  0.204763  0.420060  0.103862  1
  Se  Se5  1  0.579940  0.795237  0.396138  1
  Se  Se6  1  0.795113  0.579610  0.912475  1
  Se  Se7  1  0.420390  0.204887  0.587525  1
