# generated using pymatgen
data_Lu5Sc3Al(B8Ir)3
_symmetry_space_group_name_H-M   'P 1'
_cell_length_a   3.52384900
_cell_length_b   8.99616220
_cell_length_c   11.34364701
_cell_angle_alpha   89.98631682
_cell_angle_beta   90.00000000
_cell_angle_gamma   90.00000000
_symmetry_Int_Tables_number   1
_chemical_formula_structural   Lu5Sc3Al(B8Ir)3
_chemical_formula_sum   'Lu5 Sc3 Al1 B24 Ir3'
_cell_volume   359.60627246
_cell_formula_units_Z   1
loop_
 _symmetry_equiv_pos_site_id
 _symmetry_equiv_pos_as_xyz
  1  'x, y, z'
loop_
 _atom_site_type_symbol
 _atom_site_label
 _atom_site_symmetry_multiplicity
 _atom_site_fract_x
 _atom_site_fract_y
 _atom_site_fract_z
 _atom_site_occupancy
  Lu  Lu0  1  0.500000  0.315601  0.411305  1
  Lu  Lu1  1  0.500000  0.680345  0.585157  1
  Lu  Lu2  1  0.500000  0.179436  0.915889  1
  Lu  Lu3  1  0.500000  0.823108  0.087555  1
  Lu  Lu4  1  0.500000  0.444107  0.125311  1
  Sc  Sc5  1  0.500000  0.556645  0.873255  1
  Sc  Sc6  1  0.500000  0.054853  0.626132  1
  Sc  Sc7  1  0.500000  0.947295  0.374882  1
  Al  Al8  1  0.500000  0.137072  0.180910  1
  B  B9  1  0.000000  0.101006  0.473053  1
  B  B10  1  0.000000  0.899673  0.527754  1
  B  B11  1  0.000000  0.397288  0.969847  1
  B  B12  1  0.000000  0.604700  0.026543  1
  B  B13  1  0.000000  0.129644  0.319177  1
  B  B14  1  0.000000  0.869398  0.680602  1
  B  B15  1  0.000000  0.369256  0.818427  1
  B  B16  1  0.000000  0.632539  0.184056  1
  B  B17  1  0.000000  0.051123  0.064149  1
  B  B18  1  0.000000  0.946824  0.934696  1
  B  B19  1  0.000000  0.445832  0.565285  1
  B  B20  1  0.000000  0.552789  0.434364  1
  B  B21  1  0.000000  0.479824  0.287899  1
  B  B22  1  0.000000  0.519199  0.714054  1
  B  B23  1  0.000000  0.018990  0.786618  1
  B  B24  1  0.000000  0.978662  0.213938  1
  B  B25  1  0.000000  0.250875  0.077773  1
  B  B26  1  0.000000  0.748727  0.920768  1
  B  B27  1  0.000000  0.245774  0.578835  1
  B  B28  1  0.000000  0.755738  0.420270  1
  B  B29  1  0.000000  0.296148  0.237707  1
  B  B30  1  0.000000  0.705100  0.762873  1
  B  B31  1  0.000000  0.204860  0.735672  1
  B  B32  1  0.000000  0.797256  0.265228  1
  Ir  Ir33  1  0.500000  0.857480  0.816905  1
  Ir  Ir34  1  0.500000  0.360305  0.680144  1
  Ir  Ir35  1  0.500000  0.642527  0.322967  1
