# generated using pymatgen
data_LiDy5TiCo17P12
_symmetry_space_group_name_H-M   'P 1'
_cell_length_a   12.08672622
_cell_length_b   12.03882491
_cell_length_c   3.68515900
_cell_angle_alpha   90.00000000
_cell_angle_beta   90.00000000
_cell_angle_gamma   120.28774635
_symmetry_Int_Tables_number   1
_chemical_formula_structural   LiDy5TiCo17P12
_chemical_formula_sum   'Li1 Dy5 Ti1 Co17 P12'
_cell_volume   463.03421352
_cell_formula_units_Z   1
loop_
 _symmetry_equiv_pos_site_id
 _symmetry_equiv_pos_as_xyz
  1  'x, y, z'
loop_
 _atom_site_type_symbol
 _atom_site_label
 _atom_site_symmetry_multiplicity
 _atom_site_fract_x
 _atom_site_fract_y
 _atom_site_fract_z
 _atom_site_occupancy
  Li  Li0  1  0.560204  0.559434  0.000000  1
  Dy  Dy1  1  0.667337  0.332710  0.000000  1
  Dy  Dy2  1  0.334034  0.667921  0.000000  1
  Dy  Dy3  1  0.186877  0.185354  0.500000  1
  Dy  Dy4  1  0.815488  0.000669  0.500000  1
  Dy  Dy5  1  0.002116  0.811966  0.500000  1
  Ti  Ti6  1  0.438232  0.999946  0.000000  1
  Co  Co7  1  0.999155  0.447203  0.000000  1
  Co  Co8  1  0.824708  0.201502  0.000000  1
  Co  Co9  1  0.800954  0.621054  0.000000  1
  Co  Co10  1  0.374804  0.179132  0.000000  1
  Co  Co11  1  0.195537  0.818688  0.000000  1
  Co  Co12  1  0.623705  0.800861  0.000000  1
  Co  Co13  1  0.175191  0.377977  0.000000  1
  Co  Co14  1  0.645394  0.126199  0.500000  1
  Co  Co15  1  0.876287  0.516744  0.500000  1
  Co  Co16  1  0.482743  0.356244  0.500000  1
  Co  Co17  1  0.125316  0.639836  0.500000  1
  Co  Co18  1  0.520495  0.876591  0.500000  1
  Co  Co19  1  0.354723  0.481541  0.500000  1
  Co  Co20  1  0.717589  0.716415  0.500000  1
  Co  Co21  1  0.280545  0.998663  0.500000  1
  Co  Co22  1  0.999391  0.285118  0.500000  1
  Co  Co23  1  0.997412  0.999591  0.000000  1
  P  P24  1  0.364695  0.368195  0.000000  1
  P  P25  1  0.640129  0.001172  0.000000  1
  P  P26  1  0.998161  0.630618  0.000000  1
  P  P27  1  0.835420  0.314911  0.500000  1
  P  P28  1  0.688233  0.518622  0.500000  1
  P  P29  1  0.479174  0.167859  0.500000  1
  P  P30  1  0.312176  0.831595  0.500000  1
  P  P31  1  0.520445  0.688227  0.500000  1
  P  P32  1  0.166236  0.479643  0.500000  1
  P  P33  1  0.818514  0.817086  0.000000  1
  P  P34  1  0.178312  0.998731  0.000000  1
  P  P35  1  0.000269  0.181981  0.000000  1
