# generated using pymatgen
data_TbHoGa4CuPd
_symmetry_space_group_name_H-M   'P 1'
_cell_length_a   5.52945562
_cell_length_b   5.52945561
_cell_length_c   6.58543300
_cell_angle_alpha   90.00000000
_cell_angle_beta   90.00000000
_cell_angle_gamma   133.09605100
_symmetry_Int_Tables_number   1
_chemical_formula_structural   TbHoGa4CuPd
_chemical_formula_sum   'Tb1 Ho1 Ga4 Cu1 Pd1'
_cell_volume   147.02679427
_cell_formula_units_Z   1
loop_
 _symmetry_equiv_pos_site_id
 _symmetry_equiv_pos_as_xyz
  1  'x, y, z'
loop_
 _atom_site_type_symbol
 _atom_site_label
 _atom_site_symmetry_multiplicity
 _atom_site_fract_x
 _atom_site_fract_y
 _atom_site_fract_z
 _atom_site_occupancy
  Tb  Tb0  1  0.087353  0.912647  0.250000  1
  Ho  Ho1  1  0.912102  0.087898  0.750000  1
  Ga  Ga2  1  0.372616  0.627384  0.054637  1
  Ga  Ga3  1  0.628409  0.371591  0.549510  1
  Ga  Ga4  1  0.628409  0.371591  0.950490  1
  Ga  Ga5  1  0.372616  0.627384  0.445363  1
  Cu  Cu6  1  0.797702  0.202298  0.250000  1
  Pd  Pd7  1  0.200792  0.799208  0.750000  1
