# generated using pymatgen
data_Tm4GeRu6W
_symmetry_space_group_name_H-M   'P 1'
_cell_length_a   5.56015460
_cell_length_b   5.15310455
_cell_length_c   8.93919400
_cell_angle_alpha   90.00000000
_cell_angle_beta   90.00000000
_cell_angle_gamma   122.68166673
_symmetry_Int_Tables_number   1
_chemical_formula_structural   Tm4GeRu6W
_chemical_formula_sum   'Tm4 Ge1 Ru6 W1'
_cell_volume   215.57731097
_cell_formula_units_Z   1
loop_
 _symmetry_equiv_pos_site_id
 _symmetry_equiv_pos_as_xyz
  1  'x, y, z'
loop_
 _atom_site_type_symbol
 _atom_site_label
 _atom_site_symmetry_multiplicity
 _atom_site_fract_x
 _atom_site_fract_y
 _atom_site_fract_z
 _atom_site_occupancy
  Tm  Tm0  1  0.674750  0.349823  0.564800  1
  Tm  Tm1  1  0.332082  0.664265  0.432144  1
  Tm  Tm2  1  0.332082  0.664265  0.067856  1
  Tm  Tm3  1  0.674750  0.349823  0.935200  1
  Ge  Ge4  1  0.830099  0.659176  0.250000  1
  Ru  Ru5  1  0.010366  0.020633  0.497822  1
  Ru  Ru6  1  0.010366  0.020633  0.002178  1
  Ru  Ru7  1  0.174595  0.817117  0.750000  1
  Ru  Ru8  1  0.642321  0.817424  0.750000  1
  Ru  Ru9  1  0.823086  0.164464  0.250000  1
  Ru  Ru10  1  0.341198  0.164029  0.250000  1
  W  W11  1  0.154307  0.308351  0.750000  1
