# generated using pymatgen
data_Ta4AlSn(B2Ru5)2
_symmetry_space_group_name_H-M   'P 1'
_cell_length_a   3.03107900
_cell_length_b   9.37572400
_cell_length_c   9.37572400
_cell_angle_alpha   90.00000000
_cell_angle_beta   90.00000000
_cell_angle_gamma   90.00000000
_symmetry_Int_Tables_number   1
_chemical_formula_structural   Ta4AlSn(B2Ru5)2
_chemical_formula_sum   'Ta4 Al1 Sn1 B4 Ru10'
_cell_volume   266.44457622
_cell_formula_units_Z   1
loop_
 _symmetry_equiv_pos_site_id
 _symmetry_equiv_pos_as_xyz
  1  'x, y, z'
loop_
 _atom_site_type_symbol
 _atom_site_label
 _atom_site_symmetry_multiplicity
 _atom_site_fract_x
 _atom_site_fract_y
 _atom_site_fract_z
 _atom_site_occupancy
  Ta  Ta0  1  0.000000  0.673152  0.819137  1
  Ta  Ta1  1  0.000000  0.326848  0.180863  1
  Ta  Ta2  1  0.000000  0.819137  0.326848  1
  Ta  Ta3  1  0.000000  0.180863  0.673152  1
  Al  Al4  1  0.000000  0.500000  0.500000  1
  Sn  Sn5  1  0.000000  0.000000  0.000000  1
  B  B6  1  0.000000  0.871757  0.618808  1
  B  B7  1  0.000000  0.128243  0.381192  1
  B  B8  1  0.000000  0.618808  0.128243  1
  B  B9  1  0.000000  0.381192  0.871757  1
  Ru  Ru10  1  0.500000  0.714205  0.566313  1
  Ru  Ru11  1  0.500000  0.285795  0.433687  1
  Ru  Ru12  1  0.500000  0.777918  0.073805  1
  Ru  Ru13  1  0.500000  0.222082  0.926195  1
  Ru  Ru14  1  0.500000  0.566313  0.285795  1
  Ru  Ru15  1  0.500000  0.433687  0.714205  1
  Ru  Ru16  1  0.500000  0.073805  0.222082  1
  Ru  Ru17  1  0.500000  0.926195  0.777918  1
  Ru  Ru18  1  0.500000  0.000000  0.500000  1
  Ru  Ru19  1  0.500000  0.500000  0.000000  1
