# generated using pymatgen
data_HgOs2Cl11
_symmetry_space_group_name_H-M   'P 1'
_cell_length_a   7.45883222
_cell_length_b   7.13754914
_cell_length_c   17.21597711
_cell_angle_alpha   75.37104520
_cell_angle_beta   78.64641464
_cell_angle_gamma   88.31383763
_symmetry_Int_Tables_number   1
_chemical_formula_structural   HgOs2Cl11
_chemical_formula_sum   'Hg2 Os4 Cl22'
_cell_volume   869.27436697
_cell_formula_units_Z   2
loop_
 _symmetry_equiv_pos_site_id
 _symmetry_equiv_pos_as_xyz
  1  'x, y, z'
loop_
 _atom_site_type_symbol
 _atom_site_label
 _atom_site_symmetry_multiplicity
 _atom_site_fract_x
 _atom_site_fract_y
 _atom_site_fract_z
 _atom_site_occupancy
  Hg  Hg0  1  0.784039  0.791740  0.506683  1
  Hg  Hg1  1  0.215961  0.208260  0.493317  1
  Os  Os2  1  0.307421  0.815344  0.370945  1
  Os  Os3  1  0.692579  0.184656  0.629055  1
  Os  Os4  1  0.842712  0.332110  0.085338  1
  Os  Os5  1  0.157288  0.667890  0.914662  1
  Cl  Cl6  1  0.238674  0.820029  0.510248  1
  Cl  Cl7  1  0.761326  0.179971  0.489752  1
  Cl  Cl8  1  0.598446  0.937293  0.360822  1
  Cl  Cl9  1  0.401554  0.062707  0.639178  1
  Cl  Cl10  1  0.430062  0.501518  0.401847  1
  Cl  Cl11  1  0.569938  0.498482  0.598153  1
  Cl  Cl12  1  0.363427  0.812868  0.236091  1
  Cl  Cl13  1  0.636573  0.187132  0.763909  1
  Cl  Cl14  1  0.012950  0.678902  0.388407  1
  Cl  Cl15  1  0.987050  0.321098  0.611593  1
  Cl  Cl16  1  0.198980  0.127086  0.342654  1
  Cl  Cl17  1  0.801020  0.872914  0.657346  1
  Cl  Cl18  1  0.885883  0.027756  0.155098  1
  Cl  Cl19  1  0.114117  0.972244  0.844902  1
  Cl  Cl20  1  0.556167  0.366284  0.151123  1
  Cl  Cl21  1  0.443833  0.633716  0.848877  1
  Cl  Cl22  1  0.733386  0.222514  0.989217  1
  Cl  Cl23  1  0.266614  0.777486  0.010783  1
  Cl  Cl24  1  0.964196  0.460821  0.173422  1
  Cl  Cl25  1  0.035804  0.539179  0.826578  1
  Cl  Cl26  1  0.153889  0.338386  0.003005  1
  Cl  Cl27  1  0.846111  0.661614  0.996995  1
