# generated using pymatgen
data_NaNd4P12Ir9Ru10
_symmetry_space_group_name_H-M   'P 1'
_cell_length_a   12.65497125
_cell_length_b   12.61931628
_cell_length_c   4.01234500
_cell_angle_alpha   90.00000000
_cell_angle_beta   90.00000000
_cell_angle_gamma   119.68169768
_symmetry_Int_Tables_number   1
_chemical_formula_structural   NaNd4P12Ir9Ru10
_chemical_formula_sum   'Na1 Nd4 P12 Ir9 Ru10'
_cell_volume   556.68553783
_cell_formula_units_Z   1
loop_
 _symmetry_equiv_pos_site_id
 _symmetry_equiv_pos_as_xyz
  1  'x, y, z'
loop_
 _atom_site_type_symbol
 _atom_site_label
 _atom_site_symmetry_multiplicity
 _atom_site_fract_x
 _atom_site_fract_y
 _atom_site_fract_z
 _atom_site_occupancy
  Na  Na0  1  0.813114  0.000043  0.500000  1
  Nd  Nd1  1  0.667560  0.332950  0.000000  1
  Nd  Nd2  1  0.331918  0.665860  0.000000  1
  Nd  Nd3  1  0.182585  0.184689  0.500000  1
  Nd  Nd4  1  0.000279  0.817355  0.500000  1
  P  P5  1  0.630416  0.996499  0.000000  1
  P  P6  1  0.366983  0.372569  0.000000  1
  P  P7  1  0.006947  0.634687  0.000000  1
  P  P8  1  0.690129  0.522154  0.500000  1
  P  P9  1  0.830127  0.303908  0.500000  1
  P  P10  1  0.312725  0.832206  0.500000  1
  P  P11  1  0.520609  0.688736  0.500000  1
  P  P12  1  0.182446  0.002453  0.000000  1
  P  P13  1  0.815162  0.818083  0.000000  1
  P  P14  1  0.994977  0.183728  0.000000  1
  P  P15  1  0.478541  0.165918  0.500000  1
  P  P16  1  0.167815  0.480311  0.500000  1
  Ir  Ir17  1  0.619680  0.800950  0.000000  1
  Ir  Ir18  1  0.181246  0.377357  0.000000  1
  Ir  Ir19  1  0.374579  0.183999  0.000000  1
  Ir  Ir20  1  0.196458  0.822326  0.000000  1
  Ir  Ir21  1  0.810534  0.625138  0.000000  1
  Ir  Ir22  1  0.870846  0.505565  0.500000  1
  Ir  Ir23  1  0.492972  0.360798  0.500000  1
  Ir  Ir24  1  0.635584  0.124780  0.500000  1
  Ir  Ir25  1  0.998376  0.000807  0.000000  1
  Ru  Ru26  1  0.125811  0.640099  0.500000  1
  Ru  Ru27  1  0.363621  0.487000  0.500000  1
  Ru  Ru28  1  0.511485  0.873332  0.500000  1
  Ru  Ru29  1  0.715585  0.713251  0.500000  1
  Ru  Ru30  1  0.001952  0.287127  0.500000  1
  Ru  Ru31  1  0.450382  0.001630  0.000000  1
  Ru  Ru32  1  0.552971  0.543773  0.000000  1
  Ru  Ru33  1  0.002417  0.453355  0.000000  1
  Ru  Ru34  1  0.815532  0.194591  0.000000  1
  Ru  Ru35  1  0.287633  0.001973  0.500000  1
