# generated using pymatgen
data_Ho4Al18(NiIr)3
_symmetry_space_group_name_H-M   'P 1'
_cell_length_a   7.48807327
_cell_length_b   7.48807368
_cell_length_c   9.31138104
_cell_angle_alpha   89.99452625
_cell_angle_beta   89.99452616
_cell_angle_gamma   119.58671590
_symmetry_Int_Tables_number   1
_chemical_formula_structural   Ho4Al18(NiIr)3
_chemical_formula_sum   'Ho4 Al18 Ni3 Ir3'
_cell_volume   454.02370161
_cell_formula_units_Z   1
loop_
 _symmetry_equiv_pos_site_id
 _symmetry_equiv_pos_as_xyz
  1  'x, y, z'
loop_
 _atom_site_type_symbol
 _atom_site_label
 _atom_site_symmetry_multiplicity
 _atom_site_fract_x
 _atom_site_fract_y
 _atom_site_fract_z
 _atom_site_occupancy
  Ho  Ho0  1  0.994540  0.670323  0.249665  1
  Ho  Ho1  1  0.005460  0.329677  0.750335  1
  Ho  Ho2  1  0.670323  0.994540  0.249665  1
  Ho  Ho3  1  0.329677  0.005460  0.750335  1
  Al  Al4  1  0.125926  0.125926  0.245517  1
  Al  Al5  1  0.874074  0.874074  0.754483  1
  Al  Al6  1  0.997460  0.334413  0.073620  1
  Al  Al7  1  0.002540  0.665587  0.926380  1
  Al  Al8  1  0.999311  0.665196  0.574507  1
  Al  Al9  1  0.334804  0.000689  0.425493  1
  Al  Al10  1  0.000689  0.334804  0.425493  1
  Al  Al11  1  0.665196  0.999311  0.574507  1
  Al  Al12  1  0.665587  0.002540  0.926380  1
  Al  Al13  1  0.334413  0.997460  0.073620  1
  Al  Al14  1  0.333389  0.333389  0.552292  1
  Al  Al15  1  0.666611  0.666611  0.447708  1
  Al  Al16  1  0.668098  0.668098  0.051868  1
  Al  Al17  1  0.331902  0.331902  0.948132  1
  Al  Al18  1  0.339315  0.550185  0.245912  1
  Al  Al19  1  0.660685  0.449815  0.754088  1
  Al  Al20  1  0.550185  0.339315  0.245912  1
  Al  Al21  1  0.449815  0.660685  0.754088  1
  Ni  Ni22  1  0.671780  0.328220  0.000000  1
  Ni  Ni23  1  0.328220  0.671780  0.000000  1
  Ni  Ni24  1  0.000000  0.000000  0.000000  1
  Ir  Ir25  1  0.328360  0.671640  0.500000  1
  Ir  Ir26  1  0.671640  0.328360  0.500000  1
  Ir  Ir27  1  0.000000  0.000000  0.500000  1
