# generated using pymatgen
data_Nd8HoErIn6
_symmetry_space_group_name_H-M   'P 1'
_cell_length_a   6.15205828
_cell_length_b   9.43301841
_cell_length_c   9.43301791
_cell_angle_alpha   83.89586447
_cell_angle_beta   70.96827407
_cell_angle_gamma   70.96826967
_symmetry_Int_Tables_number   1
_chemical_formula_structural   Nd8HoErIn6
_chemical_formula_sum   'Nd8 Ho1 Er1 In6'
_cell_volume   489.21092371
_cell_formula_units_Z   1
loop_
 _symmetry_equiv_pos_site_id
 _symmetry_equiv_pos_as_xyz
  1  'x, y, z'
loop_
 _atom_site_type_symbol
 _atom_site_label
 _atom_site_symmetry_multiplicity
 _atom_site_fract_x
 _atom_site_fract_y
 _atom_site_fract_z
 _atom_site_occupancy
  Nd  Nd0  1  0.722569  0.860805  0.693779  1
  Nd  Nd1  1  0.277152  0.139195  0.306221  1
  Nd  Nd2  1  0.777431  0.306221  0.139195  1
  Nd  Nd3  1  0.222848  0.693779  0.860805  1
  Nd  Nd4  1  0.583653  0.693779  0.139195  1
  Nd  Nd5  1  0.416627  0.306221  0.860805  1
  Nd  Nd6  1  0.083373  0.139195  0.693779  1
  Nd  Nd7  1  0.916347  0.860805  0.306221  1
  Ho  Ho8  1  0.250000  0.500000  0.500000  1
  Er  Er9  1  0.750000  0.500000  0.500000  1
  In  In10  1  0.158325  0.500000  0.182877  1
  In  In11  1  0.841202  0.500000  0.817123  1
  In  In12  1  0.341675  0.817123  0.500000  1
  In  In13  1  0.658798  0.182877  0.500000  1
  In  In14  1  0.250000  0.000000  0.000000  1
  In  In15  1  0.750000  0.000000  0.000000  1
