# generated using pymatgen
data_YbThGa12Cu
_symmetry_space_group_name_H-M   'P 1'
_cell_length_a   6.13274500
_cell_length_b   6.13274500
_cell_length_c   15.47194100
_cell_angle_alpha   90.00000000
_cell_angle_beta   90.00000000
_cell_angle_gamma   90.00000000
_symmetry_Int_Tables_number   1
_chemical_formula_structural   YbThGa12Cu
_chemical_formula_sum   'Yb2 Th2 Ga24 Cu2'
_cell_volume   581.90838441
_cell_formula_units_Z   2
loop_
 _symmetry_equiv_pos_site_id
 _symmetry_equiv_pos_as_xyz
  1  'x, y, z'
loop_
 _atom_site_type_symbol
 _atom_site_label
 _atom_site_symmetry_multiplicity
 _atom_site_fract_x
 _atom_site_fract_y
 _atom_site_fract_z
 _atom_site_occupancy
  Yb  Yb0  1  0.000000  0.500000  0.244118  1
  Yb  Yb1  1  0.500000  0.000000  0.244118  1
  Th  Th2  1  0.000000  0.500000  0.754546  1
  Th  Th3  1  0.500000  0.000000  0.754546  1
  Ga  Ga4  1  0.674948  0.174948  0.429916  1
  Ga  Ga5  1  0.668167  0.831833  0.570194  1
  Ga  Ga6  1  0.168167  0.668167  0.570194  1
  Ga  Ga7  1  0.831833  0.331833  0.570194  1
  Ga  Ga8  1  0.500000  0.500000  0.182407  1
  Ga  Ga9  1  0.500000  0.500000  0.817242  1
  Ga  Ga10  1  0.000000  0.000000  0.817242  1
  Ga  Ga11  1  0.000000  0.000000  0.182407  1
  Ga  Ga12  1  0.500000  0.500000  0.341351  1
  Ga  Ga13  1  0.500000  0.500000  0.658675  1
  Ga  Ga14  1  0.000000  0.000000  0.658675  1
  Ga  Ga15  1  0.000000  0.000000  0.341351  1
  Ga  Ga16  1  0.250451  0.750451  0.915282  1
  Ga  Ga17  1  0.249549  0.250451  0.915282  1
  Ga  Ga18  1  0.750451  0.749549  0.915282  1
  Ga  Ga19  1  0.249955  0.250045  0.086525  1
  Ga  Ga20  1  0.750045  0.749955  0.086525  1
  Ga  Ga21  1  0.749549  0.249549  0.915282  1
  Ga  Ga22  1  0.749955  0.249955  0.086525  1
  Ga  Ga23  1  0.250045  0.750045  0.086525  1
  Ga  Ga24  1  0.325052  0.825052  0.429916  1
  Ga  Ga25  1  0.174948  0.325052  0.429916  1
  Ga  Ga26  1  0.825052  0.674948  0.429916  1
  Ga  Ga27  1  0.331833  0.168167  0.570194  1
  Cu  Cu28  1  0.500000  0.000000  0.997826  1
  Cu  Cu29  1  0.000000  0.500000  0.997826  1
