# generated using pymatgen
data_NdTm2Mg3Sn2Au
_symmetry_space_group_name_H-M   'P 1'
_cell_length_a   7.56130111
_cell_length_b   7.56130086
_cell_length_c   4.49140800
_cell_angle_alpha   90.00000000
_cell_angle_beta   90.00000000
_cell_angle_gamma   120.64587374
_symmetry_Int_Tables_number   1
_chemical_formula_structural   NdTm2Mg3Sn2Au
_chemical_formula_sum   'Nd1 Tm2 Mg3 Sn2 Au1'
_cell_volume   220.92392043
_cell_formula_units_Z   1
loop_
 _symmetry_equiv_pos_site_id
 _symmetry_equiv_pos_as_xyz
  1  'x, y, z'
loop_
 _atom_site_type_symbol
 _atom_site_label
 _atom_site_symmetry_multiplicity
 _atom_site_fract_x
 _atom_site_fract_y
 _atom_site_fract_z
 _atom_site_occupancy
  Nd  Nd0  1  0.410495  0.410495  0.000000  1
  Tm  Tm1  1  0.595693  0.001848  0.000000  1
  Tm  Tm2  1  0.001848  0.595693  0.000000  1
  Mg  Mg3  1  0.235341  0.999071  0.500000  1
  Mg  Mg4  1  0.999071  0.235341  0.500000  1
  Mg  Mg5  1  0.763785  0.763785  0.500000  1
  Sn  Sn6  1  0.330133  0.672343  0.500000  1
  Sn  Sn7  1  0.672343  0.330133  0.500000  1
  Au  Au8  1  0.991292  0.991292  0.000000  1
