# generated using pymatgen
data_Tb4Y4Hf11ZrSi16
_symmetry_space_group_name_H-M   'P 1'
_cell_length_a   7.29264010
_cell_length_b   7.29240225
_cell_length_c   13.40336700
_cell_angle_alpha   90.00855526
_cell_angle_beta   89.98927479
_cell_angle_gamma   89.98751681
_symmetry_Int_Tables_number   1
_chemical_formula_structural   Tb4Y4Hf11ZrSi16
_chemical_formula_sum   'Tb4 Y4 Hf11 Zr1 Si16'
_cell_volume   712.80261498
_cell_formula_units_Z   1
loop_
 _symmetry_equiv_pos_site_id
 _symmetry_equiv_pos_as_xyz
  1  'x, y, z'
loop_
 _atom_site_type_symbol
 _atom_site_label
 _atom_site_symmetry_multiplicity
 _atom_site_fract_x
 _atom_site_fract_y
 _atom_site_fract_z
 _atom_site_occupancy
  Tb  Tb0  1  0.843925  0.503584  0.965071  1
  Tb  Tb1  1  0.496223  0.156376  0.534908  1
  Tb  Tb2  1  0.343834  0.996193  0.784829  1
  Tb  Tb3  1  0.656275  0.003587  0.284944  1
  Y  Y4  1  0.996238  0.343851  0.215196  1
  Y  Y5  1  0.003585  0.656259  0.715049  1
  Y  Y6  1  0.156355  0.496260  0.465092  1
  Y  Y7  1  0.503574  0.843903  0.034917  1
  Hf  Hf8  1  0.825599  0.825616  0.499994  1
  Hf  Hf9  1  0.325562  0.674595  0.250159  1
  Hf  Hf10  1  0.674598  0.325573  0.749853  1
  Hf  Hf11  1  0.149514  0.995391  0.374483  1
  Hf  Hf12  1  0.850532  0.004383  0.874261  1
  Hf  Hf13  1  0.504241  0.649716  0.624333  1
  Hf  Hf14  1  0.350382  0.495575  0.875661  1
  Hf  Hf15  1  0.495558  0.350439  0.124359  1
  Hf  Hf16  1  0.649689  0.504233  0.375698  1
  Hf  Hf17  1  0.995448  0.149454  0.625527  1
  Hf  Hf18  1  0.004382  0.850516  0.125744  1
  Zr  Zr19  1  0.174353  0.174378  0.999966  1
  Si  Si20  1  0.363388  0.295035  0.317067  1
  Si  Si21  1  0.636601  0.704955  0.816985  1
  Si  Si22  1  0.204989  0.863238  0.567051  1
  Si  Si23  1  0.136425  0.793837  0.932859  1
  Si  Si24  1  0.793857  0.136407  0.067159  1
  Si  Si25  1  0.863249  0.205027  0.432955  1
  Si  Si26  1  0.295008  0.363402  0.682942  1
  Si  Si27  1  0.704930  0.636568  0.182983  1
  Si  Si28  1  0.295534  0.048096  0.186386  1
  Si  Si29  1  0.704895  0.951447  0.685498  1
  Si  Si30  1  0.451589  0.795089  0.435560  1
  Si  Si31  1  0.205163  0.549816  0.064606  1
  Si  Si32  1  0.549817  0.205147  0.935402  1
  Si  Si33  1  0.795123  0.451620  0.564419  1
  Si  Si34  1  0.048090  0.295568  0.813591  1
  Si  Si35  1  0.951475  0.704870  0.314494  1
