# generated using pymatgen
data_Th3Ga3CoPt2
_symmetry_space_group_name_H-M   'P 1'
_cell_length_a   7.28097300
_cell_length_b   7.28097275
_cell_length_c   4.08699900
_cell_angle_alpha   90.00000000
_cell_angle_beta   90.00000000
_cell_angle_gamma   120.00000570
_symmetry_Int_Tables_number   1
_chemical_formula_structural   Th3Ga3CoPt2
_chemical_formula_sum   'Th3 Ga3 Co1 Pt2'
_cell_volume   187.63504864
_cell_formula_units_Z   1
loop_
 _symmetry_equiv_pos_site_id
 _symmetry_equiv_pos_as_xyz
  1  'x, y, z'
loop_
 _atom_site_type_symbol
 _atom_site_label
 _atom_site_symmetry_multiplicity
 _atom_site_fract_x
 _atom_site_fract_y
 _atom_site_fract_z
 _atom_site_occupancy
  Th  Th0  1  0.402809  0.402809  0.500000  1
  Th  Th1  1  0.597191  0.000000  0.500000  1
  Th  Th2  1  0.000000  0.597191  0.500000  1
  Ga  Ga3  1  0.772675  0.772675  0.000000  1
  Ga  Ga4  1  0.227325  0.000000  0.000000  1
  Ga  Ga5  1  0.000000  0.227325  0.000000  1
  Co  Co6  1  0.000000  0.000000  0.500000  1
  Pt  Pt7  1  0.666667  0.333333  0.000000  1
  Pt  Pt8  1  0.333333  0.666667  0.000000  1
