# generated using pymatgen
data_NdDy3AlPt
_symmetry_space_group_name_H-M   'P 1'
_cell_length_a   9.67141040
_cell_length_b   9.66263365
_cell_length_c   9.66263340
_cell_angle_alpha   60.06010206
_cell_angle_beta   59.96995504
_cell_angle_gamma   59.96995143
_symmetry_Int_Tables_number   1
_chemical_formula_structural   NdDy3AlPt
_chemical_formula_sum   'Nd4 Dy12 Al4 Pt4'
_cell_volume   638.50623472
_cell_formula_units_Z   4
loop_
 _symmetry_equiv_pos_site_id
 _symmetry_equiv_pos_as_xyz
  1  'x, y, z'
loop_
 _atom_site_type_symbol
 _atom_site_label
 _atom_site_symmetry_multiplicity
 _atom_site_fract_x
 _atom_site_fract_y
 _atom_site_fract_z
 _atom_site_occupancy
  Nd  Nd0  1  0.566683  0.933317  0.566683  1
  Nd  Nd1  1  0.933317  0.566683  0.933317  1
  Nd  Nd2  1  0.566683  0.566683  0.933317  1
  Nd  Nd3  1  0.933317  0.933317  0.566683  1
  Dy  Dy4  1  0.355029  0.351805  0.351805  1
  Dy  Dy5  1  0.351805  0.355029  0.941361  1
  Dy  Dy6  1  0.351805  0.941361  0.355029  1
  Dy  Dy7  1  0.941361  0.351805  0.351805  1
  Dy  Dy8  1  0.807972  0.192028  0.192028  1
  Dy  Dy9  1  0.192028  0.807972  0.807972  1
  Dy  Dy10  1  0.192935  0.807065  0.192935  1
  Dy  Dy11  1  0.807065  0.192935  0.807065  1
  Dy  Dy12  1  0.192935  0.192935  0.807065  1
  Dy  Dy13  1  0.807065  0.807065  0.192935  1
  Dy  Dy14  1  0.942001  0.557999  0.557999  1
  Dy  Dy15  1  0.557999  0.942001  0.942001  1
  Al  Al16  1  0.577275  0.574378  0.574378  1
  Al  Al17  1  0.574378  0.577275  0.273971  1
  Al  Al18  1  0.574378  0.273971  0.577275  1
  Al  Al19  1  0.273971  0.574378  0.574378  1
  Pt  Pt20  1  0.146271  0.141413  0.141413  1
  Pt  Pt21  1  0.141413  0.146271  0.570903  1
  Pt  Pt22  1  0.141413  0.570903  0.146271  1
  Pt  Pt23  1  0.570903  0.141413  0.141413  1
