# generated using pymatgen
data_Ho(PaCo2)3
_symmetry_space_group_name_H-M   'P 1'
_cell_length_a   5.36711700
_cell_length_b   7.49422300
_cell_length_c   8.33230400
_cell_angle_alpha   90.00000000
_cell_angle_beta   90.00000000
_cell_angle_gamma   90.00000000
_symmetry_Int_Tables_number   1
_chemical_formula_structural   Ho(PaCo2)3
_chemical_formula_sum   'Ho2 Pa6 Co12'
_cell_volume   335.14502831
_cell_formula_units_Z   2
loop_
 _symmetry_equiv_pos_site_id
 _symmetry_equiv_pos_as_xyz
  1  'x, y, z'
loop_
 _atom_site_type_symbol
 _atom_site_label
 _atom_site_symmetry_multiplicity
 _atom_site_fract_x
 _atom_site_fract_y
 _atom_site_fract_z
 _atom_site_occupancy
  Ho  Ho0  1  0.250000  0.064950  0.611345  1
  Ho  Ho1  1  0.250000  0.564950  0.888655  1
  Pa  Pa2  1  0.750000  0.893660  0.862758  1
  Pa  Pa3  1  0.750000  0.393660  0.637242  1
  Pa  Pa4  1  0.250000  0.103180  0.150346  1
  Pa  Pa5  1  0.250000  0.603180  0.349654  1
  Pa  Pa6  1  0.750000  0.934199  0.409727  1
  Pa  Pa7  1  0.750000  0.434199  0.090273  1
  Co  Co8  1  0.750000  0.581535  0.358103  1
  Co  Co9  1  0.750000  0.081535  0.141897  1
  Co  Co10  1  0.250000  0.422229  0.596318  1
  Co  Co11  1  0.250000  0.922229  0.903682  1
  Co  Co12  1  0.992895  0.265722  0.368156  1
  Co  Co13  1  0.507105  0.765722  0.131844  1
  Co  Co14  1  0.503011  0.734403  0.615993  1
  Co  Co15  1  0.996989  0.234403  0.884007  1
  Co  Co16  1  0.996989  0.734403  0.615993  1
  Co  Co17  1  0.503011  0.234403  0.884007  1
  Co  Co18  1  0.507105  0.265722  0.368156  1
  Co  Co19  1  0.992895  0.765722  0.131844  1
