# generated using pymatgen
data_Ho3Er7CuRhPb6
_symmetry_space_group_name_H-M   'P 1'
_cell_length_a   9.14189100
_cell_length_b   9.14189002
_cell_length_c   6.69248700
_cell_angle_alpha   90.00000000
_cell_angle_beta   90.00000000
_cell_angle_gamma   119.99999993
_symmetry_Int_Tables_number   1
_chemical_formula_structural   Ho3Er7CuRhPb6
_chemical_formula_sum   'Ho3 Er7 Cu1 Rh1 Pb6'
_cell_volume   484.38445733
_cell_formula_units_Z   1
loop_
 _symmetry_equiv_pos_site_id
 _symmetry_equiv_pos_as_xyz
  1  'x, y, z'
loop_
 _atom_site_type_symbol
 _atom_site_label
 _atom_site_symmetry_multiplicity
 _atom_site_fract_x
 _atom_site_fract_y
 _atom_site_fract_z
 _atom_site_occupancy
  Ho  Ho0  1  0.666667  0.333333  0.500000  1
  Ho  Ho1  1  0.666667  0.333333  0.000000  1
  Ho  Ho2  1  0.333333  0.666667  0.000000  1
  Er  Er3  1  0.244601  0.999940  0.739684  1
  Er  Er4  1  0.755339  0.999940  0.260316  1
  Er  Er5  1  0.000060  0.244661  0.739684  1
  Er  Er6  1  0.000060  0.755399  0.260316  1
  Er  Er7  1  0.755339  0.755399  0.739684  1
  Er  Er8  1  0.244601  0.244661  0.260316  1
  Er  Er9  1  0.333333  0.666667  0.500000  1
  Cu  Cu10  1  0.000000  0.000000  0.000000  1
  Rh  Rh11  1  0.000000  0.000000  0.500000  1
  Pb  Pb12  1  0.604140  0.999864  0.750687  1
  Pb  Pb13  1  0.395724  0.999864  0.249313  1
  Pb  Pb14  1  0.000136  0.604276  0.750687  1
  Pb  Pb15  1  0.000136  0.395860  0.249313  1
  Pb  Pb16  1  0.395724  0.395860  0.750687  1
  Pb  Pb17  1  0.604140  0.604276  0.249313  1
