# generated using pymatgen
data_Mn8Mo3Rh
_symmetry_space_group_name_H-M   'P 1'
_cell_length_a   4.69450500
_cell_length_b   4.69450474
_cell_length_c   7.71716000
_cell_angle_alpha   90.00000000
_cell_angle_beta   90.00000000
_cell_angle_gamma   120.00000887
_symmetry_Int_Tables_number   1
_chemical_formula_structural   Mn8Mo3Rh
_chemical_formula_sum   'Mn8 Mo3 Rh1'
_cell_volume   147.28810864
_cell_formula_units_Z   1
loop_
 _symmetry_equiv_pos_site_id
 _symmetry_equiv_pos_as_xyz
  1  'x, y, z'
loop_
 _atom_site_type_symbol
 _atom_site_label
 _atom_site_symmetry_multiplicity
 _atom_site_fract_x
 _atom_site_fract_y
 _atom_site_fract_z
 _atom_site_occupancy
  Mn  Mn0  1  0.000000  0.000000  0.999968  1
  Mn  Mn1  1  0.172963  0.345925  0.249422  1
  Mn  Mn2  1  0.172962  0.827036  0.249422  1
  Mn  Mn3  1  0.654075  0.827036  0.249422  1
  Mn  Mn4  1  0.000000  0.000000  0.501320  1
  Mn  Mn5  1  0.346524  0.173261  0.749753  1
  Mn  Mn6  1  0.826738  0.173261  0.749753  1
  Mn  Mn7  1  0.826740  0.653476  0.749753  1
  Mo  Mo8  1  0.666667  0.333333  0.428958  1
  Mo  Mo9  1  0.333333  0.666666  0.565994  1
  Mo  Mo10  1  0.333333  0.666666  0.937980  1
  Rh  Rh11  1  0.666667  0.333333  0.068257  1
