# generated using pymatgen
data_Ho3Sc2(In2Cu)2
_symmetry_space_group_name_H-M   'P 1'
_cell_length_a   3.59183300
_cell_length_b   7.85146900
_cell_length_c   17.58983300
_cell_angle_alpha   90.00000000
_cell_angle_beta   90.00000000
_cell_angle_gamma   90.00000000
_symmetry_Int_Tables_number   1
_chemical_formula_structural   Ho3Sc2(In2Cu)2
_chemical_formula_sum   'Ho6 Sc4 In8 Cu4'
_cell_volume   496.05379072
_cell_formula_units_Z   2
loop_
 _symmetry_equiv_pos_site_id
 _symmetry_equiv_pos_as_xyz
  1  'x, y, z'
loop_
 _atom_site_type_symbol
 _atom_site_label
 _atom_site_symmetry_multiplicity
 _atom_site_fract_x
 _atom_site_fract_y
 _atom_site_fract_z
 _atom_site_occupancy
  Ho  Ho0  1  0.000000  0.236877  0.213252  1
  Ho  Ho1  1  0.000000  0.763123  0.786748  1
  Ho  Ho2  1  0.000000  0.263123  0.713252  1
  Ho  Ho3  1  0.000000  0.736877  0.286748  1
  Ho  Ho4  1  0.000000  0.000000  0.000000  1
  Ho  Ho5  1  0.000000  0.500000  0.500000  1
  Sc  Sc6  1  0.000000  0.120827  0.415023  1
  Sc  Sc7  1  0.000000  0.879173  0.584977  1
  Sc  Sc8  1  0.000000  0.379173  0.915023  1
  Sc  Sc9  1  0.000000  0.620827  0.084977  1
  In  In10  1  0.500000  0.407564  0.348015  1
  In  In11  1  0.500000  0.592436  0.651985  1
  In  In12  1  0.500000  0.092436  0.848015  1
  In  In13  1  0.500000  0.907564  0.151985  1
  In  In14  1  0.500000  0.310332  0.060212  1
  In  In15  1  0.500000  0.689668  0.939788  1
  In  In16  1  0.500000  0.189668  0.560212  1
  In  In17  1  0.500000  0.810332  0.439788  1
  Cu  Cu18  1  0.500000  0.031332  0.305523  1
  Cu  Cu19  1  0.500000  0.968668  0.694477  1
  Cu  Cu20  1  0.500000  0.468668  0.805523  1
  Cu  Cu21  1  0.500000  0.531332  0.194477  1
