# generated using pymatgen
data_Lu2ZrGa5Ru
_symmetry_space_group_name_H-M   'P 1'
_cell_length_a   6.78087700
_cell_length_b   6.73371349
_cell_length_c   4.24453300
_cell_angle_alpha   90.00000000
_cell_angle_beta   90.00000000
_cell_angle_gamma   120.23196996
_symmetry_Int_Tables_number   1
_chemical_formula_structural   Lu2ZrGa5Ru
_chemical_formula_sum   'Lu2 Zr1 Ga5 Ru1'
_cell_volume   167.44845220
_cell_formula_units_Z   1
loop_
 _symmetry_equiv_pos_site_id
 _symmetry_equiv_pos_as_xyz
  1  'x, y, z'
loop_
 _atom_site_type_symbol
 _atom_site_label
 _atom_site_symmetry_multiplicity
 _atom_site_fract_x
 _atom_site_fract_y
 _atom_site_fract_z
 _atom_site_occupancy
  Lu  Lu0  1  0.003583  0.585834  0.000000  1
  Lu  Lu1  1  0.417748  0.414166  0.000000  1
  Zr  Zr2  1  0.590562  0.000000  0.000000  1
  Ga  Ga3  1  0.237068  0.000000  0.500000  1
  Ga  Ga4  1  0.000909  0.240359  0.500000  1
  Ga  Ga5  1  0.760551  0.759641  0.500000  1
  Ga  Ga6  1  0.340372  0.675935  0.500000  1
  Ga  Ga7  1  0.664439  0.324065  0.500000  1
  Ru  Ru8  1  0.984769  0.000000  0.000000  1
