# generated using pymatgen
data_Nd8Be4Si11Hg
_symmetry_space_group_name_H-M   'P 1'
_cell_length_a   8.03770087
_cell_length_b   8.03770046
_cell_length_c   8.56204404
_cell_angle_alpha   90.00957987
_cell_angle_beta   89.99042012
_cell_angle_gamma   119.77978884
_symmetry_Int_Tables_number   1
_chemical_formula_structural   Nd8Be4Si11Hg
_chemical_formula_sum   'Nd8 Be4 Si11 Hg1'
_cell_volume   480.09940048
_cell_formula_units_Z   1
loop_
 _symmetry_equiv_pos_site_id
 _symmetry_equiv_pos_as_xyz
  1  'x, y, z'
loop_
 _atom_site_type_symbol
 _atom_site_label
 _atom_site_symmetry_multiplicity
 _atom_site_fract_x
 _atom_site_fract_y
 _atom_site_fract_z
 _atom_site_occupancy
  Nd  Nd0  1  0.002615  0.997385  0.745947  1
  Nd  Nd1  1  0.002442  0.997558  0.253954  1
  Nd  Nd2  1  0.499981  0.500019  0.749629  1
  Nd  Nd3  1  0.493568  0.995700  0.746051  1
  Nd  Nd4  1  0.004300  0.506432  0.746051  1
  Nd  Nd5  1  0.500601  0.499399  0.250322  1
  Nd  Nd6  1  0.003245  0.505826  0.254028  1
  Nd  Nd7  1  0.494174  0.996755  0.254028  1
  Be  Be8  1  0.660330  0.339670  0.997696  1
  Be  Be9  1  0.666709  0.333291  0.502070  1
  Be  Be10  1  0.333786  0.666214  0.497938  1
  Be  Be11  1  0.334400  0.665600  0.002152  1
  Si  Si12  1  0.826291  0.654428  0.999698  1
  Si  Si13  1  0.345572  0.173709  0.999698  1
  Si  Si14  1  0.828161  0.171839  0.500400  1
  Si  Si15  1  0.827576  0.655810  0.500384  1
  Si  Si16  1  0.344190  0.172424  0.500384  1
  Si  Si17  1  0.172073  0.827927  0.499588  1
  Si  Si18  1  0.655550  0.827778  0.499629  1
  Si  Si19  1  0.172222  0.344450  0.499629  1
  Si  Si20  1  0.171726  0.828274  0.000341  1
  Si  Si21  1  0.651152  0.816899  0.000456  1
  Si  Si22  1  0.183101  0.348848  0.000456  1
  Hg  Hg23  1  0.826238  0.173762  0.999474  1
