# generated using pymatgen
data_La3Nd11(Ni2Rh)2
_symmetry_space_group_name_H-M   'P 1'
_cell_length_a   9.98693679
_cell_length_b   9.95358329
_cell_length_c   6.42523915
_cell_angle_alpha   89.73500887
_cell_angle_beta   90.72564799
_cell_angle_gamma   119.72682164
_symmetry_Int_Tables_number   1
_chemical_formula_structural   La3Nd11(Ni2Rh)2
_chemical_formula_sum   'La3 Nd11 Ni4 Rh2'
_cell_volume   554.60654250
_cell_formula_units_Z   1
loop_
 _symmetry_equiv_pos_site_id
 _symmetry_equiv_pos_as_xyz
  1  'x, y, z'
loop_
 _atom_site_type_symbol
 _atom_site_label
 _atom_site_symmetry_multiplicity
 _atom_site_fract_x
 _atom_site_fract_y
 _atom_site_fract_z
 _atom_site_occupancy
  La  La0  1  0.249231  0.124772  0.504842  1
  La  La1  1  0.543336  0.466081  0.817571  1
  La  La2  1  0.121140  0.251010  0.001813  1
  Nd  Nd3  1  0.462637  0.540721  0.311210  1
  Nd  Nd4  1  0.333096  0.665812  0.780272  1
  Nd  Nd5  1  0.868177  0.125617  0.496532  1
  Nd  Nd6  1  0.746087  0.873882  0.999191  1
  Nd  Nd7  1  0.868848  0.747388  0.500455  1
  Nd  Nd8  1  0.078561  0.536927  0.311650  1
  Nd  Nd9  1  0.121771  0.868547  0.004009  1
  Nd  Nd10  1  0.543869  0.076846  0.809528  1
  Nd  Nd11  1  0.924913  0.462655  0.809442  1
  Nd  Nd12  1  0.670839  0.333574  0.283494  1
  Nd  Nd13  1  0.462923  0.919779  0.305769  1
  Ni  Ni14  1  0.811451  0.622880  0.050032  1
  Ni  Ni15  1  0.191638  0.374537  0.550472  1
  Ni  Ni16  1  0.815199  0.192744  0.053115  1
  Ni  Ni17  1  0.622009  0.807781  0.552824  1
  Rh  Rh18  1  0.374656  0.192391  0.049361  1
  Rh  Rh19  1  0.189619  0.816057  0.550418  1
