# generated using pymatgen
data_Lu2In(PRh2)6
_symmetry_space_group_name_H-M   'P 1'
_cell_length_a   9.75932900
_cell_length_b   9.75933026
_cell_length_c   3.86730000
_cell_angle_alpha   90.00000000
_cell_angle_beta   90.00000000
_cell_angle_gamma   119.99999913
_symmetry_Int_Tables_number   1
_chemical_formula_structural   Lu2In(PRh2)6
_chemical_formula_sum   'Lu2 In1 P6 Rh12'
_cell_volume   318.99103104
_cell_formula_units_Z   1
loop_
 _symmetry_equiv_pos_site_id
 _symmetry_equiv_pos_as_xyz
  1  'x, y, z'
loop_
 _atom_site_type_symbol
 _atom_site_label
 _atom_site_symmetry_multiplicity
 _atom_site_fract_x
 _atom_site_fract_y
 _atom_site_fract_z
 _atom_site_occupancy
  Lu  Lu0  1  0.333333  0.666667  0.244684  1
  Lu  Lu1  1  0.666667  0.333333  0.755316  1
  In  In2  1  0.000000  0.000000  0.500000  1
  P  P3  1  0.405114  0.117641  0.255112  1
  P  P4  1  0.712527  0.594886  0.255112  1
  P  P5  1  0.882359  0.287473  0.255112  1
  P  P6  1  0.594886  0.882359  0.744888  1
  P  P7  1  0.287473  0.405114  0.744888  1
  P  P8  1  0.117641  0.712527  0.744888  1
  Rh  Rh9  1  0.455979  0.386645  0.252924  1
  Rh  Rh10  1  0.930666  0.544021  0.252924  1
  Rh  Rh11  1  0.613355  0.069334  0.252924  1
  Rh  Rh12  1  0.544021  0.613355  0.747076  1
  Rh  Rh13  1  0.069334  0.455979  0.747076  1
  Rh  Rh14  1  0.386645  0.930666  0.747076  1
  Rh  Rh15  1  0.162781  0.870762  0.240725  1
  Rh  Rh16  1  0.707982  0.837219  0.240725  1
  Rh  Rh17  1  0.129238  0.292018  0.240725  1
  Rh  Rh18  1  0.837219  0.129238  0.759275  1
  Rh  Rh19  1  0.292018  0.162781  0.759275  1
  Rh  Rh20  1  0.870762  0.707982  0.759275  1
