# generated using pymatgen
data_VBPbO4
_symmetry_space_group_name_H-M   'P 1'
_cell_length_a   6.13481500
_cell_length_b   7.10995400
_cell_length_c   8.46862900
_cell_angle_alpha   90.00000000
_cell_angle_beta   90.00000000
_cell_angle_gamma   90.00000000
_symmetry_Int_Tables_number   1
_chemical_formula_structural   VBPbO4
_chemical_formula_sum   'V4 B4 Pb4 O16'
_cell_volume   369.38679761
_cell_formula_units_Z   4
loop_
 _symmetry_equiv_pos_site_id
 _symmetry_equiv_pos_as_xyz
  1  'x, y, z'
loop_
 _atom_site_type_symbol
 _atom_site_label
 _atom_site_symmetry_multiplicity
 _atom_site_fract_x
 _atom_site_fract_y
 _atom_site_fract_z
 _atom_site_occupancy
  V  V0  1  0.000000  0.500000  0.500000  1
  V  V1  1  0.500000  0.500000  0.500000  1
  V  V2  1  0.500000  0.000000  0.000000  1
  V  V3  1  0.000000  0.000000  0.000000  1
  B  B4  1  0.250000  0.781061  0.733073  1
  B  B5  1  0.250000  0.281061  0.766927  1
  B  B6  1  0.750000  0.718939  0.233073  1
  B  B7  1  0.750000  0.218939  0.266927  1
  Pb  Pb8  1  0.250000  0.564432  0.145604  1
  Pb  Pb9  1  0.750000  0.435568  0.854396  1
  Pb  Pb10  1  0.250000  0.064432  0.354396  1
  Pb  Pb11  1  0.750000  0.935568  0.645604  1
  O  O12  1  0.053765  0.331518  0.694747  1
  O  O13  1  0.553765  0.668482  0.305253  1
  O  O14  1  0.446235  0.831518  0.805253  1
  O  O15  1  0.946235  0.168482  0.194747  1
  O  O16  1  0.250000  0.182885  0.908175  1
  O  O17  1  0.750000  0.317115  0.408175  1
  O  O18  1  0.750000  0.817115  0.091825  1
  O  O19  1  0.250000  0.682885  0.591825  1
  O  O20  1  0.250000  0.892883  0.115465  1
  O  O21  1  0.750000  0.107117  0.884535  1
  O  O22  1  0.250000  0.392883  0.384535  1
  O  O23  1  0.750000  0.607117  0.615465  1
  O  O24  1  0.053765  0.831518  0.805253  1
  O  O25  1  0.553765  0.168482  0.194747  1
  O  O26  1  0.446235  0.331518  0.694747  1
  O  O27  1  0.946235  0.668482  0.305253  1
