# generated using pymatgen
data_CaPa8Cd3O24
_symmetry_space_group_name_H-M   'P 1'
_cell_length_a   5.41714300
_cell_length_b   5.39662988
_cell_length_c   16.39815200
_cell_angle_alpha   90.47937175
_cell_angle_beta   90.00000000
_cell_angle_gamma   90.00000000
_symmetry_Int_Tables_number   1
_chemical_formula_structural   CaPa8Cd3O24
_chemical_formula_sum   'Ca1 Pa8 Cd3 O24'
_cell_volume   479.37197532
_cell_formula_units_Z   1
loop_
 _symmetry_equiv_pos_site_id
 _symmetry_equiv_pos_as_xyz
  1  'x, y, z'
loop_
 _atom_site_type_symbol
 _atom_site_label
 _atom_site_symmetry_multiplicity
 _atom_site_fract_x
 _atom_site_fract_y
 _atom_site_fract_z
 _atom_site_occupancy
  Ca  Ca0  1  0.754668  0.500000  0.500000  1
  Pa  Pa1  1  0.249934  0.476939  0.661262  1
  Pa  Pa2  1  0.248754  0.973213  0.838120  1
  Pa  Pa3  1  0.248754  0.026787  0.161880  1
  Pa  Pa4  1  0.249934  0.523061  0.338738  1
  Pa  Pa5  1  0.750492  0.021823  0.338897  1
  Pa  Pa6  1  0.750772  0.525688  0.162026  1
  Pa  Pa7  1  0.750772  0.474312  0.837974  1
  Pa  Pa8  1  0.750492  0.978177  0.661103  1
  Cd  Cd9  1  0.266575  0.500000  0.000000  1
  Cd  Cd10  1  0.240324  0.000000  0.500000  1
  Cd  Cd11  1  0.736443  0.000000  0.000000  1
  O  O12  1  0.034438  0.689076  0.904350  1
  O  O13  1  0.485692  0.215723  0.590085  1
  O  O14  1  0.485692  0.784277  0.409915  1
  O  O15  1  0.034438  0.310924  0.095650  1
  O  O16  1  0.966908  0.810215  0.095141  1
  O  O17  1  0.517322  0.286587  0.404117  1
  O  O18  1  0.517322  0.713413  0.595883  1
  O  O19  1  0.966908  0.189785  0.904859  1
  O  O20  1  0.015523  0.772936  0.250378  1
  O  O21  1  0.483193  0.280652  0.247767  1
  O  O22  1  0.483193  0.719348  0.752233  1
  O  O23  1  0.015523  0.227064  0.749622  1
  O  O24  1  0.983240  0.726841  0.748484  1
  O  O25  1  0.514739  0.220366  0.748685  1
  O  O26  1  0.514739  0.779634  0.251315  1
  O  O27  1  0.983240  0.273159  0.251516  1
  O  O28  1  0.017826  0.746832  0.590651  1
  O  O29  1  0.467112  0.253344  0.905671  1
  O  O30  1  0.467112  0.746656  0.094329  1
  O  O31  1  0.017826  0.253168  0.409349  1
  O  O32  1  0.981292  0.751180  0.406810  1
  O  O33  1  0.533760  0.247059  0.092005  1
  O  O34  1  0.533760  0.752941  0.907995  1
  O  O35  1  0.981292  0.248820  0.593190  1
