# generated using pymatgen
data_ScTaMn4P3
_symmetry_space_group_name_H-M   'P 1'
_cell_length_a   3.54321200
_cell_length_b   10.82447600
_cell_length_c   12.36993600
_cell_angle_alpha   90.00000000
_cell_angle_beta   90.00000000
_cell_angle_gamma   90.00000000
_symmetry_Int_Tables_number   1
_chemical_formula_structural   ScTaMn4P3
_chemical_formula_sum   'Sc4 Ta4 Mn16 P12'
_cell_volume   474.42926737
_cell_formula_units_Z   4
loop_
 _symmetry_equiv_pos_site_id
 _symmetry_equiv_pos_as_xyz
  1  'x, y, z'
loop_
 _atom_site_type_symbol
 _atom_site_label
 _atom_site_symmetry_multiplicity
 _atom_site_fract_x
 _atom_site_fract_y
 _atom_site_fract_z
 _atom_site_occupancy
  Sc  Sc0  1  0.250000  0.586400  0.708295  1
  Sc  Sc1  1  0.250000  0.913600  0.208295  1
  Sc  Sc2  1  0.750000  0.413600  0.291705  1
  Sc  Sc3  1  0.750000  0.086400  0.791705  1
  Ta  Ta4  1  0.250000  0.711080  0.983736  1
  Ta  Ta5  1  0.250000  0.788920  0.483736  1
  Ta  Ta6  1  0.750000  0.288920  0.016264  1
  Ta  Ta7  1  0.750000  0.211080  0.516264  1
  Mn  Mn8  1  0.250000  0.410154  0.491285  1
  Mn  Mn9  1  0.250000  0.089846  0.991285  1
  Mn  Mn10  1  0.750000  0.589846  0.508715  1
  Mn  Mn11  1  0.750000  0.910154  0.008715  1
  Mn  Mn12  1  0.250000  0.212731  0.179674  1
  Mn  Mn13  1  0.250000  0.287270  0.679674  1
  Mn  Mn14  1  0.750000  0.787270  0.820326  1
  Mn  Mn15  1  0.750000  0.712730  0.320326  1
  Mn  Mn16  1  0.250000  0.884186  0.696557  1
  Mn  Mn17  1  0.250000  0.615814  0.196557  1
  Mn  Mn18  1  0.750000  0.115814  0.303443  1
  Mn  Mn19  1  0.750000  0.384186  0.803443  1
  Mn  Mn20  1  0.250000  0.462923  0.933915  1
  Mn  Mn21  1  0.250000  0.037077  0.433915  1
  Mn  Mn22  1  0.750000  0.537077  0.066085  1
  Mn  Mn23  1  0.750000  0.962923  0.566085  1
  P  P24  1  0.250000  0.415942  0.122643  1
  P  P25  1  0.250000  0.084058  0.622643  1
  P  P26  1  0.750000  0.584058  0.877357  1
  P  P27  1  0.750000  0.915942  0.377357  1
  P  P28  1  0.250000  0.259452  0.865840  1
  P  P29  1  0.250000  0.240548  0.365840  1
  P  P30  1  0.750000  0.740548  0.134160  1
  P  P31  1  0.750000  0.759452  0.634160  1
  P  P32  1  0.250000  0.581634  0.380645  1
  P  P33  1  0.250000  0.918366  0.880645  1
  P  P34  1  0.750000  0.418366  0.619355  1
  P  P35  1  0.750000  0.081634  0.119355  1
