# generated using pymatgen
data_SrTbPa2(Al3Ir)6
_symmetry_space_group_name_H-M   'P 1'
_cell_length_a   7.62275751
_cell_length_b   7.61426118
_cell_length_c   9.43837000
_cell_angle_alpha   90.00000000
_cell_angle_beta   90.00000000
_cell_angle_gamma   119.55709910
_symmetry_Int_Tables_number   1
_chemical_formula_structural   SrTbPa2(Al3Ir)6
_chemical_formula_sum   'Sr1 Tb1 Pa2 Al18 Ir6'
_cell_volume   476.52807819
_cell_formula_units_Z   1
loop_
 _symmetry_equiv_pos_site_id
 _symmetry_equiv_pos_as_xyz
  1  'x, y, z'
loop_
 _atom_site_type_symbol
 _atom_site_label
 _atom_site_symmetry_multiplicity
 _atom_site_fract_x
 _atom_site_fract_y
 _atom_site_fract_z
 _atom_site_occupancy
  Sr  Sr0  1  0.670189  0.994030  0.250000  1
  Tb  Tb1  1  0.330258  0.006750  0.750000  1
  Pa  Pa2  1  0.998266  0.672191  0.250000  1
  Pa  Pa3  1  0.001876  0.327492  0.750000  1
  Al  Al4  1  0.134727  0.127268  0.250000  1
  Al  Al5  1  0.869300  0.872149  0.750000  1
  Al  Al6  1  0.002406  0.333960  0.075623  1
  Al  Al7  1  0.999060  0.667563  0.921777  1
  Al  Al8  1  0.999060  0.667563  0.578223  1
  Al  Al9  1  0.336849  0.003478  0.427344  1
  Al  Al10  1  0.002406  0.333960  0.424377  1
  Al  Al11  1  0.661288  0.995848  0.576582  1
  Al  Al12  1  0.661288  0.995848  0.923418  1
  Al  Al13  1  0.336849  0.003478  0.072656  1
  Al  Al14  1  0.335144  0.333652  0.554173  1
  Al  Al15  1  0.664741  0.664955  0.449988  1
  Al  Al16  1  0.664741  0.664955  0.050012  1
  Al  Al17  1  0.335144  0.333652  0.945827  1
  Al  Al18  1  0.335554  0.544041  0.250000  1
  Al  Al19  1  0.659649  0.452710  0.750000  1
  Al  Al20  1  0.550570  0.347097  0.250000  1
  Al  Al21  1  0.449880  0.657414  0.750000  1
  Ir  Ir22  1  0.675490  0.331109  0.997352  1
  Ir  Ir23  1  0.322320  0.668042  0.998383  1
  Ir  Ir24  1  0.322320  0.668042  0.501617  1
  Ir  Ir25  1  0.675490  0.331109  0.502648  1
  Ir  Ir26  1  0.002567  0.000821  0.997590  1
  Ir  Ir27  1  0.002567  0.000821  0.502410  1
