# generated using pymatgen
data_Ho16Cd2Co3Hg2Ir
_symmetry_space_group_name_H-M   'P 1'
_cell_length_a   9.49566844
_cell_length_b   9.46030247
_cell_length_c   9.45962900
_cell_angle_alpha   60.00235141
_cell_angle_beta   60.12546665
_cell_angle_gamma   60.17329370
_symmetry_Int_Tables_number   1
_chemical_formula_structural   Ho16Cd2Co3Hg2Ir
_chemical_formula_sum   'Ho16 Cd2 Co3 Hg2 Ir1'
_cell_volume   602.24634736
_cell_formula_units_Z   1
loop_
 _symmetry_equiv_pos_site_id
 _symmetry_equiv_pos_as_xyz
  1  'x, y, z'
loop_
 _atom_site_type_symbol
 _atom_site_label
 _atom_site_symmetry_multiplicity
 _atom_site_fract_x
 _atom_site_fract_y
 _atom_site_fract_z
 _atom_site_occupancy
  Ho  Ho0  1  0.591763  0.600991  0.599264  1
  Ho  Ho1  1  0.591763  0.600991  0.207982  1
  Ho  Ho2  1  0.593807  0.204124  0.601034  1
  Ho  Ho3  1  0.208916  0.598325  0.596380  1
  Ho  Ho4  1  0.065850  0.437564  0.440179  1
  Ho  Ho5  1  0.437961  0.060755  0.062372  1
  Ho  Ho6  1  0.437961  0.060755  0.438911  1
  Ho  Ho7  1  0.065850  0.437564  0.056406  1
  Ho  Ho8  1  0.438414  0.436996  0.062295  1
  Ho  Ho9  1  0.065415  0.054965  0.439810  1
  Ho  Ho10  1  0.186670  0.812029  0.813237  1
  Ho  Ho11  1  0.811491  0.188923  0.189580  1
  Ho  Ho12  1  0.811491  0.188923  0.810006  1
  Ho  Ho13  1  0.186670  0.812029  0.188064  1
  Ho  Ho14  1  0.812112  0.809460  0.189214  1
  Ho  Ho15  1  0.187126  0.187810  0.812532  1
  Cd  Cd16  1  0.830745  0.508813  0.830221  1
  Cd  Cd17  1  0.507722  0.830285  0.830996  1
  Co  Co18  1  0.391463  0.391547  0.390482  1
  Co  Co19  1  0.391463  0.391547  0.826508  1
  Co  Co20  1  0.391498  0.827179  0.390662  1
  Hg  Hg21  1  0.834141  0.833305  0.834975  1
  Hg  Hg22  1  0.834141  0.833305  0.497577  1
  Ir  Ir23  1  0.825567  0.391813  0.391310  1
