# generated using pymatgen
data_Y9HoIn8(PtRh)2
_symmetry_space_group_name_H-M   'P 1'
_cell_length_a   3.63483400
_cell_length_b   8.13388130
_cell_length_c   18.29176333
_cell_angle_alpha   90.09630650
_cell_angle_beta   90.00000000
_cell_angle_gamma   90.00000000
_symmetry_Int_Tables_number   1
_chemical_formula_structural   Y9HoIn8(PtRh)2
_chemical_formula_sum   'Y9 Ho1 In8 Pt2 Rh2'
_cell_volume   540.80085865
_cell_formula_units_Z   1
loop_
 _symmetry_equiv_pos_site_id
 _symmetry_equiv_pos_as_xyz
  1  'x, y, z'
loop_
 _atom_site_type_symbol
 _atom_site_label
 _atom_site_symmetry_multiplicity
 _atom_site_fract_x
 _atom_site_fract_y
 _atom_site_fract_z
 _atom_site_occupancy
  Y  Y0  1  0.000000  0.115381  0.412575  1
  Y  Y1  1  0.000000  0.883956  0.587009  1
  Y  Y2  1  0.000000  0.382502  0.914393  1
  Y  Y3  1  0.000000  0.617575  0.085946  1
  Y  Y4  1  0.000000  0.238291  0.221280  1
  Y  Y5  1  0.000000  0.761947  0.778852  1
  Y  Y6  1  0.000000  0.251085  0.720304  1
  Y  Y7  1  0.000000  0.999938  0.000101  1
  Y  Y8  1  0.000000  0.500000  0.499914  1
  Ho  Ho9  1  0.000000  0.750050  0.279252  1
  In  In10  1  0.500000  0.424363  0.351052  1
  In  In11  1  0.500000  0.576554  0.648967  1
  In  In12  1  0.500000  0.072953  0.849806  1
  In  In13  1  0.500000  0.927292  0.150282  1
  In  In14  1  0.500000  0.292169  0.066786  1
  In  In15  1  0.500000  0.707840  0.933229  1
  In  In16  1  0.500000  0.206228  0.567992  1
  In  In17  1  0.500000  0.793479  0.431694  1
  Pt  Pt18  1  0.500000  0.477697  0.803132  1
  Pt  Pt19  1  0.500000  0.524514  0.197740  1
  Rh  Rh20  1  0.500000  0.017159  0.304521  1
  Rh  Rh21  1  0.500000  0.979028  0.695172  1
