# generated using pymatgen
data_ThAl3Pd
_symmetry_space_group_name_H-M   'P 1'
_cell_length_a   4.30879400
_cell_length_b   4.30879394
_cell_length_c   6.16289980
_cell_angle_alpha   69.53866047
_cell_angle_beta   69.53865873
_cell_angle_gamma   90.00000338
_symmetry_Int_Tables_number   1
_chemical_formula_structural   ThAl3Pd
_chemical_formula_sum   'Th1 Al3 Pd1'
_cell_volume   99.45826395
_cell_formula_units_Z   1
loop_
 _symmetry_equiv_pos_site_id
 _symmetry_equiv_pos_as_xyz
  1  'x, y, z'
loop_
 _atom_site_type_symbol
 _atom_site_label
 _atom_site_symmetry_multiplicity
 _atom_site_fract_x
 _atom_site_fract_y
 _atom_site_fract_z
 _atom_site_occupancy
  Th  Th0  1  0.985961  0.985961  0.028077  1
  Al  Al1  1  0.744483  0.244483  0.511034  1
  Al  Al2  1  0.244483  0.744483  0.511034  1
  Al  Al3  1  0.398346  0.398346  0.203307  1
  Pd  Pd4  1  0.626726  0.626726  0.746547  1
