# generated using pymatgen
data_Tb2Ce2YAgSn3
_symmetry_space_group_name_H-M   'P 1'
_cell_length_a   6.40841100
_cell_length_b   9.43628844
_cell_length_c   9.43628843
_cell_angle_alpha   119.96548317
_cell_angle_beta   90.00000000
_cell_angle_gamma   90.00000000
_symmetry_Int_Tables_number   1
_chemical_formula_structural   Tb2Ce2YAgSn3
_chemical_formula_sum   'Tb4 Ce4 Y2 Ag2 Sn6'
_cell_volume   494.34978815
_cell_formula_units_Z   2
loop_
 _symmetry_equiv_pos_site_id
 _symmetry_equiv_pos_as_xyz
  1  'x, y, z'
loop_
 _atom_site_type_symbol
 _atom_site_label
 _atom_site_symmetry_multiplicity
 _atom_site_fract_x
 _atom_site_fract_y
 _atom_site_fract_z
 _atom_site_occupancy
  Tb  Tb0  1  0.750000  0.000034  0.278721  1
  Tb  Tb1  1  0.250000  0.999966  0.721279  1
  Tb  Tb2  1  0.750000  0.278721  0.000034  1
  Tb  Tb3  1  0.250000  0.721279  0.999966  1
  Ce  Ce4  1  0.000000  0.666665  0.333335  1
  Ce  Ce5  1  0.000000  0.333335  0.666665  1
  Ce  Ce6  1  0.500000  0.333335  0.666665  1
  Ce  Ce7  1  0.500000  0.666665  0.333335  1
  Y  Y8  1  0.750000  0.721276  0.721276  1
  Y  Y9  1  0.250000  0.278724  0.278724  1
  Ag  Ag10  1  0.000000  0.000000  0.000000  1
  Ag  Ag11  1  0.500000  0.000000  0.000000  1
  Sn  Sn12  1  0.750000  0.373101  0.373101  1
  Sn  Sn13  1  0.250000  0.626899  0.626899  1
  Sn  Sn14  1  0.750000  0.999903  0.627057  1
  Sn  Sn15  1  0.250000  0.000097  0.372943  1
  Sn  Sn16  1  0.750000  0.627057  0.999903  1
  Sn  Sn17  1  0.250000  0.372943  0.000097  1
