# generated using pymatgen
data_Mn3AlBr7O
_symmetry_space_group_name_H-M   'P 1'
_cell_length_a   7.72013492
_cell_length_b   7.44712846
_cell_length_c   7.44712800
_cell_angle_alpha   61.16645190
_cell_angle_beta   63.24944061
_cell_angle_gamma   63.24943239
_symmetry_Int_Tables_number   1
_chemical_formula_structural   Mn3AlBr7O
_chemical_formula_sum   'Mn3 Al1 Br7 O1'
_cell_volume   319.72626311
_cell_formula_units_Z   1
loop_
 _symmetry_equiv_pos_site_id
 _symmetry_equiv_pos_as_xyz
  1  'x, y, z'
loop_
 _atom_site_type_symbol
 _atom_site_label
 _atom_site_symmetry_multiplicity
 _atom_site_fract_x
 _atom_site_fract_y
 _atom_site_fract_z
 _atom_site_occupancy
  Mn  Mn0  1  0.994888  0.505935  0.505935  1
  Mn  Mn1  1  0.472723  0.523408  0.967286  1
  Mn  Mn2  1  0.472723  0.967286  0.523408  1
  Al  Al3  1  0.488530  0.523021  0.523021  1
  Br  Br4  1  0.232603  0.259065  0.259065  1
  Br  Br5  1  0.683388  0.282782  0.282782  1
  Br  Br6  1  0.258888  0.268531  0.747440  1
  Br  Br7  1  0.258888  0.747440  0.268531  1
  Br  Br8  1  0.748324  0.247911  0.741992  1
  Br  Br9  1  0.748324  0.741992  0.247911  1
  Br  Br10  1  0.749112  0.750145  0.750145  1
  O  O11  1  0.391607  0.682485  0.682485  1
