# generated using pymatgen
data_Tb2Lu4FeBi2
_symmetry_space_group_name_H-M   'P 1'
_cell_length_a   8.21193688
_cell_length_b   8.19803730
_cell_length_c   4.16333800
_cell_angle_alpha   90.00000000
_cell_angle_beta   90.00000000
_cell_angle_gamma   119.94462388
_symmetry_Int_Tables_number   1
_chemical_formula_structural   Tb2Lu4FeBi2
_chemical_formula_sum   'Tb2 Lu4 Fe1 Bi2'
_cell_volume   242.86775781
_cell_formula_units_Z   1
loop_
 _symmetry_equiv_pos_site_id
 _symmetry_equiv_pos_as_xyz
  1  'x, y, z'
loop_
 _atom_site_type_symbol
 _atom_site_label
 _atom_site_symmetry_multiplicity
 _atom_site_fract_x
 _atom_site_fract_y
 _atom_site_fract_z
 _atom_site_occupancy
  Tb  Tb0  1  0.389795  0.390394  0.500000  1
  Tb  Tb1  1  0.610191  0.000603  0.500000  1
  Lu  Lu2  1  0.227278  0.998477  0.000000  1
  Lu  Lu3  1  0.000019  0.612577  0.500000  1
  Lu  Lu4  1  0.772719  0.771205  0.000000  1
  Lu  Lu5  1  0.000008  0.226988  0.000000  1
  Fe  Fe6  1  0.999988  0.997480  0.500000  1
  Bi  Bi7  1  0.330829  0.666543  0.000000  1
  Bi  Bi8  1  0.669172  0.335735  0.000000  1
