# generated using pymatgen
data_Y3Lu(GaRu)4
_symmetry_space_group_name_H-M   'P 1'
_cell_length_a   7.15660613
_cell_length_b   4.49195100
_cell_length_c   7.14488513
_cell_angle_alpha   90.00000000
_cell_angle_beta   89.97788531
_cell_angle_gamma   90.00000000
_symmetry_Int_Tables_number   1
_chemical_formula_structural   Y3Lu(GaRu)4
_chemical_formula_sum   'Y3 Lu1 Ga4 Ru4'
_cell_volume   229.68749178
_cell_formula_units_Z   1
loop_
 _symmetry_equiv_pos_site_id
 _symmetry_equiv_pos_as_xyz
  1  'x, y, z'
loop_
 _atom_site_type_symbol
 _atom_site_label
 _atom_site_symmetry_multiplicity
 _atom_site_fract_x
 _atom_site_fract_y
 _atom_site_fract_z
 _atom_site_occupancy
  Y  Y0  1  0.515675  0.749999  0.303088  1
  Y  Y1  1  0.484743  0.249999  0.696202  1
  Y  Y2  1  0.985541  0.249999  0.806461  1
  Lu  Lu3  1  0.018045  0.749999  0.201384  1
  Ga  Ga4  1  0.300610  0.249999  0.104030  1
  Ga  Ga5  1  0.803389  0.249999  0.393567  1
  Ga  Ga6  1  0.197503  0.749999  0.603688  1
  Ga  Ga7  1  0.698936  0.749999  0.896438  1
  Ru  Ru8  1  0.660295  0.249999  0.064001  1
  Ru  Ru9  1  0.159428  0.249999  0.432071  1
  Ru  Ru10  1  0.840365  0.749999  0.562052  1
  Ru  Ru11  1  0.335467  0.749999  0.937017  1
