# generated using pymatgen
data_Dy6Ho10Cd4Ir3Os
_symmetry_space_group_name_H-M   'P 1'
_cell_length_a   9.64909678
_cell_length_b   9.64909655
_cell_length_c   9.64909619
_cell_angle_alpha   59.54504075
_cell_angle_beta   59.54504083
_cell_angle_gamma   59.54503913
_symmetry_Int_Tables_number   1
_chemical_formula_structural   Dy6Ho10Cd4Ir3Os
_chemical_formula_sum   'Dy6 Ho10 Cd4 Ir3 Os1'
_cell_volume   628.67926689
_cell_formula_units_Z   1
loop_
 _symmetry_equiv_pos_site_id
 _symmetry_equiv_pos_as_xyz
  1  'x, y, z'
loop_
 _atom_site_type_symbol
 _atom_site_label
 _atom_site_symmetry_multiplicity
 _atom_site_fract_x
 _atom_site_fract_y
 _atom_site_fract_z
 _atom_site_occupancy
  Dy  Dy0  1  0.188161  0.811511  0.811511  1
  Dy  Dy1  1  0.806995  0.189122  0.189122  1
  Dy  Dy2  1  0.811511  0.188161  0.811511  1
  Dy  Dy3  1  0.189122  0.806995  0.189122  1
  Dy  Dy4  1  0.811511  0.811511  0.188161  1
  Dy  Dy5  1  0.189122  0.189122  0.806995  1
  Ho  Ho6  1  0.599613  0.599613  0.599613  1
  Ho  Ho7  1  0.598485  0.598485  0.206950  1
  Ho  Ho8  1  0.598485  0.206950  0.598485  1
  Ho  Ho9  1  0.206950  0.598485  0.598485  1
  Ho  Ho10  1  0.062348  0.438565  0.438565  1
  Ho  Ho11  1  0.437469  0.060043  0.060043  1
  Ho  Ho12  1  0.438565  0.062348  0.438565  1
  Ho  Ho13  1  0.060043  0.437469  0.060043  1
  Ho  Ho14  1  0.438565  0.438565  0.062348  1
  Ho  Ho15  1  0.060043  0.060043  0.437469  1
  Cd  Cd16  1  0.829737  0.829737  0.829737  1
  Cd  Cd17  1  0.830320  0.830320  0.507598  1
  Cd  Cd18  1  0.830320  0.507598  0.830320  1
  Cd  Cd19  1  0.507598  0.830320  0.830320  1
  Ir  Ir20  1  0.393241  0.393241  0.826743  1
  Ir  Ir21  1  0.393241  0.826743  0.393241  1
  Ir  Ir22  1  0.826743  0.393241  0.393241  1
  Os  Os23  1  0.391814  0.391814  0.391814  1
