# generated using pymatgen
data_Er7Tm3(NiSb2)2
_symmetry_space_group_name_H-M   'P 1'
_cell_length_a   7.84024300
_cell_length_b   8.76016107
_cell_length_c   12.05169310
_cell_angle_alpha   90.01472880
_cell_angle_beta   90.00000000
_cell_angle_gamma   90.00000000
_symmetry_Int_Tables_number   1
_chemical_formula_structural   Er7Tm3(NiSb2)2
_chemical_formula_sum   'Er14 Tm6 Ni4 Sb8'
_cell_volume   827.73184565
_cell_formula_units_Z   2
loop_
 _symmetry_equiv_pos_site_id
 _symmetry_equiv_pos_as_xyz
  1  'x, y, z'
loop_
 _atom_site_type_symbol
 _atom_site_label
 _atom_site_symmetry_multiplicity
 _atom_site_fract_x
 _atom_site_fract_y
 _atom_site_fract_z
 _atom_site_occupancy
  Er  Er0  1  0.158553  0.750082  0.207037  1
  Er  Er1  1  0.658553  0.249918  0.292963  1
  Er  Er2  1  0.841480  0.249987  0.792891  1
  Er  Er3  1  0.341480  0.750013  0.707109  1
  Er  Er4  1  0.453643  0.750046  0.999728  1
  Er  Er5  1  0.953643  0.249954  0.500272  1
  Er  Er6  1  0.546177  0.249938  0.000279  1
  Er  Er7  1  0.046177  0.750062  0.499721  1
  Er  Er8  1  0.625561  0.750048  0.304790  1
  Er  Er9  1  0.125561  0.249952  0.195210  1
  Er  Er10  1  0.374575  0.249905  0.695228  1
  Er  Er11  1  0.874575  0.750095  0.804772  1
  Er  Er12  1  0.820742  0.540558  0.066334  1
  Er  Er13  1  0.320742  0.459442  0.433666  1
  Tm  Tm14  1  0.821055  0.959276  0.066316  1
  Tm  Tm15  1  0.321055  0.040724  0.433684  1
  Tm  Tm16  1  0.179016  0.459204  0.933625  1
  Tm  Tm17  1  0.679016  0.540796  0.566375  1
  Tm  Tm18  1  0.178884  0.040792  0.933665  1
  Tm  Tm19  1  0.678884  0.959208  0.566335  1
  Ni  Ni20  1  0.427863  0.750210  0.489144  1
  Ni  Ni21  1  0.927863  0.249790  0.010856  1
  Ni  Ni22  1  0.572503  0.249839  0.510968  1
  Ni  Ni23  1  0.072503  0.750161  0.989032  1
  Sb  Sb24  1  0.930050  0.991171  0.327565  1
  Sb  Sb25  1  0.430050  0.008829  0.172435  1
  Sb  Sb26  1  0.070005  0.491187  0.672430  1
  Sb  Sb27  1  0.570005  0.508813  0.827570  1
  Sb  Sb28  1  0.069958  0.008821  0.672411  1
  Sb  Sb29  1  0.569958  0.991179  0.827589  1
  Sb  Sb30  1  0.929936  0.508825  0.327587  1
  Sb  Sb31  1  0.429936  0.491175  0.172413  1
