# generated using pymatgen
data_Sm4FeTc3B16
_symmetry_space_group_name_H-M   'P 1'
_cell_length_a   3.61058800
_cell_length_b   6.01661753
_cell_length_c   11.64800869
_cell_angle_alpha   89.88954827
_cell_angle_beta   90.00000000
_cell_angle_gamma   90.00000000
_symmetry_Int_Tables_number   1
_chemical_formula_structural   Sm4FeTc3B16
_chemical_formula_sum   'Sm4 Fe1 Tc3 B16'
_cell_volume   253.03536197
_cell_formula_units_Z   1
loop_
 _symmetry_equiv_pos_site_id
 _symmetry_equiv_pos_as_xyz
  1  'x, y, z'
loop_
 _atom_site_type_symbol
 _atom_site_label
 _atom_site_symmetry_multiplicity
 _atom_site_fract_x
 _atom_site_fract_y
 _atom_site_fract_z
 _atom_site_occupancy
  Sm  Sm0  1  0.000000  0.374407  0.648667  1
  Sm  Sm1  1  0.000000  0.624487  0.351885  1
  Sm  Sm2  1  0.000000  0.873950  0.847950  1
  Sm  Sm3  1  0.000000  0.126212  0.152953  1
  Fe  Fe4  1  0.000000  0.131198  0.413051  1
  Tc  Tc5  1  0.000000  0.369077  0.913831  1
  Tc  Tc6  1  0.000000  0.631441  0.087182  1
  Tc  Tc7  1  0.000000  0.872043  0.584161  1
  B  B8  1  0.500000  0.025270  0.689735  1
  B  B9  1  0.500000  0.976503  0.310095  1
  B  B10  1  0.500000  0.524441  0.808769  1
  B  B11  1  0.500000  0.473968  0.191916  1
  B  B12  1  0.500000  0.387110  0.047048  1
  B  B13  1  0.500000  0.612401  0.953984  1
  B  B14  1  0.500000  0.889122  0.452821  1
  B  B15  1  0.500000  0.113526  0.544904  1
  B  B16  1  0.500000  0.278828  0.318551  1
  B  B17  1  0.500000  0.717343  0.683131  1
  B  B18  1  0.500000  0.783747  0.185338  1
  B  B19  1  0.500000  0.217233  0.815057  1
  B  B20  1  0.500000  0.359504  0.467477  1
  B  B21  1  0.500000  0.638125  0.530912  1
  B  B22  1  0.500000  0.862315  0.032067  1
  B  B23  1  0.500000  0.137749  0.968513  1
