# generated using pymatgen
data_Dy11Ho9(Ir5Pt)2
_symmetry_space_group_name_H-M   'P 1'
_cell_length_a   10.92670359
_cell_length_b   10.92946002
_cell_length_c   6.33763504
_cell_angle_alpha   89.99327677
_cell_angle_beta   89.96646066
_cell_angle_gamma   89.99635905
_symmetry_Int_Tables_number   1
_chemical_formula_structural   Dy11Ho9(Ir5Pt)2
_chemical_formula_sum   'Dy11 Ho9 Ir10 Pt2'
_cell_volume   756.85906424
_cell_formula_units_Z   1
loop_
 _symmetry_equiv_pos_site_id
 _symmetry_equiv_pos_as_xyz
  1  'x, y, z'
loop_
 _atom_site_type_symbol
 _atom_site_label
 _atom_site_symmetry_multiplicity
 _atom_site_fract_x
 _atom_site_fract_y
 _atom_site_fract_z
 _atom_site_occupancy
  Dy  Dy0  1  0.291155  0.088413  0.376137  1
  Dy  Dy1  1  0.291167  0.911591  0.876128  1
  Dy  Dy2  1  0.705450  0.090181  0.874065  1
  Dy  Dy3  1  0.705464  0.909786  0.374109  1
  Dy  Dy4  1  0.584684  0.790746  0.878492  1
  Dy  Dy5  1  0.584619  0.209213  0.378572  1
  Dy  Dy6  1  0.410732  0.791264  0.377723  1
  Dy  Dy7  1  0.410710  0.208746  0.877747  1
  Dy  Dy8  1  0.208853  0.411441  0.622076  1
  Dy  Dy9  1  0.208856  0.588553  0.122074  1
  Dy  Dy10  1  0.790909  0.414640  0.122449  1
  Ho  Ho11  1  0.791049  0.585375  0.622348  1
  Ho  Ho12  1  0.913509  0.707008  0.126466  1
  Ho  Ho13  1  0.913533  0.293046  0.626494  1
  Ho  Ho14  1  0.091448  0.706658  0.622219  1
  Ho  Ho15  1  0.091518  0.293283  0.122216  1
  Ho  Ho16  1  0.003027  0.999563  0.499994  1
  Ho  Ho17  1  0.003028  0.000459  0.000060  1
  Ho  Ho18  1  0.499808  0.499553  0.999877  1
  Ho  Ho19  1  0.499900  0.500493  0.499932  1
  Ir  Ir20  1  0.152553  0.153788  0.750282  1
  Ir  Ir21  1  0.152564  0.846201  0.250279  1
  Ir  Ir22  1  0.654947  0.346190  0.749358  1
  Ir  Ir23  1  0.654992  0.653841  0.249724  1
  Ir  Ir24  1  0.346649  0.346406  0.250298  1
  Ir  Ir25  1  0.346637  0.653589  0.750316  1
  Ir  Ir26  1  0.500682  0.999821  0.123597  1
  Ir  Ir27  1  0.500676  0.000185  0.623568  1
  Ir  Ir28  1  0.999437  0.500250  0.876581  1
  Ir  Ir29  1  0.999428  0.499882  0.376836  1
  Pt  Pt30  1  0.846023  0.153311  0.250031  1
  Pt  Pt31  1  0.845998  0.846526  0.749951  1
