# generated using pymatgen
data_La3Tb(Sc3Pt4)2
_symmetry_space_group_name_H-M   'P 1'
_cell_length_a   7.59558609
_cell_length_b   7.50906102
_cell_length_c   13.84196244
_cell_angle_alpha   89.78096150
_cell_angle_beta   90.11166543
_cell_angle_gamma   90.07375969
_symmetry_Int_Tables_number   1
_chemical_formula_structural   La3Tb(Sc3Pt4)2
_chemical_formula_sum   'La6 Tb2 Sc12 Pt16'
_cell_volume   789.47837142
_cell_formula_units_Z   2
loop_
 _symmetry_equiv_pos_site_id
 _symmetry_equiv_pos_as_xyz
  1  'x, y, z'
loop_
 _atom_site_type_symbol
 _atom_site_label
 _atom_site_symmetry_multiplicity
 _atom_site_fract_x
 _atom_site_fract_y
 _atom_site_fract_z
 _atom_site_occupancy
  La  La0  1  0.009444  0.174151  0.097848  1
  La  La1  1  0.990556  0.825849  0.902152  1
  La  La2  1  0.490489  0.674847  0.902887  1
  La  La3  1  0.990175  0.824838  0.595915  1
  La  La4  1  0.509511  0.325153  0.097113  1
  La  La5  1  0.009825  0.175162  0.404085  1
  Tb  Tb6  1  0.510317  0.328005  0.403019  1
  Tb  Tb7  1  0.489683  0.671995  0.596981  1
  Sc  Sc8  1  0.166848  0.492270  0.747405  1
  Sc  Sc9  1  0.833152  0.507730  0.252595  1
  Sc  Sc10  1  0.337172  0.994010  0.252738  1
  Sc  Sc11  1  0.662828  0.005990  0.747262  1
  Sc  Sc12  1  0.336126  0.166171  0.622745  1
  Sc  Sc13  1  0.663874  0.833829  0.377255  1
  Sc  Sc14  1  0.170221  0.661718  0.376158  1
  Sc  Sc15  1  0.665827  0.837287  0.127476  1
  Sc  Sc16  1  0.829779  0.338282  0.623842  1
  Sc  Sc17  1  0.334173  0.162713  0.872524  1
  Sc  Sc18  1  0.833757  0.337282  0.872553  1
  Sc  Sc19  1  0.166243  0.662718  0.127447  1
  Pt  Pt20  1  0.034487  0.136087  0.748260  1
  Pt  Pt21  1  0.965513  0.863913  0.251740  1
  Pt  Pt22  1  0.468100  0.633054  0.252142  1
  Pt  Pt23  1  0.531900  0.366946  0.747858  1
  Pt  Pt24  1  0.296861  0.861253  0.746467  1
  Pt  Pt25  1  0.703139  0.138747  0.253533  1
  Pt  Pt26  1  0.208551  0.363332  0.252754  1
  Pt  Pt27  1  0.791449  0.636668  0.747246  1
  Pt  Pt28  1  0.173868  0.455399  0.544447  1
  Pt  Pt29  1  0.826132  0.544601  0.455553  1
  Pt  Pt30  1  0.337149  0.953403  0.454440  1
  Pt  Pt31  1  0.833294  0.549402  0.046276  1
  Pt  Pt32  1  0.662851  0.046597  0.545560  1
  Pt  Pt33  1  0.166706  0.450598  0.953724  1
  Pt  Pt34  1  0.666317  0.048502  0.953259  1
  Pt  Pt35  1  0.333683  0.951498  0.046741  1
