# generated using pymatgen
data_KScMo(PO4)3
_symmetry_space_group_name_H-M   'P 1'
_cell_length_a   8.97198300
_cell_length_b   9.31720900
_cell_length_c   12.70165000
_cell_angle_alpha   90.00000000
_cell_angle_beta   90.00000000
_cell_angle_gamma   90.00000000
_symmetry_Int_Tables_number   1
_chemical_formula_structural   KScMo(PO4)3
_chemical_formula_sum   'K4 Sc4 Mo4 P12 O48'
_cell_volume   1061.77970743
_cell_formula_units_Z   4
loop_
 _symmetry_equiv_pos_site_id
 _symmetry_equiv_pos_as_xyz
  1  'x, y, z'
loop_
 _atom_site_type_symbol
 _atom_site_label
 _atom_site_symmetry_multiplicity
 _atom_site_fract_x
 _atom_site_fract_y
 _atom_site_fract_z
 _atom_site_occupancy
  K  K0  1  0.827089  0.087540  0.749305  1
  K  K1  1  0.172911  0.412460  0.249305  1
  K  K2  1  0.827089  0.912460  0.250695  1
  K  K3  1  0.172911  0.587540  0.750695  1
  Sc  Sc4  1  0.751012  0.277805  0.410032  1
  Sc  Sc5  1  0.248988  0.222195  0.910032  1
  Sc  Sc6  1  0.751012  0.722195  0.589968  1
  Sc  Sc7  1  0.248988  0.777805  0.089968  1
  Mo  Mo8  1  0.246264  0.222705  0.604285  1
  Mo  Mo9  1  0.753736  0.277295  0.104285  1
  Mo  Mo10  1  0.246264  0.777295  0.395715  1
  Mo  Mo11  1  0.753736  0.722705  0.895715  1
  P  P12  1  0.970033  0.000000  0.500000  1
  P  P13  1  0.029967  0.500000  0.000000  1
  P  P14  1  0.031720  0.500000  0.500000  1
  P  P15  1  0.968280  0.000000  0.000000  1
  P  P16  1  0.405058  0.884998  0.629904  1
  P  P17  1  0.594942  0.615002  0.129904  1
  P  P18  1  0.405058  0.115002  0.370096  1
  P  P19  1  0.594942  0.384998  0.870096  1
  P  P20  1  0.596068  0.616171  0.365070  1
  P  P21  1  0.403932  0.883829  0.865070  1
  P  P22  1  0.596068  0.383829  0.634930  1
  P  P23  1  0.403932  0.116171  0.134930  1
  O  O24  1  0.136632  0.406455  0.570078  1
  O  O25  1  0.863368  0.093545  0.070078  1
  O  O26  1  0.136632  0.593545  0.429922  1
  O  O27  1  0.863368  0.906455  0.929922  1
  O  O28  1  0.875301  0.089696  0.423851  1
  O  O29  1  0.124699  0.410304  0.923851  1
  O  O30  1  0.875301  0.910304  0.576149  1
  O  O31  1  0.124699  0.589696  0.076149  1
  O  O32  1  0.066557  0.100084  0.570165  1
  O  O33  1  0.933443  0.399916  0.070165  1
  O  O34  1  0.066557  0.899916  0.429835  1
  O  O35  1  0.933443  0.600084  0.929835  1
  O  O36  1  0.940773  0.406294  0.424728  1
  O  O37  1  0.059227  0.093706  0.924728  1
  O  O38  1  0.940773  0.593706  0.575272  1
  O  O39  1  0.059227  0.906294  0.075272  1
  O  O40  1  0.201368  0.229616  0.739069  1
  O  O41  1  0.798632  0.270384  0.239069  1
  O  O42  1  0.201368  0.770384  0.260931  1
  O  O43  1  0.798632  0.729616  0.760931  1
  O  O44  1  0.379036  0.047154  0.620398  1
  O  O45  1  0.620964  0.452846  0.120398  1
  O  O46  1  0.379036  0.952846  0.379602  1
  O  O47  1  0.620964  0.547154  0.879602  1
  O  O48  1  0.620624  0.456203  0.375219  1
  O  O49  1  0.379376  0.043797  0.875219  1
  O  O50  1  0.620624  0.543797  0.624781  1
  O  O51  1  0.379376  0.956203  0.124781  1
  O  O52  1  0.302698  0.204819  0.441544  1
  O  O53  1  0.697302  0.295181  0.941544  1
  O  O54  1  0.302698  0.795181  0.558456  1
  O  O55  1  0.697302  0.704819  0.058456  1
  O  O56  1  0.696237  0.288172  0.568024  1
  O  O57  1  0.303763  0.211828  0.068024  1
  O  O58  1  0.696237  0.711828  0.431976  1
  O  O59  1  0.303763  0.788172  0.931976  1
  O  O60  1  0.350702  0.835897  0.746600  1
  O  O61  1  0.649298  0.664103  0.246600  1
  O  O62  1  0.350702  0.164103  0.253400  1
  O  O63  1  0.649298  0.335897  0.753400  1
  O  O64  1  0.429082  0.351029  0.623571  1
  O  O65  1  0.570918  0.148971  0.123571  1
  O  O66  1  0.429082  0.648971  0.376429  1
  O  O67  1  0.570918  0.851029  0.876429  1
  O  O68  1  0.569439  0.146624  0.378248  1
  O  O69  1  0.430561  0.353376  0.878248  1
  O  O70  1  0.569439  0.853376  0.621752  1
  O  O71  1  0.430561  0.646624  0.121752  1
