# generated using pymatgen
data_Tm4NpMoRu6
_symmetry_space_group_name_H-M   'P 1'
_cell_length_a   5.64264177
_cell_length_b   5.17399416
_cell_length_c   9.06582300
_cell_angle_alpha   90.00000000
_cell_angle_beta   90.00000000
_cell_angle_gamma   123.18312438
_symmetry_Int_Tables_number   1
_chemical_formula_structural   Tm4NpMoRu6
_chemical_formula_sum   'Tm4 Np1 Mo1 Ru6'
_cell_volume   221.51466184
_cell_formula_units_Z   1
loop_
 _symmetry_equiv_pos_site_id
 _symmetry_equiv_pos_as_xyz
  1  'x, y, z'
loop_
 _atom_site_type_symbol
 _atom_site_label
 _atom_site_symmetry_multiplicity
 _atom_site_fract_x
 _atom_site_fract_y
 _atom_site_fract_z
 _atom_site_occupancy
  Tm  Tm0  1  0.662950  0.325788  0.572399  1
  Tm  Tm1  1  0.330046  0.660193  0.443105  1
  Tm  Tm2  1  0.330046  0.660193  0.056895  1
  Tm  Tm3  1  0.662950  0.325788  0.927601  1
  Np  Np4  1  0.852905  0.706196  0.250000  1
  Mo  Mo5  1  0.160198  0.319982  0.750000  1
  Ru  Ru6  1  0.990060  0.980846  0.498907  1
  Ru  Ru7  1  0.990060  0.980846  0.001093  1
  Ru  Ru8  1  0.158651  0.809685  0.750000  1
  Ru  Ru9  1  0.651449  0.808991  0.750000  1
  Ru  Ru10  1  0.846538  0.210448  0.250000  1
  Ru  Ru11  1  0.364149  0.211043  0.250000  1
