# generated using pymatgen
data_Nb12VFe8Re3N4
_symmetry_space_group_name_H-M   'P 1'
_cell_length_a   8.11963480
_cell_length_b   8.11963442
_cell_length_c   8.11963438
_cell_angle_alpha   60.51903287
_cell_angle_beta   60.51902987
_cell_angle_gamma   60.51902863
_symmetry_Int_Tables_number   1
_chemical_formula_structural   Nb12VFe8Re3N4
_chemical_formula_sum   'Nb12 V1 Fe8 Re3 N4'
_cell_volume   382.96445213
_cell_formula_units_Z   1
loop_
 _symmetry_equiv_pos_site_id
 _symmetry_equiv_pos_as_xyz
  1  'x, y, z'
loop_
 _atom_site_type_symbol
 _atom_site_label
 _atom_site_symmetry_multiplicity
 _atom_site_fract_x
 _atom_site_fract_y
 _atom_site_fract_z
 _atom_site_occupancy
  Nb  Nb0  1  0.806859  0.806859  0.192795  1
  Nb  Nb1  1  0.194518  0.194518  0.805962  1
  Nb  Nb2  1  0.806859  0.192795  0.806859  1
  Nb  Nb3  1  0.194518  0.805962  0.194518  1
  Nb  Nb4  1  0.192795  0.806859  0.806859  1
  Nb  Nb5  1  0.805962  0.194518  0.194518  1
  Nb  Nb6  1  0.443141  0.443141  0.057205  1
  Nb  Nb7  1  0.055482  0.055482  0.444038  1
  Nb  Nb8  1  0.443141  0.057205  0.443141  1
  Nb  Nb9  1  0.055482  0.444038  0.055482  1
  Nb  Nb10  1  0.057205  0.443141  0.443141  1
  Nb  Nb11  1  0.444038  0.055482  0.055482  1
  V  V12  1  0.625000  0.625000  0.625000  1
  Fe  Fe13  1  0.730750  0.426473  0.426473  1
  Fe  Fe14  1  0.426473  0.730750  0.426473  1
  Fe  Fe15  1  0.426473  0.426473  0.730750  1
  Fe  Fe16  1  0.423750  0.423750  0.423750  1
  Fe  Fe17  1  0.519250  0.823527  0.823527  1
  Fe  Fe18  1  0.823527  0.519250  0.823527  1
  Fe  Fe19  1  0.823527  0.823527  0.519250  1
  Fe  Fe20  1  0.826250  0.826250  0.826250  1
  Re  Re21  1  0.125000  0.625000  0.625000  1
  Re  Re22  1  0.625000  0.125000  0.625000  1
  Re  Re23  1  0.625000  0.625000  0.125000  1
  N  N24  1  0.625000  0.125000  0.125000  1
  N  N25  1  0.125000  0.625000  0.125000  1
  N  N26  1  0.125000  0.125000  0.625000  1
  N  N27  1  0.125000  0.125000  0.125000  1
