# generated using pymatgen
data_Er2Mn3Ni9P7
_symmetry_space_group_name_H-M   'P 1'
_cell_length_a   9.10134500
_cell_length_b   9.10134540
_cell_length_c   3.66221000
_cell_angle_alpha   90.00000000
_cell_angle_beta   90.00000000
_cell_angle_gamma   120.00000412
_symmetry_Int_Tables_number   1
_chemical_formula_structural   Er2Mn3Ni9P7
_chemical_formula_sum   'Er2 Mn3 Ni9 P7'
_cell_volume   262.71509773
_cell_formula_units_Z   1
loop_
 _symmetry_equiv_pos_site_id
 _symmetry_equiv_pos_as_xyz
  1  'x, y, z'
loop_
 _atom_site_type_symbol
 _atom_site_label
 _atom_site_symmetry_multiplicity
 _atom_site_fract_x
 _atom_site_fract_y
 _atom_site_fract_z
 _atom_site_occupancy
  Er  Er0  1  0.333333  0.666667  0.000000  1
  Er  Er1  1  0.000000  0.000000  0.500000  1
  Mn  Mn2  1  0.789248  0.235073  0.500000  1
  Mn  Mn3  1  0.764927  0.554175  0.500000  1
  Mn  Mn4  1  0.445825  0.210752  0.500000  1
  Ni  Ni5  1  0.039555  0.271008  0.000000  1
  Ni  Ni6  1  0.728992  0.768547  0.000000  1
  Ni  Ni7  1  0.231453  0.960445  0.000000  1
  Ni  Ni8  1  0.542331  0.055151  0.000000  1
  Ni  Ni9  1  0.944849  0.487181  0.000000  1
  Ni  Ni10  1  0.512819  0.457669  0.000000  1
  Ni  Ni11  1  0.613527  0.898141  0.500000  1
  Ni  Ni12  1  0.101859  0.715386  0.500000  1
  Ni  Ni13  1  0.284614  0.386473  0.500000  1
  P  P14  1  0.780461  0.039094  0.000000  1
  P  P15  1  0.960906  0.741368  0.000000  1
  P  P16  1  0.258632  0.219539  0.000000  1
  P  P17  1  0.373096  0.926528  0.500000  1
  P  P18  1  0.073472  0.446569  0.500000  1
  P  P19  1  0.553431  0.626904  0.500000  1
  P  P20  1  0.666667  0.333333  0.000000  1
