# generated using pymatgen
data_Li2MgSnS4
_symmetry_space_group_name_H-M   'P 1'
_cell_length_a   6.91635700
_cell_length_b   6.52679792
_cell_length_c   10.39049707
_cell_angle_alpha   51.25832648
_cell_angle_beta   90.00000000
_cell_angle_gamma   90.00000000
_symmetry_Int_Tables_number   1
_chemical_formula_structural   Li2MgSnS4
_chemical_formula_sum   'Li4 Mg2 Sn2 S8'
_cell_volume   365.84305804
_cell_formula_units_Z   2
loop_
 _symmetry_equiv_pos_site_id
 _symmetry_equiv_pos_as_xyz
  1  'x, y, z'
loop_
 _atom_site_type_symbol
 _atom_site_label
 _atom_site_symmetry_multiplicity
 _atom_site_fract_x
 _atom_site_fract_y
 _atom_site_fract_z
 _atom_site_occupancy
  Li  Li0  1  0.338890  0.161204  0.230365  1
  Li  Li1  1  0.661110  0.161204  0.730365  1
  Li  Li2  1  0.830745  0.918218  0.475982  1
  Li  Li3  1  0.169255  0.918218  0.975982  1
  Mg  Mg4  1  0.171941  0.417755  0.473744  1
  Mg  Mg5  1  0.828059  0.417755  0.973744  1
  Sn  Sn6  1  0.671107  0.665616  0.228129  1
  Sn  Sn7  1  0.328893  0.665616  0.728129  1
  S  S8  1  0.340992  0.546309  0.224263  1
  S  S9  1  0.659008  0.546309  0.724263  1
  S  S10  1  0.833155  0.297658  0.474430  1
  S  S11  1  0.166845  0.297658  0.974430  1
  S  S12  1  0.832266  0.789578  0.981437  1
  S  S13  1  0.167734  0.789578  0.481437  1
  S  S14  1  0.674402  0.038590  0.226751  1
  S  S15  1  0.325598  0.038590  0.726751  1
