# generated using pymatgen
data_Li6Eu4AgBi6
_symmetry_space_group_name_H-M   'P 1'
_cell_length_a   9.10492336
_cell_length_b   9.10492322
_cell_length_c   12.80739839
_cell_angle_alpha   55.61967455
_cell_angle_beta   55.61967393
_cell_angle_gamma   30.81932882
_symmetry_Int_Tables_number   1
_chemical_formula_structural   Li6Eu4AgBi6
_chemical_formula_sum   'Li6 Eu4 Ag1 Bi6'
_cell_volume   440.87729212
_cell_formula_units_Z   1
loop_
 _symmetry_equiv_pos_site_id
 _symmetry_equiv_pos_as_xyz
  1  'x, y, z'
loop_
 _atom_site_type_symbol
 _atom_site_label
 _atom_site_symmetry_multiplicity
 _atom_site_fract_x
 _atom_site_fract_y
 _atom_site_fract_z
 _atom_site_occupancy
  Li  Li0  1  0.946374  0.946374  0.323217  1
  Li  Li1  1  0.237419  0.237419  0.913498  1
  Li  Li2  1  0.762669  0.762669  0.089742  1
  Li  Li3  1  0.417938  0.417938  0.654992  1
  Li  Li4  1  0.583093  0.583093  0.342031  1
  Li  Li5  1  0.000388  0.000388  0.501798  1
  Eu  Eu6  1  0.262004  0.262004  0.335420  1
  Eu  Eu7  1  0.738621  0.738621  0.660038  1
  Eu  Eu8  1  0.433246  0.433246  0.912225  1
  Eu  Eu9  1  0.564647  0.564647  0.091271  1
  Ag  Ag10  1  0.050286  0.050286  0.681048  1
  Bi  Bi11  1  0.096618  0.096618  0.867523  1
  Bi  Bi12  1  0.904141  0.904141  0.135228  1
  Bi  Bi13  1  0.153250  0.153250  0.185956  1
  Bi  Bi14  1  0.842532  0.842532  0.817426  1
  Bi  Bi15  1  0.384005  0.384005  0.463225  1
  Bi  Bi16  1  0.622769  0.622769  0.525362  1
