# generated using pymatgen
data_Sc10Bi4AsSe
_symmetry_space_group_name_H-M   'P 1'
_cell_length_a   7.55705100
_cell_length_b   8.66731000
_cell_length_c   11.31207200
_cell_angle_alpha   90.00000000
_cell_angle_beta   90.00000000
_cell_angle_gamma   90.00000000
_symmetry_Int_Tables_number   1
_chemical_formula_structural   Sc10Bi4AsSe
_chemical_formula_sum   'Sc20 Bi8 As2 Se2'
_cell_volume   740.93283944
_cell_formula_units_Z   2
loop_
 _symmetry_equiv_pos_site_id
 _symmetry_equiv_pos_as_xyz
  1  'x, y, z'
loop_
 _atom_site_type_symbol
 _atom_site_label
 _atom_site_symmetry_multiplicity
 _atom_site_fract_x
 _atom_site_fract_y
 _atom_site_fract_z
 _atom_site_occupancy
  Sc  Sc0  1  0.817460  0.939239  0.060735  1
  Sc  Sc1  1  0.317460  0.060761  0.439265  1
  Sc  Sc2  1  0.184134  0.442326  0.938762  1
  Sc  Sc3  1  0.684134  0.557674  0.561238  1
  Sc  Sc4  1  0.184134  0.057674  0.938762  1
  Sc  Sc5  1  0.684134  0.942326  0.561238  1
  Sc  Sc6  1  0.817460  0.560761  0.060735  1
  Sc  Sc7  1  0.317460  0.439239  0.439265  1
  Sc  Sc8  1  0.155892  0.750000  0.208409  1
  Sc  Sc9  1  0.655892  0.250000  0.291591  1
  Sc  Sc10  1  0.840096  0.250000  0.786860  1
  Sc  Sc11  1  0.340096  0.750000  0.713140  1
  Sc  Sc12  1  0.466084  0.750000  0.002438  1
  Sc  Sc13  1  0.966084  0.250000  0.497562  1
  Sc  Sc14  1  0.530913  0.250000  0.997688  1
  Sc  Sc15  1  0.030913  0.750000  0.502312  1
  Sc  Sc16  1  0.638787  0.750000  0.293085  1
  Sc  Sc17  1  0.138787  0.250000  0.206915  1
  Sc  Sc18  1  0.361465  0.250000  0.707213  1
  Sc  Sc19  1  0.861465  0.750000  0.792787  1
  Bi  Bi20  1  0.929263  0.510144  0.325131  1
  Bi  Bi21  1  0.429263  0.489856  0.174869  1
  Bi  Bi22  1  0.071543  0.010445  0.673947  1
  Bi  Bi23  1  0.571543  0.989555  0.826053  1
  Bi  Bi24  1  0.071543  0.489555  0.673947  1
  Bi  Bi25  1  0.571543  0.510445  0.826053  1
  Bi  Bi26  1  0.929263  0.989856  0.325131  1
  Bi  Bi27  1  0.429263  0.010144  0.174869  1
  As  As28  1  0.590239  0.250000  0.524026  1
  As  As29  1  0.090239  0.750000  0.975974  1
  Se  Se30  1  0.411723  0.750000  0.479970  1
  Se  Se31  1  0.911723  0.250000  0.020030  1
