# generated using pymatgen
data_Ho4Si4Ir3Os
_symmetry_space_group_name_H-M   'P 1'
_cell_length_a   4.26553500
_cell_length_b   6.85882303
_cell_length_c   7.35863021
_cell_angle_alpha   90.08844767
_cell_angle_beta   90.00000000
_cell_angle_gamma   90.00000000
_symmetry_Int_Tables_number   1
_chemical_formula_structural   Ho4Si4Ir3Os
_chemical_formula_sum   'Ho4 Si4 Ir3 Os1'
_cell_volume   215.28787378
_cell_formula_units_Z   1
loop_
 _symmetry_equiv_pos_site_id
 _symmetry_equiv_pos_as_xyz
  1  'x, y, z'
loop_
 _atom_site_type_symbol
 _atom_site_label
 _atom_site_symmetry_multiplicity
 _atom_site_fract_x
 _atom_site_fract_y
 _atom_site_fract_z
 _atom_site_occupancy
  Ho  Ho0  1  0.750000  0.500900  0.813961  1
  Ho  Ho1  1  0.250000  0.995575  0.313389  1
  Ho  Ho2  1  0.750000  0.001382  0.687553  1
  Ho  Ho3  1  0.250000  0.499818  0.185839  1
  Si  Si4  1  0.250000  0.799012  0.884602  1
  Si  Si5  1  0.250000  0.301606  0.608807  1
  Si  Si6  1  0.750000  0.200529  0.111584  1
  Si  Si7  1  0.750000  0.700696  0.395646  1
  Ir  Ir8  1  0.250000  0.158805  0.934331  1
  Ir  Ir9  1  0.750000  0.842950  0.066046  1
  Ir  Ir10  1  0.750000  0.341634  0.433005  1
  Os  Os11  1  0.250000  0.657093  0.565237  1
