# generated using pymatgen
data_Dy8Nb12Si15Sb
_symmetry_space_group_name_H-M   'P 1'
_cell_length_a   6.91876407
_cell_length_b   7.11344275
_cell_length_c   13.51150461
_cell_angle_alpha   90.11343642
_cell_angle_beta   89.69366461
_cell_angle_gamma   90.05913833
_symmetry_Int_Tables_number   1
_chemical_formula_structural   Dy8Nb12Si15Sb
_chemical_formula_sum   'Dy8 Nb12 Si15 Sb1'
_cell_volume   664.97419230
_cell_formula_units_Z   1
loop_
 _symmetry_equiv_pos_site_id
 _symmetry_equiv_pos_as_xyz
  1  'x, y, z'
loop_
 _atom_site_type_symbol
 _atom_site_label
 _atom_site_symmetry_multiplicity
 _atom_site_fract_x
 _atom_site_fract_y
 _atom_site_fract_z
 _atom_site_occupancy
  Dy  Dy0  1  0.503194  0.328490  0.096320  1
  Dy  Dy1  1  0.998004  0.168313  0.400910  1
  Dy  Dy2  1  0.509997  0.679531  0.599653  1
  Dy  Dy3  1  0.996314  0.828342  0.904856  1
  Dy  Dy4  1  0.496828  0.671855  0.904732  1
  Dy  Dy5  1  0.996033  0.833935  0.597458  1
  Dy  Dy6  1  0.505908  0.324090  0.399729  1
  Dy  Dy7  1  0.003448  0.172219  0.095696  1
  Nb  Nb8  1  0.663567  0.007118  0.751001  1
  Nb  Nb9  1  0.164082  0.490596  0.754988  1
  Nb  Nb10  1  0.336018  0.992777  0.249425  1
  Nb  Nb11  1  0.836378  0.508127  0.249193  1
  Nb  Nb12  1  0.831089  0.323052  0.626896  1
  Nb  Nb13  1  0.337305  0.173872  0.875325  1
  Nb  Nb14  1  0.162310  0.675275  0.125354  1
  Nb  Nb15  1  0.660174  0.827569  0.372550  1
  Nb  Nb16  1  0.158223  0.681862  0.369488  1
  Nb  Nb17  1  0.660927  0.824819  0.125009  1
  Nb  Nb18  1  0.837459  0.325334  0.874881  1
  Nb  Nb19  1  0.347170  0.161108  0.630096  1
  Si  Si20  1  0.799134  0.625451  0.751554  1
  Si  Si21  1  0.295888  0.870663  0.752558  1
  Si  Si22  1  0.202879  0.374601  0.249078  1
  Si  Si23  1  0.702820  0.125167  0.247731  1
  Si  Si24  1  0.541324  0.376750  0.751832  1
  Si  Si25  1  0.042038  0.124864  0.751039  1
  Si  Si26  1  0.457763  0.623717  0.249026  1
  Si  Si27  1  0.955160  0.877037  0.247182  1
  Si  Si28  1  0.664958  0.038784  0.538918  1
  Si  Si29  1  0.162206  0.462652  0.959875  1
  Si  Si30  1  0.337095  0.963321  0.041212  1
  Si  Si31  1  0.823363  0.541439  0.455868  1
  Si  Si32  1  0.336175  0.961707  0.459307  1
  Si  Si33  1  0.837718  0.537156  0.041421  1
  Si  Si34  1  0.662347  0.037281  0.959290  1
  Sb  Sb35  1  0.174703  0.461130  0.540552  1
