# generated using pymatgen
data_Zr6Zn20Pd3O
_symmetry_space_group_name_H-M   'P 1'
_cell_length_a   8.75447294
_cell_length_b   8.75447167
_cell_length_c   8.73890700
_cell_angle_alpha   60.05880675
_cell_angle_beta   60.05881152
_cell_angle_gamma   59.88239487
_symmetry_Int_Tables_number   1
_chemical_formula_structural   Zr6Zn20Pd3O
_chemical_formula_sum   'Zr6 Zn20 Pd3 O1'
_cell_volume   473.58655855
_cell_formula_units_Z   1
loop_
 _symmetry_equiv_pos_site_id
 _symmetry_equiv_pos_as_xyz
  1  'x, y, z'
loop_
 _atom_site_type_symbol
 _atom_site_label
 _atom_site_symmetry_multiplicity
 _atom_site_fract_x
 _atom_site_fract_y
 _atom_site_fract_z
 _atom_site_occupancy
  Zr  Zr0  1  0.689103  0.310897  0.310897  1
  Zr  Zr1  1  0.310897  0.689103  0.689103  1
  Zr  Zr2  1  0.310897  0.689103  0.310897  1
  Zr  Zr3  1  0.689103  0.310897  0.689103  1
  Zr  Zr4  1  0.307527  0.307527  0.692473  1
  Zr  Zr5  1  0.692473  0.692473  0.307527  1
  Zn  Zn6  1  0.117992  0.117992  0.124495  1
  Zn  Zn7  1  0.882008  0.882008  0.875505  1
  Zn  Zn8  1  0.117992  0.117992  0.639521  1
  Zn  Zn9  1  0.124495  0.639521  0.117992  1
  Zn  Zn10  1  0.882008  0.882008  0.360479  1
  Zn  Zn11  1  0.875505  0.360479  0.882008  1
  Zn  Zn12  1  0.639521  0.124495  0.117992  1
  Zn  Zn13  1  0.360479  0.875505  0.882008  1
  Zn  Zn14  1  0.500000  0.000000  0.000000  1
  Zn  Zn15  1  0.000000  0.500000  0.500000  1
  Zn  Zn16  1  0.000000  0.500000  0.000000  1
  Zn  Zn17  1  0.500000  0.000000  0.500000  1
  Zn  Zn18  1  0.331493  0.331493  0.334334  1
  Zn  Zn19  1  0.668507  0.668507  0.665666  1
  Zn  Zn20  1  0.331493  0.331493  0.002682  1
  Zn  Zn21  1  0.334334  0.002682  0.331493  1
  Zn  Zn22  1  0.668507  0.668507  0.997318  1
  Zn  Zn23  1  0.665666  0.997318  0.668507  1
  Zn  Zn24  1  0.002682  0.334334  0.331493  1
  Zn  Zn25  1  0.997318  0.665666  0.668507  1
  Pd  Pd26  1  0.000000  0.000000  0.500000  1
  Pd  Pd27  1  0.500000  0.500000  0.000000  1
  Pd  Pd28  1  0.000000  0.000000  0.000000  1
  O  O29  1  0.500000  0.500000  0.500000  1
