# generated using pymatgen
data_Pr3SnPt2RhPb2
_symmetry_space_group_name_H-M   'P 1'
_cell_length_a   7.84164773
_cell_length_b   7.79753001
_cell_length_c   4.09624500
_cell_angle_alpha   90.00000000
_cell_angle_beta   90.00000000
_cell_angle_gamma   119.81406283
_symmetry_Int_Tables_number   1
_chemical_formula_structural   Pr3SnPt2RhPb2
_chemical_formula_sum   'Pr3 Sn1 Pt2 Rh1 Pb2'
_cell_volume   217.31594824
_cell_formula_units_Z   1
loop_
 _symmetry_equiv_pos_site_id
 _symmetry_equiv_pos_as_xyz
  1  'x, y, z'
loop_
 _atom_site_type_symbol
 _atom_site_label
 _atom_site_symmetry_multiplicity
 _atom_site_fract_x
 _atom_site_fract_y
 _atom_site_fract_z
 _atom_site_occupancy
  Pr  Pr0  1  0.592895  0.002339  0.500000  1
  Pr  Pr1  1  0.407105  0.409444  0.500000  1
  Pr  Pr2  1  0.000000  0.588726  0.500000  1
  Sn  Sn3  1  0.000000  0.252295  0.000000  1
  Pt  Pt4  1  0.325074  0.655031  0.000000  1
  Pt  Pt5  1  0.674926  0.329955  0.000000  1
  Rh  Rh6  1  0.000000  0.013249  0.500000  1
  Pb  Pb7  1  0.253393  0.001177  0.000000  1
  Pb  Pb8  1  0.746607  0.747784  0.000000  1
