# generated using pymatgen
data_Y6TiCo16P12Ru
_symmetry_space_group_name_H-M   'P 1'
_cell_length_a   3.70718700
_cell_length_b   10.57120800
_cell_length_c   12.25750000
_cell_angle_alpha   90.00000000
_cell_angle_beta   90.00000000
_cell_angle_gamma   90.00000000
_symmetry_Int_Tables_number   1
_chemical_formula_structural   Y6TiCo16P12Ru
_chemical_formula_sum   'Y6 Ti1 Co16 P12 Ru1'
_cell_volume   480.36462052
_cell_formula_units_Z   1
loop_
 _symmetry_equiv_pos_site_id
 _symmetry_equiv_pos_as_xyz
  1  'x, y, z'
loop_
 _atom_site_type_symbol
 _atom_site_label
 _atom_site_symmetry_multiplicity
 _atom_site_fract_x
 _atom_site_fract_y
 _atom_site_fract_z
 _atom_site_occupancy
  Y  Y0  1  0.000000  0.500000  0.525332  1
  Y  Y1  1  0.500000  0.000000  0.474986  1
  Y  Y2  1  0.500000  0.818473  0.204354  1
  Y  Y3  1  0.500000  0.181527  0.204354  1
  Y  Y4  1  0.000000  0.680706  0.793680  1
  Y  Y5  1  0.000000  0.319294  0.793680  1
  Ti  Ti6  1  0.000000  0.000000  0.847176  1
  Co  Co7  1  0.500000  0.500000  0.703602  1
  Co  Co8  1  0.000000  0.000000  0.296313  1
  Co  Co9  1  0.000000  0.500000  0.987264  1
  Co  Co10  1  0.500000  0.000000  0.012746  1
  Co  Co11  1  0.500000  0.334386  0.992485  1
  Co  Co12  1  0.500000  0.665614  0.992485  1
  Co  Co13  1  0.000000  0.169509  0.007674  1
  Co  Co14  1  0.000000  0.830491  0.007674  1
  Co  Co15  1  0.500000  0.297437  0.430380  1
  Co  Co16  1  0.500000  0.702563  0.430380  1
  Co  Co17  1  0.000000  0.204482  0.567372  1
  Co  Co18  1  0.000000  0.795518  0.567372  1
  Co  Co19  1  0.500000  0.878269  0.707024  1
  Co  Co20  1  0.500000  0.121731  0.707024  1
  Co  Co21  1  0.000000  0.620540  0.293012  1
  Co  Co22  1  0.000000  0.379460  0.293012  1
  P  P23  1  0.500000  0.500000  0.882874  1
  P  P24  1  0.000000  0.000000  0.116758  1
  P  P25  1  0.500000  0.500000  0.349990  1
  P  P26  1  0.000000  0.000000  0.647341  1
  P  P27  1  0.500000  0.310707  0.615287  1
  P  P28  1  0.500000  0.689293  0.615287  1
  P  P29  1  0.000000  0.189121  0.383435  1
  P  P30  1  0.000000  0.810879  0.383435  1
  P  P31  1  0.500000  0.842326  0.894442  1
  P  P32  1  0.500000  0.157674  0.894442  1
  P  P33  1  0.000000  0.652534  0.107994  1
  P  P34  1  0.000000  0.347466  0.107994  1
  Ru  Ru35  1  0.500000  0.500000  0.161336  1
