# generated using pymatgen
data_Co9(SeS3)2
_symmetry_space_group_name_H-M   'P 1'
_cell_length_a   7.05552982
_cell_length_b   6.93827555
_cell_length_c   7.05552952
_cell_angle_alpha   60.54823425
_cell_angle_beta   58.90351319
_cell_angle_gamma   60.54823247
_symmetry_Int_Tables_number   1
_chemical_formula_structural   Co9(SeS3)2
_chemical_formula_sum   'Co9 Se2 S6'
_cell_volume   244.09544521
_cell_formula_units_Z   1
loop_
 _symmetry_equiv_pos_site_id
 _symmetry_equiv_pos_as_xyz
  1  'x, y, z'
loop_
 _atom_site_type_symbol
 _atom_site_label
 _atom_site_symmetry_multiplicity
 _atom_site_fract_x
 _atom_site_fract_y
 _atom_site_fract_z
 _atom_site_occupancy
  Co  Co0  1  0.618742  0.122159  0.136942  1
  Co  Co1  1  0.122159  0.136942  0.122159  1
  Co  Co2  1  0.877841  0.863058  0.877841  1
  Co  Co3  1  0.381258  0.877841  0.863058  1
  Co  Co4  1  0.877841  0.381258  0.877841  1
  Co  Co5  1  0.500000  0.500000  0.500000  1
  Co  Co6  1  0.863058  0.877841  0.381258  1
  Co  Co7  1  0.136942  0.122159  0.618742  1
  Co  Co8  1  0.122159  0.618742  0.122159  1
  Se  Se9  1  0.264494  0.735506  0.264494  1
  Se  Se10  1  0.735506  0.264494  0.735506  1
  S  S11  1  0.261516  0.261516  0.738484  1
  S  S12  1  0.738484  0.738484  0.261516  1
  S  S13  1  0.738484  0.261516  0.261516  1
  S  S14  1  0.261516  0.738484  0.738484  1
  S  S15  1  0.750000  0.750000  0.750000  1
  S  S16  1  0.250000  0.250000  0.250000  1
