# generated using pymatgen
data_Y3HoSi4OsRh3
_symmetry_space_group_name_H-M   'P 1'
_cell_length_a   4.28070700
_cell_length_b   6.92937698
_cell_length_c   7.32688282
_cell_angle_alpha   89.79107182
_cell_angle_beta   90.00000000
_cell_angle_gamma   90.00000000
_symmetry_Int_Tables_number   1
_chemical_formula_structural   Y3HoSi4OsRh3
_chemical_formula_sum   'Y3 Ho1 Si4 Os1 Rh3'
_cell_volume   217.33318790
_cell_formula_units_Z   1
loop_
 _symmetry_equiv_pos_site_id
 _symmetry_equiv_pos_as_xyz
  1  'x, y, z'
loop_
 _atom_site_type_symbol
 _atom_site_label
 _atom_site_symmetry_multiplicity
 _atom_site_fract_x
 _atom_site_fract_y
 _atom_site_fract_z
 _atom_site_occupancy
  Y  Y0  1  0.250000  0.496052  0.689860  1
  Y  Y1  1  0.750000  0.506820  0.311140  1
  Y  Y2  1  0.750000  0.001746  0.185261  1
  Ho  Ho3  1  0.250000  0.997040  0.813272  1
  Si  Si4  1  0.250000  0.298525  0.106603  1
  Si  Si5  1  0.750000  0.703860  0.885927  1
  Si  Si6  1  0.250000  0.799152  0.402524  1
  Si  Si7  1  0.750000  0.197705  0.604491  1
  Os  Os8  1  0.750000  0.844887  0.568963  1
  Rh  Rh9  1  0.250000  0.154895  0.432082  1
  Rh  Rh10  1  0.750000  0.343493  0.931736  1
  Rh  Rh11  1  0.250000  0.655824  0.068142  1
