# generated using pymatgen
data_Tb3NdAl18(TcPd2)2
_symmetry_space_group_name_H-M   'P 1'
_cell_length_a   7.62469764
_cell_length_b   7.63702000
_cell_length_c   9.56979100
_cell_angle_alpha   90.00000000
_cell_angle_beta   90.00000000
_cell_angle_gamma   118.70408184
_symmetry_Int_Tables_number   1
_chemical_formula_structural   Tb3NdAl18(TcPd2)2
_chemical_formula_sum   'Tb3 Nd1 Al18 Tc2 Pd4'
_cell_volume   488.76942976
_cell_formula_units_Z   1
loop_
 _symmetry_equiv_pos_site_id
 _symmetry_equiv_pos_as_xyz
  1  'x, y, z'
loop_
 _atom_site_type_symbol
 _atom_site_label
 _atom_site_symmetry_multiplicity
 _atom_site_fract_x
 _atom_site_fract_y
 _atom_site_fract_z
 _atom_site_occupancy
  Tb  Tb0  1  0.005880  0.321708  0.750000  1
  Tb  Tb1  1  0.677293  0.994667  0.250000  1
  Tb  Tb2  1  0.321906  0.006654  0.750000  1
  Nd  Nd3  1  0.994129  0.675146  0.250000  1
  Al  Al4  1  0.130584  0.132078  0.250000  1
  Al  Al5  1  0.870232  0.871311  0.750000  1
  Al  Al6  1  0.001796  0.330867  0.074154  1
  Al  Al7  1  0.997733  0.666395  0.920637  1
  Al  Al8  1  0.997733  0.666395  0.579363  1
  Al  Al9  1  0.335242  0.004178  0.425683  1
  Al  Al10  1  0.001796  0.330867  0.425846  1
  Al  Al11  1  0.666573  0.998468  0.576597  1
  Al  Al12  1  0.666573  0.998468  0.923403  1
  Al  Al13  1  0.335242  0.004178  0.074317  1
  Al  Al14  1  0.329068  0.329303  0.549313  1
  Al  Al15  1  0.669549  0.671524  0.454595  1
  Al  Al16  1  0.669549  0.671524  0.045405  1
  Al  Al17  1  0.329068  0.329303  0.950687  1
  Al  Al18  1  0.347221  0.551350  0.250000  1
  Al  Al19  1  0.654944  0.447904  0.750000  1
  Al  Al20  1  0.548616  0.341388  0.250000  1
  Al  Al21  1  0.448462  0.655794  0.750000  1
  Tc  Tc22  1  0.000683  0.000476  0.998892  1
  Tc  Tc23  1  0.000683  0.000476  0.501108  1
  Pd  Pd24  1  0.671681  0.328020  0.999172  1
  Pd  Pd25  1  0.328042  0.671770  0.999194  1
  Pd  Pd26  1  0.328042  0.671770  0.500806  1
  Pd  Pd27  1  0.671681  0.328020  0.500828  1
