# generated using pymatgen
data_YEr6Co6AgSn22
_symmetry_space_group_name_H-M   'P 1'
_cell_length_a   9.62530600
_cell_length_b   9.62530779
_cell_length_c   9.98403000
_cell_angle_alpha   90.00000000
_cell_angle_beta   90.00000000
_cell_angle_gamma   120.00000074
_symmetry_Int_Tables_number   1
_chemical_formula_structural   YEr6Co6AgSn22
_chemical_formula_sum   'Y1 Er6 Co6 Ag1 Sn22'
_cell_volume   801.06116270
_cell_formula_units_Z   1
loop_
 _symmetry_equiv_pos_site_id
 _symmetry_equiv_pos_as_xyz
  1  'x, y, z'
loop_
 _atom_site_type_symbol
 _atom_site_label
 _atom_site_symmetry_multiplicity
 _atom_site_fract_x
 _atom_site_fract_y
 _atom_site_fract_z
 _atom_site_occupancy
  Y  Y0  1  0.000000  0.000000  0.000000  1
  Er  Er1  1  0.041043  0.520521  0.306927  1
  Er  Er2  1  0.479479  0.958957  0.306927  1
  Er  Er3  1  0.479479  0.520521  0.306927  1
  Er  Er4  1  0.958957  0.479479  0.693073  1
  Er  Er5  1  0.520521  0.041043  0.693073  1
  Er  Er6  1  0.520521  0.479479  0.693073  1
  Co  Co7  1  0.168575  0.831425  0.802745  1
  Co  Co8  1  0.662851  0.831425  0.802745  1
  Co  Co9  1  0.168575  0.337149  0.802745  1
  Co  Co10  1  0.831425  0.168575  0.197255  1
  Co  Co11  1  0.337149  0.168575  0.197255  1
  Co  Co12  1  0.831425  0.662851  0.197255  1
  Ag  Ag13  1  0.000000  0.000000  0.500000  1
  Sn  Sn14  1  0.114487  0.885513  0.275837  1
  Sn  Sn15  1  0.771025  0.885513  0.275837  1
  Sn  Sn16  1  0.114487  0.228975  0.275837  1
  Sn  Sn17  1  0.885513  0.114487  0.724163  1
  Sn  Sn18  1  0.228975  0.114487  0.724163  1
  Sn  Sn19  1  0.885513  0.771025  0.724163  1
  Sn  Sn20  1  0.346695  0.000000  0.000000  1
  Sn  Sn21  1  0.653305  0.653305  0.000000  1
  Sn  Sn22  1  0.000000  0.346695  0.000000  1
  Sn  Sn23  1  0.346695  0.346695  0.000000  1
  Sn  Sn24  1  0.000000  0.653305  0.000000  1
  Sn  Sn25  1  0.653305  0.000000  0.000000  1
  Sn  Sn26  1  0.783270  0.566538  0.453946  1
  Sn  Sn27  1  0.783270  0.216730  0.453946  1
  Sn  Sn28  1  0.433462  0.216730  0.453946  1
  Sn  Sn29  1  0.216730  0.433462  0.546054  1
  Sn  Sn30  1  0.216730  0.783270  0.546054  1
  Sn  Sn31  1  0.566538  0.783270  0.546054  1
  Sn  Sn32  1  0.666667  0.333333  0.183109  1
  Sn  Sn33  1  0.333333  0.666667  0.816891  1
  Sn  Sn34  1  0.666667  0.333333  0.878213  1
  Sn  Sn35  1  0.333333  0.666667  0.121787  1
