# generated using pymatgen
data_LaTh(Al3Pd)6
_symmetry_space_group_name_H-M   'P 1'
_cell_length_a   10.44200197
_cell_length_b   10.44200278
_cell_length_c   10.44200400
_cell_angle_alpha   42.38541349
_cell_angle_beta   42.38541678
_cell_angle_gamma   42.38541059
_symmetry_Int_Tables_number   1
_chemical_formula_structural   LaTh(Al3Pd)6
_chemical_formula_sum   'La1 Th1 Al18 Pd6'
_cell_volume   468.37903844
_cell_formula_units_Z   1
loop_
 _symmetry_equiv_pos_site_id
 _symmetry_equiv_pos_as_xyz
  1  'x, y, z'
loop_
 _atom_site_type_symbol
 _atom_site_label
 _atom_site_symmetry_multiplicity
 _atom_site_fract_x
 _atom_site_fract_y
 _atom_site_fract_z
 _atom_site_occupancy
  La  La0  1  0.833233  0.833233  0.833233  1
  Th  Th1  1  0.166758  0.166758  0.166758  1
  Al  Al2  1  0.107160  0.433616  0.756585  1
  Al  Al3  1  0.433616  0.756585  0.107160  1
  Al  Al4  1  0.568899  0.891560  0.242224  1
  Al  Al5  1  0.950818  0.950818  0.950818  1
  Al  Al6  1  0.048933  0.048933  0.048933  1
  Al  Al7  1  0.300673  0.701375  0.497953  1
  Al  Al8  1  0.891560  0.242224  0.568899  1
  Al  Al9  1  0.383356  0.383356  0.383356  1
  Al  Al10  1  0.497953  0.300673  0.701375  1
  Al  Al11  1  0.242224  0.568899  0.891560  1
  Al  Al12  1  0.715626  0.715626  0.715626  1
  Al  Al13  1  0.616736  0.616736  0.616736  1
  Al  Al14  1  0.334827  0.999906  0.665267  1
  Al  Al15  1  0.701375  0.497953  0.300673  1
  Al  Al16  1  0.665267  0.334827  0.999906  1
  Al  Al17  1  0.284503  0.284503  0.284503  1
  Al  Al18  1  0.999906  0.665267  0.334827  1
  Al  Al19  1  0.756585  0.107160  0.433616  1
  Pd  Pd20  1  0.417022  0.077264  0.760584  1
  Pd  Pd21  1  0.580302  0.240761  0.924060  1
  Pd  Pd22  1  0.077264  0.760584  0.417022  1
  Pd  Pd23  1  0.760584  0.417022  0.077264  1
  Pd  Pd24  1  0.924060  0.580302  0.240761  1
  Pd  Pd25  1  0.240761  0.924060  0.580302  1
