# generated using pymatgen
data_Li3Ac2YPt3
_symmetry_space_group_name_H-M   'P 1'
_cell_length_a   7.52160100
_cell_length_b   7.52160212
_cell_length_c   4.22286700
_cell_angle_alpha   90.00000000
_cell_angle_beta   90.00000000
_cell_angle_gamma   119.91071693
_symmetry_Int_Tables_number   1
_chemical_formula_structural   Li3Ac2YPt3
_chemical_formula_sum   'Li3 Ac2 Y1 Pt3'
_cell_volume   207.08502972
_cell_formula_units_Z   1
loop_
 _symmetry_equiv_pos_site_id
 _symmetry_equiv_pos_as_xyz
  1  'x, y, z'
loop_
 _atom_site_type_symbol
 _atom_site_label
 _atom_site_symmetry_multiplicity
 _atom_site_fract_x
 _atom_site_fract_y
 _atom_site_fract_z
 _atom_site_occupancy
  Li  Li0  1  0.228988  0.012720  0.500000  1
  Li  Li1  1  0.012720  0.228988  0.500000  1
  Li  Li2  1  0.767785  0.767785  0.500000  1
  Ac  Ac3  1  0.589446  0.997816  0.000000  1
  Ac  Ac4  1  0.997816  0.589446  0.000000  1
  Y  Y5  1  0.401564  0.401564  0.000000  1
  Pt  Pt6  1  0.338838  0.649795  0.500000  1
  Pt  Pt7  1  0.649795  0.338838  0.500000  1
  Pt  Pt8  1  0.013049  0.013049  0.000000  1
