# generated using pymatgen
data_LiPr6(P3Rh5)4
_symmetry_space_group_name_H-M   'P 1'
_cell_length_a   13.62802700
_cell_length_b   13.62802574
_cell_length_c   3.95720900
_cell_angle_alpha   90.00000000
_cell_angle_beta   90.00000000
_cell_angle_gamma   119.99999577
_symmetry_Int_Tables_number   1
_chemical_formula_structural   LiPr6(P3Rh5)4
_chemical_formula_sum   'Li1 Pr6 P12 Rh20'
_cell_volume   636.48118342
_cell_formula_units_Z   1
loop_
 _symmetry_equiv_pos_site_id
 _symmetry_equiv_pos_as_xyz
  1  'x, y, z'
loop_
 _atom_site_type_symbol
 _atom_site_label
 _atom_site_symmetry_multiplicity
 _atom_site_fract_x
 _atom_site_fract_y
 _atom_site_fract_z
 _atom_site_occupancy
  Li  Li0  1  0.000000  0.000000  0.000000  1
  Pr  Pr1  1  0.530726  0.717937  0.249801  1
  Pr  Pr2  1  0.282063  0.812789  0.249801  1
  Pr  Pr3  1  0.187211  0.469274  0.249801  1
  Pr  Pr4  1  0.469274  0.282063  0.750199  1
  Pr  Pr5  1  0.717937  0.187211  0.750199  1
  Pr  Pr6  1  0.812789  0.530726  0.750199  1
  P  P7  1  0.522148  0.134649  0.250353  1
  P  P8  1  0.865351  0.387501  0.250353  1
  P  P9  1  0.612499  0.477852  0.250353  1
  P  P10  1  0.949989  0.725859  0.248803  1
  P  P11  1  0.274141  0.224130  0.248803  1
  P  P12  1  0.775870  0.050011  0.248803  1
  P  P13  1  0.387501  0.522148  0.749647  1
  P  P14  1  0.477852  0.865351  0.749647  1
  P  P15  1  0.134649  0.612499  0.749647  1
  P  P16  1  0.725859  0.775870  0.751197  1
  P  P17  1  0.224130  0.949989  0.751197  1
  P  P18  1  0.050011  0.274141  0.751197  1
  Rh  Rh19  1  0.333333  0.666667  0.750261  1
  Rh  Rh20  1  0.924395  0.252292  0.248532  1
  Rh  Rh21  1  0.747708  0.672103  0.248532  1
  Rh  Rh22  1  0.327897  0.075605  0.248532  1
  Rh  Rh23  1  0.441543  0.025658  0.749583  1
  Rh  Rh24  1  0.974342  0.415887  0.749583  1
  Rh  Rh25  1  0.584113  0.558457  0.749583  1
  Rh  Rh26  1  0.666667  0.333333  0.249739  1
  Rh  Rh27  1  0.095056  0.201448  0.251772  1
  Rh  Rh28  1  0.798552  0.893607  0.251772  1
  Rh  Rh29  1  0.106393  0.904944  0.251772  1
  Rh  Rh30  1  0.025658  0.584113  0.250417  1
  Rh  Rh31  1  0.415887  0.441543  0.250417  1
  Rh  Rh32  1  0.558457  0.974342  0.250417  1
  Rh  Rh33  1  0.672103  0.924395  0.751468  1
  Rh  Rh34  1  0.075605  0.747708  0.751468  1
  Rh  Rh35  1  0.252292  0.327897  0.751468  1
  Rh  Rh36  1  0.904944  0.798552  0.748228  1
  Rh  Rh37  1  0.201448  0.106393  0.748228  1
  Rh  Rh38  1  0.893607  0.095056  0.748228  1
