# generated using pymatgen
data_Dy3YHo3Co6Sn23
_symmetry_space_group_name_H-M   'P 1'
_cell_length_a   9.70394700
_cell_length_b   9.70394485
_cell_length_c   9.96750000
_cell_angle_alpha   90.00000000
_cell_angle_beta   90.00000000
_cell_angle_gamma   119.99999711
_symmetry_Int_Tables_number   1
_chemical_formula_structural   Dy3YHo3Co6Sn23
_chemical_formula_sum   'Dy3 Y1 Ho3 Co6 Sn23'
_cell_volume   812.85601564
_cell_formula_units_Z   1
loop_
 _symmetry_equiv_pos_site_id
 _symmetry_equiv_pos_as_xyz
  1  'x, y, z'
loop_
 _atom_site_type_symbol
 _atom_site_label
 _atom_site_symmetry_multiplicity
 _atom_site_fract_x
 _atom_site_fract_y
 _atom_site_fract_z
 _atom_site_occupancy
  Dy  Dy0  1  0.521493  0.478507  0.693548  1
  Dy  Dy1  1  0.521493  0.042985  0.693548  1
  Dy  Dy2  1  0.957015  0.478507  0.693548  1
  Y  Y3  1  0.000000  0.000000  0.000022  1
  Ho  Ho4  1  0.042839  0.521419  0.306406  1
  Ho  Ho5  1  0.478581  0.957161  0.306406  1
  Ho  Ho6  1  0.478581  0.521419  0.306406  1
  Co  Co7  1  0.167638  0.832362  0.802932  1
  Co  Co8  1  0.167638  0.335276  0.802932  1
  Co  Co9  1  0.664724  0.832362  0.802932  1
  Co  Co10  1  0.335338  0.167669  0.197157  1
  Co  Co11  1  0.832331  0.664662  0.197157  1
  Co  Co12  1  0.832331  0.167669  0.197157  1
  Sn  Sn13  1  0.666667  0.333333  0.181576  1
  Sn  Sn14  1  0.666667  0.333333  0.882338  1
  Sn  Sn15  1  0.333333  0.666667  0.118003  1
  Sn  Sn16  1  0.346202  0.346197  0.000048  1
  Sn  Sn17  1  0.999995  0.653798  0.000048  1
  Sn  Sn18  1  0.653803  0.000005  0.000048  1
  Sn  Sn19  1  0.653803  0.653798  0.000048  1
  Sn  Sn20  1  0.333333  0.666667  0.818472  1
  Sn  Sn21  1  0.437160  0.218580  0.451550  1
  Sn  Sn22  1  0.218565  0.781435  0.548138  1
  Sn  Sn23  1  0.218565  0.437129  0.548138  1
  Sn  Sn24  1  0.562871  0.781435  0.548138  1
  Sn  Sn25  1  0.118134  0.881866  0.274339  1
  Sn  Sn26  1  0.781420  0.562840  0.451550  1
  Sn  Sn27  1  0.781420  0.218580  0.451550  1
  Sn  Sn28  1  0.346202  0.000005  0.000048  1
  Sn  Sn29  1  0.118134  0.236269  0.274339  1
  Sn  Sn30  1  0.763731  0.881866  0.274339  1
  Sn  Sn31  1  0.236074  0.118036  0.725701  1
  Sn  Sn32  1  0.881964  0.763926  0.725701  1
  Sn  Sn33  1  0.881964  0.118036  0.725701  1
  Sn  Sn34  1  0.000000  0.000000  0.499987  1
  Sn  Sn35  1  0.999995  0.346197  0.000048  1
