# generated using pymatgen
data_Lu10GaSb5
_symmetry_space_group_name_H-M   'P 1'
_cell_length_a   7.91053500
_cell_length_b   9.10329600
_cell_length_c   11.57721800
_cell_angle_alpha   90.00000000
_cell_angle_beta   90.00000000
_cell_angle_gamma   90.00000000
_symmetry_Int_Tables_number   1
_chemical_formula_structural   Lu10GaSb5
_chemical_formula_sum   'Lu20 Ga2 Sb10'
_cell_volume   833.69794678
_cell_formula_units_Z   2
loop_
 _symmetry_equiv_pos_site_id
 _symmetry_equiv_pos_as_xyz
  1  'x, y, z'
loop_
 _atom_site_type_symbol
 _atom_site_label
 _atom_site_symmetry_multiplicity
 _atom_site_fract_x
 _atom_site_fract_y
 _atom_site_fract_z
 _atom_site_occupancy
  Lu  Lu0  1  0.189087  0.566482  0.442140  1
  Lu  Lu1  1  0.689087  0.933518  0.057860  1
  Lu  Lu2  1  0.806654  0.050098  0.560327  1
  Lu  Lu3  1  0.306654  0.449902  0.939673  1
  Lu  Lu4  1  0.806654  0.449902  0.560327  1
  Lu  Lu5  1  0.306654  0.050098  0.939673  1
  Lu  Lu6  1  0.189087  0.933518  0.442140  1
  Lu  Lu7  1  0.689087  0.566482  0.057860  1
  Lu  Lu8  1  0.037867  0.750000  0.992081  1
  Lu  Lu9  1  0.537867  0.750000  0.507919  1
  Lu  Lu10  1  0.974022  0.250000  0.008879  1
  Lu  Lu11  1  0.474022  0.250000  0.491121  1
  Lu  Lu12  1  0.180150  0.750000  0.715045  1
  Lu  Lu13  1  0.680150  0.750000  0.784955  1
  Lu  Lu14  1  0.810555  0.250000  0.280888  1
  Lu  Lu15  1  0.310555  0.250000  0.219112  1
  Lu  Lu16  1  0.852579  0.750000  0.291936  1
  Lu  Lu17  1  0.352579  0.750000  0.208064  1
  Lu  Lu18  1  0.152746  0.250000  0.715637  1
  Lu  Lu19  1  0.652746  0.250000  0.784363  1
  Ga  Ga20  1  0.913739  0.750000  0.538717  1
  Ga  Ga21  1  0.413739  0.750000  0.961283  1
  Sb  Sb22  1  0.938582  0.498795  0.824007  1
  Sb  Sb23  1  0.438582  0.001205  0.675993  1
  Sb  Sb24  1  0.060441  0.997984  0.175816  1
  Sb  Sb25  1  0.560441  0.502016  0.324184  1
  Sb  Sb26  1  0.060441  0.502016  0.175816  1
  Sb  Sb27  1  0.560441  0.997984  0.324184  1
  Sb  Sb28  1  0.938582  0.001205  0.824007  1
  Sb  Sb29  1  0.438582  0.498795  0.675993  1
  Sb  Sb30  1  0.088816  0.250000  0.459550  1
  Sb  Sb31  1  0.588816  0.250000  0.040450  1
