# generated using pymatgen
data_Er2U(AlRu)3
_symmetry_space_group_name_H-M   'P 1'
_cell_length_a   6.81711961
_cell_length_b   6.81711780
_cell_length_c   4.03952800
_cell_angle_alpha   90.00000000
_cell_angle_beta   90.00000000
_cell_angle_gamma   116.35173728
_symmetry_Int_Tables_number   1
_chemical_formula_structural   Er2U(AlRu)3
_chemical_formula_sum   'Er2 U1 Al3 Ru3'
_cell_volume   168.22169975
_cell_formula_units_Z   1
loop_
 _symmetry_equiv_pos_site_id
 _symmetry_equiv_pos_as_xyz
  1  'x, y, z'
loop_
 _atom_site_type_symbol
 _atom_site_label
 _atom_site_symmetry_multiplicity
 _atom_site_fract_x
 _atom_site_fract_y
 _atom_site_fract_z
 _atom_site_occupancy
  Er  Er0  1  0.417241  0.005892  0.500000  1
  Er  Er1  1  0.005892  0.417241  0.500000  1
  U  U2  1  0.605101  0.605101  0.500000  1
  Al  Al3  1  0.753279  0.022961  0.000000  1
  Al  Al4  1  0.022961  0.753279  0.000000  1
  Al  Al5  1  0.211593  0.211593  0.000000  1
  Ru  Ru6  1  0.376866  0.640608  0.000000  1
  Ru  Ru7  1  0.640608  0.376866  0.000000  1
  Ru  Ru8  1  0.966458  0.966458  0.500000  1
