# generated using pymatgen
data_GdLu3(Si3Rh)2
_symmetry_space_group_name_H-M   'P 1'
_cell_length_a   8.14070300
_cell_length_b   8.14070359
_cell_length_c   7.81572900
_cell_angle_alpha   90.00000000
_cell_angle_beta   90.00000000
_cell_angle_gamma   120.00000165
_symmetry_Int_Tables_number   1
_chemical_formula_structural   GdLu3(Si3Rh)2
_chemical_formula_sum   'Gd2 Lu6 Si12 Rh4'
_cell_volume   448.56353908
_cell_formula_units_Z   2
loop_
 _symmetry_equiv_pos_site_id
 _symmetry_equiv_pos_as_xyz
  1  'x, y, z'
loop_
 _atom_site_type_symbol
 _atom_site_label
 _atom_site_symmetry_multiplicity
 _atom_site_fract_x
 _atom_site_fract_y
 _atom_site_fract_z
 _atom_site_occupancy
  Gd  Gd0  1  0.000000  0.000000  0.750000  1
  Gd  Gd1  1  0.000000  0.000000  0.250000  1
  Lu  Lu2  1  0.981287  0.490643  0.250000  1
  Lu  Lu3  1  0.509357  0.490643  0.250000  1
  Lu  Lu4  1  0.490643  0.981287  0.750000  1
  Lu  Lu5  1  0.018713  0.509357  0.750000  1
  Lu  Lu6  1  0.490643  0.509357  0.750000  1
  Lu  Lu7  1  0.509357  0.018713  0.250000  1
  Si  Si8  1  0.167823  0.832177  0.500819  1
  Si  Si9  1  0.167823  0.335645  0.500819  1
  Si  Si10  1  0.664355  0.832177  0.500819  1
  Si  Si11  1  0.335645  0.167823  0.000819  1
  Si  Si12  1  0.832177  0.664355  0.499181  1
  Si  Si13  1  0.832177  0.167823  0.000819  1
  Si  Si14  1  0.832177  0.664355  0.000819  1
  Si  Si15  1  0.167823  0.335645  0.999181  1
  Si  Si16  1  0.664355  0.832177  0.999181  1
  Si  Si17  1  0.335645  0.167823  0.499181  1
  Si  Si18  1  0.832177  0.167823  0.499181  1
  Si  Si19  1  0.167823  0.832177  0.999181  1
  Rh  Rh20  1  0.333333  0.666667  0.036622  1
  Rh  Rh21  1  0.666667  0.333333  0.963378  1
  Rh  Rh22  1  0.666667  0.333333  0.536622  1
  Rh  Rh23  1  0.333333  0.666667  0.463378  1
