# generated using pymatgen
data_Lu4MnTc3B8
_symmetry_space_group_name_H-M   'P 1'
_cell_length_a   5.19347000
_cell_length_b   5.84205109
_cell_length_c   6.32419521
_cell_angle_alpha   90.61349302
_cell_angle_beta   90.00000000
_cell_angle_gamma   90.00000000
_symmetry_Int_Tables_number   1
_chemical_formula_structural   Lu4MnTc3B8
_chemical_formula_sum   'Lu4 Mn1 Tc3 B8'
_cell_volume   191.86835318
_cell_formula_units_Z   1
loop_
 _symmetry_equiv_pos_site_id
 _symmetry_equiv_pos_as_xyz
  1  'x, y, z'
loop_
 _atom_site_type_symbol
 _atom_site_label
 _atom_site_symmetry_multiplicity
 _atom_site_fract_x
 _atom_site_fract_y
 _atom_site_fract_z
 _atom_site_occupancy
  Lu  Lu0  1  0.250000  0.513503  0.661138  1
  Lu  Lu1  1  0.750000  0.486274  0.336945  1
  Lu  Lu2  1  0.250000  0.013922  0.838811  1
  Lu  Lu3  1  0.750000  0.984736  0.162441  1
  Mn  Mn4  1  0.250000  0.679091  0.184200  1
  Tc  Tc5  1  0.750000  0.816616  0.685162  1
  Tc  Tc6  1  0.750000  0.319875  0.816430  1
  Tc  Tc7  1  0.250000  0.180776  0.312947  1
  B  B8  1  0.923325  0.130772  0.533578  1
  B  B9  1  0.420820  0.861472  0.459136  1
  B  B10  1  0.572865  0.635934  0.970035  1
  B  B11  1  0.079089  0.374424  0.038214  1
  B  B12  1  0.079180  0.861472  0.459136  1
  B  B13  1  0.927135  0.635934  0.970035  1
  B  B14  1  0.420911  0.374424  0.038214  1
  B  B15  1  0.576675  0.130772  0.533578  1
