# generated using pymatgen
data_Tb4LuZn2Bi
_symmetry_space_group_name_H-M   'P 1'
_cell_length_a   8.62562205
_cell_length_b   8.62562186
_cell_length_c   8.62562250
_cell_angle_alpha   123.53282590
_cell_angle_beta   123.53282235
_cell_angle_gamma   83.98267054
_symmetry_Int_Tables_number   1
_chemical_formula_structural   Tb4LuZn2Bi
_chemical_formula_sum   'Tb8 Lu2 Zn4 Bi2'
_cell_volume   426.98219081
_cell_formula_units_Z   2
loop_
 _symmetry_equiv_pos_site_id
 _symmetry_equiv_pos_as_xyz
  1  'x, y, z'
loop_
 _atom_site_type_symbol
 _atom_site_label
 _atom_site_symmetry_multiplicity
 _atom_site_fract_x
 _atom_site_fract_y
 _atom_site_fract_z
 _atom_site_occupancy
  Tb  Tb0  1  0.512524  0.012524  0.808232  1
  Tb  Tb1  1  0.204292  0.704292  0.191768  1
  Tb  Tb2  1  0.012524  0.204292  0.500000  1
  Tb  Tb3  1  0.704292  0.512524  0.500000  1
  Tb  Tb4  1  0.487476  0.987476  0.191768  1
  Tb  Tb5  1  0.795708  0.295708  0.808232  1
  Tb  Tb6  1  0.987476  0.795708  0.500000  1
  Tb  Tb7  1  0.295708  0.487476  0.500000  1
  Lu  Lu8  1  0.500000  0.500000  0.000000  1
  Lu  Lu9  1  0.000000  0.000000  0.000000  1
  Zn  Zn10  1  0.139007  0.639007  0.778013  1
  Zn  Zn11  1  0.860993  0.360993  0.221987  1
  Zn  Zn12  1  0.639007  0.860993  0.500000  1
  Zn  Zn13  1  0.360993  0.139007  0.500000  1
  Bi  Bi14  1  0.250000  0.250000  0.000000  1
  Bi  Bi15  1  0.750000  0.750000  0.000000  1
