# generated using pymatgen
data_Dy2YPa(Al3Ir)6
_symmetry_space_group_name_H-M   'P 1'
_cell_length_a   7.57887500
_cell_length_b   7.57335347
_cell_length_c   9.43594000
_cell_angle_alpha   90.00000000
_cell_angle_beta   90.00000000
_cell_angle_gamma   119.61686993
_symmetry_Int_Tables_number   1
_chemical_formula_structural   Dy2YPa(Al3Ir)6
_chemical_formula_sum   'Dy2 Y1 Pa1 Al18 Ir6'
_cell_volume   470.83910959
_cell_formula_units_Z   1
loop_
 _symmetry_equiv_pos_site_id
 _symmetry_equiv_pos_as_xyz
  1  'x, y, z'
loop_
 _atom_site_type_symbol
 _atom_site_label
 _atom_site_symmetry_multiplicity
 _atom_site_fract_x
 _atom_site_fract_y
 _atom_site_fract_z
 _atom_site_occupancy
  Dy  Dy0  1  0.004950  0.329440  0.250000  1
  Dy  Dy1  1  0.329568  0.004375  0.250000  1
  Y  Y2  1  0.671822  0.994957  0.750000  1
  Pa  Pa3  1  0.995995  0.671135  0.750000  1
  Al  Al4  1  0.131399  0.130329  0.750000  1
  Al  Al5  1  0.872707  0.874068  0.250000  1
  Al  Al6  1  0.000933  0.332216  0.574446  1
  Al  Al7  1  0.999048  0.664831  0.421518  1
  Al  Al8  1  0.999048  0.664831  0.078482  1
  Al  Al9  1  0.338268  0.003816  0.925438  1
  Al  Al10  1  0.000933  0.332216  0.925554  1
  Al  Al11  1  0.665284  0.999906  0.075609  1
  Al  Al12  1  0.665284  0.999906  0.424391  1
  Al  Al13  1  0.338268  0.003816  0.574562  1
  Al  Al14  1  0.332755  0.332825  0.055005  1
  Al  Al15  1  0.663254  0.665813  0.948277  1
  Al  Al16  1  0.663254  0.665813  0.551723  1
  Al  Al17  1  0.332755  0.332825  0.444995  1
  Al  Al18  1  0.339041  0.546591  0.750000  1
  Al  Al19  1  0.659552  0.450216  0.250000  1
  Al  Al20  1  0.546487  0.341493  0.750000  1
  Al  Al21  1  0.451168  0.660854  0.250000  1
  Ir  Ir22  1  0.673879  0.330123  0.502146  1
  Ir  Ir23  1  0.325881  0.671871  0.502170  1
  Ir  Ir24  1  0.325881  0.671871  0.997830  1
  Ir  Ir25  1  0.673879  0.330123  0.997854  1
  Ir  Ir26  1  0.999351  0.996869  0.503054  1
  Ir  Ir27  1  0.999351  0.996869  0.996946  1
