# generated using pymatgen
data_Nd3MgCd2AgSn2
_symmetry_space_group_name_H-M   'P 1'
_cell_length_a   7.60905273
_cell_length_b   7.60905260
_cell_length_c   4.71974500
_cell_angle_alpha   90.00000000
_cell_angle_beta   90.00000000
_cell_angle_gamma   120.32568930
_symmetry_Int_Tables_number   1
_chemical_formula_structural   Nd3MgCd2AgSn2
_chemical_formula_sum   'Nd3 Mg1 Cd2 Ag1 Sn2'
_cell_volume   235.87161286
_cell_formula_units_Z   1
loop_
 _symmetry_equiv_pos_site_id
 _symmetry_equiv_pos_as_xyz
  1  'x, y, z'
loop_
 _atom_site_type_symbol
 _atom_site_label
 _atom_site_symmetry_multiplicity
 _atom_site_fract_x
 _atom_site_fract_y
 _atom_site_fract_z
 _atom_site_occupancy
  Nd  Nd0  1  0.586162  0.001543  0.000000  1
  Nd  Nd1  1  0.001543  0.586162  0.000000  1
  Nd  Nd2  1  0.409924  0.409924  0.000000  1
  Mg  Mg3  1  0.770374  0.770374  0.500000  1
  Cd  Cd4  1  0.236070  0.999103  0.500000  1
  Cd  Cd5  1  0.999103  0.236070  0.500000  1
  Ag  Ag6  1  0.993207  0.993207  0.000000  1
  Sn  Sn7  1  0.336914  0.666702  0.500000  1
  Sn  Sn8  1  0.666702  0.336914  0.500000  1
