# generated using pymatgen
data_DyU(ZnIr)2
_symmetry_space_group_name_H-M   'P 1'
_cell_length_a   3.82633000
_cell_length_b   7.09498762
_cell_length_c   8.36799317
_cell_angle_alpha   92.19481243
_cell_angle_beta   90.00000000
_cell_angle_gamma   90.00000000
_symmetry_Int_Tables_number   1
_chemical_formula_structural   DyU(ZnIr)2
_chemical_formula_sum   'Dy2 U2 Zn4 Ir4'
_cell_volume   227.00564732
_cell_formula_units_Z   2
loop_
 _symmetry_equiv_pos_site_id
 _symmetry_equiv_pos_as_xyz
  1  'x, y, z'
loop_
 _atom_site_type_symbol
 _atom_site_label
 _atom_site_symmetry_multiplicity
 _atom_site_fract_x
 _atom_site_fract_y
 _atom_site_fract_z
 _atom_site_occupancy
  Dy  Dy0  1  0.250000  0.053370  0.313952  1
  Dy  Dy1  1  0.750000  0.946630  0.686048  1
  U  U2  1  0.250000  0.546837  0.189393  1
  U  U3  1  0.750000  0.453163  0.810607  1
  Zn  Zn4  1  0.250000  0.121446  0.937219  1
  Zn  Zn5  1  0.750000  0.878554  0.062781  1
  Zn  Zn6  1  0.250000  0.631859  0.559220  1
  Zn  Zn7  1  0.750000  0.368141  0.440780  1
  Ir  Ir8  1  0.750000  0.742721  0.355914  1
  Ir  Ir9  1  0.250000  0.257279  0.644086  1
  Ir  Ir10  1  0.750000  0.281391  0.118985  1
  Ir  Ir11  1  0.250000  0.718609  0.881015  1
