# generated using pymatgen
data_CaTb2Zn11
_symmetry_space_group_name_H-M   'P 1'
_cell_length_a   8.20116057
_cell_length_b   8.20116008
_cell_length_c   8.20116045
_cell_angle_alpha   148.40332100
_cell_angle_beta   115.38838023
_cell_angle_gamma   73.70939878
_symmetry_Int_Tables_number   1
_chemical_formula_structural   CaTb2Zn11
_chemical_formula_sum   'Ca1 Tb2 Zn11'
_cell_volume   256.88059523
_cell_formula_units_Z   1
loop_
 _symmetry_equiv_pos_site_id
 _symmetry_equiv_pos_as_xyz
  1  'x, y, z'
loop_
 _atom_site_type_symbol
 _atom_site_label
 _atom_site_symmetry_multiplicity
 _atom_site_fract_x
 _atom_site_fract_y
 _atom_site_fract_z
 _atom_site_occupancy
  Ca  Ca0  1  0.000000  0.000000  0.000000  1
  Tb  Tb1  1  0.297818  0.297818  0.000000  1
  Tb  Tb2  1  0.702182  0.702182  0.000000  1
  Zn  Zn3  1  0.500000  0.000000  0.500000  1
  Zn  Zn4  1  0.679623  0.500000  0.179623  1
  Zn  Zn5  1  0.320377  0.500000  0.820377  1
  Zn  Zn6  1  0.694696  0.338282  0.356414  1
  Zn  Zn7  1  0.305304  0.661718  0.643586  1
  Zn  Zn8  1  0.981868  0.338282  0.643586  1
  Zn  Zn9  1  0.018132  0.661718  0.356414  1
  Zn  Zn10  1  0.421581  0.137330  0.284250  1
  Zn  Zn11  1  0.578419  0.862670  0.715750  1
  Zn  Zn12  1  0.853080  0.137330  0.715750  1
  Zn  Zn13  1  0.146920  0.862670  0.284250  1
