# generated using pymatgen
data_RbAlPd3O8
_symmetry_space_group_name_H-M   'P 1'
_cell_length_a   3.08800883
_cell_length_b   7.39072481
_cell_length_c   7.30568422
_cell_angle_alpha   87.45235410
_cell_angle_beta   102.20641351
_cell_angle_gamma   102.04811591
_symmetry_Int_Tables_number   1
_chemical_formula_structural   RbAlPd3O8
_chemical_formula_sum   'Rb1 Al1 Pd3 O8'
_cell_volume   159.37567346
_cell_formula_units_Z   1
loop_
 _symmetry_equiv_pos_site_id
 _symmetry_equiv_pos_as_xyz
  1  'x, y, z'
loop_
 _atom_site_type_symbol
 _atom_site_label
 _atom_site_symmetry_multiplicity
 _atom_site_fract_x
 _atom_site_fract_y
 _atom_site_fract_z
 _atom_site_occupancy
  Rb  Rb0  1  0.040858  0.010014  0.008127  1
  Al  Al1  1  0.166291  0.486664  0.812235  1
  Pd  Pd2  1  0.862676  0.514589  0.176441  1
  Pd  Pd3  1  0.686963  0.813508  0.525635  1
  Pd  Pd4  1  0.355451  0.184764  0.491263  1
  O  O5  1  0.334613  0.361197  0.273625  1
  O  O6  1  0.677132  0.608563  0.711969  1
  O  O7  1  0.981503  0.295504  0.632678  1
  O  O8  1  0.063597  0.721084  0.371424  1
  O  O9  1  0.356828  0.640874  0.038301  1
  O  O10  1  0.668528  0.362558  0.939475  1
  O  O11  1  0.722727  0.050413  0.359487  1
  O  O12  1  0.322830  0.950268  0.659338  1
