# generated using pymatgen
data_Dy12Ho8CoBi8Ru3
_symmetry_space_group_name_H-M   'P 1'
_cell_length_a   7.97522918
_cell_length_b   8.98737138
_cell_length_c   12.42575609
_cell_angle_alpha   90.01665881
_cell_angle_beta   89.73484490
_cell_angle_gamma   90.02909638
_symmetry_Int_Tables_number   1
_chemical_formula_structural   Dy12Ho8CoBi8Ru3
_chemical_formula_sum   'Dy12 Ho8 Co1 Bi8 Ru3'
_cell_volume   890.62311026
_cell_formula_units_Z   1
loop_
 _symmetry_equiv_pos_site_id
 _symmetry_equiv_pos_as_xyz
  1  'x, y, z'
loop_
 _atom_site_type_symbol
 _atom_site_label
 _atom_site_symmetry_multiplicity
 _atom_site_fract_x
 _atom_site_fract_y
 _atom_site_fract_z
 _atom_site_occupancy
  Dy  Dy0  1  0.344946  0.750130  0.701618  1
  Dy  Dy1  1  0.656727  0.249944  0.293257  1
  Dy  Dy2  1  0.843516  0.249956  0.792687  1
  Dy  Dy3  1  0.155213  0.750062  0.205731  1
  Dy  Dy4  1  0.879611  0.750039  0.806621  1
  Dy  Dy5  1  0.119718  0.249974  0.192850  1
  Dy  Dy6  1  0.379227  0.249838  0.692496  1
  Dy  Dy7  1  0.616633  0.750198  0.311872  1
  Dy  Dy8  1  0.676285  0.543510  0.563918  1
  Dy  Dy9  1  0.324360  0.462118  0.436756  1
  Dy  Dy10  1  0.054277  0.750113  0.496981  1
  Dy  Dy11  1  0.947598  0.249886  0.503219  1
  Ho  Ho12  1  0.175955  0.458246  0.935763  1
  Ho  Ho13  1  0.324948  0.037960  0.436885  1
  Ho  Ho14  1  0.823830  0.542622  0.064422  1
  Ho  Ho15  1  0.675658  0.956278  0.563793  1
  Ho  Ho16  1  0.823840  0.957392  0.064435  1
  Ho  Ho17  1  0.175938  0.041757  0.935728  1
  Ho  Ho18  1  0.554569  0.250000  0.003560  1
  Ho  Ho19  1  0.445586  0.750002  0.995826  1
  Co  Co20  1  0.429524  0.750265  0.490982  1
  Bi  Bi21  1  0.570811  0.508632  0.827265  1
  Bi  Bi22  1  0.428859  0.492106  0.172741  1
  Bi  Bi23  1  0.072159  0.491822  0.672302  1
  Bi  Bi24  1  0.428769  0.007909  0.172801  1
  Bi  Bi25  1  0.928365  0.508804  0.328072  1
  Bi  Bi26  1  0.570888  0.991387  0.827227  1
  Bi  Bi27  1  0.928602  0.991195  0.328130  1
  Bi  Bi28  1  0.071968  0.008211  0.672255  1
  Ru  Ru29  1  0.073661  0.749997  0.989136  1
  Ru  Ru30  1  0.925494  0.250018  0.010512  1
  Ru  Ru31  1  0.572468  0.249628  0.510159  1
