# generated using pymatgen
data_AcTh7(Si3Rh)4
_symmetry_space_group_name_H-M   'P 1'
_cell_length_a   8.24884000
_cell_length_b   8.20344426
_cell_length_c   8.42814200
_cell_angle_alpha   90.00000000
_cell_angle_beta   90.00000000
_cell_angle_gamma   119.81811769
_symmetry_Int_Tables_number   1
_chemical_formula_structural   AcTh7(Si3Rh)4
_chemical_formula_sum   'Ac1 Th7 Si12 Rh4'
_cell_volume   494.81702461
_cell_formula_units_Z   1
loop_
 _symmetry_equiv_pos_site_id
 _symmetry_equiv_pos_as_xyz
  1  'x, y, z'
loop_
 _atom_site_type_symbol
 _atom_site_label
 _atom_site_symmetry_multiplicity
 _atom_site_fract_x
 _atom_site_fract_y
 _atom_site_fract_z
 _atom_site_occupancy
  Ac  Ac0  1  0.000091  0.500048  0.750000  1
  Th  Th1  1  0.000022  0.000000  0.250000  1
  Th  Th2  1  0.000004  0.999999  0.750000  1
  Th  Th3  1  0.500001  0.500015  0.250000  1
  Th  Th4  1  0.500001  0.999986  0.250000  1
  Th  Th5  1  0.999975  0.499984  0.250000  1
  Th  Th6  1  0.499999  0.499985  0.750000  1
  Th  Th7  1  0.499999  0.000015  0.750000  1
  Si  Si8  1  0.166905  0.834847  0.495269  1
  Si  Si9  1  0.166902  0.332056  0.495268  1
  Si  Si10  1  0.669088  0.834545  0.500925  1
  Si  Si11  1  0.833092  0.165172  0.495277  1
  Si  Si12  1  0.833093  0.667920  0.495277  1
  Si  Si13  1  0.330905  0.165453  0.500888  1
  Si  Si14  1  0.833092  0.165172  0.004723  1
  Si  Si15  1  0.833093  0.667920  0.004723  1
  Si  Si16  1  0.330905  0.165453  0.999112  1
  Si  Si17  1  0.166905  0.834847  0.004731  1
  Si  Si18  1  0.166902  0.332056  0.004732  1
  Si  Si19  1  0.669088  0.834545  0.999075  1
  Rh  Rh20  1  0.338566  0.669288  0.492792  1
  Rh  Rh21  1  0.661405  0.330703  0.492929  1
  Rh  Rh22  1  0.661405  0.330703  0.007071  1
  Rh  Rh23  1  0.338566  0.669288  0.007208  1
