# generated using pymatgen
data_LaGaSiIr3
_symmetry_space_group_name_H-M   'P 1'
_cell_length_a   6.79080890
_cell_length_b   6.77899675
_cell_length_c   6.79080800
_cell_angle_alpha   130.84374657
_cell_angle_beta   112.57208218
_cell_angle_gamma   87.89274856
_symmetry_Int_Tables_number   1
_chemical_formula_structural   LaGaSiIr3
_chemical_formula_sum   'La2 Ga2 Si2 Ir6'
_cell_volume   207.84900949
_cell_formula_units_Z   2
loop_
 _symmetry_equiv_pos_site_id
 _symmetry_equiv_pos_as_xyz
  1  'x, y, z'
loop_
 _atom_site_type_symbol
 _atom_site_label
 _atom_site_symmetry_multiplicity
 _atom_site_fract_x
 _atom_site_fract_y
 _atom_site_fract_z
 _atom_site_occupancy
  La  La0  1  0.250556  0.982090  0.731535  1
  La  La1  1  0.749444  0.017910  0.268465  1
  Ga  Ga2  1  0.073766  0.297745  0.223978  1
  Ga  Ga3  1  0.926234  0.702255  0.776022  1
  Si  Si4  1  0.407792  0.634495  0.226703  1
  Si  Si5  1  0.592208  0.365505  0.773297  1
  Ir  Ir6  1  0.500000  0.500000  0.500000  1
  Ir  Ir7  1  0.000000  0.500000  0.000000  1
  Ir  Ir8  1  0.283752  0.000000  0.283752  1
  Ir  Ir9  1  0.716248  0.000000  0.716248  1
  Ir  Ir10  1  0.256506  0.500000  0.756506  1
  Ir  Ir11  1  0.743494  0.500000  0.243494  1
