# generated using pymatgen
data_TbPrCdIrO7
_symmetry_space_group_name_H-M   'P 1'
_cell_length_a   6.44657135
_cell_length_b   6.66835299
_cell_length_c   7.61145800
_cell_angle_alpha   90.00000000
_cell_angle_beta   90.00000000
_cell_angle_gamma   111.40888833
_symmetry_Int_Tables_number   1
_chemical_formula_structural   TbPrCdIrO7
_chemical_formula_sum   'Tb2 Pr2 Cd2 Ir2 O14'
_cell_volume   304.62429570
_cell_formula_units_Z   2
loop_
 _symmetry_equiv_pos_site_id
 _symmetry_equiv_pos_as_xyz
  1  'x, y, z'
loop_
 _atom_site_type_symbol
 _atom_site_label
 _atom_site_symmetry_multiplicity
 _atom_site_fract_x
 _atom_site_fract_y
 _atom_site_fract_z
 _atom_site_occupancy
  Tb  Tb0  1  0.952621  0.488416  0.750000  1
  Tb  Tb1  1  0.047379  0.511584  0.250000  1
  Pr  Pr2  1  0.000000  0.000000  0.000000  1
  Pr  Pr3  1  0.000000  0.000000  0.500000  1
  Cd  Cd4  1  0.484951  0.981443  0.750000  1
  Cd  Cd5  1  0.515049  0.018557  0.250000  1
  Ir  Ir6  1  0.500000  0.500000  0.000000  1
  Ir  Ir7  1  0.500000  0.500000  0.500000  1
  O  O8  1  0.590054  0.508713  0.750000  1
  O  O9  1  0.409946  0.491287  0.250000  1
  O  O10  1  0.842413  0.126105  0.750000  1
  O  O11  1  0.157587  0.873895  0.250000  1
  O  O12  1  0.125968  0.851886  0.750000  1
  O  O13  1  0.874032  0.148114  0.250000  1
  O  O14  1  0.433508  0.196816  0.001112  1
  O  O15  1  0.566492  0.803184  0.501112  1
  O  O16  1  0.175133  0.428926  0.966935  1
  O  O17  1  0.824867  0.571074  0.466935  1
  O  O18  1  0.433508  0.196816  0.498888  1
  O  O19  1  0.566492  0.803184  0.998888  1
  O  O20  1  0.824867  0.571074  0.033065  1
  O  O21  1  0.175133  0.428926  0.533065  1
