# generated using pymatgen
data_Yb2Cr2Co10P7
_symmetry_space_group_name_H-M   'P 1'
_cell_length_a   8.96137052
_cell_length_b   8.99746006
_cell_length_c   3.58357400
_cell_angle_alpha   90.00000000
_cell_angle_beta   90.00000000
_cell_angle_gamma   119.82825284
_symmetry_Int_Tables_number   1
_chemical_formula_structural   Yb2Cr2Co10P7
_chemical_formula_sum   'Yb2 Cr2 Co10 P7'
_cell_volume   250.66308385
_cell_formula_units_Z   1
loop_
 _symmetry_equiv_pos_site_id
 _symmetry_equiv_pos_as_xyz
  1  'x, y, z'
loop_
 _atom_site_type_symbol
 _atom_site_label
 _atom_site_symmetry_multiplicity
 _atom_site_fract_x
 _atom_site_fract_y
 _atom_site_fract_z
 _atom_site_occupancy
  Yb  Yb0  1  0.666750  0.332681  0.500000  1
  Yb  Yb1  1  0.335291  0.668850  0.000000  1
  Cr  Cr2  1  0.220371  0.101704  0.500000  1
  Cr  Cr3  1  0.904384  0.121598  0.500000  1
  Co  Co4  1  0.726887  0.879735  0.000000  1
  Co  Co5  1  0.941067  0.373391  0.000000  1
  Co  Co6  1  0.157152  0.278452  0.000000  1
  Co  Co7  1  0.384596  0.437922  0.500000  1
  Co  Co8  1  0.118229  0.842204  0.000000  1
  Co  Co9  1  0.431019  0.058307  0.000000  1
  Co  Co10  1  0.049792  0.616388  0.500000  1
  Co  Co11  1  0.566118  0.950366  0.500000  1
  Co  Co12  1  0.626272  0.566076  0.000000  1
  Co  Co13  1  0.868888  0.766457  0.500000  1
  P  P14  1  0.409467  0.295603  0.000000  1
  P  P15  1  0.290371  0.887809  0.500000  1
  P  P16  1  0.703072  0.112232  0.000000  1
  P  P17  1  0.596169  0.709919  0.500000  1
  P  P18  1  0.885767  0.590450  0.000000  1
  P  P19  1  0.116124  0.409967  0.500000  1
  P  P20  1  0.002216  0.999887  0.000000  1
