# generated using pymatgen
data_NaCe(CuSe)6
_symmetry_space_group_name_H-M   'P 1'
_cell_length_a   7.87970929
_cell_length_b   7.87970808
_cell_length_c   7.87970754
_cell_angle_alpha   52.28317944
_cell_angle_beta   52.28317493
_cell_angle_gamma   52.28318579
_symmetry_Int_Tables_number   1
_chemical_formula_structural   NaCe(CuSe)6
_chemical_formula_sum   'Na1 Ce1 Cu6 Se6'
_cell_volume   283.23823428
_cell_formula_units_Z   1
loop_
 _symmetry_equiv_pos_site_id
 _symmetry_equiv_pos_as_xyz
  1  'x, y, z'
loop_
 _atom_site_type_symbol
 _atom_site_label
 _atom_site_symmetry_multiplicity
 _atom_site_fract_x
 _atom_site_fract_y
 _atom_site_fract_z
 _atom_site_occupancy
  Na  Na0  1  0.333691  0.333691  0.333691  1
  Ce  Ce1  1  0.666633  0.666633  0.666633  1
  Cu  Cu2  1  0.868677  0.533568  0.222612  1
  Cu  Cu3  1  0.533568  0.222612  0.868677  1
  Cu  Cu4  1  0.222612  0.868677  0.533568  1
  Cu  Cu5  1  0.782600  0.121344  0.470748  1
  Cu  Cu6  1  0.470748  0.782600  0.121344  1
  Cu  Cu7  1  0.121344  0.470748  0.782600  1
  Se  Se8  1  0.083027  0.760945  0.411810  1
  Se  Se9  1  0.411810  0.083027  0.760945  1
  Se  Se10  1  0.760945  0.411810  0.083027  1
  Se  Se11  1  0.241343  0.588663  0.914340  1
  Se  Se12  1  0.588663  0.914340  0.241343  1
  Se  Se13  1  0.914340  0.241343  0.588663  1
