# generated using pymatgen
data_Y2TmCo8P6Ru
_symmetry_space_group_name_H-M   'P 1'
_cell_length_a   3.70325400
_cell_length_b   10.51205300
_cell_length_c   12.24022000
_cell_angle_alpha   90.00000000
_cell_angle_beta   90.00000000
_cell_angle_gamma   90.00000000
_symmetry_Int_Tables_number   1
_chemical_formula_structural   Y2TmCo8P6Ru
_chemical_formula_sum   'Y4 Tm2 Co16 P12 Ru2'
_cell_volume   476.49710474
_cell_formula_units_Z   2
loop_
 _symmetry_equiv_pos_site_id
 _symmetry_equiv_pos_as_xyz
  1  'x, y, z'
loop_
 _atom_site_type_symbol
 _atom_site_label
 _atom_site_symmetry_multiplicity
 _atom_site_fract_x
 _atom_site_fract_y
 _atom_site_fract_z
 _atom_site_occupancy
  Y  Y0  1  0.000000  0.500000  0.525091  1
  Y  Y1  1  0.500000  0.000000  0.475919  1
  Y  Y2  1  0.500000  0.816877  0.206669  1
  Y  Y3  1  0.500000  0.183123  0.206669  1
  Tm  Tm4  1  0.000000  0.682391  0.793093  1
  Tm  Tm5  1  0.000000  0.317609  0.793093  1
  Co  Co6  1  0.500000  0.500000  0.705239  1
  Co  Co7  1  0.000000  0.000000  0.295493  1
  Co  Co8  1  0.000000  0.500000  0.985128  1
  Co  Co9  1  0.500000  0.000000  0.012347  1
  Co  Co10  1  0.500000  0.332814  0.989391  1
  Co  Co11  1  0.500000  0.667186  0.989391  1
  Co  Co12  1  0.000000  0.168186  0.008293  1
  Co  Co13  1  0.000000  0.831814  0.008293  1
  Co  Co14  1  0.500000  0.297441  0.432057  1
  Co  Co15  1  0.500000  0.702559  0.432057  1
  Co  Co16  1  0.000000  0.203019  0.570025  1
  Co  Co17  1  0.000000  0.796981  0.570025  1
  Co  Co18  1  0.500000  0.878453  0.708614  1
  Co  Co19  1  0.500000  0.121547  0.708614  1
  Co  Co20  1  0.000000  0.620591  0.292480  1
  Co  Co21  1  0.000000  0.379409  0.292480  1
  P  P22  1  0.500000  0.500000  0.881065  1
  P  P23  1  0.000000  0.000000  0.116961  1
  P  P24  1  0.500000  0.500000  0.349968  1
  P  P25  1  0.000000  0.000000  0.650456  1
  P  P26  1  0.500000  0.311587  0.617866  1
  P  P27  1  0.500000  0.688413  0.617866  1
  P  P28  1  0.000000  0.188930  0.384366  1
  P  P29  1  0.000000  0.811070  0.384366  1
  P  P30  1  0.500000  0.845515  0.892418  1
  P  P31  1  0.500000  0.154485  0.892418  1
  P  P32  1  0.000000  0.652862  0.106104  1
  P  P33  1  0.000000  0.347138  0.106104  1
  Ru  Ru34  1  0.500000  0.500000  0.159024  1
  Ru  Ru35  1  0.000000  0.000000  0.840559  1
