# generated using pymatgen
data_Tb3Er3(Zn3C)2
_symmetry_space_group_name_H-M   'P 1'
_cell_length_a   9.16579994
_cell_length_b   9.16580086
_cell_length_c   9.16580100
_cell_angle_alpha   59.99999590
_cell_angle_beta   59.99999257
_cell_angle_gamma   60.00000046
_symmetry_Int_Tables_number   1
_chemical_formula_structural   Tb3Er3(Zn3C)2
_chemical_formula_sum   'Tb6 Er6 Zn12 C4'
_cell_volume   544.49786482
_cell_formula_units_Z   2
loop_
 _symmetry_equiv_pos_site_id
 _symmetry_equiv_pos_as_xyz
  1  'x, y, z'
loop_
 _atom_site_type_symbol
 _atom_site_label
 _atom_site_symmetry_multiplicity
 _atom_site_fract_x
 _atom_site_fract_y
 _atom_site_fract_z
 _atom_site_occupancy
  Tb  Tb0  1  0.447682  0.447682  0.052318  1
  Tb  Tb1  1  0.052318  0.447682  0.052318  1
  Tb  Tb2  1  0.447682  0.052318  0.052318  1
  Tb  Tb3  1  0.052318  0.052318  0.447682  1
  Tb  Tb4  1  0.447682  0.052318  0.447682  1
  Tb  Tb5  1  0.052318  0.447682  0.447682  1
  Er  Er6  1  0.803680  0.803680  0.196320  1
  Er  Er7  1  0.196320  0.803680  0.196320  1
  Er  Er8  1  0.803680  0.196320  0.196320  1
  Er  Er9  1  0.196320  0.196320  0.803680  1
  Er  Er10  1  0.803680  0.196320  0.803680  1
  Er  Er11  1  0.196320  0.803680  0.803680  1
  Zn  Zn12  1  0.826747  0.826747  0.519758  1
  Zn  Zn13  1  0.826747  0.519758  0.826747  1
  Zn  Zn14  1  0.519758  0.826747  0.826747  1
  Zn  Zn15  1  0.826747  0.826747  0.826747  1
  Zn  Zn16  1  0.423751  0.423751  0.728750  1
  Zn  Zn17  1  0.423751  0.728750  0.423751  1
  Zn  Zn18  1  0.728750  0.423751  0.423751  1
  Zn  Zn19  1  0.423751  0.423751  0.423751  1
  Zn  Zn20  1  0.624996  0.624996  0.125013  1
  Zn  Zn21  1  0.624996  0.125013  0.624996  1
  Zn  Zn22  1  0.125013  0.624996  0.624996  1
  Zn  Zn23  1  0.624996  0.624996  0.624996  1
  C  C24  1  0.122135  0.122135  0.633595  1
  C  C25  1  0.122135  0.633595  0.122135  1
  C  C26  1  0.633595  0.122135  0.122135  1
  C  C27  1  0.122135  0.122135  0.122135  1
