# generated using pymatgen
data_La2Y2Ho16Si15Pd
_symmetry_space_group_name_H-M   'P 1'
_cell_length_a   7.41371055
_cell_length_b   7.75374335
_cell_length_c   14.63049324
_cell_angle_alpha   89.61103391
_cell_angle_beta   89.96438285
_cell_angle_gamma   89.91409026
_symmetry_Int_Tables_number   1
_chemical_formula_structural   La2Y2Ho16Si15Pd
_chemical_formula_sum   'La2 Y2 Ho16 Si15 Pd1'
_cell_volume   840.99891990
_cell_formula_units_Z   1
loop_
 _symmetry_equiv_pos_site_id
 _symmetry_equiv_pos_as_xyz
  1  'x, y, z'
loop_
 _atom_site_type_symbol
 _atom_site_label
 _atom_site_symmetry_multiplicity
 _atom_site_fract_x
 _atom_site_fract_y
 _atom_site_fract_z
 _atom_site_occupancy
  La  La0  1  0.522501  0.571275  0.341782  1
  La  La1  1  0.022897  0.428287  0.657325  1
  Y  Y2  1  0.527004  0.566628  0.652549  1
  Y  Y3  1  0.027550  0.433703  0.347411  1
  Ho  Ho4  1  0.810815  0.576539  0.875231  1
  Ho  Ho5  1  0.315650  0.423483  0.125450  1
  Ho  Ho6  1  0.182179  0.928179  0.373223  1
  Ho  Ho7  1  0.682216  0.069804  0.626965  1
  Ho  Ho8  1  0.182573  0.928084  0.628328  1
  Ho  Ho9  1  0.682622  0.070792  0.371381  1
  Ho  Ho10  1  0.815616  0.572320  0.125947  1
  Ho  Ho11  1  0.319144  0.427812  0.873503  1
  Ho  Ho12  1  0.644337  0.231803  0.999288  1
  Ho  Ho13  1  0.156042  0.759507  0.000821  1
  Ho  Ho14  1  0.351459  0.262983  0.499992  1
  Ho  Ho15  1  0.850151  0.736080  0.499829  1
  Ho  Ho16  1  0.475080  0.933543  0.845820  1
  Ho  Ho17  1  0.973299  0.066189  0.152416  1
  Ho  Ho18  1  0.473079  0.934799  0.153134  1
  Ho  Ho19  1  0.971693  0.066487  0.848842  1
  Si  Si20  1  0.018117  0.352087  0.000066  1
  Si  Si21  1  0.477107  0.860330  0.501172  1
  Si  Si22  1  0.978001  0.139264  0.498998  1
  Si  Si23  1  0.650589  0.276769  0.791085  1
  Si  Si24  1  0.151952  0.722137  0.208735  1
  Si  Si25  1  0.351243  0.215136  0.287912  1
  Si  Si26  1  0.851173  0.784651  0.712858  1
  Si  Si27  1  0.361087  0.218972  0.710431  1
  Si  Si28  1  0.860479  0.781489  0.288747  1
  Si  Si29  1  0.646456  0.269635  0.205940  1
  Si  Si30  1  0.147439  0.728285  0.793678  1
  Si  Si31  1  0.773961  0.881540  0.000832  1
  Si  Si32  1  0.260078  0.124019  0.999536  1
  Si  Si33  1  0.233670  0.627655  0.501857  1
  Si  Si34  1  0.732890  0.373045  0.498439  1
  Pd  Pd35  1  0.519851  0.656687  0.000477  1
