# generated using pymatgen
data_Ba4GdPdO8
_symmetry_space_group_name_H-M   'P 1'
_cell_length_a   7.40163722
_cell_length_b   7.40163482
_cell_length_c   6.00164500
_cell_angle_alpha   90.00000000
_cell_angle_beta   90.00000000
_cell_angle_gamma   132.12859373
_symmetry_Int_Tables_number   1
_chemical_formula_structural   Ba4GdPdO8
_chemical_formula_sum   'Ba4 Gd1 Pd1 O8'
_cell_volume   243.84821575
_cell_formula_units_Z   1
loop_
 _symmetry_equiv_pos_site_id
 _symmetry_equiv_pos_as_xyz
  1  'x, y, z'
loop_
 _atom_site_type_symbol
 _atom_site_label
 _atom_site_symmetry_multiplicity
 _atom_site_fract_x
 _atom_site_fract_y
 _atom_site_fract_z
 _atom_site_occupancy
  Ba  Ba0  1  0.358004  0.641996  0.000000  1
  Ba  Ba1  1  0.854444  0.145556  0.500000  1
  Ba  Ba2  1  0.145556  0.854444  0.500000  1
  Ba  Ba3  1  0.641996  0.358004  0.000000  1
  Gd  Gd4  1  0.000000  0.000000  0.000000  1
  Pd  Pd5  1  0.500000  0.500000  0.500000  1
  O  O6  1  0.260521  0.260521  0.736844  1
  O  O7  1  0.739479  0.739479  0.263156  1
  O  O8  1  0.739479  0.739479  0.736844  1
  O  O9  1  0.260521  0.260521  0.263156  1
  O  O10  1  0.165574  0.834426  0.000000  1
  O  O11  1  0.655023  0.344977  0.500000  1
  O  O12  1  0.344977  0.655023  0.500000  1
  O  O13  1  0.834426  0.165574  0.000000  1
