# generated using pymatgen
data_Ga2SnSb16
_symmetry_space_group_name_H-M   'P 1'
_cell_length_a   4.42589406
_cell_length_b   4.42391319
_cell_length_c   34.26088600
_cell_angle_alpha   86.18613710
_cell_angle_beta   93.70337081
_cell_angle_gamma   120.01480505
_symmetry_Int_Tables_number   1
_chemical_formula_structural   Ga2SnSb16
_chemical_formula_sum   'Ga2 Sn1 Sb16'
_cell_volume   579.19346066
_cell_formula_units_Z   1
loop_
 _symmetry_equiv_pos_site_id
 _symmetry_equiv_pos_as_xyz
  1  'x, y, z'
loop_
 _atom_site_type_symbol
 _atom_site_label
 _atom_site_symmetry_multiplicity
 _atom_site_fract_x
 _atom_site_fract_y
 _atom_site_fract_z
 _atom_site_occupancy
  Ga  Ga0  1  0.999764  0.999630  0.004580  1
  Ga  Ga1  1  0.356635  0.638562  0.087576  1
  Sn  Sn2  1  0.637191  0.363545  0.912283  1
  Sb  Sb3  1  0.680727  0.316268  0.055937  1
  Sb  Sb4  1  0.056886  0.949583  0.149092  1
  Sb  Sb5  1  0.734218  0.268856  0.194214  1
  Sb  Sb6  1  0.423864  0.579990  0.258871  1
  Sb  Sb7  1  0.103190  0.898541  0.302728  1
  Sb  Sb8  1  0.791665  0.210633  0.368207  1
  Sb  Sb9  1  0.471324  0.529297  0.411818  1
  Sb  Sb10  1  0.160697  0.840823  0.477350  1
  Sb  Sb11  1  0.840297  0.159383  0.520721  1
  Sb  Sb12  1  0.529449  0.470723  0.586143  1
  Sb  Sb13  1  0.209346  0.789132  0.629579  1
  Sb  Sb14  1  0.897901  0.100973  0.694916  1
  Sb  Sb15  1  0.577642  0.419143  0.738473  1
  Sb  Sb16  1  0.266403  0.732225  0.803836  1
  Sb  Sb17  1  0.945724  0.050815  0.847884  1
  Sb  Sb18  1  0.317065  0.681874  0.955791  1
