# generated using pymatgen
data_Ho3Fe2Co6P6W
_symmetry_space_group_name_H-M   'P 1'
_cell_length_a   3.72442600
_cell_length_b   10.55034600
_cell_length_c   12.19660800
_cell_angle_alpha   90.00000000
_cell_angle_beta   90.00000000
_cell_angle_gamma   90.00000000
_symmetry_Int_Tables_number   1
_chemical_formula_structural   Ho3Fe2Co6P6W
_chemical_formula_sum   'Ho6 Fe4 Co12 P12 W2'
_cell_volume   479.25330682
_cell_formula_units_Z   2
loop_
 _symmetry_equiv_pos_site_id
 _symmetry_equiv_pos_as_xyz
  1  'x, y, z'
loop_
 _atom_site_type_symbol
 _atom_site_label
 _atom_site_symmetry_multiplicity
 _atom_site_fract_x
 _atom_site_fract_y
 _atom_site_fract_z
 _atom_site_occupancy
  Ho  Ho0  1  0.000000  0.500000  0.525006  1
  Ho  Ho1  1  0.500000  0.000000  0.475065  1
  Ho  Ho2  1  0.500000  0.820358  0.204427  1
  Ho  Ho3  1  0.500000  0.179642  0.204427  1
  Ho  Ho4  1  0.000000  0.679855  0.795773  1
  Ho  Ho5  1  0.000000  0.320145  0.795773  1
  Fe  Fe6  1  0.000000  0.500000  0.987304  1
  Fe  Fe7  1  0.500000  0.000000  0.012761  1
  Fe  Fe8  1  0.500000  0.296101  0.430830  1
  Fe  Fe9  1  0.500000  0.703899  0.430830  1
  Co  Co10  1  0.000000  0.203528  0.570203  1
  Co  Co11  1  0.000000  0.796472  0.570203  1
  Co  Co12  1  0.500000  0.878536  0.707393  1
  Co  Co13  1  0.500000  0.121464  0.707393  1
  Co  Co14  1  0.000000  0.621336  0.292172  1
  Co  Co15  1  0.000000  0.378664  0.292172  1
  Co  Co16  1  0.500000  0.331282  0.991321  1
  Co  Co17  1  0.500000  0.668718  0.991321  1
  Co  Co18  1  0.000000  0.168891  0.008465  1
  Co  Co19  1  0.000000  0.831109  0.008465  1
  Co  Co20  1  0.500000  0.500000  0.699462  1
  Co  Co21  1  0.000000  0.000000  0.300739  1
  P  P22  1  0.500000  0.309546  0.614503  1
  P  P23  1  0.500000  0.690454  0.614503  1
  P  P24  1  0.000000  0.191933  0.384983  1
  P  P25  1  0.000000  0.808067  0.384983  1
  P  P26  1  0.500000  0.500000  0.882462  1
  P  P27  1  0.000000  0.000000  0.117696  1
  P  P28  1  0.500000  0.844682  0.893287  1
  P  P29  1  0.500000  0.155318  0.893287  1
  P  P30  1  0.000000  0.655395  0.106620  1
  P  P31  1  0.000000  0.344605  0.106620  1
  P  P32  1  0.500000  0.500000  0.351069  1
  P  P33  1  0.000000  0.000000  0.649493  1
  W  W34  1  0.500000  0.500000  0.154097  1
  W  W35  1  0.000000  0.000000  0.844894  1
