# generated using pymatgen
data_Ce2Al5SiPd2
_symmetry_space_group_name_H-M   'P 1'
_cell_length_a   6.07762202
_cell_length_b   6.07762303
_cell_length_c   5.87839800
_cell_angle_alpha   90.00000000
_cell_angle_beta   90.00000000
_cell_angle_gamma   117.12539489
_symmetry_Int_Tables_number   1
_chemical_formula_structural   Ce2Al5SiPd2
_chemical_formula_sum   'Ce2 Al5 Si1 Pd2'
_cell_volume   193.25098381
_cell_formula_units_Z   1
loop_
 _symmetry_equiv_pos_site_id
 _symmetry_equiv_pos_as_xyz
  1  'x, y, z'
loop_
 _atom_site_type_symbol
 _atom_site_label
 _atom_site_symmetry_multiplicity
 _atom_site_fract_x
 _atom_site_fract_y
 _atom_site_fract_z
 _atom_site_occupancy
  Ce  Ce0  1  0.239190  0.760810  0.750000  1
  Ce  Ce1  1  0.763912  0.236088  0.250000  1
  Al  Al2  1  0.666166  0.333834  0.750000  1
  Al  Al3  1  0.715964  0.719588  0.003533  1
  Al  Al4  1  0.715964  0.719588  0.496467  1
  Al  Al5  1  0.280412  0.284036  0.003533  1
  Al  Al6  1  0.280412  0.284036  0.496467  1
  Si  Si7  1  0.334223  0.665777  0.250000  1
  Pd  Pd8  1  0.903213  0.096787  0.750000  1
  Pd  Pd9  1  0.100544  0.899456  0.250000  1
