# generated using pymatgen
data_Pm4Pd3PtO12
_symmetry_space_group_name_H-M   'P 1'
_cell_length_a   6.04689867
_cell_length_b   6.23549546
_cell_length_c   7.41723302
_cell_angle_alpha   90.13392963
_cell_angle_beta   89.91528695
_cell_angle_gamma   105.24489923
_symmetry_Int_Tables_number   1
_chemical_formula_structural   Pm4Pd3PtO12
_chemical_formula_sum   'Pm4 Pd3 Pt1 O12'
_cell_volume   269.82758593
_cell_formula_units_Z   1
loop_
 _symmetry_equiv_pos_site_id
 _symmetry_equiv_pos_as_xyz
  1  'x, y, z'
loop_
 _atom_site_type_symbol
 _atom_site_label
 _atom_site_symmetry_multiplicity
 _atom_site_fract_x
 _atom_site_fract_y
 _atom_site_fract_z
 _atom_site_occupancy
  Pm  Pm0  1  0.048472  0.058966  0.250599  1
  Pm  Pm1  1  0.526343  0.587158  0.250791  1
  Pm  Pm2  1  0.473659  0.412841  0.749210  1
  Pm  Pm3  1  0.951528  0.941035  0.749402  1
  Pd  Pd4  1  0.000000  0.499999  0.000000  1
  Pd  Pd5  1  0.500000  0.000000  0.500000  1
  Pd  Pd6  1  0.000000  0.499999  0.500000  1
  Pt  Pt7  1  0.500000  0.000000  0.000000  1
  O  O8  1  0.655960  0.338200  0.043969  1
  O  O9  1  0.770156  0.866764  0.051751  1
  O  O10  1  0.113615  0.432626  0.249661  1
  O  O11  1  0.369816  0.919345  0.249395  1
  O  O12  1  0.659066  0.341116  0.455872  1
  O  O13  1  0.769245  0.865985  0.449058  1
  O  O14  1  0.230755  0.134014  0.550942  1
  O  O15  1  0.340934  0.658883  0.544128  1
  O  O16  1  0.630184  0.080656  0.750606  1
  O  O17  1  0.886385  0.567375  0.750340  1
  O  O18  1  0.229844  0.133235  0.948249  1
  O  O19  1  0.344040  0.661799  0.956031  1
