# generated using pymatgen
data_TbAl5Cu6
_symmetry_space_group_name_H-M   'P 1'
_cell_length_a   10.31615531
_cell_length_b   8.17013976
_cell_length_c   7.82700278
_cell_angle_alpha   80.28133443
_cell_angle_beta   51.31638883
_cell_angle_gamma   48.40228042
_symmetry_Int_Tables_number   1
_chemical_formula_structural   TbAl5Cu6
_chemical_formula_sum   'Tb2 Al10 Cu12'
_cell_volume   349.19621938
_cell_formula_units_Z   2
loop_
 _symmetry_equiv_pos_site_id
 _symmetry_equiv_pos_as_xyz
  1  'x, y, z'
loop_
 _atom_site_type_symbol
 _atom_site_label
 _atom_site_symmetry_multiplicity
 _atom_site_fract_x
 _atom_site_fract_y
 _atom_site_fract_z
 _atom_site_occupancy
  Tb  Tb0  1  0.000000  0.000000  0.000000  1
  Tb  Tb1  1  0.250000  0.250000  0.250000  1
  Al  Al2  1  0.500000  0.500000  0.500000  1
  Al  Al3  1  0.750000  0.750000  0.750000  1
  Al  Al4  1  0.754615  0.071300  0.835776  1
  Al  Al5  1  0.835776  0.338309  0.754615  1
  Al  Al6  1  0.071300  0.754615  0.338309  1
  Al  Al7  1  0.338309  0.835776  0.071300  1
  Al  Al8  1  0.495385  0.178700  0.414224  1
  Al  Al9  1  0.414224  0.911691  0.495385  1
  Al  Al10  1  0.178700  0.495385  0.911691  1
  Al  Al11  1  0.911691  0.414224  0.178700  1
  Cu  Cu12  1  0.625000  0.125000  0.625000  1
  Cu  Cu13  1  0.625000  0.625000  0.625000  1
  Cu  Cu14  1  0.125000  0.625000  0.625000  1
  Cu  Cu15  1  0.625000  0.625000  0.125000  1
  Cu  Cu16  1  0.491288  0.434824  0.183254  1
  Cu  Cu17  1  0.183254  0.890633  0.491288  1
  Cu  Cu18  1  0.434824  0.491288  0.890633  1
  Cu  Cu19  1  0.890633  0.183254  0.434824  1
  Cu  Cu20  1  0.758712  0.815176  0.066746  1
  Cu  Cu21  1  0.066746  0.359367  0.758712  1
  Cu  Cu22  1  0.815176  0.758712  0.359367  1
  Cu  Cu23  1  0.359367  0.066746  0.815176  1
