# generated using pymatgen
data_Ho2LuPa(Al8Pt3)3
_symmetry_space_group_name_H-M   'P 1'
_cell_length_a   7.54645183
_cell_length_b   7.55595542
_cell_length_c   13.12505412
_cell_angle_alpha   84.51105065
_cell_angle_beta   78.94618198
_cell_angle_gamma   59.93436298
_symmetry_Int_Tables_number   1
_chemical_formula_structural   Ho2LuPa(Al8Pt3)3
_chemical_formula_sum   'Ho2 Lu1 Pa1 Al24 Pt9'
_cell_volume   635.68701060
_cell_formula_units_Z   1
loop_
 _symmetry_equiv_pos_site_id
 _symmetry_equiv_pos_as_xyz
  1  'x, y, z'
loop_
 _atom_site_type_symbol
 _atom_site_label
 _atom_site_symmetry_multiplicity
 _atom_site_fract_x
 _atom_site_fract_y
 _atom_site_fract_z
 _atom_site_occupancy
  Ho  Ho0  1  0.606076  0.831335  0.192310  1
  Ho  Ho1  1  0.733623  0.498767  0.807938  1
  Lu  Lu2  1  0.265906  0.501307  0.193563  1
  Pa  Pa3  1  0.395119  0.168457  0.805131  1
  Al  Al4  1  0.684280  0.833340  0.944685  1
  Al  Al5  1  0.315402  0.167150  0.056398  1
  Al  Al6  1  0.146712  0.832595  0.560872  1
  Al  Al7  1  0.854639  0.167311  0.437523  1
  Al  Al8  1  0.480704  0.166676  0.557932  1
  Al  Al9  1  0.519981  0.832143  0.440782  1
  Al  Al10  1  0.217683  0.165878  0.329119  1
  Al  Al11  1  0.785244  0.832413  0.669930  1
  Al  Al12  1  0.437142  0.509136  0.670326  1
  Al  Al13  1  0.562498  0.493231  0.328486  1
  Al  Al14  1  0.107845  0.159354  0.668594  1
  Al  Al15  1  0.890849  0.839784  0.329746  1
  Al  Al16  1  0.352466  0.499953  0.945110  1
  Al  Al17  1  0.645760  0.500664  0.056796  1
  Al  Al18  1  0.015031  0.167825  0.953357  1
  Al  Al19  1  0.984454  0.831607  0.048841  1
  Al  Al20  1  0.185711  0.500520  0.440822  1
  Al  Al21  1  0.813705  0.500418  0.558238  1
  Al  Al22  1  0.733496  0.164600  0.183376  1
  Al  Al23  1  0.263866  0.837718  0.817457  1
  Al  Al24  1  0.062921  0.631416  0.816174  1
  Al  Al25  1  0.939381  0.368848  0.184451  1
  Al  Al26  1  0.855776  0.039878  0.816834  1
  Al  Al27  1  0.144720  0.957483  0.183815  1
  Pt  Pt28  1  0.120073  0.490859  0.640254  1
  Pt  Pt29  1  0.880592  0.508535  0.360584  1
  Pt  Pt30  1  0.656652  0.172027  0.999374  1
  Pt  Pt31  1  0.343455  0.828007  0.999803  1
  Pt  Pt32  1  0.536701  0.167184  0.361199  1
  Pt  Pt33  1  0.462406  0.833579  0.639878  1
  Pt  Pt34  1  0.777954  0.175490  0.638613  1
  Pt  Pt35  1  0.221482  0.824182  0.362095  1
  Pt  Pt36  1  0.999696  0.500326  0.999596  1
