# generated using pymatgen
data_Lu4TaB12Ir
_symmetry_space_group_name_H-M   'P 1'
_cell_length_a   3.58590200
_cell_length_b   9.15006015
_cell_length_c   11.55884427
_cell_angle_alpha   90.36418103
_cell_angle_beta   90.00000000
_cell_angle_gamma   90.00000000
_symmetry_Int_Tables_number   1
_chemical_formula_structural   Lu4TaB12Ir
_chemical_formula_sum   'Lu8 Ta2 B24 Ir2'
_cell_volume   379.25210964
_cell_formula_units_Z   2
loop_
 _symmetry_equiv_pos_site_id
 _symmetry_equiv_pos_as_xyz
  1  'x, y, z'
loop_
 _atom_site_type_symbol
 _atom_site_label
 _atom_site_symmetry_multiplicity
 _atom_site_fract_x
 _atom_site_fract_y
 _atom_site_fract_z
 _atom_site_occupancy
  Lu  Lu0  1  0.000000  0.317209  0.412371  1
  Lu  Lu1  1  0.000000  0.682791  0.587629  1
  Lu  Lu2  1  0.000000  0.822216  0.084398  1
  Lu  Lu3  1  0.000000  0.177784  0.915602  1
  Lu  Lu4  1  0.000000  0.943691  0.374196  1
  Lu  Lu5  1  0.000000  0.056309  0.625804  1
  Lu  Lu6  1  0.000000  0.445531  0.126461  1
  Lu  Lu7  1  0.000000  0.554469  0.873539  1
  Ta  Ta8  1  0.000000  0.139860  0.181819  1
  Ta  Ta9  1  0.000000  0.860140  0.818181  1
  B  B10  1  0.500000  0.553978  0.434488  1
  B  B11  1  0.500000  0.446022  0.565512  1
  B  B12  1  0.500000  0.050373  0.064718  1
  B  B13  1  0.500000  0.949627  0.935282  1
  B  B14  1  0.500000  0.750420  0.421167  1
  B  B15  1  0.500000  0.249580  0.578833  1
  B  B16  1  0.500000  0.252696  0.076758  1
  B  B17  1  0.500000  0.747304  0.923242  1
  B  B18  1  0.500000  0.791306  0.265392  1
  B  B19  1  0.500000  0.208694  0.734608  1
  B  B20  1  0.500000  0.299548  0.237580  1
  B  B21  1  0.500000  0.700452  0.762420  1
  B  B22  1  0.500000  0.631292  0.184481  1
  B  B23  1  0.500000  0.368708  0.815519  1
  B  B24  1  0.500000  0.132024  0.320239  1
  B  B25  1  0.500000  0.867976  0.679761  1
  B  B26  1  0.500000  0.974064  0.214141  1
  B  B27  1  0.500000  0.025936  0.785859  1
  B  B28  1  0.500000  0.482331  0.287793  1
  B  B29  1  0.500000  0.517669  0.712207  1
  B  B30  1  0.500000  0.604113  0.030129  1
  B  B31  1  0.500000  0.395887  0.969871  1
  B  B32  1  0.500000  0.105554  0.472697  1
  B  B33  1  0.500000  0.894446  0.527303  1
  Ir  Ir34  1  0.000000  0.637578  0.322660  1
  Ir  Ir35  1  0.000000  0.362422  0.677340  1
