# generated using pymatgen
data_Yb2ScAl3Ge2Pt
_symmetry_space_group_name_H-M   'P 1'
_cell_length_a   6.87260500
_cell_length_b   6.87768206
_cell_length_c   4.22310500
_cell_angle_alpha   90.00000000
_cell_angle_beta   90.00000000
_cell_angle_gamma   119.97558855
_symmetry_Int_Tables_number   1
_chemical_formula_structural   Yb2ScAl3Ge2Pt
_chemical_formula_sum   'Yb2 Sc1 Al3 Ge2 Pt1'
_cell_volume   172.91503963
_cell_formula_units_Z   1
loop_
 _symmetry_equiv_pos_site_id
 _symmetry_equiv_pos_as_xyz
  1  'x, y, z'
loop_
 _atom_site_type_symbol
 _atom_site_label
 _atom_site_symmetry_multiplicity
 _atom_site_fract_x
 _atom_site_fract_y
 _atom_site_fract_z
 _atom_site_occupancy
  Yb  Yb0  1  0.998086  0.423699  0.000000  1
  Yb  Yb1  1  0.574388  0.576301  0.000000  1
  Sc  Sc2  1  0.418653  0.000000  0.000000  1
  Al  Al3  1  0.763776  0.000000  0.500000  1
  Al  Al4  1  0.235044  0.231327  0.500000  1
  Al  Al5  1  0.003718  0.768673  0.500000  1
  Ge  Ge6  1  0.657644  0.320595  0.500000  1
  Ge  Ge7  1  0.337050  0.679405  0.500000  1
  Pt  Pt8  1  0.011640  0.000000  0.000000  1
