# generated using pymatgen
data_Nd2Er4TaMoO14
_symmetry_space_group_name_H-M   'P 1'
_cell_length_a   6.45824956
_cell_length_b   6.45824930
_cell_length_c   7.57087382
_cell_angle_alpha   89.78260093
_cell_angle_beta   90.21739872
_cell_angle_gamma   109.18172720
_symmetry_Int_Tables_number   1
_chemical_formula_structural   Nd2Er4TaMoO14
_chemical_formula_sum   'Nd2 Er4 Ta1 Mo1 O14'
_cell_volume   298.23887363
_cell_formula_units_Z   1
loop_
 _symmetry_equiv_pos_site_id
 _symmetry_equiv_pos_as_xyz
  1  'x, y, z'
loop_
 _atom_site_type_symbol
 _atom_site_label
 _atom_site_symmetry_multiplicity
 _atom_site_fract_x
 _atom_site_fract_y
 _atom_site_fract_z
 _atom_site_occupancy
  Nd  Nd0  1  0.500000  0.500000  0.500000  1
  Nd  Nd1  1  0.500000  0.500000  0.000000  1
  Er  Er2  1  0.001278  0.533955  0.248941  1
  Er  Er3  1  0.998722  0.466045  0.751059  1
  Er  Er4  1  0.533955  0.001278  0.751059  1
  Er  Er5  1  0.466045  0.998722  0.248941  1
  Ta  Ta6  1  0.000000  0.000000  0.000000  1
  Mo  Mo7  1  0.000000  0.000000  0.500000  1
  O  O8  1  0.931608  0.068392  0.750771  1
  O  O9  1  0.068392  0.931608  0.249229  1
  O  O10  1  0.356538  0.643462  0.250317  1
  O  O11  1  0.643462  0.356538  0.749683  1
  O  O12  1  0.361807  0.638193  0.749903  1
  O  O13  1  0.638193  0.361807  0.250097  1
  O  O14  1  0.322215  0.069509  0.967201  1
  O  O15  1  0.677986  0.929024  0.470088  1
  O  O16  1  0.322014  0.070976  0.529912  1
  O  O17  1  0.677785  0.930491  0.032799  1
  O  O18  1  0.070976  0.322014  0.470088  1
  O  O19  1  0.930491  0.677785  0.967201  1
  O  O20  1  0.929024  0.677986  0.529912  1
  O  O21  1  0.069509  0.322215  0.032799  1
