# generated using pymatgen
data_Ac3Pa(GePd)4
_symmetry_space_group_name_H-M   'P 1'
_cell_length_a   4.60595300
_cell_length_b   8.01872900
_cell_length_c   14.72239200
_cell_angle_alpha   90.00000000
_cell_angle_beta   90.00000000
_cell_angle_gamma   90.00000000
_symmetry_Int_Tables_number   1
_chemical_formula_structural   Ac3Pa(GePd)4
_chemical_formula_sum   'Ac6 Pa2 Ge8 Pd8'
_cell_volume   543.75519038
_cell_formula_units_Z   2
loop_
 _symmetry_equiv_pos_site_id
 _symmetry_equiv_pos_as_xyz
  1  'x, y, z'
loop_
 _atom_site_type_symbol
 _atom_site_label
 _atom_site_symmetry_multiplicity
 _atom_site_fract_x
 _atom_site_fract_y
 _atom_site_fract_z
 _atom_site_occupancy
  Ac  Ac0  1  0.000000  0.279446  0.500000  1
  Ac  Ac1  1  0.500000  0.720554  0.000000  1
  Ac  Ac2  1  0.000000  0.225959  0.248012  1
  Ac  Ac3  1  0.500000  0.774041  0.251988  1
  Ac  Ac4  1  0.000000  0.225959  0.751988  1
  Ac  Ac5  1  0.500000  0.774041  0.748012  1
  Pa  Pa6  1  0.000000  0.291327  0.000000  1
  Pa  Pa7  1  0.500000  0.708673  0.500000  1
  Ge  Ge8  1  0.000000  0.906548  0.592062  1
  Ge  Ge9  1  0.500000  0.093452  0.907938  1
  Ge  Ge10  1  0.000000  0.906548  0.407938  1
  Ge  Ge11  1  0.500000  0.093452  0.092062  1
  Ge  Ge12  1  0.000000  0.582267  0.133673  1
  Ge  Ge13  1  0.500000  0.417733  0.366327  1
  Ge  Ge14  1  0.000000  0.582267  0.866327  1
  Ge  Ge15  1  0.500000  0.417733  0.633673  1
  Pd  Pd16  1  0.500000  0.067365  0.608348  1
  Pd  Pd17  1  0.000000  0.932635  0.891652  1
  Pd  Pd18  1  0.500000  0.067365  0.391652  1
  Pd  Pd19  1  0.000000  0.932635  0.108348  1
  Pd  Pd20  1  0.500000  0.410648  0.133874  1
  Pd  Pd21  1  0.000000  0.589352  0.366126  1
  Pd  Pd22  1  0.500000  0.410648  0.866126  1
  Pd  Pd23  1  0.000000  0.589352  0.633874  1
