# generated using pymatgen
data_DyY3AlPt
_symmetry_space_group_name_H-M   'P 1'
_cell_length_a   9.62694791
_cell_length_b   9.62694725
_cell_length_c   9.62694900
_cell_angle_alpha   60.00000429
_cell_angle_beta   60.00000656
_cell_angle_gamma   60.00000608
_symmetry_Int_Tables_number   1
_chemical_formula_structural   DyY3AlPt
_chemical_formula_sum   'Dy4 Y12 Al4 Pt4'
_cell_volume   630.88607651
_cell_formula_units_Z   4
loop_
 _symmetry_equiv_pos_site_id
 _symmetry_equiv_pos_as_xyz
  1  'x, y, z'
loop_
 _atom_site_type_symbol
 _atom_site_label
 _atom_site_symmetry_multiplicity
 _atom_site_fract_x
 _atom_site_fract_y
 _atom_site_fract_z
 _atom_site_occupancy
  Dy  Dy0  1  0.353839  0.353839  0.353839  1
  Dy  Dy1  1  0.353839  0.353839  0.938481  1
  Dy  Dy2  1  0.353839  0.938481  0.353839  1
  Dy  Dy3  1  0.938481  0.353839  0.353839  1
  Y  Y4  1  0.806678  0.193322  0.193322  1
  Y  Y5  1  0.193322  0.806678  0.806678  1
  Y  Y6  1  0.193322  0.806678  0.193322  1
  Y  Y7  1  0.806678  0.193322  0.806678  1
  Y  Y8  1  0.193322  0.193322  0.806678  1
  Y  Y9  1  0.806678  0.806678  0.193322  1
  Y  Y10  1  0.936384  0.563616  0.563616  1
  Y  Y11  1  0.563616  0.936384  0.936384  1
  Y  Y12  1  0.563616  0.936384  0.563616  1
  Y  Y13  1  0.936384  0.563616  0.936384  1
  Y  Y14  1  0.563616  0.563616  0.936384  1
  Y  Y15  1  0.936384  0.936384  0.563616  1
  Al  Al16  1  0.578065  0.578065  0.578065  1
  Al  Al17  1  0.578065  0.578065  0.265806  1
  Al  Al18  1  0.578065  0.265806  0.578065  1
  Al  Al19  1  0.265806  0.578065  0.578065  1
  Pt  Pt20  1  0.143835  0.143835  0.143835  1
  Pt  Pt21  1  0.143835  0.143835  0.568494  1
  Pt  Pt22  1  0.143835  0.568494  0.143835  1
  Pt  Pt23  1  0.568494  0.143835  0.143835  1
