# generated using pymatgen
data_Sm3Co4P6Rh5
_symmetry_space_group_name_H-M   'P 1'
_cell_length_a   3.82317200
_cell_length_b   10.98248600
_cell_length_c   12.67090000
_cell_angle_alpha   90.00000000
_cell_angle_beta   90.00000000
_cell_angle_gamma   90.00000000
_symmetry_Int_Tables_number   1
_chemical_formula_structural   Sm3Co4P6Rh5
_chemical_formula_sum   'Sm6 Co8 P12 Rh10'
_cell_volume   532.02489981
_cell_formula_units_Z   2
loop_
 _symmetry_equiv_pos_site_id
 _symmetry_equiv_pos_as_xyz
  1  'x, y, z'
loop_
 _atom_site_type_symbol
 _atom_site_label
 _atom_site_symmetry_multiplicity
 _atom_site_fract_x
 _atom_site_fract_y
 _atom_site_fract_z
 _atom_site_occupancy
  Sm  Sm0  1  0.000000  0.500000  0.517712  1
  Sm  Sm1  1  0.500000  0.000000  0.476723  1
  Sm  Sm2  1  0.500000  0.815416  0.197747  1
  Sm  Sm3  1  0.500000  0.184584  0.197747  1
  Sm  Sm4  1  0.000000  0.680949  0.803569  1
  Sm  Sm5  1  0.000000  0.319051  0.803569  1
  Co  Co6  1  0.000000  0.500000  0.992628  1
  Co  Co7  1  0.500000  0.000000  0.010847  1
  Co  Co8  1  0.000000  0.618797  0.284120  1
  Co  Co9  1  0.000000  0.381203  0.284120  1
  Co  Co10  1  0.500000  0.334720  0.998249  1
  Co  Co11  1  0.500000  0.665280  0.998249  1
  Co  Co12  1  0.000000  0.168289  0.006104  1
  Co  Co13  1  0.000000  0.831711  0.006104  1
  P  P14  1  0.500000  0.315339  0.618727  1
  P  P15  1  0.500000  0.684661  0.618727  1
  P  P16  1  0.000000  0.193655  0.374264  1
  P  P17  1  0.000000  0.806345  0.374264  1
  P  P18  1  0.500000  0.500000  0.895689  1
  P  P19  1  0.000000  0.000000  0.105716  1
  P  P20  1  0.500000  0.841287  0.905786  1
  P  P21  1  0.500000  0.158713  0.905786  1
  P  P22  1  0.000000  0.655016  0.102674  1
  P  P23  1  0.000000  0.344984  0.102674  1
  P  P24  1  0.500000  0.500000  0.339319  1
  P  P25  1  0.000000  0.000000  0.654752  1
  Rh  Rh26  1  0.500000  0.299357  0.425875  1
  Rh  Rh27  1  0.500000  0.700643  0.425875  1
  Rh  Rh28  1  0.000000  0.206207  0.569216  1
  Rh  Rh29  1  0.000000  0.793793  0.569216  1
  Rh  Rh30  1  0.500000  0.874229  0.716326  1
  Rh  Rh31  1  0.500000  0.125771  0.716326  1
  Rh  Rh32  1  0.500000  0.500000  0.157235  1
  Rh  Rh33  1  0.000000  0.000000  0.843022  1
  Rh  Rh34  1  0.500000  0.500000  0.708673  1
  Rh  Rh35  1  0.000000  0.000000  0.292367  1
