# generated using pymatgen
data_La2Cu5P4Pd3
_symmetry_space_group_name_H-M   'P 1'
_cell_length_a   7.64082500
_cell_length_b   7.48430867
_cell_length_c   3.93406400
_cell_angle_alpha   90.00000000
_cell_angle_beta   90.00000000
_cell_angle_gamma   89.53860847
_symmetry_Int_Tables_number   1
_chemical_formula_structural   La2Cu5P4Pd3
_chemical_formula_sum   'La2 Cu5 P4 Pd3'
_cell_volume   224.96724123
_cell_formula_units_Z   1
loop_
 _symmetry_equiv_pos_site_id
 _symmetry_equiv_pos_as_xyz
  1  'x, y, z'
loop_
 _atom_site_type_symbol
 _atom_site_label
 _atom_site_symmetry_multiplicity
 _atom_site_fract_x
 _atom_site_fract_y
 _atom_site_fract_z
 _atom_site_occupancy
  La  La0  1  0.500216  0.500918  0.000000  1
  La  La1  1  0.000990  0.002844  0.500000  1
  Cu  Cu2  1  0.914251  0.666568  0.000000  1
  Cu  Cu3  1  0.155536  0.584490  0.500000  1
  Cu  Cu4  1  0.840693  0.422771  0.500000  1
  Cu  Cu5  1  0.341640  0.082672  0.000000  1
  Cu  Cu6  1  0.666792  0.909852  0.000000  1
  P  P7  1  0.723353  0.719704  0.500000  1
  P  P8  1  0.281434  0.278559  0.500000  1
  P  P9  1  0.208068  0.774074  0.000000  1
  P  P10  1  0.781944  0.216764  0.000000  1
  Pd  Pd11  1  0.588398  0.170492  0.500000  1
  Pd  Pd12  1  0.410732  0.830899  0.500000  1
  Pd  Pd13  1  0.085952  0.339391  0.000000  1
