# generated using pymatgen
data_Tb4AsBr6
_symmetry_space_group_name_H-M   'P 1'
_cell_length_a   4.07157000
_cell_length_b   13.30374100
_cell_length_c   14.05002200
_cell_angle_alpha   90.00000000
_cell_angle_beta   90.00000000
_cell_angle_gamma   90.00000000
_symmetry_Int_Tables_number   1
_chemical_formula_structural   Tb4AsBr6
_chemical_formula_sum   'Tb8 As2 Br12'
_cell_volume   761.04912572
_cell_formula_units_Z   2
loop_
 _symmetry_equiv_pos_site_id
 _symmetry_equiv_pos_as_xyz
  1  'x, y, z'
loop_
 _atom_site_type_symbol
 _atom_site_label
 _atom_site_symmetry_multiplicity
 _atom_site_fract_x
 _atom_site_fract_y
 _atom_site_fract_z
 _atom_site_occupancy
  Tb  Tb0  1  0.500000  0.118725  0.340716  1
  Tb  Tb1  1  0.500000  0.881275  0.659284  1
  Tb  Tb2  1  0.500000  0.618725  0.159284  1
  Tb  Tb3  1  0.500000  0.381275  0.840716  1
  Tb  Tb4  1  0.000000  0.117797  0.578074  1
  Tb  Tb5  1  0.000000  0.882203  0.421926  1
  Tb  Tb6  1  0.000000  0.617797  0.921926  1
  Tb  Tb7  1  0.000000  0.382203  0.078074  1
  As  As8  1  0.500000  0.000000  0.500000  1
  As  As9  1  0.500000  0.500000  0.000000  1
  Br  Br10  1  0.500000  0.243507  0.162640  1
  Br  Br11  1  0.500000  0.756493  0.837360  1
  Br  Br12  1  0.500000  0.743507  0.337360  1
  Br  Br13  1  0.500000  0.256493  0.662640  1
  Br  Br14  1  0.000000  0.254930  0.411611  1
  Br  Br15  1  0.000000  0.745070  0.588389  1
  Br  Br16  1  0.000000  0.754930  0.088389  1
  Br  Br17  1  0.000000  0.245070  0.911611  1
  Br  Br18  1  0.000000  0.001406  0.243671  1
  Br  Br19  1  0.000000  0.998594  0.756329  1
  Br  Br20  1  0.000000  0.501406  0.256329  1
  Br  Br21  1  0.000000  0.498594  0.743671  1
