# generated using pymatgen
data_Nd5YTa2O14
_symmetry_space_group_name_H-M   'P 1'
_cell_length_a   6.67267177
_cell_length_b   6.64582727
_cell_length_c   7.69506900
_cell_angle_alpha   90.00000000
_cell_angle_beta   90.00000000
_cell_angle_gamma   108.67312112
_symmetry_Int_Tables_number   1
_chemical_formula_structural   Nd5YTa2O14
_chemical_formula_sum   'Nd5 Y1 Ta2 O14'
_cell_volume   323.27836422
_cell_formula_units_Z   1
loop_
 _symmetry_equiv_pos_site_id
 _symmetry_equiv_pos_as_xyz
  1  'x, y, z'
loop_
 _atom_site_type_symbol
 _atom_site_label
 _atom_site_symmetry_multiplicity
 _atom_site_fract_x
 _atom_site_fract_y
 _atom_site_fract_z
 _atom_site_occupancy
  Nd  Nd0  1  0.536238  0.529268  0.499257  1
  Nd  Nd1  1  0.536238  0.529268  0.000743  1
  Nd  Nd2  1  0.007300  0.461614  0.750000  1
  Nd  Nd3  1  0.533115  0.003582  0.750000  1
  Nd  Nd4  1  0.463165  0.004239  0.250000  1
  Y  Y5  1  0.003818  0.531125  0.250000  1
  Ta  Ta6  1  0.001180  0.001182  0.498062  1
  Ta  Ta7  1  0.001180  0.001182  0.001938  1
  O  O8  1  0.944972  0.055719  0.750000  1
  O  O9  1  0.058384  0.935706  0.250000  1
  O  O10  1  0.355038  0.634497  0.250000  1
  O  O11  1  0.642859  0.368934  0.750000  1
  O  O12  1  0.372528  0.631317  0.750000  1
  O  O13  1  0.643411  0.377888  0.250000  1
  O  O14  1  0.308149  0.069130  0.969480  1
  O  O15  1  0.678659  0.918520  0.472676  1
  O  O16  1  0.308149  0.069130  0.530520  1
  O  O17  1  0.678659  0.918520  0.027324  1
  O  O18  1  0.033700  0.299218  0.459395  1
  O  O19  1  0.929779  0.680373  0.975357  1
  O  O20  1  0.929779  0.680373  0.524643  1
  O  O21  1  0.033700  0.299218  0.040605  1
