# generated using pymatgen
data_Hf3Zr7Sn2(Bi2B)2
_symmetry_space_group_name_H-M   'P 1'
_cell_length_a   8.62216085
_cell_length_b   8.62216110
_cell_length_c   5.84693400
_cell_angle_alpha   90.00000000
_cell_angle_beta   90.00000000
_cell_angle_gamma   119.60599548
_symmetry_Int_Tables_number   1
_chemical_formula_structural   Hf3Zr7Sn2(Bi2B)2
_chemical_formula_sum   'Hf3 Zr7 Sn2 Bi4 B2'
_cell_volume   377.92156930
_cell_formula_units_Z   1
loop_
 _symmetry_equiv_pos_site_id
 _symmetry_equiv_pos_as_xyz
  1  'x, y, z'
loop_
 _atom_site_type_symbol
 _atom_site_label
 _atom_site_symmetry_multiplicity
 _atom_site_fract_x
 _atom_site_fract_y
 _atom_site_fract_z
 _atom_site_occupancy
  Hf  Hf0  1  0.222105  0.222105  0.250000  1
  Hf  Hf1  1  0.776230  0.006173  0.250000  1
  Hf  Hf2  1  0.006173  0.776230  0.250000  1
  Zr  Zr3  1  0.667354  0.331417  0.003403  1
  Zr  Zr4  1  0.331417  0.667354  0.003403  1
  Zr  Zr5  1  0.331417  0.667354  0.496597  1
  Zr  Zr6  1  0.667354  0.331417  0.496597  1
  Zr  Zr7  1  0.773935  0.773935  0.750000  1
  Zr  Zr8  1  0.227341  0.998673  0.750000  1
  Zr  Zr9  1  0.998673  0.227341  0.750000  1
  Sn  Sn10  1  0.398990  0.000889  0.250000  1
  Sn  Sn11  1  0.000889  0.398990  0.250000  1
  Bi  Bi12  1  0.397968  0.397968  0.750000  1
  Bi  Bi13  1  0.597479  0.999350  0.750000  1
  Bi  Bi14  1  0.999350  0.597479  0.750000  1
  Bi  Bi15  1  0.604634  0.604634  0.250000  1
  B  B16  1  0.999346  0.999346  0.003157  1
  B  B17  1  0.999346  0.999346  0.496843  1
