# generated using pymatgen
data_Tb4Er4Re(B8Os)3
_symmetry_space_group_name_H-M   'P 1'
_cell_length_a   3.65786100
_cell_length_b   9.14206432
_cell_length_c   11.53527101
_cell_angle_alpha   90.07997907
_cell_angle_beta   90.00000000
_cell_angle_gamma   90.00000000
_symmetry_Int_Tables_number   1
_chemical_formula_structural   Tb4Er4Re(B8Os)3
_chemical_formula_sum   'Tb4 Er4 Re1 B24 Os3'
_cell_volume   385.74370709
_cell_formula_units_Z   1
loop_
 _symmetry_equiv_pos_site_id
 _symmetry_equiv_pos_as_xyz
  1  'x, y, z'
loop_
 _atom_site_type_symbol
 _atom_site_label
 _atom_site_symmetry_multiplicity
 _atom_site_fract_x
 _atom_site_fract_y
 _atom_site_fract_z
 _atom_site_occupancy
  Tb  Tb0  1  0.000000  0.322325  0.414757  1
  Tb  Tb1  1  0.000000  0.680076  0.587970  1
  Tb  Tb2  1  0.000000  0.822372  0.083869  1
  Tb  Tb3  1  0.000000  0.176708  0.913150  1
  Er  Er4  1  0.000000  0.943393  0.371964  1
  Er  Er5  1  0.000000  0.055816  0.627714  1
  Er  Er6  1  0.000000  0.443029  0.127706  1
  Er  Er7  1  0.000000  0.556465  0.872817  1
  Re  Re8  1  0.000000  0.862063  0.820938  1
  B  B9  1  0.500000  0.554140  0.432815  1
  B  B10  1  0.500000  0.445964  0.567478  1
  B  B11  1  0.500000  0.053982  0.067704  1
  B  B12  1  0.500000  0.946812  0.932753  1
  B  B13  1  0.500000  0.748837  0.419051  1
  B  B14  1  0.500000  0.251236  0.580801  1
  B  B15  1  0.500000  0.248642  0.081123  1
  B  B16  1  0.500000  0.751010  0.918910  1
  B  B17  1  0.500000  0.790555  0.266265  1
  B  B18  1  0.500000  0.209055  0.733006  1
  B  B19  1  0.500000  0.291017  0.233749  1
  B  B20  1  0.500000  0.708386  0.766256  1
  B  B21  1  0.500000  0.630622  0.185423  1
  B  B22  1  0.500000  0.368945  0.814184  1
  B  B23  1  0.500000  0.131220  0.314734  1
  B  B24  1  0.500000  0.869094  0.685591  1
  B  B25  1  0.500000  0.983442  0.213056  1
  B  B26  1  0.500000  0.017605  0.786868  1
  B  B27  1  0.500000  0.483186  0.287416  1
  B  B28  1  0.500000  0.516775  0.713101  1
  B  B29  1  0.500000  0.604301  0.029568  1
  B  B30  1  0.500000  0.394168  0.971081  1
  B  B31  1  0.500000  0.105639  0.470424  1
  B  B32  1  0.500000  0.894888  0.528554  1
  Os  Os33  1  0.000000  0.637771  0.320906  1
  Os  Os34  1  0.000000  0.362270  0.678593  1
  Os  Os35  1  0.000000  0.138188  0.179704  1
