# generated using pymatgen
data_HoEr4In4CuPd
_symmetry_space_group_name_H-M   'P 1'
_cell_length_a   3.61136500
_cell_length_b   8.06065340
_cell_length_c   18.10527637
_cell_angle_alpha   90.06042934
_cell_angle_beta   90.00000000
_cell_angle_gamma   90.00000000
_symmetry_Int_Tables_number   1
_chemical_formula_structural   HoEr4In4CuPd
_chemical_formula_sum   'Ho2 Er8 In8 Cu2 Pd2'
_cell_volume   527.04360625
_cell_formula_units_Z   2
loop_
 _symmetry_equiv_pos_site_id
 _symmetry_equiv_pos_as_xyz
  1  'x, y, z'
loop_
 _atom_site_type_symbol
 _atom_site_label
 _atom_site_symmetry_multiplicity
 _atom_site_fract_x
 _atom_site_fract_y
 _atom_site_fract_z
 _atom_site_occupancy
  Ho  Ho0  1  0.000000  0.500000  0.500000  1
  Ho  Ho1  1  0.000000  0.000000  0.000000  1
  Er  Er2  1  0.000000  0.739565  0.279859  1
  Er  Er3  1  0.000000  0.260435  0.720141  1
  Er  Er4  1  0.000000  0.759684  0.780384  1
  Er  Er5  1  0.000000  0.240316  0.219616  1
  Er  Er6  1  0.000000  0.615151  0.083442  1
  Er  Er7  1  0.000000  0.384849  0.916558  1
  Er  Er8  1  0.000000  0.884498  0.582738  1
  Er  Er9  1  0.000000  0.115502  0.417262  1
  In  In10  1  0.500000  0.709488  0.930792  1
  In  In11  1  0.500000  0.290512  0.069208  1
  In  In12  1  0.500000  0.790166  0.431500  1
  In  In13  1  0.500000  0.209834  0.568500  1
  In  In14  1  0.500000  0.580790  0.650838  1
  In  In15  1  0.500000  0.419210  0.349162  1
  In  In16  1  0.500000  0.918694  0.149033  1
  In  In17  1  0.500000  0.081306  0.850967  1
  Cu  Cu18  1  0.500000  0.523831  0.196789  1
  Cu  Cu19  1  0.500000  0.476169  0.803211  1
  Pd  Pd20  1  0.500000  0.975236  0.696936  1
  Pd  Pd21  1  0.500000  0.024764  0.303064  1
