# generated using pymatgen
data_Dy2Fe5(CoP)7
_symmetry_space_group_name_H-M   'P 1'
_cell_length_a   9.07542200
_cell_length_b   9.05250344
_cell_length_c   3.64238200
_cell_angle_alpha   90.00000000
_cell_angle_beta   90.00000000
_cell_angle_gamma   119.90187655
_symmetry_Int_Tables_number   1
_chemical_formula_structural   Dy2Fe5(CoP)7
_chemical_formula_sum   'Dy2 Fe5 Co7 P7'
_cell_volume   259.40611696
_cell_formula_units_Z   1
loop_
 _symmetry_equiv_pos_site_id
 _symmetry_equiv_pos_as_xyz
  1  'x, y, z'
loop_
 _atom_site_type_symbol
 _atom_site_label
 _atom_site_symmetry_multiplicity
 _atom_site_fract_x
 _atom_site_fract_y
 _atom_site_fract_z
 _atom_site_occupancy
  Dy  Dy0  1  0.666480  0.333591  0.500000  1
  Dy  Dy1  1  0.334077  0.666946  0.000000  1
  Fe  Fe2  1  0.384720  0.433975  0.500000  1
  Fe  Fe3  1  0.566914  0.951557  0.500000  1
  Fe  Fe4  1  0.217513  0.094182  0.500000  1
  Fe  Fe5  1  0.874685  0.779991  0.500000  1
  Fe  Fe6  1  0.906311  0.123501  0.500000  1
  Co  Co7  1  0.116382  0.841938  0.000000  1
  Co  Co8  1  0.727673  0.884024  0.000000  1
  Co  Co9  1  0.938714  0.369465  0.000000  1
  Co  Co10  1  0.631033  0.570361  0.000000  1
  Co  Co11  1  0.428544  0.060620  0.000000  1
  Co  Co12  1  0.048792  0.614313  0.500000  1
  Co  Co13  1  0.156811  0.273470  0.000000  1
  P  P14  1  0.000635  0.999768  0.000000  1
  P  P15  1  0.597986  0.711442  0.500000  1
  P  P16  1  0.700437  0.111111  0.000000  1
  P  P17  1  0.888349  0.590264  0.000000  1
  P  P18  1  0.409943  0.299807  0.000000  1
  P  P19  1  0.290512  0.888632  0.500000  1
  P  P20  1  0.113489  0.401045  0.500000  1
