# generated using pymatgen
data_LuScBeB3Ru5
_symmetry_space_group_name_H-M   'P 1'
_cell_length_a   3.06068100
_cell_length_b   8.60405389
_cell_length_c   10.20153060
_cell_angle_alpha   90.48313278
_cell_angle_beta   90.00000000
_cell_angle_gamma   90.00000000
_symmetry_Int_Tables_number   1
_chemical_formula_structural   LuScBeB3Ru5
_chemical_formula_sum   'Lu2 Sc2 Be2 B6 Ru10'
_cell_volume   268.64025203
_cell_formula_units_Z   2
loop_
 _symmetry_equiv_pos_site_id
 _symmetry_equiv_pos_as_xyz
  1  'x, y, z'
loop_
 _atom_site_type_symbol
 _atom_site_label
 _atom_site_symmetry_multiplicity
 _atom_site_fract_x
 _atom_site_fract_y
 _atom_site_fract_z
 _atom_site_occupancy
  Lu  Lu0  1  0.500000  0.841705  0.183901  1
  Lu  Lu1  1  0.500000  0.158295  0.816099  1
  Sc  Sc2  1  0.500000  0.656080  0.678793  1
  Sc  Sc3  1  0.500000  0.343920  0.321207  1
  Be  Be4  1  0.500000  0.961218  0.593289  1
  Be  Be5  1  0.500000  0.038782  0.406711  1
  B  B6  1  0.500000  0.850794  0.897688  1
  B  B7  1  0.500000  0.149206  0.102312  1
  B  B8  1  0.500000  0.651973  0.403578  1
  B  B9  1  0.500000  0.348027  0.596422  1
  B  B10  1  0.500000  0.466177  0.910057  1
  B  B11  1  0.500000  0.533823  0.089943  1
  Ru  Ru12  1  0.000000  0.656865  0.956923  1
  Ru  Ru13  1  0.000000  0.343135  0.043077  1
  Ru  Ru14  1  0.000000  0.831749  0.449787  1
  Ru  Ru15  1  0.000000  0.168251  0.550213  1
  Ru  Ru16  1  0.000000  0.000000  0.000000  1
  Ru  Ru17  1  0.000000  0.411508  0.760341  1
  Ru  Ru18  1  0.000000  0.588492  0.239659  1
  Ru  Ru19  1  0.000000  0.500000  0.500000  1
  Ru  Ru20  1  0.000000  0.892043  0.747190  1
  Ru  Ru21  1  0.000000  0.107957  0.252810  1
