# generated using pymatgen
data_Tb5TmAl2(Fe2Os3)2
_symmetry_space_group_name_H-M   'P 1'
_cell_length_a   5.30265733
_cell_length_b   5.30491648
_cell_length_c   13.02342844
_cell_angle_alpha   89.73963440
_cell_angle_beta   90.03240520
_cell_angle_gamma   119.95243044
_symmetry_Int_Tables_number   1
_chemical_formula_structural   Tb5TmAl2(Fe2Os3)2
_chemical_formula_sum   'Tb5 Tm1 Al2 Fe4 Os6'
_cell_volume   317.41739742
_cell_formula_units_Z   1
loop_
 _symmetry_equiv_pos_site_id
 _symmetry_equiv_pos_as_xyz
  1  'x, y, z'
loop_
 _atom_site_type_symbol
 _atom_site_label
 _atom_site_symmetry_multiplicity
 _atom_site_fract_x
 _atom_site_fract_y
 _atom_site_fract_z
 _atom_site_occupancy
  Tb  Tb0  1  0.999010  0.998557  0.247492  1
  Tb  Tb1  1  0.675843  0.339650  0.584100  1
  Tb  Tb2  1  0.324475  0.660872  0.667010  1
  Tb  Tb3  1  0.000584  0.001305  0.001685  1
  Tb  Tb4  1  0.661546  0.327694  0.327464  1
  Tm  Tm5  1  0.338075  0.672288  0.922442  1
  Al  Al6  1  0.669646  0.835447  0.457402  1
  Al  Al7  1  0.329610  0.164039  0.793500  1
  Fe  Fe8  1  0.499859  0.500805  0.123829  1
  Fe  Fe9  1  0.169002  0.837733  0.458479  1
  Fe  Fe10  1  0.830729  0.161359  0.792521  1
  Fe  Fe11  1  0.499945  0.998948  0.123804  1
  Os  Os12  1  0.169044  0.335412  0.456903  1
  Os  Os13  1  0.830941  0.665045  0.794618  1
  Os  Os14  1  0.330712  0.663726  0.291343  1
  Os  Os15  1  0.000246  0.000284  0.625366  1
  Os  Os16  1  0.668617  0.335752  0.958299  1
  Os  Os17  1  0.002119  0.501087  0.123744  1
