# generated using pymatgen
data_Tb5Lu5Si5P
_symmetry_space_group_name_H-M   'P 1'
_cell_length_a   8.34598804
_cell_length_b   8.36655647
_cell_length_c   6.19726100
_cell_angle_alpha   90.00000000
_cell_angle_beta   90.00000000
_cell_angle_gamma   120.06747183
_symmetry_Int_Tables_number   1
_chemical_formula_structural   Tb5Lu5Si5P
_chemical_formula_sum   'Tb5 Lu5 Si5 P1'
_cell_volume   374.50640435
_cell_formula_units_Z   1
loop_
 _symmetry_equiv_pos_site_id
 _symmetry_equiv_pos_as_xyz
  1  'x, y, z'
loop_
 _atom_site_type_symbol
 _atom_site_label
 _atom_site_symmetry_multiplicity
 _atom_site_fract_x
 _atom_site_fract_y
 _atom_site_fract_z
 _atom_site_occupancy
  Tb  Tb0  1  0.000670  0.753871  0.750000  1
  Tb  Tb1  1  0.755487  0.754745  0.250000  1
  Tb  Tb2  1  0.753568  0.000616  0.750000  1
  Tb  Tb3  1  0.244888  0.244882  0.750000  1
  Tb  Tb4  1  0.245747  0.000403  0.250000  1
  Lu  Lu5  1  0.001063  0.246716  0.250000  1
  Lu  Lu6  1  0.333239  0.666934  0.499433  1
  Lu  Lu7  1  0.666616  0.332404  0.000494  1
  Lu  Lu8  1  0.666616  0.332404  0.499506  1
  Lu  Lu9  1  0.333239  0.666934  0.000567  1
  Si  Si10  1  0.393194  0.394345  0.250000  1
  Si  Si11  1  0.000607  0.603324  0.250000  1
  Si  Si12  1  0.000077  0.395019  0.750000  1
  Si  Si13  1  0.605150  0.605332  0.750000  1
  Si  Si14  1  0.608307  0.001767  0.250000  1
  P  P15  1  0.391532  0.000305  0.750000  1
