# generated using pymatgen
data_Pa10Si3Se7
_symmetry_space_group_name_H-M   'P 1'
_cell_length_a   10.68433950
_cell_length_b   10.68433848
_cell_length_c   7.04366700
_cell_angle_alpha   83.64781264
_cell_angle_beta   83.64781325
_cell_angle_gamma   141.93775671
_symmetry_Int_Tables_number   1
_chemical_formula_structural   Pa10Si3Se7
_chemical_formula_sum   'Pa10 Si3 Se7'
_cell_volume   466.31603855
_cell_formula_units_Z   1
loop_
 _symmetry_equiv_pos_site_id
 _symmetry_equiv_pos_as_xyz
  1  'x, y, z'
loop_
 _atom_site_type_symbol
 _atom_site_label
 _atom_site_symmetry_multiplicity
 _atom_site_fract_x
 _atom_site_fract_y
 _atom_site_fract_z
 _atom_site_occupancy
  Pa  Pa0  1  0.251943  0.251943  0.755106  1
  Pa  Pa1  1  0.848347  0.649436  0.751132  1
  Pa  Pa2  1  0.748057  0.748057  0.244894  1
  Pa  Pa3  1  0.453365  0.049923  0.741186  1
  Pa  Pa4  1  0.350564  0.151653  0.248868  1
  Pa  Pa5  1  0.049923  0.453365  0.741186  1
  Pa  Pa6  1  0.950077  0.546635  0.258814  1
  Pa  Pa7  1  0.649436  0.848347  0.751132  1
  Pa  Pa8  1  0.546635  0.950077  0.258814  1
  Pa  Pa9  1  0.151653  0.350564  0.248868  1
  Si  Si10  1  0.500000  0.500000  0.000000  1
  Si  Si11  1  0.197986  0.802014  0.500000  1
  Si  Si12  1  0.802014  0.197986  0.500000  1
  Se  Se13  1  0.898574  0.101426  0.000000  1
  Se  Se14  1  0.400489  0.599511  0.500000  1
  Se  Se15  1  0.000000  0.000000  0.500000  1
  Se  Se16  1  0.599511  0.400489  0.500000  1
  Se  Se17  1  0.101426  0.898574  0.000000  1
  Se  Se18  1  0.700102  0.299898  0.000000  1
  Se  Se19  1  0.299898  0.700102  0.000000  1
