# generated using pymatgen
data_Pr10Mg3AlIr6
_symmetry_space_group_name_H-M   'P 1'
_cell_length_a   8.75654446
_cell_length_b   8.78325820
_cell_length_c   8.75654440
_cell_angle_alpha   109.53302591
_cell_angle_beta   109.40934040
_cell_angle_gamma   109.53304160
_symmetry_Int_Tables_number   1
_chemical_formula_structural   Pr10Mg3AlIr6
_chemical_formula_sum   'Pr10 Mg3 Al1 Ir6'
_cell_volume   518.04487047
_cell_formula_units_Z   1
loop_
 _symmetry_equiv_pos_site_id
 _symmetry_equiv_pos_as_xyz
  1  'x, y, z'
loop_
 _atom_site_type_symbol
 _atom_site_label
 _atom_site_symmetry_multiplicity
 _atom_site_fract_x
 _atom_site_fract_y
 _atom_site_fract_z
 _atom_site_occupancy
  Pr  Pr0  1  0.244103  0.673264  0.427083  1
  Pr  Pr1  1  0.749481  0.826456  0.078852  1
  Pr  Pr2  1  0.421148  0.247604  0.670629  1
  Pr  Pr3  1  0.682980  0.429161  0.255897  1
  Pr  Pr4  1  0.072917  0.746181  0.817020  1
  Pr  Pr5  1  0.829371  0.076974  0.750519  1
  Pr  Pr6  1  0.209354  0.207067  0.205757  1
  Pr  Pr7  1  0.496403  0.997713  0.290646  1
  Pr  Pr8  1  0.294243  0.501310  0.003597  1
  Pr  Pr9  1  0.000000  0.282369  0.500000  1
  Mg  Mg10  1  0.598738  0.600688  0.598950  1
  Mg  Mg11  1  0.500212  0.001950  0.901262  1
  Mg  Mg12  1  0.901050  0.501739  0.999788  1
  Al  Al13  1  0.000000  0.902202  0.500000  1
  Ir  Ir14  1  0.235581  0.120678  0.860634  1
  Ir  Ir15  1  0.748840  0.368202  0.616268  1
  Ir  Ir16  1  0.883731  0.251934  0.132573  1
  Ir  Ir17  1  0.125053  0.885097  0.264419  1
  Ir  Ir18  1  0.639366  0.760046  0.374947  1
  Ir  Ir19  1  0.367427  0.619363  0.751160  1
