# generated using pymatgen
data_NaNd6FeCl12
_symmetry_space_group_name_H-M   'P 1'
_cell_length_a   9.14202781
_cell_length_b   9.14065595
_cell_length_c   9.14156958
_cell_angle_alpha   107.07968973
_cell_angle_beta   107.08490186
_cell_angle_gamma   107.08634359
_symmetry_Int_Tables_number   1
_chemical_formula_structural   NaNd6FeCl12
_chemical_formula_sum   'Na1 Nd6 Fe1 Cl12'
_cell_volume   634.73210910
_cell_formula_units_Z   1
loop_
 _symmetry_equiv_pos_site_id
 _symmetry_equiv_pos_as_xyz
  1  'x, y, z'
loop_
 _atom_site_type_symbol
 _atom_site_label
 _atom_site_symmetry_multiplicity
 _atom_site_fract_x
 _atom_site_fract_y
 _atom_site_fract_z
 _atom_site_occupancy
  Na  Na0  1  0.500011  0.500009  0.499947  1
  Nd  Nd1  1  0.320975  0.117498  0.027429  1
  Nd  Nd2  1  0.027425  0.321014  0.117495  1
  Nd  Nd3  1  0.117548  0.027438  0.321050  1
  Nd  Nd4  1  0.882464  0.972552  0.679006  1
  Nd  Nd5  1  0.972568  0.678976  0.882518  1
  Nd  Nd6  1  0.679025  0.882472  0.972609  1
  Fe  Fe7  1  0.999918  0.000032  0.000187  1
  Cl  Cl8  1  0.683794  0.210687  0.072029  1
  Cl  Cl9  1  0.365706  0.452661  0.159181  1
  Cl  Cl10  1  0.072181  0.683782  0.210747  1
  Cl  Cl11  1  0.789312  0.927949  0.316246  1
  Cl  Cl12  1  0.452645  0.159350  0.365726  1
  Cl  Cl13  1  0.159341  0.365722  0.452616  1
  Cl  Cl14  1  0.840726  0.634289  0.547373  1
  Cl  Cl15  1  0.547377  0.840679  0.634304  1
  Cl  Cl16  1  0.210710  0.072111  0.683805  1
  Cl  Cl17  1  0.927872  0.316200  0.789235  1
  Cl  Cl18  1  0.634242  0.547304  0.840675  1
  Cl  Cl19  1  0.316161  0.789276  0.927821  1
