# generated using pymatgen
data_Tb3Y3Al24Ru3Rh5
_symmetry_space_group_name_H-M   'P 1'
_cell_length_a   8.79482000
_cell_length_b   8.83584521
_cell_length_c   9.56062626
_cell_angle_alpha   90.15252146
_cell_angle_beta   90.00000000
_cell_angle_gamma   119.84652785
_symmetry_Int_Tables_number   1
_chemical_formula_structural   Tb3Y3Al24Ru3Rh5
_chemical_formula_sum   'Tb3 Y3 Al24 Ru3 Rh5'
_cell_volume   644.40594451
_cell_formula_units_Z   1
loop_
 _symmetry_equiv_pos_site_id
 _symmetry_equiv_pos_as_xyz
  1  'x, y, z'
loop_
 _atom_site_type_symbol
 _atom_site_label
 _atom_site_symmetry_multiplicity
 _atom_site_fract_x
 _atom_site_fract_y
 _atom_site_fract_z
 _atom_site_occupancy
  Tb  Tb0  1  0.615290  0.809677  0.750597  1
  Tb  Tb1  1  0.194387  0.809677  0.750597  1
  Tb  Tb2  1  0.192044  0.384090  0.750279  1
  Y  Y3  1  0.385177  0.190597  0.249368  1
  Y  Y4  1  0.805421  0.190597  0.249368  1
  Y  Y5  1  0.807759  0.615518  0.249781  1
  Al  Al6  1  0.437642  0.875286  0.249285  1
  Al  Al7  1  0.123564  0.560934  0.250396  1
  Al  Al8  1  0.437371  0.560934  0.250396  1
  Al  Al9  1  0.562521  0.125042  0.750762  1
  Al  Al10  1  0.876153  0.438934  0.749591  1
  Al  Al11  1  0.562781  0.438934  0.749591  1
  Al  Al12  1  0.162435  0.835958  0.423061  1
  Al  Al13  1  0.162625  0.325251  0.423055  1
  Al  Al14  1  0.673523  0.835958  0.423061  1
  Al  Al15  1  0.837555  0.164021  0.576834  1
  Al  Al16  1  0.837385  0.674770  0.576833  1
  Al  Al17  1  0.326467  0.164021  0.576834  1
  Al  Al18  1  0.835313  0.162205  0.923439  1
  Al  Al19  1  0.837220  0.674440  0.923585  1
  Al  Al20  1  0.326893  0.162205  0.923439  1
  Al  Al21  1  0.164671  0.837784  0.076683  1
  Al  Al22  1  0.162776  0.325552  0.076564  1
  Al  Al23  1  0.673112  0.837784  0.076683  1
  Al  Al24  1  0.333467  0.666935  0.525895  1
  Al  Al25  1  0.666513  0.333026  0.473794  1
  Al  Al26  1  0.665547  0.331093  0.025358  1
  Al  Al27  1  0.334485  0.668973  0.974929  1
  Al  Al28  1  0.999337  0.998675  0.249958  1
  Al  Al29  1  0.000693  0.001387  0.750063  1
  Ru  Ru30  1  0.999986  0.999972  0.499873  1
  Ru  Ru31  1  0.999962  0.999923  0.000151  1
  Ru  Ru32  1  0.500076  0.000152  0.000052  1
  Rh  Rh33  1  0.500055  0.000111  0.499964  1
  Rh  Rh34  1  0.999806  0.499870  0.499884  1
  Rh  Rh35  1  0.500064  0.499870  0.499884  1
  Rh  Rh36  1  0.999890  0.499923  0.000054  1
  Rh  Rh37  1  0.500034  0.499923  0.000054  1
