# generated using pymatgen
data_LaNd10(Cu2Si3)2
_symmetry_space_group_name_H-M   'P 1'
_cell_length_a   4.28879236
_cell_length_b   9.37666256
_cell_length_c   13.96876066
_cell_angle_alpha   104.94771273
_cell_angle_beta   90.02917793
_cell_angle_gamma   103.23556856
_symmetry_Int_Tables_number   1
_chemical_formula_structural   LaNd10(Cu2Si3)2
_chemical_formula_sum   'La1 Nd10 Cu4 Si6'
_cell_volume   527.26145870
_cell_formula_units_Z   1
loop_
 _symmetry_equiv_pos_site_id
 _symmetry_equiv_pos_as_xyz
  1  'x, y, z'
loop_
 _atom_site_type_symbol
 _atom_site_label
 _atom_site_symmetry_multiplicity
 _atom_site_fract_x
 _atom_site_fract_y
 _atom_site_fract_z
 _atom_site_occupancy
  La  La0  1  0.098234  0.198246  0.782521  1
  Nd  Nd1  1  0.902999  0.803698  0.218231  1
  Nd  Nd2  1  0.862753  0.727176  0.653248  1
  Nd  Nd3  1  0.223244  0.441234  0.105124  1
  Nd  Nd4  1  0.550805  0.100505  0.131513  1
  Nd  Nd5  1  0.341974  0.680071  0.396326  1
  Nd  Nd6  1  0.447636  0.897971  0.869845  1
  Nd  Nd7  1  0.000056  0.999767  0.499459  1
  Nd  Nd8  1  0.137452  0.271282  0.347158  1
  Nd  Nd9  1  0.777083  0.559269  0.896993  1
  Nd  Nd10  1  0.659590  0.320419  0.604639  1
  Cu  Cu11  1  0.753057  0.502253  0.452058  1
  Cu  Cu12  1  0.936478  0.875579  0.023484  1
  Cu  Cu13  1  0.062810  0.123821  0.979400  1
  Cu  Cu14  1  0.247668  0.496191  0.548690  1
  Si  Si15  1  0.631980  0.257533  0.954710  1
  Si  Si16  1  0.266282  0.534498  0.735418  1
  Si  Si17  1  0.736974  0.470315  0.266309  1
  Si  Si18  1  0.367020  0.741568  0.048484  1
  Si  Si19  1  0.512886  0.024250  0.347431  1
  Si  Si20  1  0.485616  0.971404  0.650488  1
