# generated using pymatgen
data_Tm5AlSe4
_symmetry_space_group_name_H-M   'P 1'
_cell_length_a   7.04897051
_cell_length_b   7.04897555
_cell_length_c   7.04894463
_cell_angle_alpha   99.57307022
_cell_angle_beta   99.57348996
_cell_angle_gamma   131.86548740
_symmetry_Int_Tables_number   1
_chemical_formula_structural   Tm5AlSe4
_chemical_formula_sum   'Tm5 Al1 Se4'
_cell_volume   238.15925519
_cell_formula_units_Z   1
loop_
 _symmetry_equiv_pos_site_id
 _symmetry_equiv_pos_as_xyz
  1  'x, y, z'
loop_
 _atom_site_type_symbol
 _atom_site_label
 _atom_site_symmetry_multiplicity
 _atom_site_fract_x
 _atom_site_fract_y
 _atom_site_fract_z
 _atom_site_occupancy
  Tm  Tm0  1  0.401918  0.794926  0.196844  1
  Tm  Tm1  1  0.000000  0.000000  0.000000  1
  Tm  Tm2  1  0.598082  0.205074  0.803156  1
  Tm  Tm3  1  0.205073  0.401919  0.606993  1
  Tm  Tm4  1  0.794927  0.598081  0.393007  1
  Al  Al5  1  0.500000  0.500000  0.000000  1
  Se  Se6  1  0.097627  0.695756  0.793384  1
  Se  Se7  1  0.695755  0.902371  0.598127  1
  Se  Se8  1  0.304245  0.097629  0.401873  1
  Se  Se9  1  0.902373  0.304244  0.206616  1
