# generated using pymatgen
data_Ho6CdCo2Sn11
_symmetry_space_group_name_H-M   'P 1'
_cell_length_a   8.42705582
_cell_length_b   8.42705662
_cell_length_c   13.13105391
_cell_angle_alpha   89.95677554
_cell_angle_beta   90.04322516
_cell_angle_gamma   148.74277739
_symmetry_Int_Tables_number   1
_chemical_formula_structural   Ho6CdCo2Sn11
_chemical_formula_sum   'Ho6 Cd1 Co2 Sn11'
_cell_volume   483.85922019
_cell_formula_units_Z   1
loop_
 _symmetry_equiv_pos_site_id
 _symmetry_equiv_pos_as_xyz
  1  'x, y, z'
loop_
 _atom_site_type_symbol
 _atom_site_label
 _atom_site_symmetry_multiplicity
 _atom_site_fract_x
 _atom_site_fract_y
 _atom_site_fract_z
 _atom_site_occupancy
  Ho  Ho0  1  0.898430  0.101570  0.095210  1
  Ho  Ho1  1  0.099088  0.900912  0.592690  1
  Ho  Ho2  1  0.900014  0.099986  0.752171  1
  Ho  Ho3  1  0.102233  0.897767  0.904193  1
  Ho  Ho4  1  0.099904  0.900096  0.252460  1
  Ho  Ho5  1  0.901898  0.098102  0.402295  1
  Cd  Cd6  1  0.755419  0.244581  0.569979  1
  Co  Co7  1  0.301137  0.698863  0.248392  1
  Co  Co8  1  0.699237  0.300763  0.756648  1
  Sn  Sn9  1  0.423433  0.576567  0.573890  1
  Sn  Sn10  1  0.572233  0.427767  0.426218  1
  Sn  Sn11  1  0.735036  0.264964  0.253865  1
  Sn  Sn12  1  0.263685  0.736315  0.742222  1
  Sn  Sn13  1  0.242490  0.757510  0.072712  1
  Sn  Sn14  1  0.246579  0.753421  0.429615  1
  Sn  Sn15  1  0.573691  0.426309  0.074860  1
  Sn  Sn16  1  0.455393  0.544607  0.249163  1
  Sn  Sn17  1  0.545205  0.454795  0.748479  1
  Sn  Sn18  1  0.757494  0.242506  0.930131  1
  Sn  Sn19  1  0.427402  0.572598  0.924805  1
