# generated using pymatgen
data_Tb3TmOs7W
_symmetry_space_group_name_H-M   'P 1'
_cell_length_a   5.48747654
_cell_length_b   5.28233299
_cell_length_c   8.90321942
_cell_angle_alpha   90.02787484
_cell_angle_beta   90.00407472
_cell_angle_gamma   121.20001824
_symmetry_Int_Tables_number   1
_chemical_formula_structural   Tb3TmOs7W
_chemical_formula_sum   'Tb3 Tm1 Os7 W1'
_cell_volume   220.74783981
_cell_formula_units_Z   1
loop_
 _symmetry_equiv_pos_site_id
 _symmetry_equiv_pos_as_xyz
  1  'x, y, z'
loop_
 _atom_site_type_symbol
 _atom_site_label
 _atom_site_symmetry_multiplicity
 _atom_site_fract_x
 _atom_site_fract_y
 _atom_site_fract_z
 _atom_site_occupancy
  Tb  Tb0  1  0.670798  0.341462  0.563105  1
  Tb  Tb1  1  0.334539  0.669117  0.433983  1
  Tb  Tb2  1  0.334557  0.669103  0.065797  1
  Tm  Tm3  1  0.671356  0.342637  0.936814  1
  Os  Os4  1  0.006989  0.013981  0.497039  1
  Os  Os5  1  0.006595  0.013169  0.002666  1
  Os  Os6  1  0.173214  0.823529  0.751419  1
  Os  Os7  1  0.649872  0.823889  0.751381  1
  Os  Os8  1  0.822837  0.645449  0.248694  1
  Os  Os9  1  0.828277  0.166230  0.249135  1
  Os  Os10  1  0.338573  0.166606  0.249059  1
  W  W11  1  0.162395  0.324828  0.750907  1
