# generated using pymatgen
data_Eu2H6PdPt
_symmetry_space_group_name_H-M   'P 1'
_cell_length_a   5.40059298
_cell_length_b   5.40059300
_cell_length_c   5.40059300
_cell_angle_alpha   119.99999385
_cell_angle_beta   119.99999399
_cell_angle_gamma   60.00000415
_symmetry_Int_Tables_number   1
_chemical_formula_structural   Eu2H6PdPt
_chemical_formula_sum   'Eu2 H6 Pd1 Pt1'
_cell_volume   111.38056127
_cell_formula_units_Z   1
loop_
 _symmetry_equiv_pos_site_id
 _symmetry_equiv_pos_as_xyz
  1  'x, y, z'
loop_
 _atom_site_type_symbol
 _atom_site_label
 _atom_site_symmetry_multiplicity
 _atom_site_fract_x
 _atom_site_fract_y
 _atom_site_fract_z
 _atom_site_occupancy
  Eu  Eu0  1  0.250002  0.249998  0.250000  1
  Eu  Eu1  1  0.750002  0.749998  0.750002  1
  H  H2  1  0.243376  0.756623  0.256623  1
  H  H3  1  0.756624  0.756624  0.256623  1
  H  H4  1  0.756624  0.243377  0.256626  1
  H  H5  1  0.756624  0.243377  0.743376  1
  H  H6  1  0.243375  0.243375  0.743376  1
  H  H7  1  0.243376  0.756623  0.743376  1
  Pd  Pd8  1  0.500000  0.500000  0.000000  1
  Pt  Pt9  1  0.000000  0.000000  0.499999  1
