# generated using pymatgen
data_Ho4Zn3Ga5
_symmetry_space_group_name_H-M   'P 1'
_cell_length_a   4.42520800
_cell_length_b   7.11733630
_cell_length_c   7.63641313
_cell_angle_alpha   90.02724906
_cell_angle_beta   90.00000000
_cell_angle_gamma   90.00000000
_symmetry_Int_Tables_number   1
_chemical_formula_structural   Ho4Zn3Ga5
_chemical_formula_sum   'Ho4 Zn3 Ga5'
_cell_volume   240.51410052
_cell_formula_units_Z   1
loop_
 _symmetry_equiv_pos_site_id
 _symmetry_equiv_pos_as_xyz
  1  'x, y, z'
loop_
 _atom_site_type_symbol
 _atom_site_label
 _atom_site_symmetry_multiplicity
 _atom_site_fract_x
 _atom_site_fract_y
 _atom_site_fract_z
 _atom_site_occupancy
  Ho  Ho0  1  0.250000  0.996485  0.254933  1
  Ho  Ho1  1  0.250000  0.502769  0.244626  1
  Ho  Ho2  1  0.750000  0.994762  0.746248  1
  Ho  Ho3  1  0.750000  0.500976  0.754861  1
  Zn  Zn4  1  0.250000  0.291946  0.581054  1
  Zn  Zn5  1  0.250000  0.783316  0.915848  1
  Zn  Zn6  1  0.750000  0.773159  0.417970  1
  Ga  Ga7  1  0.750000  0.272682  0.084686  1
  Ga  Ga8  1  0.250000  0.213480  0.912289  1
  Ga  Ga9  1  0.250000  0.715440  0.583119  1
  Ga  Ga10  1  0.750000  0.733863  0.083253  1
  Ga  Ga11  1  0.750000  0.221122  0.421116  1
