# generated using pymatgen
data_Rb3Li2TiP3
_symmetry_space_group_name_H-M   'P 1'
_cell_length_a   10.06912958
_cell_length_b   10.06913119
_cell_length_c   15.45532300
_cell_angle_alpha   90.00000000
_cell_angle_beta   90.00000000
_cell_angle_gamma   143.06329339
_symmetry_Int_Tables_number   1
_chemical_formula_structural   Rb3Li2TiP3
_chemical_formula_sum   'Rb12 Li8 Ti4 P12'
_cell_volume   941.64596582
_cell_formula_units_Z   4
loop_
 _symmetry_equiv_pos_site_id
 _symmetry_equiv_pos_as_xyz
  1  'x, y, z'
loop_
 _atom_site_type_symbol
 _atom_site_label
 _atom_site_symmetry_multiplicity
 _atom_site_fract_x
 _atom_site_fract_y
 _atom_site_fract_z
 _atom_site_occupancy
  Rb  Rb0  1  0.948539  0.606784  0.829087  1
  Rb  Rb1  1  0.551461  0.893216  0.329087  1
  Rb  Rb2  1  0.393216  0.051461  0.170913  1
  Rb  Rb3  1  0.051461  0.393216  0.170913  1
  Rb  Rb4  1  0.893216  0.551461  0.329087  1
  Rb  Rb5  1  0.448539  0.106784  0.670913  1
  Rb  Rb6  1  0.606784  0.948539  0.829087  1
  Rb  Rb7  1  0.284573  0.284573  0.320295  1
  Rb  Rb8  1  0.784573  0.784573  0.179705  1
  Rb  Rb9  1  0.215427  0.215427  0.820295  1
  Rb  Rb10  1  0.715427  0.715427  0.679705  1
  Rb  Rb11  1  0.106784  0.448539  0.670913  1
  Li  Li12  1  0.918559  0.081441  0.000000  1
  Li  Li13  1  0.581441  0.418559  0.500000  1
  Li  Li14  1  0.081441  0.918559  0.000000  1
  Li  Li15  1  0.418559  0.581441  0.500000  1
  Li  Li16  1  0.749422  0.250578  0.000000  1
  Li  Li17  1  0.750578  0.249422  0.500000  1
  Li  Li18  1  0.250578  0.749422  0.000000  1
  Li  Li19  1  0.249422  0.750578  0.500000  1
  Ti  Ti20  1  0.586150  0.413850  0.000000  1
  Ti  Ti21  1  0.913850  0.086150  0.500000  1
  Ti  Ti22  1  0.413850  0.586150  0.000000  1
  Ti  Ti23  1  0.086150  0.913850  0.500000  1
  P  P24  1  0.884627  0.566482  0.083393  1
  P  P25  1  0.433518  0.115373  0.916607  1
  P  P26  1  0.615373  0.933518  0.583393  1
  P  P27  1  0.933518  0.615373  0.583393  1
  P  P28  1  0.115373  0.433518  0.916607  1
  P  P29  1  0.566482  0.884627  0.083393  1
  P  P30  1  0.384627  0.066482  0.416607  1
  P  P31  1  0.214705  0.214705  0.579142  1
  P  P32  1  0.714705  0.714705  0.920858  1
  P  P33  1  0.285295  0.285295  0.079142  1
  P  P34  1  0.066482  0.384627  0.416607  1
  P  P35  1  0.785295  0.785295  0.420858  1
