# generated using pymatgen
data_Tb4ZnSb2As3Rh7
_symmetry_space_group_name_H-M   'P 1'
_cell_length_a   7.41170802
_cell_length_b   7.40193979
_cell_length_c   7.40193846
_cell_angle_alpha   108.36032708
_cell_angle_beta   109.89502640
_cell_angle_gamma   109.89502905
_symmetry_Int_Tables_number   1
_chemical_formula_structural   Tb4ZnSb2As3Rh7
_chemical_formula_sum   'Tb4 Zn1 Sb2 As3 Rh7'
_cell_volume   313.55440332
_cell_formula_units_Z   1
loop_
 _symmetry_equiv_pos_site_id
 _symmetry_equiv_pos_as_xyz
  1  'x, y, z'
loop_
 _atom_site_type_symbol
 _atom_site_label
 _atom_site_symmetry_multiplicity
 _atom_site_fract_x
 _atom_site_fract_y
 _atom_site_fract_z
 _atom_site_occupancy
  Tb  Tb0  1  0.529868  0.000112  0.000112  1
  Tb  Tb1  1  0.989294  0.503838  0.996535  1
  Tb  Tb2  1  0.989294  0.996535  0.503838  1
  Tb  Tb3  1  0.537808  0.542971  0.542971  1
  Zn  Zn4  1  0.016940  0.317359  0.317359  1
  Sb  Sb5  1  0.306556  0.013220  0.307678  1
  Sb  Sb6  1  0.306556  0.307678  0.013220  1
  As  As7  1  0.673082  0.009587  0.674316  1
  As  As8  1  0.673082  0.674316  0.009587  1
  As  As9  1  0.007901  0.660704  0.660704  1
  Rh  Rh10  1  0.956109  0.966732  0.966732  1
  Rh  Rh11  1  0.499429  0.753489  0.254354  1
  Rh  Rh12  1  0.754695  0.497064  0.251096  1
  Rh  Rh13  1  0.252632  0.751704  0.499240  1
  Rh  Rh14  1  0.252632  0.499240  0.751704  1
  Rh  Rh15  1  0.499429  0.254354  0.753489  1
  Rh  Rh16  1  0.754695  0.251096  0.497064  1
