# generated using pymatgen
data_Ce5Dy3(AlRu)8
_symmetry_space_group_name_H-M   'P 1'
_cell_length_a   4.07631000
_cell_length_b   7.14946220
_cell_length_c   15.93061592
_cell_angle_alpha   90.60946321
_cell_angle_beta   90.00000000
_cell_angle_gamma   90.00000000
_symmetry_Int_Tables_number   1
_chemical_formula_structural   Ce5Dy3(AlRu)8
_chemical_formula_sum   'Ce5 Dy3 Al8 Ru8'
_cell_volume   464.24643278
_cell_formula_units_Z   1
loop_
 _symmetry_equiv_pos_site_id
 _symmetry_equiv_pos_as_xyz
  1  'x, y, z'
loop_
 _atom_site_type_symbol
 _atom_site_label
 _atom_site_symmetry_multiplicity
 _atom_site_fract_x
 _atom_site_fract_y
 _atom_site_fract_z
 _atom_site_occupancy
  Ce  Ce0  1  0.750000  0.465104  0.282499  1
  Ce  Ce1  1  0.750000  0.330555  0.063265  1
  Ce  Ce2  1  0.250000  0.670832  0.938095  1
  Ce  Ce3  1  0.250000  0.044736  0.780242  1
  Ce  Ce4  1  0.250000  0.538160  0.717554  1
  Dy  Dy5  1  0.750000  0.957925  0.218627  1
  Dy  Dy6  1  0.250000  0.161757  0.558850  1
  Dy  Dy7  1  0.750000  0.837722  0.439202  1
  Al  Al8  1  0.750000  0.494506  0.561814  1
  Al  Al9  1  0.750000  0.368184  0.851644  1
  Al  Al10  1  0.750000  0.004795  0.936645  1
  Al  Al11  1  0.750000  0.870190  0.648821  1
  Al  Al12  1  0.250000  0.497853  0.437795  1
  Al  Al13  1  0.250000  0.997893  0.066302  1
  Al  Al14  1  0.250000  0.638358  0.149633  1
  Al  Al15  1  0.250000  0.125359  0.346789  1
  Ru  Ru16  1  0.750000  0.747258  0.814687  1
  Ru  Ru17  1  0.250000  0.237658  0.936809  1
  Ru  Ru18  1  0.750000  0.262566  0.428921  1
  Ru  Ru19  1  0.250000  0.741672  0.315774  1
  Ru  Ru20  1  0.750000  0.760953  0.061181  1
  Ru  Ru21  1  0.750000  0.249017  0.689266  1
  Ru  Ru22  1  0.250000  0.269196  0.184814  1
  Ru  Ru23  1  0.250000  0.727751  0.570769  1
