# generated using pymatgen
data_K3Rb6InAs4
_symmetry_space_group_name_H-M   'P 1'
_cell_length_a   10.41819100
_cell_length_b   10.41819156
_cell_length_c   11.09868400
_cell_angle_alpha   90.00000000
_cell_angle_beta   90.00000000
_cell_angle_gamma   119.99999505
_symmetry_Int_Tables_number   1
_chemical_formula_structural   K3Rb6InAs4
_chemical_formula_sum   'K6 Rb12 In2 As8'
_cell_volume   1043.24615668
_cell_formula_units_Z   2
loop_
 _symmetry_equiv_pos_site_id
 _symmetry_equiv_pos_as_xyz
  1  'x, y, z'
loop_
 _atom_site_type_symbol
 _atom_site_label
 _atom_site_symmetry_multiplicity
 _atom_site_fract_x
 _atom_site_fract_y
 _atom_site_fract_z
 _atom_site_occupancy
  K  K0  1  0.120182  0.240363  0.250000  1
  K  K1  1  0.879818  0.120182  0.750000  1
  K  K2  1  0.240363  0.120182  0.750000  1
  K  K3  1  0.759637  0.879818  0.250000  1
  K  K4  1  0.120182  0.879818  0.250000  1
  K  K5  1  0.879818  0.759637  0.750000  1
  Rb  Rb6  1  0.207120  0.414238  0.547561  1
  Rb  Rb7  1  0.792880  0.207120  0.047561  1
  Rb  Rb8  1  0.414238  0.207120  0.047561  1
  Rb  Rb9  1  0.585762  0.792880  0.547561  1
  Rb  Rb10  1  0.207120  0.792880  0.547561  1
  Rb  Rb11  1  0.792880  0.585762  0.452439  1
  Rb  Rb12  1  0.792880  0.207120  0.452439  1
  Rb  Rb13  1  0.792880  0.585762  0.047561  1
  Rb  Rb14  1  0.414238  0.207120  0.452439  1
  Rb  Rb15  1  0.585762  0.792880  0.952439  1
  Rb  Rb16  1  0.207120  0.414238  0.952439  1
  Rb  Rb17  1  0.207120  0.792880  0.952439  1
  In  In18  1  0.333333  0.666667  0.250000  1
  In  In19  1  0.666667  0.333333  0.750000  1
  As  As20  1  0.481438  0.518562  0.250000  1
  As  As21  1  0.962874  0.481438  0.750000  1
  As  As22  1  0.518562  0.037126  0.750000  1
  As  As23  1  0.481438  0.962874  0.250000  1
  As  As24  1  0.037126  0.518562  0.250000  1
  As  As25  1  0.518562  0.481438  0.750000  1
  As  As26  1  0.000000  0.000000  0.000000  1
  As  As27  1  0.000000  0.000000  0.500000  1
