# generated using pymatgen
data_DyMnNi4As3
_symmetry_space_group_name_H-M   'P 1'
_cell_length_a   3.87128200
_cell_length_b   10.83502000
_cell_length_c   12.37682200
_cell_angle_alpha   90.00000000
_cell_angle_beta   90.00000000
_cell_angle_gamma   90.00000000
_symmetry_Int_Tables_number   1
_chemical_formula_structural   DyMnNi4As3
_chemical_formula_sum   'Dy4 Mn4 Ni16 As12'
_cell_volume   519.15097101
_cell_formula_units_Z   4
loop_
 _symmetry_equiv_pos_site_id
 _symmetry_equiv_pos_as_xyz
  1  'x, y, z'
loop_
 _atom_site_type_symbol
 _atom_site_label
 _atom_site_symmetry_multiplicity
 _atom_site_fract_x
 _atom_site_fract_y
 _atom_site_fract_z
 _atom_site_occupancy
  Dy  Dy0  1  0.250000  0.578402  0.703208  1
  Dy  Dy1  1  0.250000  0.921598  0.203208  1
  Dy  Dy2  1  0.750000  0.421598  0.296792  1
  Dy  Dy3  1  0.750000  0.078402  0.796792  1
  Mn  Mn4  1  0.250000  0.701199  0.991875  1
  Mn  Mn5  1  0.250000  0.798801  0.491875  1
  Mn  Mn6  1  0.750000  0.298801  0.008125  1
  Mn  Mn7  1  0.750000  0.201199  0.508125  1
  Ni  Ni8  1  0.250000  0.404785  0.487583  1
  Ni  Ni9  1  0.250000  0.095215  0.987583  1
  Ni  Ni10  1  0.750000  0.595215  0.512417  1
  Ni  Ni11  1  0.750000  0.904785  0.012417  1
  Ni  Ni12  1  0.250000  0.216023  0.174210  1
  Ni  Ni13  1  0.250000  0.283977  0.674210  1
  Ni  Ni14  1  0.750000  0.783977  0.825790  1
  Ni  Ni15  1  0.750000  0.716023  0.325790  1
  Ni  Ni16  1  0.250000  0.881199  0.701059  1
  Ni  Ni17  1  0.250000  0.618801  0.201059  1
  Ni  Ni18  1  0.750000  0.118801  0.298941  1
  Ni  Ni19  1  0.750000  0.381199  0.798941  1
  Ni  Ni20  1  0.250000  0.468531  0.930236  1
  Ni  Ni21  1  0.250000  0.031469  0.430236  1
  Ni  Ni22  1  0.750000  0.531469  0.069764  1
  Ni  Ni23  1  0.750000  0.968531  0.569764  1
  As  As24  1  0.250000  0.418269  0.115958  1
  As  As25  1  0.250000  0.081731  0.615958  1
  As  As26  1  0.750000  0.581731  0.884042  1
  As  As27  1  0.750000  0.918269  0.384042  1
  As  As28  1  0.250000  0.267217  0.865079  1
  As  As29  1  0.250000  0.232783  0.365079  1
  As  As30  1  0.750000  0.732783  0.134921  1
  As  As31  1  0.750000  0.767217  0.634921  1
  As  As32  1  0.250000  0.600232  0.393885  1
  As  As33  1  0.250000  0.899768  0.893885  1
  As  As34  1  0.750000  0.399768  0.606115  1
  As  As35  1  0.750000  0.100232  0.106115  1
