# generated using pymatgen
data_Lu2MnSi5Os2
_symmetry_space_group_name_H-M   'P 1'
_cell_length_a   8.22081392
_cell_length_b   8.19126084
_cell_length_c   5.42790794
_cell_angle_alpha   70.64962130
_cell_angle_beta   70.72378099
_cell_angle_gamma   95.69175088
_symmetry_Int_Tables_number   1
_chemical_formula_structural   Lu2MnSi5Os2
_chemical_formula_sum   'Lu4 Mn2 Si10 Os4'
_cell_volume   316.47620876
_cell_formula_units_Z   2
loop_
 _symmetry_equiv_pos_site_id
 _symmetry_equiv_pos_as_xyz
  1  'x, y, z'
loop_
 _atom_site_type_symbol
 _atom_site_label
 _atom_site_symmetry_multiplicity
 _atom_site_fract_x
 _atom_site_fract_y
 _atom_site_fract_z
 _atom_site_occupancy
  Lu  Lu0  1  0.129353  0.409838  0.727260  1
  Lu  Lu1  1  0.598361  0.873914  0.766774  1
  Lu  Lu2  1  0.868121  0.588284  0.269389  1
  Lu  Lu3  1  0.404387  0.133347  0.233914  1
  Mn  Mn4  1  0.999493  0.997331  0.254117  1
  Mn  Mn5  1  0.735609  0.436879  0.912863  1
  Si  Si6  1  0.797586  0.213607  0.240089  1
  Si  Si7  1  0.200846  0.790866  0.745821  1
  Si  Si8  1  0.508081  0.501635  0.236801  1
  Si  Si9  1  0.508080  0.501642  0.752777  1
  Si  Si10  1  0.200199  0.791836  0.260266  1
  Si  Si11  1  0.797921  0.214655  0.747009  1
  Si  Si12  1  0.735597  0.922270  0.179110  1
  Si  Si13  1  0.914305  0.717004  0.678887  1
  Si  Si14  1  0.264755  0.079398  0.836095  1
  Si  Si15  1  0.075233  0.269893  0.320002  1
  Os  Os16  1  0.999197  0.998274  0.750257  1
  Os  Os17  1  0.553495  0.257866  0.594674  1
  Os  Os18  1  0.260145  0.559079  0.089340  1
  Os  Os19  1  0.449238  0.742381  0.404553  1
