# generated using pymatgen
data_Pu3WF24
_symmetry_space_group_name_H-M   'P 1'
_cell_length_a   5.61229921
_cell_length_b   9.51707300
_cell_length_c   10.35650127
_cell_angle_alpha   90.00000000
_cell_angle_beta   89.71552782
_cell_angle_gamma   90.00000000
_symmetry_Int_Tables_number   1
_chemical_formula_structural   Pu3WF24
_chemical_formula_sum   'Pu3 W1 F24'
_cell_volume   553.16147603
_cell_formula_units_Z   1
loop_
 _symmetry_equiv_pos_site_id
 _symmetry_equiv_pos_as_xyz
  1  'x, y, z'
loop_
 _atom_site_type_symbol
 _atom_site_label
 _atom_site_symmetry_multiplicity
 _atom_site_fract_x
 _atom_site_fract_y
 _atom_site_fract_z
 _atom_site_occupancy
  Pu  Pu0  1  0.585274  0.750000  0.371968  1
  Pu  Pu1  1  0.085195  0.250000  0.128181  1
  Pu  Pu2  1  0.414730  0.250000  0.628196  1
  W  W3  1  0.914972  0.750000  0.871792  1
  F  F4  1  0.563382  0.399072  0.738881  1
  F  F5  1  0.054984  0.610289  0.767874  1
  F  F6  1  0.436609  0.899056  0.261179  1
  F  F7  1  0.935399  0.100895  0.239092  1
  F  F8  1  0.185044  0.750000  0.978695  1
  F  F9  1  0.701555  0.250000  0.513907  1
  F  F10  1  0.799007  0.250000  0.014677  1
  F  F11  1  0.298548  0.750000  0.486285  1
  F  F12  1  0.644423  0.750000  0.764870  1
  F  F13  1  0.126830  0.250000  0.742343  1
  F  F14  1  0.372009  0.250000  0.241412  1
  F  F15  1  0.872855  0.750000  0.257671  1
  F  F16  1  0.774462  0.889484  0.975852  1
  F  F17  1  0.265421  0.101042  0.517495  1
  F  F18  1  0.235192  0.398871  0.016826  1
  F  F19  1  0.734331  0.601089  0.482804  1
  F  F20  1  0.235192  0.101129  0.016826  1
  F  F21  1  0.734331  0.898911  0.482804  1
  F  F22  1  0.774462  0.610516  0.975852  1
  F  F23  1  0.265421  0.398958  0.517495  1
  F  F24  1  0.054984  0.889711  0.767874  1
  F  F25  1  0.563382  0.100928  0.738881  1
  F  F26  1  0.935399  0.399105  0.239092  1
  F  F27  1  0.436609  0.600944  0.261179  1
