# generated using pymatgen
data_Eu4Mg4IrAu3
_symmetry_space_group_name_H-M   'P 1'
_cell_length_a   4.47660900
_cell_length_b   7.58324629
_cell_length_c   8.79098800
_cell_angle_alpha   90.35952680
_cell_angle_beta   90.00000000
_cell_angle_gamma   90.00000000
_symmetry_Int_Tables_number   1
_chemical_formula_structural   Eu4Mg4IrAu3
_chemical_formula_sum   'Eu4 Mg4 Ir1 Au3'
_cell_volume   298.42380405
_cell_formula_units_Z   1
loop_
 _symmetry_equiv_pos_site_id
 _symmetry_equiv_pos_as_xyz
  1  'x, y, z'
loop_
 _atom_site_type_symbol
 _atom_site_label
 _atom_site_symmetry_multiplicity
 _atom_site_fract_x
 _atom_site_fract_y
 _atom_site_fract_z
 _atom_site_occupancy
  Eu  Eu0  1  0.250000  0.042831  0.333147  1
  Eu  Eu1  1  0.250000  0.531904  0.175643  1
  Eu  Eu2  1  0.750000  0.984241  0.673543  1
  Eu  Eu3  1  0.750000  0.455293  0.811964  1
  Mg  Mg4  1  0.250000  0.141677  0.932186  1
  Mg  Mg5  1  0.250000  0.626899  0.563130  1
  Mg  Mg6  1  0.750000  0.862411  0.061036  1
  Mg  Mg7  1  0.750000  0.357221  0.447839  1
  Ir  Ir8  1  0.250000  0.267041  0.626480  1
  Au  Au9  1  0.250000  0.770636  0.876363  1
  Au  Au10  1  0.750000  0.730275  0.374369  1
  Au  Au11  1  0.750000  0.229567  0.124299  1
