# generated using pymatgen
data_Tb2Dy6Nb12Si15Ge
_symmetry_space_group_name_H-M   'P 1'
_cell_length_a   6.88898883
_cell_length_b   7.08403052
_cell_length_c   13.45998553
_cell_angle_alpha   90.02831164
_cell_angle_beta   89.92744637
_cell_angle_gamma   90.02140857
_symmetry_Int_Tables_number   1
_chemical_formula_structural   Tb2Dy6Nb12Si15Ge
_chemical_formula_sum   'Tb2 Dy6 Nb12 Si15 Ge1'
_cell_volume   656.87096560
_cell_formula_units_Z   1
loop_
 _symmetry_equiv_pos_site_id
 _symmetry_equiv_pos_as_xyz
  1  'x, y, z'
loop_
 _atom_site_type_symbol
 _atom_site_label
 _atom_site_symmetry_multiplicity
 _atom_site_fract_x
 _atom_site_fract_y
 _atom_site_fract_z
 _atom_site_occupancy
  Tb  Tb0  1  0.502941  0.328838  0.095654  1
  Tb  Tb1  1  0.001943  0.170864  0.403974  1
  Dy  Dy2  1  0.500113  0.673240  0.596495  1
  Dy  Dy3  1  0.997058  0.828486  0.904616  1
  Dy  Dy4  1  0.496979  0.671302  0.904466  1
  Dy  Dy5  1  0.996944  0.829278  0.595998  1
  Dy  Dy6  1  0.503361  0.327420  0.403355  1
  Dy  Dy7  1  0.002819  0.171617  0.095550  1
  Nb  Nb8  1  0.664640  0.008608  0.750176  1
  Nb  Nb9  1  0.164542  0.490554  0.751895  1
  Nb  Nb10  1  0.335080  0.991306  0.249752  1
  Nb  Nb11  1  0.835386  0.509038  0.249875  1
  Nb  Nb12  1  0.836357  0.324407  0.625980  1
  Nb  Nb13  1  0.338107  0.174974  0.874636  1
  Nb  Nb14  1  0.161687  0.675361  0.125380  1
  Nb  Nb15  1  0.661304  0.825159  0.374030  1
  Nb  Nb16  1  0.160195  0.677637  0.372895  1
  Nb  Nb17  1  0.661027  0.824658  0.125328  1
  Nb  Nb18  1  0.838206  0.324677  0.874645  1
  Nb  Nb19  1  0.340792  0.171566  0.626815  1
  Si  Si20  1  0.797228  0.625559  0.750192  1
  Si  Si21  1  0.296179  0.873336  0.750573  1
  Si  Si22  1  0.203105  0.374729  0.249720  1
  Si  Si23  1  0.703268  0.125349  0.249576  1
  Si  Si24  1  0.542909  0.376346  0.750403  1
  Si  Si25  1  0.043025  0.123984  0.750069  1
  Si  Si26  1  0.456561  0.624036  0.249929  1
  Si  Si27  1  0.956008  0.876477  0.249015  1
  Si  Si28  1  0.663531  0.037618  0.540166  1
  Si  Si29  1  0.162839  0.462721  0.959536  1
  Si  Si30  1  0.336537  0.962537  0.040497  1
  Si  Si31  1  0.832868  0.538449  0.458708  1
  Si  Si32  1  0.336661  0.962057  0.459630  1
  Si  Si33  1  0.837373  0.537603  0.040652  1
  Si  Si34  1  0.663163  0.037118  0.959455  1
  Ge  Ge35  1  0.169262  0.463094  0.540363  1
