# generated using pymatgen
data_Ti6Re5Si6W
_symmetry_space_group_name_H-M   'P 1'
_cell_length_a   7.58122589
_cell_length_b   7.56719533
_cell_length_c   7.58077578
_cell_angle_alpha   126.37027376
_cell_angle_beta   129.26723601
_cell_angle_gamma   76.98311797
_symmetry_Int_Tables_number   1
_chemical_formula_structural   Ti6Re5Si6W
_chemical_formula_sum   'Ti6 Re5 Si6 W1'
_cell_volume   263.13529947
_cell_formula_units_Z   1
loop_
 _symmetry_equiv_pos_site_id
 _symmetry_equiv_pos_as_xyz
  1  'x, y, z'
loop_
 _atom_site_type_symbol
 _atom_site_label
 _atom_site_symmetry_multiplicity
 _atom_site_fract_x
 _atom_site_fract_y
 _atom_site_fract_z
 _atom_site_occupancy
  Ti  Ti0  1  0.548638  0.095274  0.047143  1
  Ti  Ti1  1  0.451240  0.497096  0.545185  1
  Ti  Ti2  1  0.951975  0.497043  0.045794  1
  Ti  Ti3  1  0.048086  0.095260  0.546662  1
  Ti  Ti4  1  0.748833  0.898252  0.648780  1
  Ti  Ti5  1  0.249456  0.898336  0.149505  1
  Re  Re6  1  0.500174  0.233996  0.733747  1
  Re  Re7  1  0.999696  0.232333  0.232734  1
  Re  Re8  1  0.131541  0.760276  0.628651  1
  Re  Re9  1  0.869404  0.496773  0.627280  1
  Re  Re10  1  0.631625  0.760006  0.128342  1
  Si  Si11  1  0.752754  0.496537  0.246659  1
  Si  Si12  1  0.249800  0.496644  0.743857  1
  Si  Si13  1  0.333152  0.832672  0.499576  1
  Si  Si14  1  0.666723  0.163820  0.497254  1
  Si  Si15  1  0.833177  0.829450  0.996330  1
  Si  Si16  1  0.165368  0.161610  0.996191  1
  W  W17  1  0.368358  0.496622  0.128312  1
