# generated using pymatgen
data_Pr2Si4Ir5Rh
_symmetry_space_group_name_H-M   'P 1'
_cell_length_a   6.72898040
_cell_length_b   6.72898104
_cell_length_c   6.73468046
_cell_angle_alpha   130.31273075
_cell_angle_beta   114.70640059
_cell_angle_gamma   86.22550009
_symmetry_Int_Tables_number   1
_chemical_formula_structural   Pr2Si4Ir5Rh
_chemical_formula_sum   'Pr2 Si4 Ir5 Rh1'
_cell_volume   201.81792885
_cell_formula_units_Z   1
loop_
 _symmetry_equiv_pos_site_id
 _symmetry_equiv_pos_as_xyz
  1  'x, y, z'
loop_
 _atom_site_type_symbol
 _atom_site_label
 _atom_site_symmetry_multiplicity
 _atom_site_fract_x
 _atom_site_fract_y
 _atom_site_fract_z
 _atom_site_occupancy
  Pr  Pr0  1  0.249722  0.971711  0.721433  1
  Pr  Pr1  1  0.750278  0.028289  0.278567  1
  Si  Si2  1  0.079416  0.280149  0.201421  1
  Si  Si3  1  0.920584  0.719851  0.798579  1
  Si  Si4  1  0.421272  0.622005  0.201421  1
  Si  Si5  1  0.578728  0.377995  0.798579  1
  Ir  Ir6  1  0.000000  0.500000  0.000000  1
  Ir  Ir7  1  0.280750  0.000519  0.280534  1
  Ir  Ir8  1  0.719250  0.999481  0.719466  1
  Ir  Ir9  1  0.219985  0.500216  0.719466  1
  Ir  Ir10  1  0.780015  0.499784  0.280534  1
  Rh  Rh11  1  0.500000  0.500000  0.500000  1
