# generated using pymatgen
data_YHoCdIn
_symmetry_space_group_name_H-M   'P 1'
_cell_length_a   5.30062037
_cell_length_b   5.30061986
_cell_length_c   5.30062000
_cell_angle_alpha   59.99999911
_cell_angle_beta   60.00000229
_cell_angle_gamma   60.00000195
_symmetry_Int_Tables_number   1
_chemical_formula_structural   YHoCdIn
_chemical_formula_sum   'Y1 Ho1 Cd1 In1'
_cell_volume   105.30889221
_cell_formula_units_Z   1
loop_
 _symmetry_equiv_pos_site_id
 _symmetry_equiv_pos_as_xyz
  1  'x, y, z'
loop_
 _atom_site_type_symbol
 _atom_site_label
 _atom_site_symmetry_multiplicity
 _atom_site_fract_x
 _atom_site_fract_y
 _atom_site_fract_z
 _atom_site_occupancy
  Y  Y0  1  0.250000  0.250000  0.250000  1
  Ho  Ho1  1  0.750000  0.750000  0.750000  1
  Cd  Cd2  1  0.500000  0.500000  0.500000  1
  In  In3  1  0.000000  0.000000  0.000000  1
