# generated using pymatgen
data_Ti2Nb4C5
_symmetry_space_group_name_H-M   'P 1'
_cell_length_a   5.42575676
_cell_length_b   5.42575696
_cell_length_c   5.46831217
_cell_angle_alpha   80.22819657
_cell_angle_beta   80.22819160
_cell_angle_gamma   119.37619986
_symmetry_Int_Tables_number   1
_chemical_formula_structural   Ti2Nb4C5
_chemical_formula_sum   'Ti2 Nb4 C5'
_cell_volume   132.11159335
_cell_formula_units_Z   1
loop_
 _symmetry_equiv_pos_site_id
 _symmetry_equiv_pos_as_xyz
  1  'x, y, z'
loop_
 _atom_site_type_symbol
 _atom_site_label
 _atom_site_symmetry_multiplicity
 _atom_site_fract_x
 _atom_site_fract_y
 _atom_site_fract_z
 _atom_site_occupancy
  Ti  Ti0  1  0.734485  0.734485  0.733224  1
  Ti  Ti1  1  0.265515  0.265515  0.266776  1
  Nb  Nb2  1  0.084712  0.436981  0.747980  1
  Nb  Nb3  1  0.563019  0.915288  0.252020  1
  Nb  Nb4  1  0.915288  0.563019  0.252020  1
  Nb  Nb5  1  0.436981  0.084712  0.747980  1
  C  C6  1  0.500000  0.500000  0.500000  1
  C  C7  1  0.661500  0.338500  0.000000  1
  C  C8  1  0.338500  0.661500  0.000000  1
  C  C9  1  0.836511  0.163489  0.500000  1
  C  C10  1  0.163489  0.836511  0.500000  1
