# generated using pymatgen
data_Tb15YCd4Co3Ni
_symmetry_space_group_name_H-M   'P 1'
_cell_length_a   9.55788683
_cell_length_b   9.56501576
_cell_length_c   9.56432500
_cell_angle_alpha   60.00239236
_cell_angle_beta   59.97771852
_cell_angle_gamma   59.98487615
_symmetry_Int_Tables_number   1
_chemical_formula_structural   Tb15YCd4Co3Ni
_chemical_formula_sum   'Tb15 Y1 Cd4 Co3 Ni1'
_cell_volume   618.11874761
_cell_formula_units_Z   1
loop_
 _symmetry_equiv_pos_site_id
 _symmetry_equiv_pos_as_xyz
  1  'x, y, z'
loop_
 _atom_site_type_symbol
 _atom_site_label
 _atom_site_symmetry_multiplicity
 _atom_site_fract_x
 _atom_site_fract_y
 _atom_site_fract_z
 _atom_site_occupancy
  Tb  Tb0  1  0.594827  0.598679  0.597044  1
  Tb  Tb1  1  0.594827  0.598679  0.209449  1
  Tb  Tb2  1  0.595532  0.208181  0.598143  1
  Tb  Tb3  1  0.210943  0.596847  0.596105  1
  Tb  Tb4  1  0.064521  0.437657  0.439525  1
  Tb  Tb5  1  0.436995  0.061231  0.062067  1
  Tb  Tb6  1  0.436995  0.061231  0.439707  1
  Tb  Tb7  1  0.064521  0.437657  0.058296  1
  Tb  Tb8  1  0.438245  0.438736  0.061510  1
  Tb  Tb9  1  0.065232  0.057567  0.438600  1
  Tb  Tb10  1  0.187611  0.812285  0.812732  1
  Tb  Tb11  1  0.810558  0.188363  0.187316  1
  Tb  Tb12  1  0.810558  0.188363  0.813764  1
  Tb  Tb13  1  0.187611  0.812285  0.187372  1
  Tb  Tb14  1  0.811443  0.814342  0.187108  1
  Y  Y15  1  0.187156  0.188275  0.812284  1
  Cd  Cd16  1  0.830200  0.830007  0.830769  1
  Cd  Cd17  1  0.830200  0.830007  0.509021  1
  Cd  Cd18  1  0.830832  0.507442  0.830862  1
  Cd  Cd19  1  0.506565  0.830983  0.831226  1
  Co  Co20  1  0.392902  0.391600  0.390303  1
  Co  Co21  1  0.392902  0.391600  0.825195  1
  Co  Co22  1  0.392742  0.826280  0.390489  1
  Ni  Ni23  1  0.826081  0.391700  0.391110  1
