# generated using pymatgen
data_TmLu9(GaSb)4
_symmetry_space_group_name_H-M   'P 1'
_cell_length_a   8.47454219
_cell_length_b   8.47111539
_cell_length_c   7.77391108
_cell_angle_alpha   89.98897376
_cell_angle_beta   89.99656501
_cell_angle_gamma   125.44443430
_symmetry_Int_Tables_number   1
_chemical_formula_structural   TmLu9(GaSb)4
_chemical_formula_sum   'Tm1 Lu9 Ga4 Sb4'
_cell_volume   454.65560056
_cell_formula_units_Z   1
loop_
 _symmetry_equiv_pos_site_id
 _symmetry_equiv_pos_as_xyz
  1  'x, y, z'
loop_
 _atom_site_type_symbol
 _atom_site_label
 _atom_site_symmetry_multiplicity
 _atom_site_fract_x
 _atom_site_fract_y
 _atom_site_fract_z
 _atom_site_occupancy
  Tm  Tm0  1  0.039135  0.297507  0.332802  1
  Lu  Lu1  1  0.539110  0.796720  0.166762  1
  Lu  Lu2  1  0.296777  0.039027  0.333294  1
  Lu  Lu3  1  0.203320  0.460909  0.833269  1
  Lu  Lu4  1  0.960912  0.703079  0.666742  1
  Lu  Lu5  1  0.703155  0.960786  0.666875  1
  Lu  Lu6  1  0.460936  0.203168  0.833213  1
  Lu  Lu7  1  0.796708  0.539046  0.166744  1
  Lu  Lu8  1  0.500316  0.500097  0.500160  1
  Lu  Lu9  1  0.999929  0.999686  0.999758  1
  Ga  Ga10  1  0.627662  0.627618  0.872699  1
  Ga  Ga11  1  0.127665  0.127596  0.627350  1
  Ga  Ga12  1  0.872335  0.872265  0.372699  1
  Ga  Ga13  1  0.372415  0.372329  0.127293  1
  Sb  Sb14  1  0.294627  0.706657  0.500456  1
  Sb  Sb15  1  0.205973  0.793853  0.000123  1
  Sb  Sb16  1  0.705384  0.293918  0.500311  1
  Sb  Sb17  1  0.793641  0.205741  0.999450  1
