# generated using pymatgen
data_YbCo(Se2O7)2
_symmetry_space_group_name_H-M   'P 1'
_cell_length_a   5.28611034
_cell_length_b   7.84091702
_cell_length_c   8.90832715
_cell_angle_alpha   91.80341018
_cell_angle_beta   93.48715330
_cell_angle_gamma   105.26307749
_symmetry_Int_Tables_number   1
_chemical_formula_structural   YbCo(Se2O7)2
_chemical_formula_sum   'Yb1 Co1 Se4 O14'
_cell_volume   355.11605363
_cell_formula_units_Z   1
loop_
 _symmetry_equiv_pos_site_id
 _symmetry_equiv_pos_as_xyz
  1  'x, y, z'
loop_
 _atom_site_type_symbol
 _atom_site_label
 _atom_site_symmetry_multiplicity
 _atom_site_fract_x
 _atom_site_fract_y
 _atom_site_fract_z
 _atom_site_occupancy
  Yb  Yb0  1  0.500000  0.000000  0.500000  1
  Co  Co1  1  0.000000  0.500000  0.000000  1
  Se  Se2  1  0.517191  0.640457  0.778109  1
  Se  Se3  1  0.482809  0.359543  0.221891  1
  Se  Se4  1  0.130776  0.258149  0.701484  1
  Se  Se5  1  0.869224  0.741851  0.298516  1
  O  O6  1  0.766967  0.555429  0.818044  1
  O  O7  1  0.233033  0.444571  0.181956  1
  O  O8  1  0.338706  0.669534  0.918229  1
  O  O9  1  0.661294  0.330466  0.081771  1
  O  O10  1  0.599692  0.811629  0.673347  1
  O  O11  1  0.400308  0.188371  0.326653  1
  O  O12  1  0.296364  0.479769  0.643110  1
  O  O13  1  0.703636  0.520231  0.356890  1
  O  O14  1  0.890658  0.203466  0.568857  1
  O  O15  1  0.109342  0.796534  0.431143  1
  O  O16  1  0.340528  0.137657  0.692849  1
  O  O17  1  0.659472  0.862343  0.307151  1
  O  O18  1  0.047763  0.282273  0.875554  1
  O  O19  1  0.952237  0.717727  0.124446  1
