# generated using pymatgen
data_DyPa3(FeB4)4
_symmetry_space_group_name_H-M   'P 1'
_cell_length_a   3.43111100
_cell_length_b   5.90054230
_cell_length_c   11.44488105
_cell_angle_alpha   89.97641036
_cell_angle_beta   90.00000000
_cell_angle_gamma   90.00000000
_symmetry_Int_Tables_number   1
_chemical_formula_structural   DyPa3(FeB4)4
_chemical_formula_sum   'Dy1 Pa3 Fe4 B16'
_cell_volume   231.70635351
_cell_formula_units_Z   1
loop_
 _symmetry_equiv_pos_site_id
 _symmetry_equiv_pos_as_xyz
  1  'x, y, z'
loop_
 _atom_site_type_symbol
 _atom_site_label
 _atom_site_symmetry_multiplicity
 _atom_site_fract_x
 _atom_site_fract_y
 _atom_site_fract_z
 _atom_site_occupancy
  Dy  Dy0  1  0.500000  0.872745  0.350381  1
  Pa  Pa1  1  0.500000  0.373343  0.151176  1
  Pa  Pa2  1  0.500000  0.626489  0.849628  1
  Pa  Pa3  1  0.500000  0.126328  0.649098  1
  Fe  Fe4  1  0.500000  0.364573  0.411002  1
  Fe  Fe5  1  0.500000  0.636197  0.592585  1
  Fe  Fe6  1  0.500000  0.136039  0.907728  1
  Fe  Fe7  1  0.500000  0.865623  0.089240  1
  B  B8  1  0.000000  0.110566  0.045802  1
  B  B9  1  0.000000  0.887798  0.954984  1
  B  B10  1  0.000000  0.388667  0.544309  1
  B  B11  1  0.000000  0.612923  0.454193  1
  B  B12  1  0.000000  0.139700  0.466035  1
  B  B13  1  0.000000  0.860627  0.532464  1
  B  B14  1  0.000000  0.360536  0.966066  1
  B  B15  1  0.000000  0.638421  0.034491  1
  B  B16  1  0.000000  0.023406  0.190114  1
  B  B17  1  0.000000  0.975724  0.810302  1
  B  B18  1  0.000000  0.475653  0.689485  1
  B  B19  1  0.000000  0.525278  0.311205  1
  B  B20  1  0.000000  0.218449  0.315342  1
  B  B21  1  0.000000  0.780764  0.684952  1
  B  B22  1  0.000000  0.281770  0.814394  1
  B  B23  1  0.000000  0.718382  0.185023  1
