# generated using pymatgen
data_HfNb2(Co3B2)3
_symmetry_space_group_name_H-M   'P 1'
_cell_length_a   5.64983955
_cell_length_b   5.64983887
_cell_length_c   5.64983902
_cell_angle_alpha   95.32774341
_cell_angle_beta   95.32774381
_cell_angle_gamma   95.32775196
_symmetry_Int_Tables_number   1
_chemical_formula_structural   HfNb2(Co3B2)3
_chemical_formula_sum   'Hf1 Nb2 Co9 B6'
_cell_volume   177.85277567
_cell_formula_units_Z   1
loop_
 _symmetry_equiv_pos_site_id
 _symmetry_equiv_pos_as_xyz
  1  'x, y, z'
loop_
 _atom_site_type_symbol
 _atom_site_label
 _atom_site_symmetry_multiplicity
 _atom_site_fract_x
 _atom_site_fract_y
 _atom_site_fract_z
 _atom_site_occupancy
  Hf  Hf0  1  0.329096  0.329096  0.329096  1
  Nb  Nb1  1  0.990818  0.990818  0.990818  1
  Nb  Nb2  1  0.678597  0.678597  0.678597  1
  Co  Co3  1  0.501205  0.998198  0.998198  1
  Co  Co4  1  0.998198  0.501205  0.998198  1
  Co  Co5  1  0.998198  0.998198  0.501205  1
  Co  Co6  1  0.699754  0.204201  0.699754  1
  Co  Co7  1  0.699754  0.699754  0.204201  1
  Co  Co8  1  0.204201  0.699754  0.699754  1
  Co  Co9  1  0.298519  0.800919  0.298519  1
  Co  Co10  1  0.298519  0.298519  0.800919  1
  Co  Co11  1  0.800919  0.298519  0.298519  1
  B  B12  1  0.384939  0.999091  0.617081  1
  B  B13  1  0.617081  0.384939  0.999091  1
  B  B14  1  0.999091  0.617081  0.384939  1
  B  B15  1  0.617081  0.999091  0.384939  1
  B  B16  1  0.384939  0.617081  0.999091  1
  B  B17  1  0.999091  0.384939  0.617081  1
