# generated using pymatgen
data_K(Cu2P)4
_symmetry_space_group_name_H-M   'P 1'
_cell_length_a   7.52243577
_cell_length_b   7.52243619
_cell_length_c   7.52243593
_cell_angle_alpha   93.60797632
_cell_angle_beta   93.60796934
_cell_angle_gamma   150.94349500
_symmetry_Int_Tables_number   1
_chemical_formula_structural   K(Cu2P)4
_chemical_formula_sum   'K1 Cu8 P4'
_cell_volume   200.12653058
_cell_formula_units_Z   1
loop_
 _symmetry_equiv_pos_site_id
 _symmetry_equiv_pos_as_xyz
  1  'x, y, z'
loop_
 _atom_site_type_symbol
 _atom_site_label
 _atom_site_symmetry_multiplicity
 _atom_site_fract_x
 _atom_site_fract_y
 _atom_site_fract_z
 _atom_site_occupancy
  K  K0  1  0.000000  0.000000  0.000000  1
  Cu  Cu1  1  0.770503  0.339592  0.110095  1
  Cu  Cu2  1  0.339592  0.229497  0.569089  1
  Cu  Cu3  1  0.013142  0.366944  0.380086  1
  Cu  Cu4  1  0.986858  0.633056  0.619914  1
  Cu  Cu5  1  0.633056  0.013142  0.646199  1
  Cu  Cu6  1  0.660408  0.770503  0.430911  1
  Cu  Cu7  1  0.366944  0.986858  0.353801  1
  Cu  Cu8  1  0.229497  0.660408  0.889905  1
  P  P9  1  0.577407  0.232639  0.810045  1
  P  P10  1  0.422593  0.767361  0.189955  1
  P  P11  1  0.767361  0.577407  0.344768  1
  P  P12  1  0.232639  0.422593  0.655232  1
