# generated using pymatgen
data_Ti4Al2Pt3Rh7
_symmetry_space_group_name_H-M   'P 1'
_cell_length_a   4.04421700
_cell_length_b   5.42220487
_cell_length_c   10.65010433
_cell_angle_alpha   90.46776437
_cell_angle_beta   90.00000000
_cell_angle_gamma   90.00000000
_symmetry_Int_Tables_number   1
_chemical_formula_structural   Ti4Al2Pt3Rh7
_chemical_formula_sum   'Ti4 Al2 Pt3 Rh7'
_cell_volume   233.53380858
_cell_formula_units_Z   1
loop_
 _symmetry_equiv_pos_site_id
 _symmetry_equiv_pos_as_xyz
  1  'x, y, z'
loop_
 _atom_site_type_symbol
 _atom_site_label
 _atom_site_symmetry_multiplicity
 _atom_site_fract_x
 _atom_site_fract_y
 _atom_site_fract_z
 _atom_site_occupancy
  Ti  Ti0  1  0.500000  0.325638  0.133323  1
  Ti  Ti1  1  0.500000  0.666917  0.861016  1
  Ti  Ti2  1  0.500000  0.827861  0.367147  1
  Ti  Ti3  1  0.500000  0.184004  0.638627  1
  Al  Al4  1  0.000000  0.997833  0.998998  1
  Al  Al5  1  0.000000  0.501329  0.501491  1
  Pt  Pt6  1  0.000000  0.073829  0.242600  1
  Pt  Pt7  1  0.000000  0.923086  0.758036  1
  Pt  Pt8  1  0.000000  0.574292  0.257614  1
  Rh  Rh9  1  0.000000  0.003760  0.500795  1
  Rh  Rh10  1  0.000000  0.497565  0.999052  1
  Rh  Rh11  1  0.000000  0.422502  0.741664  1
  Rh  Rh12  1  0.500000  0.308369  0.389686  1
  Rh  Rh13  1  0.500000  0.695163  0.609122  1
  Rh  Rh14  1  0.500000  0.806126  0.109738  1
  Rh  Rh15  1  0.500000  0.191727  0.891090  1
