# generated using pymatgen
data_Zr16NbNi4Os3
_symmetry_space_group_name_H-M   'P 1'
_cell_length_a   8.74745663
_cell_length_b   8.74745644
_cell_length_c   8.78125430
_cell_angle_alpha   60.12724100
_cell_angle_beta   60.12724197
_cell_angle_gamma   60.00000216
_symmetry_Int_Tables_number   1
_chemical_formula_structural   Zr16NbNi4Os3
_chemical_formula_sum   'Zr16 Nb1 Ni4 Os3'
_cell_volume   476.03374191
_cell_formula_units_Z   1
loop_
 _symmetry_equiv_pos_site_id
 _symmetry_equiv_pos_as_xyz
  1  'x, y, z'
loop_
 _atom_site_type_symbol
 _atom_site_label
 _atom_site_symmetry_multiplicity
 _atom_site_fract_x
 _atom_site_fract_y
 _atom_site_fract_z
 _atom_site_occupancy
  Zr  Zr0  1  0.193411  0.601508  0.603575  1
  Zr  Zr1  1  0.601508  0.193411  0.603575  1
  Zr  Zr2  1  0.601508  0.601508  0.603575  1
  Zr  Zr3  1  0.603954  0.603954  0.188140  1
  Zr  Zr4  1  0.456326  0.456326  0.043563  1
  Zr  Zr5  1  0.047688  0.047688  0.453945  1
  Zr  Zr6  1  0.456326  0.043784  0.043563  1
  Zr  Zr7  1  0.047688  0.450680  0.453945  1
  Zr  Zr8  1  0.043784  0.456326  0.043563  1
  Zr  Zr9  1  0.450680  0.047688  0.453945  1
  Zr  Zr10  1  0.815815  0.815815  0.184608  1
  Zr  Zr11  1  0.184142  0.184142  0.816798  1
  Zr  Zr12  1  0.815815  0.183763  0.184608  1
  Zr  Zr13  1  0.184142  0.814917  0.816798  1
  Zr  Zr14  1  0.183763  0.815815  0.184608  1
  Zr  Zr15  1  0.814917  0.184142  0.816798  1
  Nb  Nb16  1  0.829966  0.829966  0.510100  1
  Ni  Ni17  1  0.827126  0.392035  0.388803  1
  Ni  Ni18  1  0.392035  0.827126  0.388803  1
  Ni  Ni19  1  0.392035  0.392035  0.388803  1
  Ni  Ni20  1  0.390616  0.390616  0.828151  1
  Os  Os21  1  0.501396  0.832680  0.833245  1
  Os  Os22  1  0.832680  0.501396  0.833245  1
  Os  Os23  1  0.832680  0.832680  0.833245  1
