# generated using pymatgen
data_Yb20ZnCd2Ag9
_symmetry_space_group_name_H-M   'P 1'
_cell_length_a   8.00616800
_cell_length_b   8.00616800
_cell_length_c   14.59924900
_cell_angle_alpha   90.00000000
_cell_angle_beta   90.00000000
_cell_angle_gamma   90.00000000
_symmetry_Int_Tables_number   1
_chemical_formula_structural   Yb20ZnCd2Ag9
_chemical_formula_sum   'Yb20 Zn1 Cd2 Ag9'
_cell_volume   935.79326210
_cell_formula_units_Z   1
loop_
 _symmetry_equiv_pos_site_id
 _symmetry_equiv_pos_as_xyz
  1  'x, y, z'
loop_
 _atom_site_type_symbol
 _atom_site_label
 _atom_site_symmetry_multiplicity
 _atom_site_fract_x
 _atom_site_fract_y
 _atom_site_fract_z
 _atom_site_occupancy
  Yb  Yb0  1  0.000000  0.000000  0.754450  1
  Yb  Yb1  1  0.500000  0.500000  0.250885  1
  Yb  Yb2  1  0.000000  0.000000  0.245550  1
  Yb  Yb3  1  0.500000  0.500000  0.749115  1
  Yb  Yb4  1  0.171063  0.661833  0.106480  1
  Yb  Yb5  1  0.669347  0.164257  0.608866  1
  Yb  Yb6  1  0.828937  0.338167  0.106480  1
  Yb  Yb7  1  0.330653  0.835743  0.608866  1
  Yb  Yb8  1  0.338167  0.171063  0.106480  1
  Yb  Yb9  1  0.835743  0.669347  0.608866  1
  Yb  Yb10  1  0.661833  0.828937  0.106480  1
  Yb  Yb11  1  0.164257  0.330653  0.608866  1
  Yb  Yb12  1  0.338167  0.828937  0.893520  1
  Yb  Yb13  1  0.835743  0.330653  0.391134  1
  Yb  Yb14  1  0.661833  0.171063  0.893520  1
  Yb  Yb15  1  0.164257  0.669347  0.391134  1
  Yb  Yb16  1  0.171063  0.338167  0.893520  1
  Yb  Yb17  1  0.669347  0.835743  0.391134  1
  Yb  Yb18  1  0.828937  0.661833  0.893520  1
  Yb  Yb19  1  0.330653  0.164257  0.391134  1
  Zn  Zn20  1  0.000000  0.000000  0.500000  1
  Cd  Cd21  1  0.000000  0.000000  0.000000  1
  Cd  Cd22  1  0.500000  0.500000  0.500000  1
  Ag  Ag23  1  0.628428  0.127942  0.248770  1
  Ag  Ag24  1  0.127942  0.628428  0.751230  1
  Ag  Ag25  1  0.872058  0.371572  0.751230  1
  Ag  Ag26  1  0.371572  0.872058  0.248770  1
  Ag  Ag27  1  0.371572  0.127942  0.751230  1
  Ag  Ag28  1  0.872058  0.628428  0.248770  1
  Ag  Ag29  1  0.127942  0.371572  0.248770  1
  Ag  Ag30  1  0.628428  0.872058  0.751230  1
  Ag  Ag31  1  0.500000  0.500000  0.000000  1
