# generated using pymatgen
data_Dy3Ho2Tm3(CdIr)2
_symmetry_space_group_name_H-M   'P 1'
_cell_length_a   9.56918449
_cell_length_b   9.56918466
_cell_length_c   9.56918500
_cell_angle_alpha   60.00000229
_cell_angle_beta   60.00000168
_cell_angle_gamma   60.00000572
_symmetry_Int_Tables_number   1
_chemical_formula_structural   Dy3Ho2Tm3(CdIr)2
_chemical_formula_sum   'Dy6 Ho4 Tm6 Cd4 Ir4'
_cell_volume   619.59777274
_cell_formula_units_Z   2
loop_
 _symmetry_equiv_pos_site_id
 _symmetry_equiv_pos_as_xyz
  1  'x, y, z'
loop_
 _atom_site_type_symbol
 _atom_site_label
 _atom_site_symmetry_multiplicity
 _atom_site_fract_x
 _atom_site_fract_y
 _atom_site_fract_z
 _atom_site_occupancy
  Dy  Dy0  1  0.188677  0.811323  0.811323  1
  Dy  Dy1  1  0.811323  0.188677  0.188677  1
  Dy  Dy2  1  0.811323  0.188677  0.811323  1
  Dy  Dy3  1  0.188677  0.811323  0.188677  1
  Dy  Dy4  1  0.811323  0.811323  0.188677  1
  Dy  Dy5  1  0.188677  0.188677  0.811323  1
  Ho  Ho6  1  0.599160  0.599160  0.599160  1
  Ho  Ho7  1  0.599160  0.599160  0.202522  1
  Ho  Ho8  1  0.599160  0.202522  0.599160  1
  Ho  Ho9  1  0.202522  0.599160  0.599160  1
  Tm  Tm10  1  0.061706  0.438294  0.438294  1
  Tm  Tm11  1  0.438294  0.061706  0.061706  1
  Tm  Tm12  1  0.438294  0.061706  0.438294  1
  Tm  Tm13  1  0.061706  0.438294  0.061706  1
  Tm  Tm14  1  0.438294  0.438294  0.061706  1
  Tm  Tm15  1  0.061706  0.061706  0.438294  1
  Cd  Cd16  1  0.830768  0.830768  0.830768  1
  Cd  Cd17  1  0.830768  0.830768  0.507696  1
  Cd  Cd18  1  0.830768  0.507696  0.830768  1
  Cd  Cd19  1  0.507696  0.830768  0.830768  1
  Ir  Ir20  1  0.391257  0.391257  0.391257  1
  Ir  Ir21  1  0.391257  0.391257  0.826230  1
  Ir  Ir22  1  0.391257  0.826230  0.391257  1
  Ir  Ir23  1  0.826230  0.391257  0.391257  1
