# generated using pymatgen
data_Ho6Er5Th5(MgRu)4
_symmetry_space_group_name_H-M   'P 1'
_cell_length_a   9.69516027
_cell_length_b   9.74459780
_cell_length_c   9.74459809
_cell_angle_alpha   59.79427784
_cell_angle_beta   60.16768793
_cell_angle_gamma   60.16768791
_symmetry_Int_Tables_number   1
_chemical_formula_structural   Ho6Er5Th5(MgRu)4
_chemical_formula_sum   'Ho6 Er5 Th5 Mg4 Ru4'
_cell_volume   651.59961116
_cell_formula_units_Z   1
loop_
 _symmetry_equiv_pos_site_id
 _symmetry_equiv_pos_as_xyz
  1  'x, y, z'
loop_
 _atom_site_type_symbol
 _atom_site_label
 _atom_site_symmetry_multiplicity
 _atom_site_fract_x
 _atom_site_fract_y
 _atom_site_fract_z
 _atom_site_occupancy
  Ho  Ho0  1  0.932455  0.567545  0.567545  1
  Ho  Ho1  1  0.564569  0.935431  0.935431  1
  Ho  Ho2  1  0.563062  0.935753  0.564828  1
  Ho  Ho3  1  0.936357  0.564828  0.935753  1
  Ho  Ho4  1  0.563062  0.564828  0.935753  1
  Ho  Ho5  1  0.936357  0.935753  0.564828  1
  Er  Er6  1  0.185980  0.814020  0.814020  1
  Er  Er7  1  0.191065  0.809899  0.184810  1
  Er  Er8  1  0.814226  0.184810  0.809899  1
  Er  Er9  1  0.191065  0.184810  0.809899  1
  Er  Er10  1  0.814226  0.809899  0.184810  1
  Th  Th11  1  0.341976  0.348869  0.348869  1
  Th  Th12  1  0.346684  0.347704  0.958926  1
  Th  Th13  1  0.346684  0.958926  0.347704  1
  Th  Th14  1  0.960285  0.348869  0.348869  1
  Th  Th15  1  0.816540  0.183460  0.183460  1
  Mg  Mg16  1  0.581403  0.579702  0.579702  1
  Mg  Mg17  1  0.579844  0.581186  0.259127  1
  Mg  Mg18  1  0.579844  0.259127  0.581186  1
  Mg  Mg19  1  0.259196  0.579702  0.579702  1
  Ru  Ru20  1  0.129313  0.146976  0.146976  1
  Ru  Ru21  1  0.144536  0.141997  0.568931  1
  Ru  Ru22  1  0.144536  0.568931  0.141997  1
  Ru  Ru23  1  0.576733  0.146976  0.146976  1
