# generated using pymatgen
data_Pr2Ho5Er(Si3Rh)4
_symmetry_space_group_name_H-M   'P 1'
_cell_length_a   8.19672502
_cell_length_b   8.19672382
_cell_length_c   8.01737700
_cell_angle_alpha   90.00000000
_cell_angle_beta   90.00000000
_cell_angle_gamma   119.99175217
_symmetry_Int_Tables_number   1
_chemical_formula_structural   Pr2Ho5Er(Si3Rh)4
_chemical_formula_sum   'Pr2 Ho5 Er1 Si12 Rh4'
_cell_volume   466.53012654
_cell_formula_units_Z   1
loop_
 _symmetry_equiv_pos_site_id
 _symmetry_equiv_pos_as_xyz
  1  'x, y, z'
loop_
 _atom_site_type_symbol
 _atom_site_label
 _atom_site_symmetry_multiplicity
 _atom_site_fract_x
 _atom_site_fract_y
 _atom_site_fract_z
 _atom_site_occupancy
  Pr  Pr0  1  0.000004  0.999996  0.250000  1
  Pr  Pr1  1  0.999988  0.000012  0.750000  1
  Ho  Ho2  1  0.508639  0.017386  0.250000  1
  Ho  Ho3  1  0.982614  0.491361  0.250000  1
  Ho  Ho4  1  0.491360  0.508640  0.750000  1
  Ho  Ho5  1  0.491364  0.982719  0.750000  1
  Ho  Ho6  1  0.017281  0.508636  0.750000  1
  Er  Er7  1  0.508691  0.491309  0.250000  1
  Si  Si8  1  0.168737  0.831263  0.501393  1
  Si  Si9  1  0.168763  0.337425  0.501335  1
  Si  Si10  1  0.662575  0.831237  0.501335  1
  Si  Si11  1  0.831305  0.168695  0.498541  1
  Si  Si12  1  0.831171  0.662595  0.498311  1
  Si  Si13  1  0.337405  0.168829  0.498311  1
  Si  Si14  1  0.831305  0.168695  0.001459  1
  Si  Si15  1  0.831171  0.662595  0.001689  1
  Si  Si16  1  0.337405  0.168829  0.001689  1
  Si  Si17  1  0.168737  0.831263  0.998607  1
  Si  Si18  1  0.168763  0.337425  0.998665  1
  Si  Si19  1  0.662575  0.831237  0.998665  1
  Rh  Rh20  1  0.333493  0.666507  0.464285  1
  Rh  Rh21  1  0.666581  0.333419  0.534878  1
  Rh  Rh22  1  0.666581  0.333419  0.965122  1
  Rh  Rh23  1  0.333493  0.666507  0.035715  1
