# generated using pymatgen
data_Mo2Os5Ru
_symmetry_space_group_name_H-M   'P 1'
_cell_length_a   5.55666900
_cell_length_b   5.55573006
_cell_length_c   4.38176000
_cell_angle_alpha   90.00000000
_cell_angle_beta   90.00000000
_cell_angle_gamma   120.00559672
_symmetry_Int_Tables_number   1
_chemical_formula_structural   Mo2Os5Ru
_chemical_formula_sum   'Mo2 Os5 Ru1'
_cell_volume   117.14139362
_cell_formula_units_Z   1
loop_
 _symmetry_equiv_pos_site_id
 _symmetry_equiv_pos_as_xyz
  1  'x, y, z'
loop_
 _atom_site_type_symbol
 _atom_site_label
 _atom_site_symmetry_multiplicity
 _atom_site_fract_x
 _atom_site_fract_y
 _atom_site_fract_z
 _atom_site_occupancy
  Mo  Mo0  1  0.665853  0.331705  0.250000  1
  Mo  Mo1  1  0.332546  0.665094  0.750000  1
  Os  Os2  1  0.832426  0.165800  0.750000  1
  Os  Os3  1  0.333375  0.165800  0.750000  1
  Os  Os4  1  0.833072  0.666144  0.750000  1
  Os  Os5  1  0.169552  0.835713  0.250000  1
  Os  Os6  1  0.666160  0.835713  0.250000  1
  Ru  Ru7  1  0.167015  0.334030  0.250000  1
