# generated using pymatgen
data_Sc6Ti7Ga9Ir8
_symmetry_space_group_name_H-M   'P 1'
_cell_length_a   8.88846655
_cell_length_b   8.88846543
_cell_length_c   8.88846700
_cell_angle_alpha   59.95208126
_cell_angle_beta   59.95207799
_cell_angle_gamma   59.95209325
_symmetry_Int_Tables_number   1
_chemical_formula_structural   Sc6Ti7Ga9Ir8
_chemical_formula_sum   'Sc6 Ti7 Ga9 Ir8'
_cell_volume   496.01326692
_cell_formula_units_Z   1
loop_
 _symmetry_equiv_pos_site_id
 _symmetry_equiv_pos_as_xyz
  1  'x, y, z'
loop_
 _atom_site_type_symbol
 _atom_site_label
 _atom_site_symmetry_multiplicity
 _atom_site_fract_x
 _atom_site_fract_y
 _atom_site_fract_z
 _atom_site_occupancy
  Sc  Sc0  1  0.213818  0.213818  0.787426  1
  Sc  Sc1  1  0.787426  0.213818  0.213818  1
  Sc  Sc2  1  0.213818  0.787426  0.213818  1
  Sc  Sc3  1  0.794909  0.794909  0.191932  1
  Sc  Sc4  1  0.191932  0.794909  0.794909  1
  Sc  Sc5  1  0.794909  0.191932  0.794909  1
  Ti  Ti6  1  0.377058  0.377058  0.377058  1
  Ti  Ti7  1  0.379888  0.867070  0.379888  1
  Ti  Ti8  1  0.867070  0.379888  0.379888  1
  Ti  Ti9  1  0.379888  0.379888  0.867070  1
  Ti  Ti10  1  0.836447  0.491893  0.836447  1
  Ti  Ti11  1  0.491893  0.836447  0.836447  1
  Ti  Ti12  1  0.836447  0.836447  0.491893  1
  Ga  Ga13  1  0.160155  0.160155  0.160155  1
  Ga  Ga14  1  0.160524  0.520244  0.160524  1
  Ga  Ga15  1  0.520244  0.160524  0.160524  1
  Ga  Ga16  1  0.160524  0.160524  0.520244  1
  Ga  Ga17  1  0.619407  0.619407  0.619407  1
  Ga  Ga18  1  0.616344  0.146681  0.616344  1
  Ga  Ga19  1  0.146681  0.616344  0.616344  1
  Ga  Ga20  1  0.616344  0.616344  0.146681  1
  Ga  Ga21  1  0.826368  0.826368  0.826368  1
  Ir  Ir22  1  0.001661  0.001661  0.495587  1
  Ir  Ir23  1  0.495587  0.001661  0.001661  1
  Ir  Ir24  1  0.001661  0.495587  0.001661  1
  Ir  Ir25  1  0.501678  0.501678  0.000072  1
  Ir  Ir26  1  0.000072  0.501678  0.501678  1
  Ir  Ir27  1  0.501678  0.000072  0.501678  1
  Ir  Ir28  1  0.500865  0.500865  0.500865  1
  Ir  Ir29  1  0.004703  0.004703  0.004703  1
