# generated using pymatgen
data_Ho20Bi8IrOs3
_symmetry_space_group_name_H-M   'P 1'
_cell_length_a   7.93673167
_cell_length_b   9.00041800
_cell_length_c   12.44030497
_cell_angle_alpha   90.00000000
_cell_angle_beta   89.98413149
_cell_angle_gamma   90.00000000
_symmetry_Int_Tables_number   1
_chemical_formula_structural   Ho20Bi8IrOs3
_chemical_formula_sum   'Ho20 Bi8 Ir1 Os3'
_cell_volume   888.65949887
_cell_formula_units_Z   1
loop_
 _symmetry_equiv_pos_site_id
 _symmetry_equiv_pos_as_xyz
  1  'x, y, z'
loop_
 _atom_site_type_symbol
 _atom_site_label
 _atom_site_symmetry_multiplicity
 _atom_site_fract_x
 _atom_site_fract_y
 _atom_site_fract_z
 _atom_site_occupancy
  Ho  Ho0  1  0.341509  0.750000  0.707163  1
  Ho  Ho1  1  0.658359  0.250000  0.292392  1
  Ho  Ho2  1  0.841872  0.250000  0.791608  1
  Ho  Ho3  1  0.156781  0.750000  0.206648  1
  Ho  Ho4  1  0.879437  0.750000  0.806294  1
  Ho  Ho5  1  0.119905  0.250000  0.193383  1
  Ho  Ho6  1  0.378862  0.250000  0.692843  1
  Ho  Ho7  1  0.621814  0.750000  0.307446  1
  Ho  Ho8  1  0.676830  0.541010  0.564707  1
  Ho  Ho9  1  0.324306  0.455913  0.435887  1
  Ho  Ho10  1  0.174156  0.457574  0.936324  1
  Ho  Ho11  1  0.324306  0.044087  0.435887  1
  Ho  Ho12  1  0.824992  0.543133  0.063899  1
  Ho  Ho13  1  0.676830  0.958990  0.564707  1
  Ho  Ho14  1  0.824992  0.956867  0.063899  1
  Ho  Ho15  1  0.174156  0.042426  0.936324  1
  Ho  Ho16  1  0.054908  0.750000  0.497101  1
  Ho  Ho17  1  0.943886  0.250000  0.502953  1
  Ho  Ho18  1  0.558639  0.250000  0.003532  1
  Ho  Ho19  1  0.441753  0.750000  0.996216  1
  Bi  Bi20  1  0.569982  0.508492  0.827562  1
  Bi  Bi21  1  0.429939  0.491958  0.172557  1
  Bi  Bi22  1  0.070578  0.491610  0.671990  1
  Bi  Bi23  1  0.429939  0.008042  0.172557  1
  Bi  Bi24  1  0.929856  0.508770  0.328327  1
  Bi  Bi25  1  0.569982  0.991508  0.827562  1
  Bi  Bi26  1  0.929856  0.991230  0.328327  1
  Bi  Bi27  1  0.070578  0.008390  0.671990  1
  Ir  Ir28  1  0.427159  0.750000  0.490589  1
  Os  Os29  1  0.075495  0.750000  0.989087  1
  Os  Os30  1  0.924097  0.250000  0.010143  1
  Os  Os31  1  0.574249  0.250000  0.510096  1
