# generated using pymatgen
data_Zr6Al2Ga5Ni16
_symmetry_space_group_name_H-M   'P 1'
_cell_length_a   8.25136110
_cell_length_b   8.25135993
_cell_length_c   8.23497400
_cell_angle_alpha   60.06566956
_cell_angle_beta   60.06567422
_cell_angle_gamma   60.02874852
_symmetry_Int_Tables_number   1
_chemical_formula_structural   Zr6Al2Ga5Ni16
_chemical_formula_sum   'Zr6 Al2 Ga5 Ni16'
_cell_volume   396.93847531
_cell_formula_units_Z   1
loop_
 _symmetry_equiv_pos_site_id
 _symmetry_equiv_pos_as_xyz
  1  'x, y, z'
loop_
 _atom_site_type_symbol
 _atom_site_label
 _atom_site_symmetry_multiplicity
 _atom_site_fract_x
 _atom_site_fract_y
 _atom_site_fract_z
 _atom_site_occupancy
  Zr  Zr0  1  0.708962  0.708962  0.291038  1
  Zr  Zr1  1  0.291520  0.708480  0.290855  1
  Zr  Zr2  1  0.708480  0.291520  0.290855  1
  Zr  Zr3  1  0.291038  0.291038  0.708962  1
  Zr  Zr4  1  0.708480  0.291520  0.709145  1
  Zr  Zr5  1  0.291520  0.708480  0.709145  1
  Al  Al6  1  0.000000  0.000000  0.000000  1
  Al  Al7  1  0.000000  0.000000  0.500000  1
  Ga  Ga8  1  0.500000  0.000000  0.500000  1
  Ga  Ga9  1  0.000000  0.500000  0.500000  1
  Ga  Ga10  1  0.500000  0.500000  0.000000  1
  Ga  Ga11  1  0.000000  0.500000  0.000000  1
  Ga  Ga12  1  0.500000  0.000000  0.000000  1
  Ni  Ni13  1  0.880909  0.880909  0.361292  1
  Ni  Ni14  1  0.880056  0.359895  0.880025  1
  Ni  Ni15  1  0.359895  0.880056  0.880025  1
  Ni  Ni16  1  0.880909  0.880909  0.876889  1
  Ni  Ni17  1  0.119091  0.119091  0.638708  1
  Ni  Ni18  1  0.119944  0.640105  0.119975  1
  Ni  Ni19  1  0.640105  0.119944  0.119975  1
  Ni  Ni20  1  0.119091  0.119091  0.123111  1
  Ni  Ni21  1  0.669374  0.669374  0.993031  1
  Ni  Ni22  1  0.669854  0.994282  0.667932  1
  Ni  Ni23  1  0.994282  0.669854  0.667932  1
  Ni  Ni24  1  0.669374  0.669374  0.668221  1
  Ni  Ni25  1  0.330626  0.330626  0.006969  1
  Ni  Ni26  1  0.330146  0.005718  0.332068  1
  Ni  Ni27  1  0.005718  0.330146  0.332068  1
  Ni  Ni28  1  0.330626  0.330626  0.331779  1
