# generated using pymatgen
data_CsMn2F6
_symmetry_space_group_name_H-M   'P 1'
_cell_length_a   7.59423550
_cell_length_b   7.59423565
_cell_length_c   7.59423510
_cell_angle_alpha   120.41617113
_cell_angle_beta   117.53773182
_cell_angle_gamma   91.79881932
_symmetry_Int_Tables_number   1
_chemical_formula_structural   CsMn2F6
_chemical_formula_sum   'Cs2 Mn4 F12'
_cell_volume   314.07982261
_cell_formula_units_Z   2
loop_
 _symmetry_equiv_pos_site_id
 _symmetry_equiv_pos_as_xyz
  1  'x, y, z'
loop_
 _atom_site_type_symbol
 _atom_site_label
 _atom_site_symmetry_multiplicity
 _atom_site_fract_x
 _atom_site_fract_y
 _atom_site_fract_z
 _atom_site_occupancy
  Cs  Cs0  1  0.373284  0.623284  0.750000  1
  Cs  Cs1  1  0.626716  0.376716  0.250000  1
  Mn  Mn2  1  0.000000  0.000000  0.500000  1
  Mn  Mn3  1  0.000000  0.500000  0.000000  1
  Mn  Mn4  1  0.000000  0.000000  0.000000  1
  Mn  Mn5  1  0.500000  0.000000  0.500000  1
  F  F6  1  0.323514  0.073514  0.250000  1
  F  F7  1  0.922061  0.672061  0.250000  1
  F  F8  1  0.325022  0.696412  0.262590  1
  F  F9  1  0.933822  0.062432  0.237410  1
  F  F10  1  0.325022  0.062432  0.628609  1
  F  F11  1  0.933822  0.696412  0.871391  1
  F  F12  1  0.676486  0.926486  0.750000  1
  F  F13  1  0.077939  0.327939  0.750000  1
  F  F14  1  0.674978  0.303588  0.737410  1
  F  F15  1  0.066178  0.937568  0.762590  1
  F  F16  1  0.674978  0.937568  0.371391  1
  F  F17  1  0.066178  0.303588  0.128609  1
