# generated using pymatgen
data_NaCuF5
_symmetry_space_group_name_H-M   'P 1'
_cell_length_a   5.49304438
_cell_length_b   5.49304393
_cell_length_c   7.76270302
_cell_angle_alpha   69.62124693
_cell_angle_beta   69.62124518
_cell_angle_gamma   69.78201744
_symmetry_Int_Tables_number   1
_chemical_formula_structural   NaCuF5
_chemical_formula_sum   'Na2 Cu2 F10'
_cell_volume   199.00554321
_cell_formula_units_Z   2
loop_
 _symmetry_equiv_pos_site_id
 _symmetry_equiv_pos_as_xyz
  1  'x, y, z'
loop_
 _atom_site_type_symbol
 _atom_site_label
 _atom_site_symmetry_multiplicity
 _atom_site_fract_x
 _atom_site_fract_y
 _atom_site_fract_z
 _atom_site_occupancy
  Na  Na0  1  0.540546  0.459454  0.250000  1
  Na  Na1  1  0.459454  0.540546  0.750000  1
  Cu  Cu2  1  0.000000  0.000000  0.500000  1
  Cu  Cu3  1  0.000000  0.000000  0.000000  1
  F  F4  1  0.047504  0.952496  0.750000  1
  F  F5  1  0.952496  0.047504  0.250000  1
  F  F6  1  0.206222  0.230839  0.891173  1
  F  F7  1  0.769161  0.793778  0.608827  1
  F  F8  1  0.723825  0.294337  0.520747  1
  F  F9  1  0.705663  0.276175  0.979253  1
  F  F10  1  0.276175  0.705663  0.479253  1
  F  F11  1  0.294337  0.723825  0.020747  1
  F  F12  1  0.230839  0.206222  0.391173  1
  F  F13  1  0.793778  0.769161  0.108827  1
