# generated using pymatgen
data_Na6VIO5
_symmetry_space_group_name_H-M   'P 1'
_cell_length_a   6.90914964
_cell_length_b   6.90914895
_cell_length_c   6.90914900
_cell_angle_alpha   59.99999498
_cell_angle_beta   59.99999826
_cell_angle_gamma   59.99999280
_symmetry_Int_Tables_number   1
_chemical_formula_structural   Na6VIO5
_chemical_formula_sum   'Na6 V1 I1 O5'
_cell_volume   233.21617557
_cell_formula_units_Z   1
loop_
 _symmetry_equiv_pos_site_id
 _symmetry_equiv_pos_as_xyz
  1  'x, y, z'
loop_
 _atom_site_type_symbol
 _atom_site_label
 _atom_site_symmetry_multiplicity
 _atom_site_fract_x
 _atom_site_fract_y
 _atom_site_fract_z
 _atom_site_occupancy
  Na  Na0  1  0.484846  0.015155  0.015155  1
  Na  Na1  1  0.015155  0.484846  0.015155  1
  Na  Na2  1  0.484846  0.484846  0.015155  1
  Na  Na3  1  0.015155  0.015155  0.484846  1
  Na  Na4  1  0.484846  0.015155  0.484846  1
  Na  Na5  1  0.015155  0.484846  0.484846  1
  V  V6  1  0.500000  0.500000  0.500000  1
  I  I7  1  0.000000  0.000000  0.000000  1
  O  O8  1  0.603610  0.603610  0.189170  1
  O  O9  1  0.250000  0.250000  0.250000  1
  O  O10  1  0.603610  0.189170  0.603610  1
  O  O11  1  0.189170  0.603610  0.603610  1
  O  O12  1  0.603610  0.603610  0.603610  1
