# generated using pymatgen
data_Ho2Er10OsPd3
_symmetry_space_group_name_H-M   'P 1'
_cell_length_a   6.42388202
_cell_length_b   7.07756904
_cell_length_c   9.39469100
_cell_angle_alpha   90.00000000
_cell_angle_beta   90.00000000
_cell_angle_gamma   89.98932339
_symmetry_Int_Tables_number   1
_chemical_formula_structural   Ho2Er10OsPd3
_chemical_formula_sum   'Ho2 Er10 Os1 Pd3'
_cell_volume   427.13402033
_cell_formula_units_Z   1
loop_
 _symmetry_equiv_pos_site_id
 _symmetry_equiv_pos_as_xyz
  1  'x, y, z'
loop_
 _atom_site_type_symbol
 _atom_site_label
 _atom_site_symmetry_multiplicity
 _atom_site_fract_x
 _atom_site_fract_y
 _atom_site_fract_z
 _atom_site_occupancy
  Ho  Ho0  1  0.874220  0.524278  0.250000  1
  Ho  Ho1  1  0.630658  0.028835  0.250000  1
  Er  Er2  1  0.329902  0.683804  0.051932  1
  Er  Er3  1  0.173344  0.182606  0.440728  1
  Er  Er4  1  0.673735  0.321476  0.562517  1
  Er  Er5  1  0.818392  0.814035  0.937161  1
  Er  Er6  1  0.673735  0.321476  0.937483  1
  Er  Er7  1  0.818392  0.814035  0.562839  1
  Er  Er8  1  0.329902  0.683804  0.448068  1
  Er  Er9  1  0.173344  0.182606  0.059272  1
  Er  Er10  1  0.127523  0.476427  0.750000  1
  Er  Er11  1  0.378337  0.964049  0.750000  1
  Os  Os12  1  0.543692  0.609638  0.750000  1
  Pd  Pd13  1  0.055155  0.889023  0.250000  1
  Pd  Pd14  1  0.444240  0.393987  0.250000  1
  Pd  Pd15  1  0.955429  0.109921  0.750000  1
