# generated using pymatgen
data_Ho20Al3Zn3Os2
_symmetry_space_group_name_H-M   'P 1'
_cell_length_a   9.39984900
_cell_length_b   9.39987052
_cell_length_c   9.66550300
_cell_angle_alpha   89.99992686
_cell_angle_beta   89.99998781
_cell_angle_gamma   120.00011781
_symmetry_Int_Tables_number   1
_chemical_formula_structural   Ho20Al3Zn3Os2
_chemical_formula_sum   'Ho20 Al3 Zn3 Os2'
_cell_volume   739.60071895
_cell_formula_units_Z   1
loop_
 _symmetry_equiv_pos_site_id
 _symmetry_equiv_pos_as_xyz
  1  'x, y, z'
loop_
 _atom_site_type_symbol
 _atom_site_label
 _atom_site_symmetry_multiplicity
 _atom_site_fract_x
 _atom_site_fract_y
 _atom_site_fract_z
 _atom_site_occupancy
  Ho  Ho0  1  0.000002  0.000005  0.517679  1
  Ho  Ho1  1  0.000001  0.000006  0.982326  1
  Ho  Ho2  1  0.206909  0.793086  0.439934  1
  Ho  Ho3  1  0.206907  0.413802  0.439960  1
  Ho  Ho4  1  0.586179  0.793081  0.439939  1
  Ho  Ho5  1  0.792101  0.207899  0.557107  1
  Ho  Ho6  1  0.792110  0.584230  0.557109  1
  Ho  Ho7  1  0.415795  0.207900  0.557113  1
  Ho  Ho8  1  0.792101  0.207895  0.942900  1
  Ho  Ho9  1  0.792114  0.584233  0.942908  1
  Ho  Ho10  1  0.415793  0.207901  0.942904  1
  Ho  Ho11  1  0.206909  0.793092  0.060078  1
  Ho  Ho12  1  0.206916  0.413818  0.060049  1
  Ho  Ho13  1  0.586175  0.793079  0.060066  1
  Ho  Ho14  1  0.539582  0.460415  0.250003  1
  Ho  Ho15  1  0.539581  0.079175  0.250001  1
  Ho  Ho16  1  0.920829  0.460415  0.250001  1
  Ho  Ho17  1  0.459575  0.540437  0.749999  1
  Ho  Ho18  1  0.459572  0.919150  0.750002  1
  Ho  Ho19  1  0.080853  0.540428  0.750001  1
  Al  Al20  1  0.894531  0.105471  0.250008  1
  Al  Al21  1  0.894531  0.789068  0.250004  1
  Al  Al22  1  0.210938  0.105475  0.250004  1
  Zn  Zn23  1  0.115901  0.884093  0.750004  1
  Zn  Zn24  1  0.115909  0.231815  0.750001  1
  Zn  Zn25  1  0.768188  0.884095  0.750002  1
  Os  Os26  1  0.333293  0.666683  0.249939  1
  Os  Os27  1  0.666702  0.333254  0.749960  1
