# generated using pymatgen
data_Cs6K3InAs4
_symmetry_space_group_name_H-M   'P 1'
_cell_length_a   10.67599200
_cell_length_b   10.67599176
_cell_length_c   11.41922100
_cell_angle_alpha   90.00000000
_cell_angle_beta   90.00000000
_cell_angle_gamma   120.00000076
_symmetry_Int_Tables_number   1
_chemical_formula_structural   Cs6K3InAs4
_chemical_formula_sum   'Cs12 K6 In2 As8'
_cell_volume   1127.15482866
_cell_formula_units_Z   2
loop_
 _symmetry_equiv_pos_site_id
 _symmetry_equiv_pos_as_xyz
  1  'x, y, z'
loop_
 _atom_site_type_symbol
 _atom_site_label
 _atom_site_symmetry_multiplicity
 _atom_site_fract_x
 _atom_site_fract_y
 _atom_site_fract_z
 _atom_site_occupancy
  Cs  Cs0  1  0.207616  0.792384  0.953472  1
  Cs  Cs1  1  0.207616  0.415231  0.953472  1
  Cs  Cs2  1  0.584769  0.792384  0.953472  1
  Cs  Cs3  1  0.415231  0.207616  0.453472  1
  Cs  Cs4  1  0.792384  0.584769  0.046528  1
  Cs  Cs5  1  0.792384  0.207616  0.453472  1
  Cs  Cs6  1  0.792384  0.584769  0.453472  1
  Cs  Cs7  1  0.207616  0.792384  0.546528  1
  Cs  Cs8  1  0.584769  0.792384  0.546528  1
  Cs  Cs9  1  0.415231  0.207616  0.046528  1
  Cs  Cs10  1  0.792384  0.207616  0.046528  1
  Cs  Cs11  1  0.207616  0.415231  0.546528  1
  K  K12  1  0.241252  0.120626  0.750000  1
  K  K13  1  0.879374  0.120626  0.750000  1
  K  K14  1  0.758748  0.879374  0.250000  1
  K  K15  1  0.120626  0.241252  0.250000  1
  K  K16  1  0.120626  0.879374  0.250000  1
  K  K17  1  0.879374  0.758748  0.750000  1
  In  In18  1  0.333333  0.666667  0.250000  1
  In  In19  1  0.666667  0.333333  0.750000  1
  As  As20  1  0.000000  0.000000  0.000000  1
  As  As21  1  0.045185  0.522592  0.250000  1
  As  As22  1  0.477408  0.954815  0.250000  1
  As  As23  1  0.522592  0.045185  0.750000  1
  As  As24  1  0.522592  0.477408  0.750000  1
  As  As25  1  0.000000  0.000000  0.500000  1
  As  As26  1  0.477408  0.522592  0.250000  1
  As  As27  1  0.954815  0.477408  0.750000  1
