# generated using pymatgen
data_Th10CuSn3Sb4
_symmetry_space_group_name_H-M   'P 1'
_cell_length_a   9.56042500
_cell_length_b   9.56042532
_cell_length_c   6.57309500
_cell_angle_alpha   90.00000000
_cell_angle_beta   90.00000000
_cell_angle_gamma   120.00000236
_symmetry_Int_Tables_number   1
_chemical_formula_structural   Th10CuSn3Sb4
_chemical_formula_sum   'Th10 Cu1 Sn3 Sb4'
_cell_volume   520.30133798
_cell_formula_units_Z   1
loop_
 _symmetry_equiv_pos_site_id
 _symmetry_equiv_pos_as_xyz
  1  'x, y, z'
loop_
 _atom_site_type_symbol
 _atom_site_label
 _atom_site_symmetry_multiplicity
 _atom_site_fract_x
 _atom_site_fract_y
 _atom_site_fract_z
 _atom_site_occupancy
  Th  Th0  1  0.000000  0.727804  0.761222  1
  Th  Th1  1  0.272196  0.272196  0.761222  1
  Th  Th2  1  0.333333  0.666667  0.498502  1
  Th  Th3  1  0.666667  0.333333  0.498502  1
  Th  Th4  1  0.726182  0.726182  0.238246  1
  Th  Th5  1  0.727804  0.000000  0.761222  1
  Th  Th6  1  0.000000  0.273818  0.238246  1
  Th  Th7  1  0.273818  0.000000  0.238246  1
  Th  Th8  1  0.333333  0.666667  0.001370  1
  Th  Th9  1  0.666667  0.333333  0.001370  1
  Cu  Cu10  1  0.000000  0.000000  0.003115  1
  Sn  Sn11  1  0.619427  0.000000  0.253230  1
  Sn  Sn12  1  0.380573  0.380573  0.253230  1
  Sn  Sn13  1  0.000000  0.619427  0.253230  1
  Sb  Sb14  1  0.618058  0.618058  0.746731  1
  Sb  Sb15  1  0.000000  0.381942  0.746731  1
  Sb  Sb16  1  0.381942  0.000000  0.746731  1
  Sb  Sb17  1  0.000000  0.000000  0.498857  1
