# generated using pymatgen
data_Tb16Cd2Hg2Ru3Rh
_symmetry_space_group_name_H-M   'P 1'
_cell_length_a   9.62982867
_cell_length_b   9.66735030
_cell_length_c   9.67997700
_cell_angle_alpha   59.95678112
_cell_angle_beta   59.82758037
_cell_angle_gamma   59.77063642
_symmetry_Int_Tables_number   1
_chemical_formula_structural   Tb16Cd2Hg2Ru3Rh
_chemical_formula_sum   'Tb16 Cd2 Hg2 Ru3 Rh1'
_cell_volume   635.06550436
_cell_formula_units_Z   1
loop_
 _symmetry_equiv_pos_site_id
 _symmetry_equiv_pos_as_xyz
  1  'x, y, z'
loop_
 _atom_site_type_symbol
 _atom_site_label
 _atom_site_symmetry_multiplicity
 _atom_site_fract_x
 _atom_site_fract_y
 _atom_site_fract_z
 _atom_site_occupancy
  Tb  Tb0  1  0.287533  0.904487  0.903990  1
  Tb  Tb1  1  0.689874  0.310846  0.686154  1
  Tb  Tb2  1  0.311931  0.687701  0.312338  1
  Tb  Tb3  1  0.061617  0.439363  0.439340  1
  Tb  Tb4  1  0.689874  0.310846  0.313125  1
  Tb  Tb5  1  0.438000  0.060419  0.441175  1
  Tb  Tb6  1  0.438000  0.060419  0.060407  1
  Tb  Tb7  1  0.903121  0.900920  0.900283  1
  Tb  Tb8  1  0.061617  0.439363  0.059680  1
  Tb  Tb9  1  0.903800  0.293679  0.901261  1
  Tb  Tb10  1  0.311931  0.687701  0.688030  1
  Tb  Tb11  1  0.903121  0.900920  0.295677  1
  Tb  Tb12  1  0.437665  0.440704  0.060815  1
  Tb  Tb13  1  0.312722  0.310801  0.688238  1
  Tb  Tb14  1  0.689655  0.685446  0.312449  1
  Tb  Tb15  1  0.060935  0.059353  0.439856  1
  Cd  Cd16  1  0.669646  0.670193  0.989596  1
  Cd  Cd17  1  0.669646  0.670193  0.670565  1
  Hg  Hg18  1  0.001812  0.664896  0.666646  1
  Hg  Hg19  1  0.665195  0.999789  0.667508  1
  Ru  Ru20  1  0.106622  0.111658  0.669497  1
  Ru  Ru21  1  0.106320  0.669915  0.111882  1
  Ru  Ru22  1  0.106622  0.111658  0.112223  1
  Rh  Rh23  1  0.672740  0.108731  0.109265  1
