# generated using pymatgen
data_Pr8Be3Si12Pd
_symmetry_space_group_name_H-M   'P 1'
_cell_length_a   8.06276100
_cell_length_b   8.06276088
_cell_length_c   8.67588900
_cell_angle_alpha   90.00000000
_cell_angle_beta   90.00000000
_cell_angle_gamma   119.99999639
_symmetry_Int_Tables_number   1
_chemical_formula_structural   Pr8Be3Si12Pd
_chemical_formula_sum   'Pr8 Be3 Si12 Pd1'
_cell_volume   488.44110024
_cell_formula_units_Z   1
loop_
 _symmetry_equiv_pos_site_id
 _symmetry_equiv_pos_as_xyz
  1  'x, y, z'
loop_
 _atom_site_type_symbol
 _atom_site_label
 _atom_site_symmetry_multiplicity
 _atom_site_fract_x
 _atom_site_fract_y
 _atom_site_fract_z
 _atom_site_occupancy
  Pr  Pr0  1  0.498597  0.501403  0.752192  1
  Pr  Pr1  1  0.498705  0.501295  0.248017  1
  Pr  Pr2  1  0.002806  0.501403  0.752192  1
  Pr  Pr3  1  0.002591  0.501295  0.248017  1
  Pr  Pr4  1  0.498597  0.997194  0.752192  1
  Pr  Pr5  1  0.498705  0.997409  0.248017  1
  Pr  Pr6  1  0.000000  0.000000  0.749801  1
  Pr  Pr7  1  0.000000  0.000000  0.250227  1
  Be  Be8  1  0.666667  0.333333  0.998596  1
  Be  Be9  1  0.333333  0.666667  0.001415  1
  Be  Be10  1  0.333333  0.666667  0.499236  1
  Si  Si11  1  0.827642  0.172358  0.000132  1
  Si  Si12  1  0.171934  0.828066  0.000062  1
  Si  Si13  1  0.344715  0.172358  0.000132  1
  Si  Si14  1  0.170049  0.829951  0.499838  1
  Si  Si15  1  0.656133  0.828066  0.000062  1
  Si  Si16  1  0.833242  0.166758  0.500083  1
  Si  Si17  1  0.827642  0.655285  0.000132  1
  Si  Si18  1  0.659901  0.829951  0.499838  1
  Si  Si19  1  0.171934  0.343867  0.000062  1
  Si  Si20  1  0.333517  0.166758  0.500083  1
  Si  Si21  1  0.170049  0.340099  0.499838  1
  Si  Si22  1  0.833242  0.666483  0.500083  1
  Pd  Pd23  1  0.666667  0.333333  0.499756  1
