# generated using pymatgen
data_Tb6YbCoI12
_symmetry_space_group_name_H-M   'P 1'
_cell_length_a   9.79036923
_cell_length_b   9.79036995
_cell_length_c   9.79036927
_cell_angle_alpha   107.14264200
_cell_angle_beta   107.14264076
_cell_angle_gamma   107.14264039
_symmetry_Int_Tables_number   1
_chemical_formula_structural   Tb6YbCoI12
_chemical_formula_sum   'Tb6 Yb1 Co1 I12'
_cell_volume   778.46414173
_cell_formula_units_Z   1
loop_
 _symmetry_equiv_pos_site_id
 _symmetry_equiv_pos_as_xyz
  1  'x, y, z'
loop_
 _atom_site_type_symbol
 _atom_site_label
 _atom_site_symmetry_multiplicity
 _atom_site_fract_x
 _atom_site_fract_y
 _atom_site_fract_z
 _atom_site_occupancy
  Tb  Tb0  1  0.023189  0.094192  0.292828  1
  Tb  Tb1  1  0.094192  0.292828  0.023189  1
  Tb  Tb2  1  0.292828  0.023189  0.094192  1
  Tb  Tb3  1  0.976811  0.905808  0.707172  1
  Tb  Tb4  1  0.905808  0.707172  0.976811  1
  Tb  Tb5  1  0.707172  0.976811  0.905808  1
  Yb  Yb6  1  0.500000  0.500000  0.500000  1
  Co  Co7  1  0.000000  0.000000  0.000000  1
  I  I8  1  0.152095  0.458303  0.380113  1
  I  I9  1  0.458303  0.380113  0.152095  1
  I  I10  1  0.380113  0.152095  0.458303  1
  I  I11  1  0.847905  0.541697  0.619887  1
  I  I12  1  0.541697  0.619887  0.847905  1
  I  I13  1  0.619887  0.847905  0.541697  1
  I  I14  1  0.679539  0.071829  0.223757  1
  I  I15  1  0.071829  0.223757  0.679539  1
  I  I16  1  0.223757  0.679539  0.071829  1
  I  I17  1  0.320461  0.928171  0.776243  1
  I  I18  1  0.928171  0.776243  0.320461  1
  I  I19  1  0.776243  0.320461  0.928171  1
