# generated using pymatgen
data_Y4Sc6Ga5Sb3
_symmetry_space_group_name_H-M   'P 1'
_cell_length_a   7.38338700
_cell_length_b   7.70228138
_cell_length_c   14.66146200
_cell_angle_alpha   89.98188651
_cell_angle_beta   90.00000000
_cell_angle_gamma   90.00000000
_symmetry_Int_Tables_number   1
_chemical_formula_structural   Y4Sc6Ga5Sb3
_chemical_formula_sum   'Y8 Sc12 Ga10 Sb6'
_cell_volume   833.78153017
_cell_formula_units_Z   2
loop_
 _symmetry_equiv_pos_site_id
 _symmetry_equiv_pos_as_xyz
  1  'x, y, z'
loop_
 _atom_site_type_symbol
 _atom_site_label
 _atom_site_symmetry_multiplicity
 _atom_site_fract_x
 _atom_site_fract_y
 _atom_site_fract_z
 _atom_site_occupancy
  Y  Y0  1  0.510457  0.675911  0.592091  1
  Y  Y1  1  0.010457  0.824089  0.907909  1
  Y  Y2  1  0.490308  0.335775  0.091641  1
  Y  Y3  1  0.990308  0.164225  0.408359  1
  Y  Y4  1  0.502295  0.324344  0.407396  1
  Y  Y5  1  0.002295  0.175656  0.092604  1
  Y  Y6  1  0.506122  0.663468  0.906648  1
  Y  Y7  1  0.006122  0.836532  0.593352  1
  Sc  Sc8  1  0.672529  0.172012  0.623076  1
  Sc  Sc9  1  0.172529  0.327988  0.876924  1
  Sc  Sc10  1  0.317252  0.822829  0.123949  1
  Sc  Sc11  1  0.817252  0.677171  0.376051  1
  Sc  Sc12  1  0.335947  0.834664  0.373394  1
  Sc  Sc13  1  0.835947  0.665336  0.126606  1
  Sc  Sc14  1  0.669837  0.185236  0.874675  1
  Sc  Sc15  1  0.169837  0.314764  0.625325  1
  Sc  Sc16  1  0.830019  0.490614  0.750336  1
  Sc  Sc17  1  0.330019  0.009386  0.749664  1
  Sc  Sc18  1  0.171149  0.509707  0.247118  1
  Sc  Sc19  1  0.671149  0.990293  0.252882  1
  Ga  Ga20  1  0.659118  0.963467  0.460224  1
  Ga  Ga21  1  0.159118  0.536533  0.039776  1
  Ga  Ga22  1  0.327474  0.037947  0.956246  1
  Ga  Ga23  1  0.827474  0.462053  0.543754  1
  Ga  Ga24  1  0.340723  0.035021  0.540052  1
  Ga  Ga25  1  0.840723  0.464979  0.959948  1
  Ga  Ga26  1  0.474232  0.369879  0.747464  1
  Ga  Ga27  1  0.974232  0.130121  0.752536  1
  Ga  Ga28  1  0.523768  0.633312  0.248142  1
  Ga  Ga29  1  0.023768  0.866688  0.251858  1
  Sb  Sb30  1  0.665617  0.961398  0.039734  1
  Sb  Sb31  1  0.165617  0.538602  0.460266  1
  Sb  Sb32  1  0.704896  0.863180  0.752128  1
  Sb  Sb33  1  0.204896  0.636820  0.747872  1
  Sb  Sb34  1  0.298258  0.140998  0.249267  1
  Sb  Sb35  1  0.798258  0.359002  0.250733  1
