# generated using pymatgen
data_Nd2Y2LuSn4
_symmetry_space_group_name_H-M   'P 1'
_cell_length_a   8.04645600
_cell_length_b   8.20698700
_cell_length_c   15.53169800
_cell_angle_alpha   90.00000000
_cell_angle_beta   90.00000000
_cell_angle_gamma   90.00000000
_symmetry_Int_Tables_number   1
_chemical_formula_structural   Nd2Y2LuSn4
_chemical_formula_sum   'Nd8 Y8 Lu4 Sn16'
_cell_volume   1025.66922261
_cell_formula_units_Z   4
loop_
 _symmetry_equiv_pos_site_id
 _symmetry_equiv_pos_as_xyz
  1  'x, y, z'
loop_
 _atom_site_type_symbol
 _atom_site_label
 _atom_site_symmetry_multiplicity
 _atom_site_fract_x
 _atom_site_fract_y
 _atom_site_fract_z
 _atom_site_occupancy
  Nd  Nd0  1  0.517556  0.321416  0.903264  1
  Nd  Nd1  1  0.017556  0.178584  0.596736  1
  Nd  Nd2  1  0.482444  0.678584  0.403264  1
  Nd  Nd3  1  0.982444  0.821416  0.096736  1
  Nd  Nd4  1  0.482444  0.678584  0.096736  1
  Nd  Nd5  1  0.982444  0.821416  0.403264  1
  Nd  Nd6  1  0.517556  0.321416  0.596736  1
  Nd  Nd7  1  0.017556  0.178584  0.903264  1
  Y  Y8  1  0.363574  0.836538  0.877141  1
  Y  Y9  1  0.863574  0.663462  0.622859  1
  Y  Y10  1  0.636426  0.163462  0.377141  1
  Y  Y11  1  0.136426  0.336538  0.122859  1
  Y  Y12  1  0.636426  0.163462  0.122859  1
  Y  Y13  1  0.136426  0.336538  0.377141  1
  Y  Y14  1  0.363574  0.836538  0.622859  1
  Y  Y15  1  0.863574  0.663462  0.877141  1
  Lu  Lu16  1  0.196129  0.503534  0.750000  1
  Lu  Lu17  1  0.696129  0.996466  0.750000  1
  Lu  Lu18  1  0.803871  0.496466  0.250000  1
  Lu  Lu19  1  0.303871  0.003534  0.250000  1
  Sn  Sn20  1  0.299888  0.039018  0.042623  1
  Sn  Sn21  1  0.799888  0.460982  0.457377  1
  Sn  Sn22  1  0.700112  0.960982  0.542623  1
  Sn  Sn23  1  0.200112  0.539018  0.957377  1
  Sn  Sn24  1  0.700112  0.960982  0.957377  1
  Sn  Sn25  1  0.200112  0.539018  0.542623  1
  Sn  Sn26  1  0.299888  0.039018  0.457377  1
  Sn  Sn27  1  0.799888  0.460982  0.042623  1
  Sn  Sn28  1  0.561162  0.621089  0.750000  1
  Sn  Sn29  1  0.061162  0.878911  0.750000  1
  Sn  Sn30  1  0.438838  0.378911  0.250000  1
  Sn  Sn31  1  0.938838  0.121089  0.250000  1
  Sn  Sn32  1  0.326080  0.145785  0.750000  1
  Sn  Sn33  1  0.826080  0.354215  0.750000  1
  Sn  Sn34  1  0.673920  0.854215  0.250000  1
  Sn  Sn35  1  0.173920  0.645785  0.250000  1
