# generated using pymatgen
data_Sm3Eu(SbO4)4
_symmetry_space_group_name_H-M   'P 1'
_cell_length_a   5.48945055
_cell_length_b   7.66823489
_cell_length_c   7.73051713
_cell_angle_alpha   80.37549618
_cell_angle_beta   89.98729324
_cell_angle_gamma   89.89048864
_symmetry_Int_Tables_number   1
_chemical_formula_structural   Sm3Eu(SbO4)4
_chemical_formula_sum   'Sm3 Eu1 Sb4 O16'
_cell_volume   320.83057540
_cell_formula_units_Z   1
loop_
 _symmetry_equiv_pos_site_id
 _symmetry_equiv_pos_as_xyz
  1  'x, y, z'
loop_
 _atom_site_type_symbol
 _atom_site_label
 _atom_site_symmetry_multiplicity
 _atom_site_fract_x
 _atom_site_fract_y
 _atom_site_fract_z
 _atom_site_occupancy
  Sm  Sm0  1  0.774698  0.395521  0.853469  1
  Sm  Sm1  1  0.725895  0.895235  0.853862  1
  Sm  Sm2  1  0.274465  0.104584  0.146209  1
  Eu  Eu3  1  0.228485  0.604711  0.146895  1
  Sb  Sb4  1  0.768104  0.304446  0.336946  1
  Sb  Sb5  1  0.731416  0.803557  0.337250  1
  Sb  Sb6  1  0.268218  0.195942  0.663422  1
  Sb  Sb7  1  0.231754  0.695976  0.663722  1
  O  O8  1  0.630357  0.058373  0.330038  1
  O  O9  1  0.998385  0.125874  0.827802  1
  O  O10  1  0.370861  0.941996  0.669710  1
  O  O11  1  0.498165  0.372591  0.170560  1
  O  O12  1  0.129697  0.441855  0.669560  1
  O  O13  1  0.520327  0.828657  0.118518  1
  O  O14  1  0.977024  0.326462  0.118063  1
  O  O15  1  0.502794  0.626530  0.827069  1
  O  O16  1  0.999982  0.873346  0.170716  1
  O  O17  1  0.478685  0.173129  0.882249  1
  O  O18  1  0.020777  0.672300  0.881451  1
  O  O19  1  0.591432  0.303078  0.564116  1
  O  O20  1  0.868715  0.558093  0.331546  1
  O  O21  1  0.409297  0.697172  0.436948  1
  O  O22  1  0.908951  0.804012  0.563833  1
  O  O23  1  0.091519  0.196561  0.436045  1
