# generated using pymatgen
data_Sm6Cd16Ag7P
_symmetry_space_group_name_H-M   'P 1'
_cell_length_a   9.86313931
_cell_length_b   9.86313904
_cell_length_c   9.86313700
_cell_angle_alpha   59.99999676
_cell_angle_beta   59.99999767
_cell_angle_gamma   59.99999754
_symmetry_Int_Tables_number   1
_chemical_formula_structural   Sm6Cd16Ag7P
_chemical_formula_sum   'Sm6 Cd16 Ag7 P1'
_cell_volume   678.46955401
_cell_formula_units_Z   1
loop_
 _symmetry_equiv_pos_site_id
 _symmetry_equiv_pos_as_xyz
  1  'x, y, z'
loop_
 _atom_site_type_symbol
 _atom_site_label
 _atom_site_symmetry_multiplicity
 _atom_site_fract_x
 _atom_site_fract_y
 _atom_site_fract_z
 _atom_site_occupancy
  Sm  Sm0  1  0.796978  0.796978  0.203022  1
  Sm  Sm1  1  0.203022  0.796978  0.203022  1
  Sm  Sm2  1  0.796978  0.203022  0.203022  1
  Sm  Sm3  1  0.203022  0.203022  0.796978  1
  Sm  Sm4  1  0.796978  0.203022  0.796978  1
  Sm  Sm5  1  0.203022  0.796978  0.796978  1
  Cd  Cd6  1  0.833340  0.833340  0.499979  1
  Cd  Cd7  1  0.833340  0.499979  0.833340  1
  Cd  Cd8  1  0.499979  0.833340  0.833340  1
  Cd  Cd9  1  0.833340  0.833340  0.833340  1
  Cd  Cd10  1  0.166660  0.166660  0.500021  1
  Cd  Cd11  1  0.166660  0.500021  0.166660  1
  Cd  Cd12  1  0.500021  0.166660  0.166660  1
  Cd  Cd13  1  0.166660  0.166660  0.166660  1
  Cd  Cd14  1  0.619800  0.619800  0.140601  1
  Cd  Cd15  1  0.619800  0.140601  0.619800  1
  Cd  Cd16  1  0.140601  0.619800  0.619800  1
  Cd  Cd17  1  0.619800  0.619800  0.619800  1
  Cd  Cd18  1  0.380200  0.380200  0.859399  1
  Cd  Cd19  1  0.380200  0.859399  0.380200  1
  Cd  Cd20  1  0.859399  0.380200  0.380200  1
  Cd  Cd21  1  0.380200  0.380200  0.380200  1
  Ag  Ag22  1  0.000000  0.000000  0.500000  1
  Ag  Ag23  1  0.500000  0.000000  0.500000  1
  Ag  Ag24  1  0.000000  0.500000  0.500000  1
  Ag  Ag25  1  0.500000  0.500000  0.000000  1
  Ag  Ag26  1  0.000000  0.500000  0.000000  1
  Ag  Ag27  1  0.500000  0.000000  0.000000  1
  Ag  Ag28  1  0.500000  0.500000  0.500000  1
  P  P29  1  0.000000  0.000000  0.000000  1
