# generated using pymatgen
data_Ir(O2F7)2
_symmetry_space_group_name_H-M   'P 1'
_cell_length_a   12.91593600
_cell_length_b   6.57240583
_cell_length_c   8.79032997
_cell_angle_alpha   68.86576635
_cell_angle_beta   90.00000000
_cell_angle_gamma   90.00000000
_symmetry_Int_Tables_number   1
_chemical_formula_structural   Ir(O2F7)2
_chemical_formula_sum   'Ir2 O8 F28'
_cell_volume   696.00960400
_cell_formula_units_Z   2
loop_
 _symmetry_equiv_pos_site_id
 _symmetry_equiv_pos_as_xyz
  1  'x, y, z'
loop_
 _atom_site_type_symbol
 _atom_site_label
 _atom_site_symmetry_multiplicity
 _atom_site_fract_x
 _atom_site_fract_y
 _atom_site_fract_z
 _atom_site_occupancy
  Ir  Ir0  1  0.500000  0.500000  0.500000  1
  Ir  Ir1  1  0.000000  0.500000  0.000000  1
  O  O2  1  0.368604  0.781758  0.908789  1
  O  O3  1  0.631396  0.218242  0.091211  1
  O  O4  1  0.868604  0.218242  0.591211  1
  O  O5  1  0.131396  0.781758  0.408789  1
  O  O6  1  0.734400  0.756745  0.877403  1
  O  O7  1  0.265600  0.243255  0.122597  1
  O  O8  1  0.234400  0.243255  0.622597  1
  O  O9  1  0.765600  0.756745  0.377403  1
  F  F10  1  0.448147  0.854139  0.788585  1
  F  F11  1  0.551853  0.145861  0.211415  1
  F  F12  1  0.948147  0.145861  0.711415  1
  F  F13  1  0.051853  0.854139  0.288585  1
  F  F14  1  0.437920  0.763789  0.488934  1
  F  F15  1  0.562080  0.236211  0.511066  1
  F  F16  1  0.937920  0.236211  0.011066  1
  F  F17  1  0.062080  0.763789  0.988934  1
  F  F18  1  0.428560  0.352427  0.695472  1
  F  F19  1  0.571440  0.647573  0.304528  1
  F  F20  1  0.928560  0.647573  0.804528  1
  F  F21  1  0.071440  0.352427  0.195472  1
  F  F22  1  0.087822  0.803826  0.551165  1
  F  F23  1  0.912178  0.196174  0.448835  1
  F  F24  1  0.587822  0.196174  0.948835  1
  F  F25  1  0.412178  0.803826  0.051165  1
  F  F26  1  0.347643  0.299458  0.006185  1
  F  F27  1  0.652357  0.700542  0.993815  1
  F  F28  1  0.847643  0.700542  0.493815  1
  F  F29  1  0.152357  0.299458  0.506185  1
  F  F30  1  0.111201  0.450541  0.879227  1
  F  F31  1  0.888799  0.549459  0.120773  1
  F  F32  1  0.611201  0.549459  0.620773  1
  F  F33  1  0.388799  0.450541  0.379227  1
  F  F34  1  0.187673  0.104245  0.770734  1
  F  F35  1  0.812327  0.895755  0.229266  1
  F  F36  1  0.687673  0.895755  0.729266  1
  F  F37  1  0.312327  0.104245  0.270734  1
