# generated using pymatgen
data_Tb2NdY(Zn5Sn)2
_symmetry_space_group_name_H-M   'P 1'
_cell_length_a   8.44382687
_cell_length_b   8.44382477
_cell_length_c   9.01885648
_cell_angle_alpha   90.62013059
_cell_angle_beta   89.37987061
_cell_angle_gamma   149.73093727
_symmetry_Int_Tables_number   1
_chemical_formula_structural   Tb2NdY(Zn5Sn)2
_chemical_formula_sum   'Tb2 Nd1 Y1 Zn10 Sn2'
_cell_volume   324.10528327
_cell_formula_units_Z   1
loop_
 _symmetry_equiv_pos_site_id
 _symmetry_equiv_pos_as_xyz
  1  'x, y, z'
loop_
 _atom_site_type_symbol
 _atom_site_label
 _atom_site_symmetry_multiplicity
 _atom_site_fract_x
 _atom_site_fract_y
 _atom_site_fract_z
 _atom_site_occupancy
  Tb  Tb0  1  0.204004  0.795996  0.251241  1
  Tb  Tb1  1  0.795996  0.204004  0.748759  1
  Nd  Nd2  1  0.000000  0.000000  0.000000  1
  Y  Y3  1  0.000000  0.000000  0.500000  1
  Zn  Zn4  1  0.813858  0.186142  0.389932  1
  Zn  Zn5  1  0.186142  0.813858  0.610068  1
  Zn  Zn6  1  0.812100  0.187900  0.108194  1
  Zn  Zn7  1  0.187900  0.812100  0.891806  1
  Zn  Zn8  1  0.656992  0.343008  0.483130  1
  Zn  Zn9  1  0.343008  0.656992  0.516870  1
  Zn  Zn10  1  0.657006  0.342994  0.018786  1
  Zn  Zn11  1  0.342994  0.657006  0.981214  1
  Zn  Zn12  1  0.393254  0.606746  0.249068  1
  Zn  Zn13  1  0.606746  0.393254  0.750932  1
  Sn  Sn14  1  0.554838  0.445162  0.254160  1
  Sn  Sn15  1  0.445162  0.554838  0.745840  1
