# generated using pymatgen
data_Li2Ho16In2IrPd3
_symmetry_space_group_name_H-M   'P 1'
_cell_length_a   9.63810954
_cell_length_b   9.63810840
_cell_length_c   9.66627301
_cell_angle_alpha   60.21580053
_cell_angle_beta   60.21580567
_cell_angle_gamma   59.50926305
_symmetry_Int_Tables_number   1
_chemical_formula_structural   Li2Ho16In2IrPd3
_chemical_formula_sum   'Li2 Ho16 In2 Ir1 Pd3'
_cell_volume   634.58489531
_cell_formula_units_Z   1
loop_
 _symmetry_equiv_pos_site_id
 _symmetry_equiv_pos_as_xyz
  1  'x, y, z'
loop_
 _atom_site_type_symbol
 _atom_site_label
 _atom_site_symmetry_multiplicity
 _atom_site_fract_x
 _atom_site_fract_y
 _atom_site_fract_z
 _atom_site_occupancy
  Li  Li0  1  0.425706  0.425706  0.423495  1
  Li  Li1  1  0.426099  0.426099  0.725131  1
  Ho  Ho2  1  0.434250  0.434250  0.065013  1
  Ho  Ho3  1  0.643776  0.643776  0.065624  1
  Ho  Ho4  1  0.184074  0.811668  0.192396  1
  Ho  Ho5  1  0.065382  0.436173  0.062831  1
  Ho  Ho6  1  0.188975  0.810723  0.808456  1
  Ho  Ho7  1  0.065457  0.437716  0.432172  1
  Ho  Ho8  1  0.811668  0.184074  0.192396  1
  Ho  Ho9  1  0.652908  0.652908  0.643924  1
  Ho  Ho10  1  0.810723  0.188975  0.808456  1
  Ho  Ho11  1  0.183562  0.183562  0.816773  1
  Ho  Ho12  1  0.052208  0.652003  0.644055  1
  Ho  Ho13  1  0.436173  0.065382  0.062831  1
  Ho  Ho14  1  0.063653  0.063653  0.435471  1
  Ho  Ho15  1  0.652003  0.052208  0.644055  1
  Ho  Ho16  1  0.808450  0.808450  0.195881  1
  Ho  Ho17  1  0.437716  0.065457  0.432172  1
  In  In18  1  0.415183  0.744600  0.420934  1
  In  In19  1  0.744600  0.415183  0.420934  1
  Ir  Ir20  1  0.856306  0.856306  0.428667  1
  Pd  Pd21  1  0.432070  0.855141  0.859483  1
  Pd  Pd22  1  0.853916  0.853916  0.859366  1
  Pd  Pd23  1  0.855141  0.432070  0.859483  1
