# generated using pymatgen
data_NdHo2Cd(Ir2O7)2
_symmetry_space_group_name_H-M   'P 1'
_cell_length_a   7.34904677
_cell_length_b   7.23027988
_cell_length_c   7.34904625
_cell_angle_alpha   59.21662700
_cell_angle_beta   59.63060867
_cell_angle_gamma   59.21663064
_symmetry_Int_Tables_number   1
_chemical_formula_structural   NdHo2Cd(Ir2O7)2
_chemical_formula_sum   'Nd1 Ho2 Cd1 Ir4 O14'
_cell_volume   272.05662901
_cell_formula_units_Z   1
loop_
 _symmetry_equiv_pos_site_id
 _symmetry_equiv_pos_as_xyz
  1  'x, y, z'
loop_
 _atom_site_type_symbol
 _atom_site_label
 _atom_site_symmetry_multiplicity
 _atom_site_fract_x
 _atom_site_fract_y
 _atom_site_fract_z
 _atom_site_occupancy
  Nd  Nd0  1  0.125000  0.125000  0.125000  1
  Ho  Ho1  1  0.625000  0.125000  0.125000  1
  Ho  Ho2  1  0.125000  0.125000  0.625000  1
  Cd  Cd3  1  0.125000  0.625000  0.125000  1
  Ir  Ir4  1  0.125000  0.625000  0.625000  1
  Ir  Ir5  1  0.625000  0.125000  0.625000  1
  Ir  Ir6  1  0.625000  0.625000  0.125000  1
  Ir  Ir7  1  0.625000  0.625000  0.625000  1
  O  O8  1  0.694353  0.712113  0.297519  1
  O  O9  1  0.290985  0.286533  0.703281  1
  O  O10  1  0.710646  0.287898  0.710646  1
  O  O11  1  0.297102  0.700955  0.297102  1
  O  O12  1  0.297519  0.712113  0.694353  1
  O  O13  1  0.703281  0.286533  0.290985  1
  O  O14  1  0.555647  0.537887  0.952481  1
  O  O15  1  0.959015  0.963467  0.546719  1
  O  O16  1  0.539354  0.962102  0.539354  1
  O  O17  1  0.952898  0.549045  0.952898  1
  O  O18  1  0.952481  0.537887  0.555647  1
  O  O19  1  0.546719  0.963467  0.959015  1
  O  O20  1  0.255600  0.249643  0.255600  1
  O  O21  1  0.994400  0.000357  0.994400  1
