# generated using pymatgen
data_YbScZn4Ru
_symmetry_space_group_name_H-M   'P 1'
_cell_length_a   6.92794700
_cell_length_b   6.92794700
_cell_length_c   5.05844600
_cell_angle_alpha   90.00000000
_cell_angle_beta   90.00000000
_cell_angle_gamma   90.00000000
_symmetry_Int_Tables_number   1
_chemical_formula_structural   YbScZn4Ru
_chemical_formula_sum   'Yb2 Sc2 Zn8 Ru2'
_cell_volume   242.78744867
_cell_formula_units_Z   2
loop_
 _symmetry_equiv_pos_site_id
 _symmetry_equiv_pos_as_xyz
  1  'x, y, z'
loop_
 _atom_site_type_symbol
 _atom_site_label
 _atom_site_symmetry_multiplicity
 _atom_site_fract_x
 _atom_site_fract_y
 _atom_site_fract_z
 _atom_site_occupancy
  Yb  Yb0  1  0.000000  0.500000  0.763242  1
  Yb  Yb1  1  0.500000  0.000000  0.236758  1
  Sc  Sc2  1  0.000000  0.000000  0.000000  1
  Sc  Sc3  1  0.500000  0.500000  0.000000  1
  Zn  Zn4  1  0.193040  0.693040  0.273809  1
  Zn  Zn5  1  0.806960  0.693040  0.273809  1
  Zn  Zn6  1  0.806960  0.306960  0.273809  1
  Zn  Zn7  1  0.306960  0.193040  0.726191  1
  Zn  Zn8  1  0.193040  0.306960  0.273809  1
  Zn  Zn9  1  0.693040  0.193040  0.726191  1
  Zn  Zn10  1  0.693040  0.806960  0.726191  1
  Zn  Zn11  1  0.306960  0.806960  0.726191  1
  Ru  Ru12  1  0.500000  0.500000  0.500000  1
  Ru  Ru13  1  0.000000  0.000000  0.500000  1
