# generated using pymatgen
data_Yb4Ho2Al17Si7Os8
_symmetry_space_group_name_H-M   'P 1'
_cell_length_a   8.67370430
_cell_length_b   8.65814330
_cell_length_c   9.58058100
_cell_angle_alpha   90.00000000
_cell_angle_beta   90.00000000
_cell_angle_gamma   120.13795321
_symmetry_Int_Tables_number   1
_chemical_formula_structural   Yb4Ho2Al17Si7Os8
_chemical_formula_sum   'Yb4 Ho2 Al17 Si7 Os8'
_cell_volume   622.22357883
_cell_formula_units_Z   1
loop_
 _symmetry_equiv_pos_site_id
 _symmetry_equiv_pos_as_xyz
  1  'x, y, z'
loop_
 _atom_site_type_symbol
 _atom_site_label
 _atom_site_symmetry_multiplicity
 _atom_site_fract_x
 _atom_site_fract_y
 _atom_site_fract_z
 _atom_site_occupancy
  Yb  Yb0  1  0.192733  0.388412  0.250000  1
  Yb  Yb1  1  0.805805  0.611527  0.750000  1
  Yb  Yb2  1  0.390603  0.191892  0.750000  1
  Yb  Yb3  1  0.800627  0.192478  0.750000  1
  Ho  Ho4  1  0.610656  0.807357  0.250000  1
  Ho  Ho5  1  0.195586  0.804503  0.250000  1
  Al  Al6  1  0.165938  0.332597  0.577078  1
  Al  Al7  1  0.833284  0.669382  0.420730  1
  Al  Al8  1  0.668669  0.834294  0.577200  1
  Al  Al9  1  0.833284  0.669382  0.079270  1
  Al  Al10  1  0.331905  0.166931  0.423030  1
  Al  Al11  1  0.165938  0.332597  0.922922  1
  Al  Al12  1  0.165516  0.833405  0.576260  1
  Al  Al13  1  0.331905  0.166931  0.076970  1
  Al  Al14  1  0.834497  0.165315  0.422631  1
  Al  Al15  1  0.668669  0.834294  0.922800  1
  Al  Al16  1  0.834497  0.165315  0.077369  1
  Al  Al17  1  0.165516  0.833405  0.923740  1
  Al  Al18  1  0.125819  0.565555  0.750000  1
  Al  Al19  1  0.563386  0.433803  0.250000  1
  Al  Al20  1  0.438356  0.566095  0.750000  1
  Al  Al21  1  0.999861  0.999472  0.250000  1
  Al  Al22  1  0.000355  0.001655  0.750000  1
  Si  Si23  1  0.333298  0.664151  0.039788  1
  Si  Si24  1  0.666245  0.335400  0.963421  1
  Si  Si25  1  0.666245  0.335400  0.536579  1
  Si  Si26  1  0.333298  0.664151  0.460212  1
  Si  Si27  1  0.565086  0.125795  0.250000  1
  Si  Si28  1  0.435259  0.871981  0.750000  1
  Si  Si29  1  0.874229  0.432818  0.250000  1
  Os  Os30  1  0.500414  0.999869  0.003487  1
  Os  Os31  1  0.999125  0.500600  0.008858  1
  Os  Os32  1  0.500414  0.999869  0.496513  1
  Os  Os33  1  0.501421  0.501348  0.002073  1
  Os  Os34  1  0.999125  0.500600  0.491142  1
  Os  Os35  1  0.501421  0.501348  0.497927  1
  Os  Os36  1  0.000509  0.000036  0.998933  1
  Os  Os37  1  0.000509  0.000036  0.501067  1
