# generated using pymatgen
data_Sm(Cu2P)2
_symmetry_space_group_name_H-M   'P 1'
_cell_length_a   7.30554900
_cell_length_b   7.30554900
_cell_length_c   3.81393100
_cell_angle_alpha   90.00000000
_cell_angle_beta   90.00000000
_cell_angle_gamma   90.00000000
_symmetry_Int_Tables_number   1
_chemical_formula_structural   Sm(Cu2P)2
_chemical_formula_sum   'Sm2 Cu8 P4'
_cell_volume   203.55348757
_cell_formula_units_Z   2
loop_
 _symmetry_equiv_pos_site_id
 _symmetry_equiv_pos_as_xyz
  1  'x, y, z'
loop_
 _atom_site_type_symbol
 _atom_site_label
 _atom_site_symmetry_multiplicity
 _atom_site_fract_x
 _atom_site_fract_y
 _atom_site_fract_z
 _atom_site_occupancy
  Sm  Sm0  1  0.000000  0.000000  0.000000  1
  Sm  Sm1  1  0.500000  0.500000  0.500000  1
  Cu  Cu2  1  0.663859  0.916588  0.500000  1
  Cu  Cu3  1  0.163859  0.583412  0.000000  1
  Cu  Cu4  1  0.416588  0.836141  0.000000  1
  Cu  Cu5  1  0.916588  0.663859  0.500000  1
  Cu  Cu6  1  0.836141  0.416588  0.000000  1
  Cu  Cu7  1  0.583412  0.163859  0.000000  1
  Cu  Cu8  1  0.083412  0.336141  0.500000  1
  Cu  Cu9  1  0.336141  0.083412  0.500000  1
  P  P10  1  0.285390  0.285390  0.000000  1
  P  P11  1  0.714610  0.714610  0.000000  1
  P  P12  1  0.785390  0.214610  0.500000  1
  P  P13  1  0.214610  0.785390  0.500000  1
