# generated using pymatgen
data_La6In8PI
_symmetry_space_group_name_H-M   'P 1'
_cell_length_a   8.69865253
_cell_length_b   8.69865131
_cell_length_c   8.69865212
_cell_angle_alpha   119.11099684
_cell_angle_beta   119.11100309
_cell_angle_gamma   91.54682054
_symmetry_Int_Tables_number   1
_chemical_formula_structural   La6In8PI
_chemical_formula_sum   'La6 In8 P1 I1'
_cell_volume   471.48346781
_cell_formula_units_Z   1
loop_
 _symmetry_equiv_pos_site_id
 _symmetry_equiv_pos_as_xyz
  1  'x, y, z'
loop_
 _atom_site_type_symbol
 _atom_site_label
 _atom_site_symmetry_multiplicity
 _atom_site_fract_x
 _atom_site_fract_y
 _atom_site_fract_z
 _atom_site_occupancy
  La  La0  1  0.736554  0.736554  0.000000  1
  La  La1  1  0.263446  0.263446  0.000000  1
  La  La2  1  0.356005  0.816343  0.172345  1
  La  La3  1  0.643995  0.183657  0.827655  1
  La  La4  1  0.816343  0.643995  0.460338  1
  La  La5  1  0.183657  0.356005  0.539662  1
  In  In6  1  0.951950  0.457268  0.788408  1
  In  In7  1  0.668860  0.163541  0.211592  1
  In  In8  1  0.457268  0.668860  0.505318  1
  In  In9  1  0.163541  0.951950  0.494682  1
  In  In10  1  0.048050  0.542732  0.211592  1
  In  In11  1  0.331140  0.836459  0.788408  1
  In  In12  1  0.542732  0.331140  0.494682  1
  In  In13  1  0.836459  0.048050  0.505318  1
  P  P14  1  0.500000  0.500000  0.000000  1
  I  I15  1  0.000000  0.000000  0.000000  1
