# generated using pymatgen
data_TbErCo2(P3Ir4)2
_symmetry_space_group_name_H-M   'P 1'
_cell_length_a   3.92532000
_cell_length_b   10.71741000
_cell_length_c   12.38196500
_cell_angle_alpha   90.00000000
_cell_angle_beta   90.00000000
_cell_angle_gamma   90.00000000
_symmetry_Int_Tables_number   1
_chemical_formula_structural   TbErCo2(P3Ir4)2
_chemical_formula_sum   'Tb2 Er2 Co4 P12 Ir16'
_cell_volume   520.90015221
_cell_formula_units_Z   2
loop_
 _symmetry_equiv_pos_site_id
 _symmetry_equiv_pos_as_xyz
  1  'x, y, z'
loop_
 _atom_site_type_symbol
 _atom_site_label
 _atom_site_symmetry_multiplicity
 _atom_site_fract_x
 _atom_site_fract_y
 _atom_site_fract_z
 _atom_site_occupancy
  Tb  Tb0  1  0.250000  0.585069  0.709972  1
  Tb  Tb1  1  0.250000  0.914931  0.209972  1
  Er  Er2  1  0.750000  0.414749  0.289953  1
  Er  Er3  1  0.750000  0.085251  0.789953  1
  Co  Co4  1  0.250000  0.460991  0.934197  1
  Co  Co5  1  0.250000  0.039009  0.434197  1
  Co  Co6  1  0.750000  0.538723  0.066170  1
  Co  Co7  1  0.750000  0.961277  0.566170  1
  P  P8  1  0.250000  0.426369  0.105778  1
  P  P9  1  0.250000  0.073631  0.605778  1
  P  P10  1  0.750000  0.573542  0.894634  1
  P  P11  1  0.750000  0.926458  0.394634  1
  P  P12  1  0.250000  0.270395  0.871248  1
  P  P13  1  0.250000  0.229605  0.371248  1
  P  P14  1  0.750000  0.729138  0.128425  1
  P  P15  1  0.750000  0.770862  0.628425  1
  P  P16  1  0.250000  0.594418  0.384746  1
  P  P17  1  0.250000  0.905582  0.884746  1
  P  P18  1  0.750000  0.405165  0.615044  1
  P  P19  1  0.750000  0.094835  0.115044  1
  Ir  Ir20  1  0.250000  0.720746  0.980739  1
  Ir  Ir21  1  0.250000  0.779254  0.480739  1
  Ir  Ir22  1  0.750000  0.279391  0.019282  1
  Ir  Ir23  1  0.750000  0.220609  0.519282  1
  Ir  Ir24  1  0.250000  0.407636  0.477761  1
  Ir  Ir25  1  0.250000  0.092364  0.977761  1
  Ir  Ir26  1  0.750000  0.592404  0.521055  1
  Ir  Ir27  1  0.750000  0.907596  0.021055  1
  Ir  Ir28  1  0.250000  0.232806  0.180136  1
  Ir  Ir29  1  0.250000  0.267194  0.680136  1
  Ir  Ir30  1  0.750000  0.768138  0.820339  1
  Ir  Ir31  1  0.750000  0.731862  0.320339  1
  Ir  Ir32  1  0.250000  0.886386  0.699245  1
  Ir  Ir33  1  0.250000  0.613614  0.199245  1
  Ir  Ir34  1  0.750000  0.114796  0.301273  1
  Ir  Ir35  1  0.750000  0.385204  0.801273  1
