# generated using pymatgen
data_Y3AgSn3Ir2
_symmetry_space_group_name_H-M   'P 1'
_cell_length_a   7.70979200
_cell_length_b   7.70979223
_cell_length_c   3.87577500
_cell_angle_alpha   90.00000000
_cell_angle_beta   90.00000000
_cell_angle_gamma   119.99999900
_symmetry_Int_Tables_number   1
_chemical_formula_structural   Y3AgSn3Ir2
_chemical_formula_sum   'Y3 Ag1 Sn3 Ir2'
_cell_volume   199.51452996
_cell_formula_units_Z   1
loop_
 _symmetry_equiv_pos_site_id
 _symmetry_equiv_pos_as_xyz
  1  'x, y, z'
loop_
 _atom_site_type_symbol
 _atom_site_label
 _atom_site_symmetry_multiplicity
 _atom_site_fract_x
 _atom_site_fract_y
 _atom_site_fract_z
 _atom_site_occupancy
  Y  Y0  1  0.384686  0.409321  0.500000  1
  Y  Y1  1  0.590679  0.975365  0.500000  1
  Y  Y2  1  0.024635  0.615314  0.500000  1
  Ag  Ag3  1  0.666667  0.333333  0.000000  1
  Sn  Sn4  1  0.742965  0.738296  0.000000  1
  Sn  Sn5  1  0.261704  0.004669  0.000000  1
  Sn  Sn6  1  0.995331  0.257035  0.000000  1
  Ir  Ir7  1  0.333333  0.666667  0.000000  1
  Ir  Ir8  1  0.000000  0.000000  0.500000  1
