# generated using pymatgen
data_SmP12IrOs3
_symmetry_space_group_name_H-M   'P 1'
_cell_length_a   7.03929404
_cell_length_b   7.03929435
_cell_length_c   7.03929400
_cell_angle_alpha   109.47300384
_cell_angle_beta   109.47300472
_cell_angle_gamma   109.47299657
_symmetry_Int_Tables_number   1
_chemical_formula_structural   SmP12IrOs3
_chemical_formula_sum   'Sm1 P12 Ir1 Os3'
_cell_volume   268.49537162
_cell_formula_units_Z   1
loop_
 _symmetry_equiv_pos_site_id
 _symmetry_equiv_pos_as_xyz
  1  'x, y, z'
loop_
 _atom_site_type_symbol
 _atom_site_label
 _atom_site_symmetry_multiplicity
 _atom_site_fract_x
 _atom_site_fract_y
 _atom_site_fract_z
 _atom_site_occupancy
  Sm  Sm0  1  0.000000  0.000000  0.000000  1
  P  P1  1  0.142804  0.787980  0.645236  1
  P  P2  1  0.139854  0.497458  0.353669  1
  P  P3  1  0.860146  0.502542  0.646331  1
  P  P4  1  0.353669  0.139854  0.497458  1
  P  P5  1  0.787980  0.645236  0.142804  1
  P  P6  1  0.857196  0.212020  0.354764  1
  P  P7  1  0.645236  0.142804  0.787980  1
  P  P8  1  0.502542  0.646331  0.860146  1
  P  P9  1  0.646331  0.860146  0.502542  1
  P  P10  1  0.497458  0.353669  0.139854  1
  P  P11  1  0.354764  0.857196  0.212020  1
  P  P12  1  0.212020  0.354764  0.857196  1
  Ir  Ir13  1  0.500000  0.500000  0.500000  1
  Os  Os14  1  0.500000  0.000000  0.000000  1
  Os  Os15  1  0.000000  0.500000  0.000000  1
  Os  Os16  1  0.000000  0.000000  0.500000  1
