# generated using pymatgen
data_Ac2La5Re4C9
_symmetry_space_group_name_H-M   'P 1'
_cell_length_a   6.69653818
_cell_length_b   6.69653672
_cell_length_c   12.23489919
_cell_angle_alpha   70.79478358
_cell_angle_beta   70.79477818
_cell_angle_gamma   48.21294530
_symmetry_Int_Tables_number   1
_chemical_formula_structural   Ac2La5Re4C9
_chemical_formula_sum   'Ac2 La5 Re4 C9'
_cell_volume   381.60415826
_cell_formula_units_Z   1
loop_
 _symmetry_equiv_pos_site_id
 _symmetry_equiv_pos_as_xyz
  1  'x, y, z'
loop_
 _atom_site_type_symbol
 _atom_site_label
 _atom_site_symmetry_multiplicity
 _atom_site_fract_x
 _atom_site_fract_y
 _atom_site_fract_z
 _atom_site_occupancy
  Ac  Ac0  1  0.363552  0.363552  0.850103  1
  Ac  Ac1  1  0.145358  0.145358  0.680637  1
  La  La2  1  0.857027  0.857027  0.314995  1
  La  La3  1  0.137412  0.137412  0.378145  1
  La  La4  1  0.863875  0.863875  0.618542  1
  La  La5  1  0.998737  0.998737  0.002059  1
  La  La6  1  0.627241  0.627241  0.158095  1
  Re  Re7  1  0.358509  0.358509  0.142454  1
  Re  Re8  1  0.568575  0.568575  0.568131  1
  Re  Re9  1  0.435931  0.435931  0.428562  1
  Re  Re10  1  0.640792  0.640792  0.858516  1
  C  C11  1  0.384704  0.384704  0.291469  1
  C  C12  1  0.917703  0.917703  0.821990  1
  C  C13  1  0.397105  0.397105  0.608241  1
  C  C14  1  0.196891  0.196891  0.143577  1
  C  C15  1  0.801531  0.801531  0.855978  1
  C  C16  1  0.501177  0.501177  0.002268  1
  C  C17  1  0.080043  0.080043  0.180510  1
  C  C18  1  0.615519  0.615519  0.708412  1
  C  C19  1  0.608319  0.608319  0.387317  1
