# generated using pymatgen
data_Zr3AlGa2Pd2Rh
_symmetry_space_group_name_H-M   'P 1'
_cell_length_a   7.31693593
_cell_length_b   7.27181678
_cell_length_c   3.45789400
_cell_angle_alpha   90.00000000
_cell_angle_beta   90.00000000
_cell_angle_gamma   119.76806367
_symmetry_Int_Tables_number   1
_chemical_formula_structural   Zr3AlGa2Pd2Rh
_chemical_formula_sum   'Zr3 Al1 Ga2 Pd2 Rh1'
_cell_volume   159.70729710
_cell_formula_units_Z   1
loop_
 _symmetry_equiv_pos_site_id
 _symmetry_equiv_pos_as_xyz
  1  'x, y, z'
loop_
 _atom_site_type_symbol
 _atom_site_label
 _atom_site_symmetry_multiplicity
 _atom_site_fract_x
 _atom_site_fract_y
 _atom_site_fract_z
 _atom_site_occupancy
  Zr  Zr0  1  0.990584  0.390583  0.500000  1
  Zr  Zr1  1  0.604259  0.595411  0.500000  1
  Zr  Zr2  1  0.405298  0.010155  0.500000  1
  Al  Al3  1  0.003214  0.736335  0.000000  1
  Ga  Ga4  1  0.269187  0.270191  0.000000  1
  Ga  Ga5  1  0.727547  0.994895  0.000000  1
  Pd  Pd6  1  0.329600  0.667477  0.000000  1
  Pd  Pd7  1  0.999797  0.996956  0.500000  1
  Rh  Rh8  1  0.670514  0.337996  0.000000  1
