# generated using pymatgen
data_Ca3HoBi3
_symmetry_space_group_name_H-M   'P 1'
_cell_length_a   8.18009439
_cell_length_b   8.40279728
_cell_length_c   8.40279770
_cell_angle_alpha   110.00186938
_cell_angle_beta   108.93521100
_cell_angle_gamma   108.93521505
_symmetry_Int_Tables_number   1
_chemical_formula_structural   Ca3HoBi3
_chemical_formula_sum   'Ca6 Ho2 Bi6'
_cell_volume   447.52203968
_cell_formula_units_Z   2
loop_
 _symmetry_equiv_pos_site_id
 _symmetry_equiv_pos_as_xyz
  1  'x, y, z'
loop_
 _atom_site_type_symbol
 _atom_site_label
 _atom_site_symmetry_multiplicity
 _atom_site_fract_x
 _atom_site_fract_y
 _atom_site_fract_z
 _atom_site_occupancy
  Ca  Ca0  1  0.501444  0.000129  0.645899  1
  Ca  Ca1  1  0.355545  0.354230  0.354101  1
  Ca  Ca2  1  0.501315  0.999871  0.145770  1
  Ca  Ca3  1  0.001315  0.645770  0.499871  1
  Ca  Ca4  1  0.855545  0.854101  0.854230  1
  Ca  Ca5  1  0.001444  0.145899  0.500129  1
  Ho  Ho6  1  0.140604  0.500000  0.000000  1
  Ho  Ho7  1  0.640604  0.500000  0.000000  1
  Bi  Bi8  1  0.376922  0.621981  0.757693  1
  Bi  Bi9  1  0.876922  0.257693  0.121981  1
  Bi  Bi10  1  0.619229  0.742307  0.364288  1
  Bi  Bi11  1  0.119229  0.864288  0.242307  1
  Bi  Bi12  1  0.254941  0.135712  0.878019  1
  Bi  Bi13  1  0.754941  0.378019  0.635712  1
