# generated using pymatgen
data_Nd2SiAg(PPd4)5
_symmetry_space_group_name_H-M   'P 1'
_cell_length_a   8.69015259
_cell_length_b   8.69115061
_cell_length_c   8.69115000
_cell_angle_alpha   59.99241259
_cell_angle_beta   60.00378592
_cell_angle_gamma   60.00378511
_symmetry_Int_Tables_number   1
_chemical_formula_structural   Nd2SiAg(PPd4)5
_chemical_formula_sum   'Nd2 Si1 Ag1 P5 Pd20'
_cell_volume   464.15909090
_cell_formula_units_Z   1
loop_
 _symmetry_equiv_pos_site_id
 _symmetry_equiv_pos_as_xyz
  1  'x, y, z'
loop_
 _atom_site_type_symbol
 _atom_site_label
 _atom_site_symmetry_multiplicity
 _atom_site_fract_x
 _atom_site_fract_y
 _atom_site_fract_z
 _atom_site_occupancy
  Nd  Nd0  1  0.250631  0.249369  0.249369  1
  Nd  Nd1  1  0.750631  0.749369  0.749369  1
  Si  Si2  1  0.738464  0.261536  0.261536  1
  Ag  Ag3  1  0.997981  0.002019  0.002019  1
  P  P4  1  0.261863  0.738137  0.738137  1
  P  P5  1  0.263354  0.736646  0.261409  1
  P  P6  1  0.738591  0.261409  0.736646  1
  P  P7  1  0.263354  0.261409  0.736646  1
  P  P8  1  0.738591  0.736646  0.261409  1
  Pd  Pd9  1  0.385141  0.386455  0.386455  1
  Pd  Pd10  1  0.613666  0.613556  0.613556  1
  Pd  Pd11  1  0.386444  0.386334  0.840781  1
  Pd  Pd12  1  0.386444  0.840781  0.386334  1
  Pd  Pd13  1  0.613545  0.614859  0.158051  1
  Pd  Pd14  1  0.613545  0.158051  0.614859  1
  Pd  Pd15  1  0.841949  0.386455  0.386455  1
  Pd  Pd16  1  0.159219  0.613556  0.613556  1
  Pd  Pd17  1  0.343596  0.001053  0.001053  1
  Pd  Pd18  1  0.654297  0.001053  0.001053  1
  Pd  Pd19  1  0.998947  0.345703  0.656404  1
  Pd  Pd20  1  0.998947  0.656404  0.345703  1
  Pd  Pd21  1  0.002315  0.346114  0.997685  1
  Pd  Pd22  1  0.653886  0.997685  0.346114  1
  Pd  Pd23  1  0.999670  0.655474  0.000330  1
  Pd  Pd24  1  0.344526  0.000330  0.655474  1
  Pd  Pd25  1  0.002315  0.997685  0.346114  1
  Pd  Pd26  1  0.999670  0.000330  0.655474  1
  Pd  Pd27  1  0.653886  0.346114  0.997685  1
  Pd  Pd28  1  0.344526  0.655474  0.000330  1
