# generated using pymatgen
data_Hf9TaRe3As
_symmetry_space_group_name_H-M   'P 1'
_cell_length_a   8.70397765
_cell_length_b   8.70397801
_cell_length_c   8.60824500
_cell_angle_alpha   90.00000000
_cell_angle_beta   90.00000000
_cell_angle_gamma   119.95674566
_symmetry_Int_Tables_number   1
_chemical_formula_structural   Hf9TaRe3As
_chemical_formula_sum   'Hf18 Ta2 Re6 As2'
_cell_volume   565.02794715
_cell_formula_units_Z   2
loop_
 _symmetry_equiv_pos_site_id
 _symmetry_equiv_pos_as_xyz
  1  'x, y, z'
loop_
 _atom_site_type_symbol
 _atom_site_label
 _atom_site_symmetry_multiplicity
 _atom_site_fract_x
 _atom_site_fract_y
 _atom_site_fract_z
 _atom_site_occupancy
  Hf  Hf0  1  0.804804  0.609513  0.545774  1
  Hf  Hf1  1  0.804411  0.195589  0.545346  1
  Hf  Hf2  1  0.390487  0.195196  0.545774  1
  Hf  Hf3  1  0.195196  0.390487  0.454226  1
  Hf  Hf4  1  0.195589  0.804411  0.454654  1
  Hf  Hf5  1  0.609513  0.804804  0.454226  1
  Hf  Hf6  1  0.195196  0.390487  0.045774  1
  Hf  Hf7  1  0.195589  0.804411  0.045346  1
  Hf  Hf8  1  0.609513  0.804804  0.045774  1
  Hf  Hf9  1  0.804804  0.609513  0.954226  1
  Hf  Hf10  1  0.804411  0.195589  0.954654  1
  Hf  Hf11  1  0.390487  0.195196  0.954226  1
  Hf  Hf12  1  0.459955  0.919554  0.750000  1
  Hf  Hf13  1  0.459648  0.540352  0.750000  1
  Hf  Hf14  1  0.080446  0.540045  0.750000  1
  Hf  Hf15  1  0.540045  0.080446  0.250000  1
  Hf  Hf16  1  0.540352  0.459648  0.250000  1
  Hf  Hf17  1  0.919554  0.459955  0.250000  1
  Ta  Ta18  1  0.000000  0.000000  0.500000  1
  Ta  Ta19  1  0.000000  0.000000  0.000000  1
  Re  Re20  1  0.111604  0.223489  0.750000  1
  Re  Re21  1  0.111802  0.888198  0.750000  1
  Re  Re22  1  0.776511  0.888396  0.750000  1
  Re  Re23  1  0.888396  0.776511  0.250000  1
  Re  Re24  1  0.888198  0.111802  0.250000  1
  Re  Re25  1  0.223489  0.111604  0.250000  1
  As  As26  1  0.666576  0.333424  0.750000  1
  As  As27  1  0.333424  0.666576  0.250000  1
