# generated using pymatgen
data_La4Mg7Pb6
_symmetry_space_group_name_H-M   'P 1'
_cell_length_a   4.94013187
_cell_length_b   9.18142650
_cell_length_c   11.67391196
_cell_angle_alpha   95.67985531
_cell_angle_beta   102.21545292
_cell_angle_gamma   105.60647147
_symmetry_Int_Tables_number   1
_chemical_formula_structural   La4Mg7Pb6
_chemical_formula_sum   'La4 Mg7 Pb6'
_cell_volume   491.54833269
_cell_formula_units_Z   1
loop_
 _symmetry_equiv_pos_site_id
 _symmetry_equiv_pos_as_xyz
  1  'x, y, z'
loop_
 _atom_site_type_symbol
 _atom_site_label
 _atom_site_symmetry_multiplicity
 _atom_site_fract_x
 _atom_site_fract_y
 _atom_site_fract_z
 _atom_site_occupancy
  La  La0  1  0.787923  0.408420  0.167427  1
  La  La1  1  0.115647  0.848653  0.382641  1
  La  La2  1  0.884353  0.151347  0.617359  1
  La  La3  1  0.212077  0.591579  0.832573  1
  Mg  Mg4  1  0.098909  0.057298  0.140520  1
  Mg  Mg5  1  0.465546  0.779401  0.151692  1
  Mg  Mg6  1  0.331761  0.264420  0.399101  1
  Mg  Mg7  1  0.999999  0.500000  0.500000  1
  Mg  Mg8  1  0.668239  0.735581  0.600899  1
  Mg  Mg9  1  0.534454  0.220599  0.848308  1
  Mg  Mg10  1  0.901091  0.942702  0.859480  1
  Pb  Pb11  1  0.869547  0.715806  0.023288  1
  Pb  Pb12  1  0.702347  0.092972  0.311723  1
  Pb  Pb13  1  0.465413  0.584764  0.346064  1
  Pb  Pb14  1  0.534587  0.415236  0.653936  1
  Pb  Pb15  1  0.297652  0.907028  0.688277  1
  Pb  Pb16  1  0.130453  0.284194  0.976712  1
