# generated using pymatgen
data_CeSiAgH
_symmetry_space_group_name_H-M   'P 1'
_cell_length_a   4.17162700
_cell_length_b   4.17162700
_cell_length_c   7.45472300
_cell_angle_alpha   90.00000000
_cell_angle_beta   90.00000000
_cell_angle_gamma   90.00000000
_symmetry_Int_Tables_number   1
_chemical_formula_structural   CeSiAgH
_chemical_formula_sum   'Ce2 Si2 Ag2 H2'
_cell_volume   129.73060699
_cell_formula_units_Z   2
loop_
 _symmetry_equiv_pos_site_id
 _symmetry_equiv_pos_as_xyz
  1  'x, y, z'
loop_
 _atom_site_type_symbol
 _atom_site_label
 _atom_site_symmetry_multiplicity
 _atom_site_fract_x
 _atom_site_fract_y
 _atom_site_fract_z
 _atom_site_occupancy
  Ce  Ce0  1  0.500000  0.000000  0.147350  1
  Ce  Ce1  1  0.000000  0.500000  0.852650  1
  Si  Si2  1  0.500000  0.000000  0.724379  1
  Si  Si3  1  0.000000  0.500000  0.275621  1
  Ag  Ag4  1  0.000000  0.000000  0.500000  1
  Ag  Ag5  1  0.500000  0.500000  0.500000  1
  H  H6  1  0.000000  0.000000  0.000000  1
  H  H7  1  0.500000  0.500000  0.000000  1
