# generated using pymatgen
data_Sc(Ta3N4)3
_symmetry_space_group_name_H-M   'P 1'
_cell_length_a   5.24468000
_cell_length_b   5.24468077
_cell_length_c   10.40859200
_cell_angle_alpha   90.00000000
_cell_angle_beta   90.00000000
_cell_angle_gamma   119.99999516
_symmetry_Int_Tables_number   1
_chemical_formula_structural   Sc(Ta3N4)3
_chemical_formula_sum   'Sc1 Ta9 N12'
_cell_volume   247.94804707
_cell_formula_units_Z   1
loop_
 _symmetry_equiv_pos_site_id
 _symmetry_equiv_pos_as_xyz
  1  'x, y, z'
loop_
 _atom_site_type_symbol
 _atom_site_label
 _atom_site_symmetry_multiplicity
 _atom_site_fract_x
 _atom_site_fract_y
 _atom_site_fract_z
 _atom_site_occupancy
  Sc  Sc0  1  0.666667  0.333333  0.000000  1
  Ta  Ta1  1  0.677565  0.675969  0.748418  1
  Ta  Ta2  1  0.324031  0.001596  0.748418  1
  Ta  Ta3  1  0.998404  0.322435  0.748418  1
  Ta  Ta4  1  0.324031  0.322435  0.251582  1
  Ta  Ta5  1  0.677565  0.001596  0.251582  1
  Ta  Ta6  1  0.998404  0.675969  0.251582  1
  Ta  Ta7  1  0.333333  0.666667  0.000000  1
  Ta  Ta8  1  0.333333  0.666667  0.500000  1
  Ta  Ta9  1  0.666667  0.333333  0.500000  1
  N  N10  1  0.659804  0.660075  0.380431  1
  N  N11  1  0.339925  0.999729  0.380431  1
  N  N12  1  0.000271  0.340196  0.380431  1
  N  N13  1  0.339925  0.340196  0.619569  1
  N  N14  1  0.659804  0.999729  0.619569  1
  N  N15  1  0.000271  0.660075  0.619569  1
  N  N16  1  0.341026  0.348460  0.874814  1
  N  N17  1  0.651540  0.992566  0.874814  1
  N  N18  1  0.007434  0.658974  0.874814  1
  N  N19  1  0.651540  0.658974  0.125186  1
  N  N20  1  0.341026  0.992566  0.125186  1
  N  N21  1  0.007434  0.348460  0.125186  1
