# generated using pymatgen
data_Yb4Sn3Au10
_symmetry_space_group_name_H-M   'P 1'
_cell_length_a   8.66227400
_cell_length_b   8.66227501
_cell_length_c   10.09948400
_cell_angle_alpha   90.00000000
_cell_angle_beta   90.00000000
_cell_angle_gamma   71.93199115
_symmetry_Int_Tables_number   1
_chemical_formula_structural   Yb4Sn3Au10
_chemical_formula_sum   'Yb8 Sn6 Au20'
_cell_volume   720.44621127
_cell_formula_units_Z   2
loop_
 _symmetry_equiv_pos_site_id
 _symmetry_equiv_pos_as_xyz
  1  'x, y, z'
loop_
 _atom_site_type_symbol
 _atom_site_label
 _atom_site_symmetry_multiplicity
 _atom_site_fract_x
 _atom_site_fract_y
 _atom_site_fract_z
 _atom_site_occupancy
  Yb  Yb0  1  0.301424  0.301424  0.000000  1
  Yb  Yb1  1  0.698576  0.698576  0.000000  1
  Yb  Yb2  1  0.695912  0.304088  0.203841  1
  Yb  Yb3  1  0.195912  0.804088  0.296159  1
  Yb  Yb4  1  0.198576  0.198576  0.500000  1
  Yb  Yb5  1  0.801424  0.801424  0.500000  1
  Yb  Yb6  1  0.804088  0.195912  0.703841  1
  Yb  Yb7  1  0.304088  0.695912  0.796159  1
  Sn  Sn8  1  0.000000  0.000000  0.000000  1
  Sn  Sn9  1  0.485912  0.014088  0.250000  1
  Sn  Sn10  1  0.985911  0.514088  0.250000  1
  Sn  Sn11  1  0.500000  0.500000  0.500000  1
  Sn  Sn12  1  0.014088  0.485912  0.750000  1
  Sn  Sn13  1  0.514088  0.985911  0.750000  1
  Au  Au14  1  0.070332  0.648293  0.012425  1
  Au  Au15  1  0.351707  0.929668  0.012425  1
  Au  Au16  1  0.401481  0.598520  0.096403  1
  Au  Au17  1  0.120016  0.164761  0.210902  1
  Au  Au18  1  0.835238  0.879984  0.210902  1
  Au  Au19  1  0.335239  0.379985  0.289098  1
  Au  Au20  1  0.620015  0.664761  0.289098  1
  Au  Au21  1  0.901481  0.098520  0.403596  1
  Au  Au22  1  0.570332  0.148293  0.487575  1
  Au  Au23  1  0.851707  0.429668  0.487575  1
  Au  Au24  1  0.148293  0.570332  0.512425  1
  Au  Au25  1  0.429668  0.851707  0.512425  1
  Au  Au26  1  0.098520  0.901481  0.596403  1
  Au  Au27  1  0.379985  0.335239  0.710902  1
  Au  Au28  1  0.664761  0.620015  0.710902  1
  Au  Au29  1  0.164761  0.120016  0.789098  1
  Au  Au30  1  0.879984  0.835238  0.789098  1
  Au  Au31  1  0.598520  0.401481  0.903597  1
  Au  Au32  1  0.648293  0.070332  0.987575  1
  Au  Au33  1  0.929668  0.351707  0.987575  1
