# generated using pymatgen
data_YTm19(Bi2Sb)4
_symmetry_space_group_name_H-M   'P 1'
_cell_length_a   8.09055423
_cell_length_b   9.36850100
_cell_length_c   11.82599480
_cell_angle_alpha   90.00000000
_cell_angle_beta   89.93679879
_cell_angle_gamma   90.00000000
_symmetry_Int_Tables_number   1
_chemical_formula_structural   YTm19(Bi2Sb)4
_chemical_formula_sum   'Y1 Tm19 Bi8 Sb4'
_cell_volume   896.36687764
_cell_formula_units_Z   1
loop_
 _symmetry_equiv_pos_site_id
 _symmetry_equiv_pos_as_xyz
  1  'x, y, z'
loop_
 _atom_site_type_symbol
 _atom_site_label
 _atom_site_symmetry_multiplicity
 _atom_site_fract_x
 _atom_site_fract_y
 _atom_site_fract_z
 _atom_site_occupancy
  Y  Y0  1  0.145898  0.250000  0.713834  1
  Tm  Tm1  1  0.027370  0.750000  0.988986  1
  Tm  Tm2  1  0.527589  0.750000  0.511089  1
  Tm  Tm3  1  0.972253  0.250000  0.011972  1
  Tm  Tm4  1  0.472510  0.250000  0.488442  1
  Tm  Tm5  1  0.184129  0.750000  0.717248  1
  Tm  Tm6  1  0.684275  0.750000  0.782904  1
  Tm  Tm7  1  0.815007  0.250000  0.282440  1
  Tm  Tm8  1  0.315670  0.250000  0.217220  1
  Tm  Tm9  1  0.310356  0.436269  0.942532  1
  Tm  Tm10  1  0.809857  0.063985  0.558078  1
  Tm  Tm11  1  0.689891  0.935839  0.058443  1
  Tm  Tm12  1  0.189897  0.564079  0.441568  1
  Tm  Tm13  1  0.689891  0.564161  0.058443  1
  Tm  Tm14  1  0.189897  0.935921  0.441568  1
  Tm  Tm15  1  0.310356  0.063731  0.942532  1
  Tm  Tm16  1  0.809857  0.436015  0.558078  1
  Tm  Tm17  1  0.354596  0.750000  0.214907  1
  Tm  Tm18  1  0.854094  0.750000  0.285204  1
  Tm  Tm19  1  0.646173  0.250000  0.785304  1
  Bi  Bi20  1  0.434581  0.002725  0.674447  1
  Bi  Bi21  1  0.932137  0.497557  0.826320  1
  Bi  Bi22  1  0.566846  0.503614  0.325437  1
  Bi  Bi23  1  0.066765  0.996432  0.174545  1
  Bi  Bi24  1  0.566846  0.996386  0.325437  1
  Bi  Bi25  1  0.066765  0.503568  0.174545  1
  Bi  Bi26  1  0.434581  0.497275  0.674447  1
  Bi  Bi27  1  0.932137  0.002443  0.826320  1
  Sb  Sb28  1  0.405978  0.750000  0.958505  1
  Sb  Sb29  1  0.905923  0.750000  0.541562  1
  Sb  Sb30  1  0.594350  0.250000  0.041535  1
  Sb  Sb31  1  0.093521  0.250000  0.456105  1
