# generated using pymatgen
data_Er5P12Ir13Ru6
_symmetry_space_group_name_H-M   'P 1'
_cell_length_a   12.60405501
_cell_length_b   12.59517665
_cell_length_c   3.96964300
_cell_angle_alpha   90.00000000
_cell_angle_beta   90.00000000
_cell_angle_gamma   119.71253646
_symmetry_Int_Tables_number   1
_chemical_formula_structural   Er5P12Ir13Ru6
_chemical_formula_sum   'Er5 P12 Ir13 Ru6'
_cell_volume   547.32762844
_cell_formula_units_Z   1
loop_
 _symmetry_equiv_pos_site_id
 _symmetry_equiv_pos_as_xyz
  1  'x, y, z'
loop_
 _atom_site_type_symbol
 _atom_site_label
 _atom_site_symmetry_multiplicity
 _atom_site_fract_x
 _atom_site_fract_y
 _atom_site_fract_z
 _atom_site_occupancy
  Er  Er0  1  0.668011  0.333678  0.000000  1
  Er  Er1  1  0.332881  0.665297  0.000000  1
  Er  Er2  1  0.816972  0.001659  0.500000  1
  Er  Er3  1  0.182850  0.184052  0.500000  1
  Er  Er4  1  0.999397  0.815967  0.500000  1
  P  P5  1  0.644516  0.004472  0.000000  1
  P  P6  1  0.362956  0.362689  0.000000  1
  P  P7  1  0.999483  0.636951  0.000000  1
  P  P8  1  0.688289  0.519294  0.500000  1
  P  P9  1  0.829757  0.308525  0.500000  1
  P  P10  1  0.309063  0.828396  0.500000  1
  P  P11  1  0.518929  0.686791  0.500000  1
  P  P12  1  0.181138  0.000735  0.000000  1
  P  P13  1  0.819752  0.820644  0.000000  1
  P  P14  1  0.997420  0.180508  0.000000  1
  P  P15  1  0.481098  0.170836  0.500000  1
  P  P16  1  0.168324  0.480663  0.500000  1
  Ir  Ir17  1  0.625056  0.808056  0.000000  1
  Ir  Ir18  1  0.182318  0.375259  0.000000  1
  Ir  Ir19  1  0.376977  0.182217  0.000000  1
  Ir  Ir20  1  0.193890  0.817732  0.000000  1
  Ir  Ir21  1  0.805316  0.624041  0.000000  1
  Ir  Ir22  1  0.867829  0.505960  0.500000  1
  Ir  Ir23  1  0.492911  0.362916  0.500000  1
  Ir  Ir24  1  0.636896  0.129335  0.500000  1
  Ir  Ir25  1  0.129326  0.637863  0.500000  1
  Ir  Ir26  1  0.360351  0.492216  0.500000  1
  Ir  Ir27  1  0.504166  0.864917  0.500000  1
  Ir  Ir28  1  0.000316  0.999967  0.000000  1
  Ir  Ir29  1  0.458080  0.997558  0.000000  1
  Ru  Ru30  1  0.713767  0.714047  0.500000  1
  Ru  Ru31  1  0.001625  0.287901  0.500000  1
  Ru  Ru32  1  0.544353  0.546930  0.000000  1
  Ru  Ru33  1  0.000895  0.454528  0.000000  1
  Ru  Ru34  1  0.819156  0.197230  0.000000  1
  Ru  Ru35  1  0.285935  0.000167  0.500000  1
