# generated using pymatgen
data_Li3Co8NiAs7Rh2
_symmetry_space_group_name_H-M   'P 1'
_cell_length_a   9.32221293
_cell_length_b   9.36943714
_cell_length_c   3.69307700
_cell_angle_alpha   90.00000000
_cell_angle_beta   90.00000000
_cell_angle_gamma   119.68221479
_symmetry_Int_Tables_number   1
_chemical_formula_structural   Li3Co8NiAs7Rh2
_chemical_formula_sum   'Li3 Co8 Ni1 As7 Rh2'
_cell_volume   280.24206916
_cell_formula_units_Z   1
loop_
 _symmetry_equiv_pos_site_id
 _symmetry_equiv_pos_as_xyz
  1  'x, y, z'
loop_
 _atom_site_type_symbol
 _atom_site_label
 _atom_site_symmetry_multiplicity
 _atom_site_fract_x
 _atom_site_fract_y
 _atom_site_fract_z
 _atom_site_occupancy
  Li  Li0  1  0.790118  0.233055  0.500000  1
  Li  Li1  1  0.329789  0.665076  0.000000  1
  Li  Li2  1  0.996146  0.998912  0.500000  1
  Co  Co3  1  0.282188  0.384632  0.500000  1
  Co  Co4  1  0.623372  0.900109  0.500000  1
  Co  Co5  1  0.106630  0.724044  0.500000  1
  Co  Co6  1  0.503512  0.451938  0.000000  1
  Co  Co7  1  0.547910  0.049290  0.000000  1
  Co  Co8  1  0.951059  0.500451  0.000000  1
  Co  Co9  1  0.716066  0.760181  0.000000  1
  Co  Co10  1  0.235330  0.957513  0.000000  1
  Ni  Ni11  1  0.043841  0.278516  0.000000  1
  As  As12  1  0.962211  0.755276  0.000000  1
  As  As13  1  0.247060  0.209560  0.000000  1
  As  As14  1  0.791681  0.033311  0.000000  1
  As  As15  1  0.667513  0.334418  0.000000  1
  As  As16  1  0.535753  0.623516  0.500000  1
  As  As17  1  0.378882  0.913867  0.500000  1
  As  As18  1  0.083845  0.462746  0.500000  1
  Rh  Rh19  1  0.764981  0.560984  0.500000  1
  Rh  Rh20  1  0.442117  0.202602  0.500000  1
