# generated using pymatgen
data_YTmLu2CdNi
_symmetry_space_group_name_H-M   'P 1'
_cell_length_a   9.42642311
_cell_length_b   9.41604956
_cell_length_c   9.41604863
_cell_angle_alpha   60.07291237
_cell_angle_beta   59.96353781
_cell_angle_gamma   59.96354046
_symmetry_Int_Tables_number   1
_chemical_formula_structural   YTmLu2CdNi
_chemical_formula_sum   'Y4 Tm4 Lu8 Cd4 Ni4'
_cell_volume   590.97386284
_cell_formula_units_Z   4
loop_
 _symmetry_equiv_pos_site_id
 _symmetry_equiv_pos_as_xyz
  1  'x, y, z'
loop_
 _atom_site_type_symbol
 _atom_site_label
 _atom_site_symmetry_multiplicity
 _atom_site_fract_x
 _atom_site_fract_y
 _atom_site_fract_z
 _atom_site_occupancy
  Y  Y0  1  0.814270  0.185730  0.814270  1
  Y  Y1  1  0.185730  0.814270  0.185730  1
  Y  Y2  1  0.814270  0.814270  0.185730  1
  Y  Y3  1  0.185730  0.185730  0.814270  1
  Tm  Tm4  1  0.599664  0.598038  0.598038  1
  Tm  Tm5  1  0.598038  0.599664  0.204260  1
  Tm  Tm6  1  0.598038  0.204260  0.599664  1
  Tm  Tm7  1  0.204260  0.598038  0.598038  1
  Lu  Lu8  1  0.062767  0.437233  0.437233  1
  Lu  Lu9  1  0.437233  0.062767  0.062767  1
  Lu  Lu10  1  0.437280  0.062720  0.437280  1
  Lu  Lu11  1  0.062720  0.437280  0.062720  1
  Lu  Lu12  1  0.437280  0.437280  0.062720  1
  Lu  Lu13  1  0.062720  0.062720  0.437280  1
  Lu  Lu14  1  0.191106  0.808894  0.808894  1
  Lu  Lu15  1  0.808894  0.191106  0.191106  1
  Cd  Cd16  1  0.832597  0.829974  0.829974  1
  Cd  Cd17  1  0.829974  0.832597  0.507455  1
  Cd  Cd18  1  0.829974  0.507455  0.832597  1
  Cd  Cd19  1  0.507455  0.829974  0.829974  1
  Ni  Ni20  1  0.395771  0.390112  0.390112  1
  Ni  Ni21  1  0.390112  0.395771  0.824008  1
  Ni  Ni22  1  0.390112  0.824008  0.395771  1
  Ni  Ni23  1  0.824008  0.390112  0.390112  1
