# generated using pymatgen
data_PuB4Ir
_symmetry_space_group_name_H-M   'P 1'
_cell_length_a   3.54623400
_cell_length_b   6.02511000
_cell_length_c   11.68098400
_cell_angle_alpha   90.00000000
_cell_angle_beta   90.00000000
_cell_angle_gamma   90.00000000
_symmetry_Int_Tables_number   1
_chemical_formula_structural   PuB4Ir
_chemical_formula_sum   'Pu4 B16 Ir4'
_cell_volume   249.58115984
_cell_formula_units_Z   4
loop_
 _symmetry_equiv_pos_site_id
 _symmetry_equiv_pos_as_xyz
  1  'x, y, z'
loop_
 _atom_site_type_symbol
 _atom_site_label
 _atom_site_symmetry_multiplicity
 _atom_site_fract_x
 _atom_site_fract_y
 _atom_site_fract_z
 _atom_site_occupancy
  Pu  Pu0  1  0.000000  0.628777  0.351447  1
  Pu  Pu1  1  0.000000  0.371223  0.648553  1
  Pu  Pu2  1  0.000000  0.128777  0.148553  1
  Pu  Pu3  1  0.000000  0.871223  0.851447  1
  B  B4  1  0.500000  0.787974  0.188079  1
  B  B5  1  0.500000  0.212026  0.811921  1
  B  B6  1  0.500000  0.287974  0.311921  1
  B  B7  1  0.500000  0.712026  0.688079  1
  B  B8  1  0.500000  0.864692  0.031618  1
  B  B9  1  0.500000  0.135308  0.968382  1
  B  B10  1  0.500000  0.364692  0.468382  1
  B  B11  1  0.500000  0.635308  0.531618  1
  B  B12  1  0.500000  0.885625  0.453130  1
  B  B13  1  0.500000  0.114375  0.546870  1
  B  B14  1  0.500000  0.385625  0.046870  1
  B  B15  1  0.500000  0.614375  0.953130  1
  B  B16  1  0.500000  0.973218  0.308081  1
  B  B17  1  0.500000  0.026782  0.691919  1
  B  B18  1  0.500000  0.473218  0.191919  1
  B  B19  1  0.500000  0.526782  0.808081  1
  Ir  Ir20  1  0.000000  0.641299  0.094554  1
  Ir  Ir21  1  0.000000  0.358701  0.905446  1
  Ir  Ir22  1  0.000000  0.141299  0.405446  1
  Ir  Ir23  1  0.000000  0.858701  0.594554  1
