# generated using pymatgen
data_Rb3LuBi2
_symmetry_space_group_name_H-M   'P 1'
_cell_length_a   10.31062231
_cell_length_b   10.31062244
_cell_length_c   10.31062196
_cell_angle_alpha   127.70494067
_cell_angle_beta   70.86939158
_cell_angle_gamma   135.73567519
_symmetry_Int_Tables_number   1
_chemical_formula_structural   Rb3LuBi2
_chemical_formula_sum   'Rb6 Lu2 Bi4'
_cell_volume   593.09908535
_cell_formula_units_Z   2
loop_
 _symmetry_equiv_pos_site_id
 _symmetry_equiv_pos_as_xyz
  1  'x, y, z'
loop_
 _atom_site_type_symbol
 _atom_site_label
 _atom_site_symmetry_multiplicity
 _atom_site_fract_x
 _atom_site_fract_y
 _atom_site_fract_z
 _atom_site_occupancy
  Rb  Rb0  1  0.250000  0.250000  0.000000  1
  Rb  Rb1  1  0.750000  0.750000  0.000000  1
  Rb  Rb2  1  0.315004  0.805126  0.120128  1
  Rb  Rb3  1  0.184996  0.305125  0.490122  1
  Rb  Rb4  1  0.815004  0.694875  0.509879  1
  Rb  Rb5  1  0.684996  0.194874  0.879871  1
  Lu  Lu6  1  0.750000  0.250000  0.500000  1
  Lu  Lu7  1  0.250000  0.749999  0.499999  1
  Bi  Bi8  1  0.902501  0.306491  0.208991  1
  Bi  Bi9  1  0.597499  0.806491  0.403990  1
  Bi  Bi10  1  0.402501  0.193509  0.596010  1
  Bi  Bi11  1  0.097499  0.693509  0.791008  1
