# generated using pymatgen
data_NbFe3SiMo
_symmetry_space_group_name_H-M   'P 1'
_cell_length_a   4.79035400
_cell_length_b   4.79035651
_cell_length_c   7.82148500
_cell_angle_alpha   90.00000000
_cell_angle_beta   90.00000000
_cell_angle_gamma   120.00001029
_symmetry_Int_Tables_number   1
_chemical_formula_structural   NbFe3SiMo
_chemical_formula_sum   'Nb2 Fe6 Si2 Mo2'
_cell_volume   155.43730133
_cell_formula_units_Z   2
loop_
 _symmetry_equiv_pos_site_id
 _symmetry_equiv_pos_as_xyz
  1  'x, y, z'
loop_
 _atom_site_type_symbol
 _atom_site_label
 _atom_site_symmetry_multiplicity
 _atom_site_fract_x
 _atom_site_fract_y
 _atom_site_fract_z
 _atom_site_occupancy
  Nb  Nb0  1  0.666667  0.333333  0.925321  1
  Nb  Nb1  1  0.333333  0.666667  0.074679  1
  Fe  Fe2  1  0.829171  0.170829  0.250739  1
  Fe  Fe3  1  0.829171  0.658343  0.250739  1
  Fe  Fe4  1  0.341657  0.170829  0.250739  1
  Fe  Fe5  1  0.170829  0.829171  0.749261  1
  Fe  Fe6  1  0.170829  0.341657  0.749261  1
  Fe  Fe7  1  0.658343  0.829171  0.749261  1
  Si  Si8  1  0.000000  0.000000  0.500000  1
  Si  Si9  1  0.000000  0.000000  0.000000  1
  Mo  Mo10  1  0.333333  0.666667  0.446140  1
  Mo  Mo11  1  0.666667  0.333333  0.553860  1
