# generated using pymatgen
data_Er8Tm12Sn7Pb9
_symmetry_space_group_name_H-M   'P 1'
_cell_length_a   8.07817305
_cell_length_b   8.12900202
_cell_length_c   15.41711900
_cell_angle_alpha   90.00000000
_cell_angle_beta   90.00000000
_cell_angle_gamma   90.01051411
_symmetry_Int_Tables_number   1
_chemical_formula_structural   Er8Tm12Sn7Pb9
_chemical_formula_sum   'Er8 Tm12 Sn7 Pb9'
_cell_volume   1012.40341447
_cell_formula_units_Z   1
loop_
 _symmetry_equiv_pos_site_id
 _symmetry_equiv_pos_as_xyz
  1  'x, y, z'
loop_
 _atom_site_type_symbol
 _atom_site_label
 _atom_site_symmetry_multiplicity
 _atom_site_fract_x
 _atom_site_fract_y
 _atom_site_fract_z
 _atom_site_occupancy
  Er  Er0  1  0.537955  0.324876  0.895844  1
  Er  Er1  1  0.038438  0.174542  0.604369  1
  Er  Er2  1  0.464717  0.675160  0.397148  1
  Er  Er3  1  0.959913  0.827090  0.101568  1
  Er  Er4  1  0.464717  0.675160  0.102852  1
  Er  Er5  1  0.959913  0.827090  0.398432  1
  Er  Er6  1  0.537955  0.324876  0.604156  1
  Er  Er7  1  0.038438  0.174542  0.895631  1
  Tm  Tm8  1  0.380150  0.838525  0.876596  1
  Tm  Tm9  1  0.880444  0.661021  0.623523  1
  Tm  Tm10  1  0.619839  0.161107  0.377106  1
  Tm  Tm11  1  0.119658  0.337391  0.123039  1
  Tm  Tm12  1  0.619839  0.161107  0.122894  1
  Tm  Tm13  1  0.119658  0.337391  0.376961  1
  Tm  Tm14  1  0.380150  0.838525  0.623404  1
  Tm  Tm15  1  0.880444  0.661021  0.876477  1
  Tm  Tm16  1  0.210928  0.503592  0.750000  1
  Tm  Tm17  1  0.710877  0.996280  0.750000  1
  Tm  Tm18  1  0.787351  0.494688  0.250000  1
  Tm  Tm19  1  0.291281  0.006676  0.250000  1
  Sn  Sn20  1  0.575593  0.622966  0.750000  1
  Sn  Sn21  1  0.075882  0.876354  0.750000  1
  Sn  Sn22  1  0.424968  0.376141  0.250000  1
  Sn  Sn23  1  0.924082  0.122056  0.250000  1
  Sn  Sn24  1  0.346082  0.149360  0.750000  1
  Sn  Sn25  1  0.846007  0.350898  0.750000  1
  Sn  Sn26  1  0.655105  0.850377  0.250000  1
  Pb  Pb27  1  0.280316  0.031761  0.040909  1
  Pb  Pb28  1  0.781583  0.467418  0.459194  1
  Pb  Pb29  1  0.718390  0.968461  0.541960  1
  Pb  Pb30  1  0.218910  0.531445  0.958782  1
  Pb  Pb31  1  0.718390  0.968461  0.958040  1
  Pb  Pb32  1  0.218910  0.531445  0.541218  1
  Pb  Pb33  1  0.280316  0.031761  0.459091  1
  Pb  Pb34  1  0.781583  0.467418  0.040806  1
  Pb  Pb35  1  0.151219  0.653014  0.250000  1
