# generated using pymatgen
data_Ho8Hf11Si16Ru
_symmetry_space_group_name_H-M   'P 1'
_cell_length_a   7.23563479
_cell_length_b   7.23563352
_cell_length_c   13.21934287
_cell_angle_alpha   90.10144890
_cell_angle_beta   89.89855194
_cell_angle_gamma   89.95736672
_symmetry_Int_Tables_number   1
_chemical_formula_structural   Ho8Hf11Si16Ru
_chemical_formula_sum   'Ho8 Hf11 Si16 Ru1'
_cell_volume   692.08842305
_cell_formula_units_Z   1
loop_
 _symmetry_equiv_pos_site_id
 _symmetry_equiv_pos_as_xyz
  1  'x, y, z'
loop_
 _atom_site_type_symbol
 _atom_site_label
 _atom_site_symmetry_multiplicity
 _atom_site_fract_x
 _atom_site_fract_y
 _atom_site_fract_z
 _atom_site_occupancy
  Ho  Ho0  1  0.343861  0.005360  0.465339  1
  Ho  Ho1  1  0.494770  0.845425  0.717402  1
  Ho  Ho2  1  0.501419  0.156408  0.212055  1
  Ho  Ho3  1  0.845425  0.494770  0.282598  1
  Ho  Ho4  1  0.156408  0.501419  0.787945  1
  Ho  Ho5  1  0.653223  0.997927  0.967190  1
  Ho  Ho6  1  0.005360  0.343861  0.534661  1
  Ho  Ho7  1  0.997927  0.653223  0.032810  1
  Hf  Hf8  1  0.175836  0.824756  0.248014  1
  Hf  Hf9  1  0.824756  0.175836  0.751986  1
  Hf  Hf10  1  0.675355  0.675355  0.500000  1
  Hf  Hf11  1  0.147163  0.002902  0.876494  1
  Hf  Hf12  1  0.495981  0.646383  0.121756  1
  Hf  Hf13  1  0.502471  0.353658  0.627824  1
  Hf  Hf14  1  0.646383  0.495981  0.878244  1
  Hf  Hf15  1  0.353658  0.502471  0.372176  1
  Hf  Hf16  1  0.853307  0.997474  0.374495  1
  Hf  Hf17  1  0.002902  0.147163  0.123506  1
  Hf  Hf18  1  0.997474  0.853307  0.625505  1
  Si  Si19  1  0.205468  0.140668  0.684207  1
  Si  Si20  1  0.362897  0.707537  0.930943  1
  Si  Si21  1  0.639142  0.293824  0.432652  1
  Si  Si22  1  0.707537  0.362897  0.069057  1
  Si  Si23  1  0.293824  0.639142  0.567348  1
  Si  Si24  1  0.794161  0.860054  0.181286  1
  Si  Si25  1  0.140668  0.205468  0.315793  1
  Si  Si26  1  0.860054  0.794161  0.818714  1
  Si  Si27  1  0.293554  0.951469  0.063873  1
  Si  Si28  1  0.548979  0.797371  0.313996  1
  Si  Si29  1  0.445447  0.206344  0.819150  1
  Si  Si30  1  0.797371  0.548979  0.686004  1
  Si  Si31  1  0.206344  0.445447  0.180850  1
  Si  Si32  1  0.702842  0.050166  0.565075  1
  Si  Si33  1  0.951469  0.293554  0.936127  1
  Si  Si34  1  0.050166  0.702842  0.434925  1
  Ru  Ru35  1  0.326400  0.326400  0.000000  1
