# generated using pymatgen
data_LiTb4Tc3B16
_symmetry_space_group_name_H-M   'P 1'
_cell_length_a   3.57091300
_cell_length_b   5.95790394
_cell_length_c   11.54796300
_cell_angle_alpha   89.96774536
_cell_angle_beta   90.00000000
_cell_angle_gamma   90.00000000
_symmetry_Int_Tables_number   1
_chemical_formula_structural   LiTb4Tc3B16
_chemical_formula_sum   'Li1 Tb4 Tc3 B16'
_cell_volume   245.68468284
_cell_formula_units_Z   1
loop_
 _symmetry_equiv_pos_site_id
 _symmetry_equiv_pos_as_xyz
  1  'x, y, z'
loop_
 _atom_site_type_symbol
 _atom_site_label
 _atom_site_symmetry_multiplicity
 _atom_site_fract_x
 _atom_site_fract_y
 _atom_site_fract_z
 _atom_site_occupancy
  Li  Li0  1  0.500000  0.865340  0.089005  1
  Tb  Tb1  1  0.500000  0.369772  0.146489  1
  Tb  Tb2  1  0.500000  0.626048  0.851826  1
  Tb  Tb3  1  0.500000  0.128832  0.654129  1
  Tb  Tb4  1  0.500000  0.872998  0.347632  1
  Tc  Tc5  1  0.500000  0.367558  0.414372  1
  Tc  Tc6  1  0.500000  0.632126  0.585065  1
  Tc  Tc7  1  0.500000  0.126822  0.915661  1
  B  B8  1  0.000000  0.114416  0.046238  1
  B  B9  1  0.000000  0.887948  0.953231  1
  B  B10  1  0.000000  0.387366  0.546584  1
  B  B11  1  0.000000  0.613763  0.451628  1
  B  B12  1  0.000000  0.135764  0.467807  1
  B  B13  1  0.000000  0.865212  0.531051  1
  B  B14  1  0.000000  0.366346  0.969529  1
  B  B15  1  0.000000  0.636475  0.033879  1
  B  B16  1  0.000000  0.021421  0.192393  1
  B  B17  1  0.000000  0.976560  0.808807  1
  B  B18  1  0.000000  0.477233  0.692360  1
  B  B19  1  0.000000  0.525647  0.305542  1
  B  B20  1  0.000000  0.212654  0.312759  1
  B  B21  1  0.000000  0.785768  0.685938  1
  B  B22  1  0.000000  0.286305  0.815992  1
  B  B23  1  0.000000  0.717624  0.182085  1
