# generated using pymatgen
data_Hf6TiTc12Mo5
_symmetry_space_group_name_H-M   'P 1'
_cell_length_a   4.49120500
_cell_length_b   6.37997600
_cell_length_c   13.59164000
_cell_angle_alpha   90.00000000
_cell_angle_beta   90.00002119
_cell_angle_gamma   90.00000000
_symmetry_Int_Tables_number   1
_chemical_formula_structural   Hf6TiTc12Mo5
_chemical_formula_sum   'Hf6 Ti1 Tc12 Mo5'
_cell_volume   389.45186391
_cell_formula_units_Z   1
loop_
 _symmetry_equiv_pos_site_id
 _symmetry_equiv_pos_as_xyz
  1  'x, y, z'
loop_
 _atom_site_type_symbol
 _atom_site_label
 _atom_site_symmetry_multiplicity
 _atom_site_fract_x
 _atom_site_fract_y
 _atom_site_fract_z
 _atom_site_occupancy
  Hf  Hf0  1  0.000000  0.500001  0.000000  1
  Hf  Hf1  1  0.499986  0.000000  0.165133  1
  Hf  Hf2  1  0.999994  0.500001  0.332638  1
  Hf  Hf3  1  0.500001  0.000000  0.500000  1
  Hf  Hf4  1  0.000006  0.500001  0.667362  1
  Hf  Hf5  1  0.500013  0.000000  0.834867  1
  Ti  Ti6  1  0.000000  0.000000  0.000000  1
  Tc  Tc7  1  0.500001  0.252712  0.000000  1
  Tc  Tc8  1  0.500001  0.747287  0.000000  1
  Tc  Tc9  1  0.999992  0.250338  0.168249  1
  Tc  Tc10  1  0.999992  0.749662  0.168249  1
  Tc  Tc11  1  0.499998  0.249322  0.333844  1
  Tc  Tc12  1  0.499998  0.750678  0.333844  1
  Tc  Tc13  1  0.000000  0.250629  0.500000  1
  Tc  Tc14  1  0.000000  0.749370  0.500000  1
  Tc  Tc15  1  0.500004  0.249322  0.666156  1
  Tc  Tc16  1  0.500004  0.750678  0.666156  1
  Tc  Tc17  1  0.000008  0.250338  0.831751  1
  Tc  Tc18  1  0.000008  0.749662  0.831751  1
  Mo  Mo19  1  0.499987  0.500001  0.165130  1
  Mo  Mo20  1  0.999995  0.000000  0.332804  1
  Mo  Mo21  1  0.500001  0.500001  0.500000  1
  Mo  Mo22  1  0.000005  0.000000  0.667196  1
  Mo  Mo23  1  0.500014  0.500001  0.834870  1
