# generated using pymatgen
data_Gd3In4PdRu
_symmetry_space_group_name_H-M   'P 1'
_cell_length_a   7.92168600
_cell_length_b   7.92168709
_cell_length_c   3.84829000
_cell_angle_alpha   90.00000000
_cell_angle_beta   90.00000000
_cell_angle_gamma   120.00000379
_symmetry_Int_Tables_number   1
_chemical_formula_structural   Gd3In4PdRu
_chemical_formula_sum   'Gd3 In4 Pd1 Ru1'
_cell_volume   209.13836807
_cell_formula_units_Z   1
loop_
 _symmetry_equiv_pos_site_id
 _symmetry_equiv_pos_as_xyz
  1  'x, y, z'
loop_
 _atom_site_type_symbol
 _atom_site_label
 _atom_site_symmetry_multiplicity
 _atom_site_fract_x
 _atom_site_fract_y
 _atom_site_fract_z
 _atom_site_occupancy
  Gd  Gd0  1  0.387234  0.423099  0.500000  1
  Gd  Gd1  1  0.035866  0.612767  0.500000  1
  Gd  Gd2  1  0.576901  0.964134  0.500000  1
  In  In3  1  0.003735  0.259401  0.000000  1
  In  In4  1  0.666667  0.333334  0.000000  1
  In  In5  1  0.740598  0.744334  0.000000  1
  In  In6  1  0.255667  0.996265  0.000000  1
  Pd  Pd7  1  0.000000  0.000000  0.500000  1
  Ru  Ru8  1  0.333334  0.666667  0.000000  1
