# generated using pymatgen
data_TbDy2Hf(Al3Ir)6
_symmetry_space_group_name_H-M   'P 1'
_cell_length_a   7.54024000
_cell_length_b   7.53144719
_cell_length_c   9.41096700
_cell_angle_alpha   90.00000000
_cell_angle_beta   90.00000000
_cell_angle_gamma   119.57804694
_symmetry_Int_Tables_number   1
_chemical_formula_structural   TbDy2Hf(Al3Ir)6
_chemical_formula_sum   'Tb1 Dy2 Hf1 Al18 Ir6'
_cell_volume   464.79280454
_cell_formula_units_Z   1
loop_
 _symmetry_equiv_pos_site_id
 _symmetry_equiv_pos_as_xyz
  1  'x, y, z'
loop_
 _atom_site_type_symbol
 _atom_site_label
 _atom_site_symmetry_multiplicity
 _atom_site_fract_x
 _atom_site_fract_y
 _atom_site_fract_z
 _atom_site_occupancy
  Tb  Tb0  1  0.005669  0.327513  0.250000  1
  Dy  Dy1  1  0.671209  0.995758  0.750000  1
  Dy  Dy2  1  0.329085  0.006464  0.250000  1
  Hf  Hf3  1  0.997640  0.673317  0.750000  1
  Al  Al4  1  0.126235  0.123592  0.750000  1
  Al  Al5  1  0.870798  0.869277  0.250000  1
  Al  Al6  1  0.000228  0.337996  0.579614  1
  Al  Al7  1  0.999165  0.664994  0.429299  1
  Al  Al8  1  0.999165  0.664994  0.070701  1
  Al  Al9  1  0.332564  0.998245  0.920368  1
  Al  Al10  1  0.000228  0.337996  0.920386  1
  Al  Al11  1  0.664436  0.998035  0.074558  1
  Al  Al12  1  0.664436  0.998035  0.425442  1
  Al  Al13  1  0.332564  0.998245  0.579632  1
  Al  Al14  1  0.333754  0.333727  0.050441  1
  Al  Al15  1  0.668857  0.666774  0.942939  1
  Al  Al16  1  0.668857  0.666774  0.557061  1
  Al  Al17  1  0.333754  0.333727  0.449559  1
  Al  Al18  1  0.335876  0.549132  0.750000  1
  Al  Al19  1  0.660853  0.452396  0.250000  1
  Al  Al20  1  0.555133  0.344886  0.750000  1
  Al  Al21  1  0.451021  0.659651  0.250000  1
  Ir  Ir22  1  0.672603  0.328428  0.501339  1
  Ir  Ir23  1  0.327470  0.672289  0.502113  1
  Ir  Ir24  1  0.327470  0.672289  0.997887  1
  Ir  Ir25  1  0.672603  0.328428  0.998661  1
  Ir  Ir26  1  0.999165  0.998519  0.501602  1
  Ir  Ir27  1  0.999165  0.998519  0.998398  1
