# generated using pymatgen
data_LaPr2Si3(BO5)3
_symmetry_space_group_name_H-M   'P 1'
_cell_length_a   6.85069617
_cell_length_b   6.85059308
_cell_length_c   6.81430421
_cell_angle_alpha   89.97516918
_cell_angle_beta   90.02479631
_cell_angle_gamma   119.99356146
_symmetry_Int_Tables_number   1
_chemical_formula_structural   LaPr2Si3(BO5)3
_chemical_formula_sum   'La1 Pr2 Si3 B3 O15'
_cell_volume   276.97664279
_cell_formula_units_Z   1
loop_
 _symmetry_equiv_pos_site_id
 _symmetry_equiv_pos_as_xyz
  1  'x, y, z'
loop_
 _atom_site_type_symbol
 _atom_site_label
 _atom_site_symmetry_multiplicity
 _atom_site_fract_x
 _atom_site_fract_y
 _atom_site_fract_z
 _atom_site_occupancy
  La  La0  1  0.398501  0.398531  0.663910  1
  Pr  Pr1  1  0.597292  0.000064  0.997692  1
  Pr  Pr2  1  0.000097  0.597288  0.330196  1
  Si  Si3  1  0.581141  0.000094  0.497107  1
  Si  Si4  1  0.000051  0.581127  0.830795  1
  Si  Si5  1  0.419562  0.419531  0.163930  1
  B  B6  1  0.108677  0.999863  0.997581  1
  B  B7  1  0.999764  0.108620  0.330122  1
  B  B8  1  0.891219  0.891169  0.663865  1
  O  O9  1  0.000287  0.040005  0.830642  1
  O  O10  1  0.959217  0.959550  0.163680  1
  O  O11  1  0.039691  0.999636  0.496744  1
  O  O12  1  0.470296  0.606863  0.997263  1
  O  O13  1  0.394356  0.865370  0.329355  1
  O  O14  1  0.135040  0.530012  0.662294  1
  O  O15  1  0.607003  0.470454  0.330517  1
  O  O16  1  0.529830  0.135038  0.665494  1
  O  O17  1  0.865389  0.394207  0.998450  1
  O  O18  1  0.190894  0.346171  0.301333  1
  O  O19  1  0.654847  0.846555  0.636166  1
  O  O20  1  0.155396  0.808712  0.969464  1
  O  O21  1  0.346247  0.190793  0.026664  1
  O  O22  1  0.808807  0.155565  0.358574  1
  O  O23  1  0.846396  0.654781  0.691863  1
