# generated using pymatgen
data_AcSm(CrN3)2
_symmetry_space_group_name_H-M   'P 1'
_cell_length_a   7.22206149
_cell_length_b   7.22206092
_cell_length_c   5.97349779
_cell_angle_alpha   78.94869976
_cell_angle_beta   78.94871566
_cell_angle_gamma   90.03037146
_symmetry_Int_Tables_number   1
_chemical_formula_structural   AcSm(CrN3)2
_chemical_formula_sum   'Ac2 Sm2 Cr4 N12'
_cell_volume   299.89366048
_cell_formula_units_Z   2
loop_
 _symmetry_equiv_pos_site_id
 _symmetry_equiv_pos_as_xyz
  1  'x, y, z'
loop_
 _atom_site_type_symbol
 _atom_site_label
 _atom_site_symmetry_multiplicity
 _atom_site_fract_x
 _atom_site_fract_y
 _atom_site_fract_z
 _atom_site_occupancy
  Ac  Ac0  1  0.329244  0.670756  0.750000  1
  Ac  Ac1  1  0.670756  0.329244  0.250000  1
  Sm  Sm2  1  0.092920  0.907080  0.250000  1
  Sm  Sm3  1  0.907080  0.092920  0.750000  1
  Cr  Cr4  1  0.370300  0.197586  0.770640  1
  Cr  Cr5  1  0.629700  0.802414  0.229360  1
  Cr  Cr6  1  0.802414  0.629700  0.729360  1
  Cr  Cr7  1  0.197586  0.370300  0.270640  1
  N  N8  1  0.993099  0.784091  0.649710  1
  N  N9  1  0.868189  0.412287  0.817094  1
  N  N10  1  0.784091  0.993099  0.149710  1
  N  N11  1  0.131811  0.587713  0.182906  1
  N  N12  1  0.006901  0.215909  0.350290  1
  N  N13  1  0.215909  0.006901  0.850290  1
  N  N14  1  0.587713  0.131811  0.682906  1
  N  N15  1  0.641116  0.678414  0.982270  1
  N  N16  1  0.358884  0.321586  0.017730  1
  N  N17  1  0.412287  0.868189  0.317094  1
  N  N18  1  0.678414  0.641116  0.482270  1
  N  N19  1  0.321586  0.358884  0.517730  1
