# generated using pymatgen
data_Al5V12Zn2NiN4
_symmetry_space_group_name_H-M   'P 1'
_cell_length_a   6.58794172
_cell_length_b   6.58705336
_cell_length_c   6.58828872
_cell_angle_alpha   90.04650560
_cell_angle_beta   89.98674924
_cell_angle_gamma   89.94565638
_symmetry_Int_Tables_number   1
_chemical_formula_structural   Al5V12Zn2NiN4
_chemical_formula_sum   'Al5 V12 Zn2 Ni1 N4'
_cell_volume   285.89937298
_cell_formula_units_Z   1
loop_
 _symmetry_equiv_pos_site_id
 _symmetry_equiv_pos_as_xyz
  1  'x, y, z'
loop_
 _atom_site_type_symbol
 _atom_site_label
 _atom_site_symmetry_multiplicity
 _atom_site_fract_x
 _atom_site_fract_y
 _atom_site_fract_z
 _atom_site_occupancy
  Al  Al0  1  0.186542  0.825364  0.329515  1
  Al  Al1  1  0.321794  0.165010  0.812515  1
  Al  Al2  1  0.827543  0.320773  0.182404  1
  Al  Al3  1  0.670910  0.690436  0.669511  1
  Al  Al4  1  0.571853  0.427757  0.925755  1
  V  V5  1  0.789238  0.960454  0.377322  1
  V  V6  1  0.708064  0.041170  0.876708  1
  V  V7  1  0.211359  0.461306  0.122511  1
  V  V8  1  0.291846  0.538932  0.628191  1
  V  V9  1  0.958891  0.375574  0.790854  1
  V  V10  1  0.040303  0.876805  0.708361  1
  V  V11  1  0.462130  0.127549  0.210949  1
  V  V12  1  0.538764  0.621330  0.289156  1
  V  V13  1  0.378908  0.788521  0.959586  1
  V  V14  1  0.871021  0.708350  0.037474  1
  V  V15  1  0.122760  0.207626  0.460251  1
  V  V16  1  0.622979  0.289052  0.541718  1
  Zn  Zn17  1  0.931073  0.573880  0.429719  1
  Zn  Zn18  1  0.073364  0.068221  0.071195  1
  Ni  Ni19  1  0.428275  0.929149  0.568670  1
  N  N20  1  0.872886  0.125484  0.627579  1
  N  N21  1  0.624655  0.874649  0.128998  1
  N  N22  1  0.124568  0.628989  0.873865  1
  N  N23  1  0.370279  0.373616  0.377192  1
