# generated using pymatgen
data_Y3Sc7(Si5Rh2)4
_symmetry_space_group_name_H-M   'P 1'
_cell_length_a   12.50460630
_cell_length_b   12.50460687
_cell_length_c   4.11224100
_cell_angle_alpha   90.00000000
_cell_angle_beta   90.00000000
_cell_angle_gamma   90.07589585
_symmetry_Int_Tables_number   1
_chemical_formula_structural   Y3Sc7(Si5Rh2)4
_chemical_formula_sum   'Y3 Sc7 Si20 Rh8'
_cell_volume   643.01076392
_cell_formula_units_Z   1
loop_
 _symmetry_equiv_pos_site_id
 _symmetry_equiv_pos_as_xyz
  1  'x, y, z'
loop_
 _atom_site_type_symbol
 _atom_site_label
 _atom_site_symmetry_multiplicity
 _atom_site_fract_x
 _atom_site_fract_y
 _atom_site_fract_z
 _atom_site_occupancy
  Y  Y0  1  0.114988  0.614866  0.500000  1
  Y  Y1  1  0.885134  0.385012  0.500000  1
  Y  Y2  1  0.614551  0.885449  0.500000  1
  Sc  Sc3  1  0.385271  0.114729  0.500000  1
  Sc  Sc4  1  0.673382  0.174278  0.500000  1
  Sc  Sc5  1  0.325722  0.826618  0.500000  1
  Sc  Sc6  1  0.175144  0.324856  0.500000  1
  Sc  Sc7  1  0.825742  0.674258  0.500000  1
  Sc  Sc8  1  0.000524  0.000066  0.000000  1
  Sc  Sc9  1  0.499934  0.499476  0.000000  1
  Si  Si10  1  0.565573  0.067783  0.000000  1
  Si  Si11  1  0.432217  0.934427  0.000000  1
  Si  Si12  1  0.067793  0.432207  0.000000  1
  Si  Si13  1  0.932626  0.567374  0.000000  1
  Si  Si14  1  0.200886  0.163965  0.000000  1
  Si  Si15  1  0.800892  0.835664  0.000000  1
  Si  Si16  1  0.164895  0.801896  0.000000  1
  Si  Si17  1  0.698104  0.335105  0.000000  1
  Si  Si18  1  0.835321  0.199078  0.000000  1
  Si  Si19  1  0.300922  0.664679  0.000000  1
  Si  Si20  1  0.664336  0.699108  0.000000  1
  Si  Si21  1  0.336035  0.299114  0.000000  1
  Si  Si22  1  0.007184  0.151658  0.500000  1
  Si  Si23  1  0.993272  0.848386  0.500000  1
  Si  Si24  1  0.153660  0.994657  0.500000  1
  Si  Si25  1  0.505343  0.346340  0.500000  1
  Si  Si26  1  0.848091  0.007722  0.500000  1
  Si  Si27  1  0.492278  0.651909  0.500000  1
  Si  Si28  1  0.651614  0.506728  0.500000  1
  Si  Si29  1  0.348342  0.492816  0.500000  1
  Rh  Rh30  1  0.021241  0.242940  0.000000  1
  Rh  Rh31  1  0.979561  0.756949  0.000000  1
  Rh  Rh32  1  0.245598  0.980965  0.000000  1
  Rh  Rh33  1  0.519035  0.254402  0.000000  1
  Rh  Rh34  1  0.755550  0.020874  0.000000  1
  Rh  Rh35  1  0.479126  0.744450  0.000000  1
  Rh  Rh36  1  0.743051  0.520439  0.000000  1
  Rh  Rh37  1  0.257060  0.478759  0.000000  1
