# generated using pymatgen
data_Tb7Nd6Dy3Cd3HgPt4
_symmetry_space_group_name_H-M   'P 1'
_cell_length_a   9.82555570
_cell_length_b   9.80928163
_cell_length_c   9.82291800
_cell_angle_alpha   60.06370110
_cell_angle_beta   60.09544633
_cell_angle_gamma   60.03699025
_symmetry_Int_Tables_number   1
_chemical_formula_structural   Tb7Nd6Dy3Cd3HgPt4
_chemical_formula_sum   'Tb7 Nd6 Dy3 Cd3 Hg1 Pt4'
_cell_volume   670.44419924
_cell_formula_units_Z   1
loop_
 _symmetry_equiv_pos_site_id
 _symmetry_equiv_pos_as_xyz
  1  'x, y, z'
loop_
 _atom_site_type_symbol
 _atom_site_label
 _atom_site_symmetry_multiplicity
 _atom_site_fract_x
 _atom_site_fract_y
 _atom_site_fract_z
 _atom_site_occupancy
  Tb  Tb0  1  0.350222  0.349548  0.350543  1
  Tb  Tb1  1  0.352275  0.351089  0.945559  1
  Tb  Tb2  1  0.351178  0.948227  0.350771  1
  Tb  Tb3  1  0.945405  0.351450  0.352356  1
  Tb  Tb4  1  0.812137  0.188856  0.187842  1
  Tb  Tb5  1  0.188094  0.810624  0.811672  1
  Tb  Tb6  1  0.188581  0.811645  0.188473  1
  Nd  Nd7  1  0.937769  0.562331  0.561284  1
  Nd  Nd8  1  0.561780  0.937281  0.938175  1
  Nd  Nd9  1  0.561583  0.937366  0.561572  1
  Nd  Nd10  1  0.937791  0.561956  0.937865  1
  Nd  Nd11  1  0.561267  0.562142  0.937867  1
  Nd  Nd12  1  0.938367  0.937279  0.561691  1
  Dy  Dy13  1  0.811141  0.188612  0.811098  1
  Dy  Dy14  1  0.188087  0.189176  0.811719  1
  Dy  Dy15  1  0.811328  0.810516  0.188320  1
  Cd  Cd16  1  0.579952  0.579833  0.259944  1
  Cd  Cd17  1  0.579711  0.260150  0.579998  1
  Cd  Cd18  1  0.259912  0.579597  0.579995  1
  Hg  Hg19  1  0.583145  0.582570  0.583005  1
  Pt  Pt20  1  0.143406  0.143795  0.142446  1
  Pt  Pt21  1  0.142147  0.143046  0.572363  1
  Pt  Pt22  1  0.142275  0.570708  0.143347  1
  Pt  Pt23  1  0.572445  0.142202  0.142093  1
