# generated using pymatgen
data_Rb4Zr5O12
_symmetry_space_group_name_H-M   'P 1'
_cell_length_a   5.96201100
_cell_length_b   5.96201176
_cell_length_c   10.62768100
_cell_angle_alpha   89.99996554
_cell_angle_beta   89.99987412
_cell_angle_gamma   120.00001240
_symmetry_Int_Tables_number   1
_chemical_formula_structural   Rb4Zr5O12
_chemical_formula_sum   'Rb4 Zr5 O12'
_cell_volume   327.15584905
_cell_formula_units_Z   1
loop_
 _symmetry_equiv_pos_site_id
 _symmetry_equiv_pos_as_xyz
  1  'x, y, z'
loop_
 _atom_site_type_symbol
 _atom_site_label
 _atom_site_symmetry_multiplicity
 _atom_site_fract_x
 _atom_site_fract_y
 _atom_site_fract_z
 _atom_site_occupancy
  Rb  Rb0  1  0.000001  0.000000  0.169158  1
  Rb  Rb1  1  0.333334  0.666667  0.381895  1
  Rb  Rb2  1  0.666665  0.333332  0.618104  1
  Rb  Rb3  1  0.000000  0.000000  0.830842  1
  Zr  Zr4  1  0.333336  0.666668  0.023346  1
  Zr  Zr5  1  0.666670  0.333335  0.285043  1
  Zr  Zr6  1  0.000001  0.999999  0.500000  1
  Zr  Zr7  1  0.333331  0.666665  0.714957  1
  Zr  Zr8  1  0.666665  0.333332  0.976655  1
  O  O9  1  0.980282  0.490141  0.121801  1
  O  O10  1  0.509858  0.490140  0.121802  1
  O  O11  1  0.509858  0.019717  0.121802  1
  O  O12  1  0.834662  0.669324  0.379166  1
  O  O13  1  0.834663  0.165340  0.379166  1
  O  O14  1  0.330674  0.165338  0.379166  1
  O  O15  1  0.669326  0.834664  0.620833  1
  O  O16  1  0.165337  0.834662  0.620835  1
  O  O17  1  0.165337  0.330676  0.620835  1
  O  O18  1  0.490141  0.980283  0.878198  1
  O  O19  1  0.490141  0.509860  0.878198  1
  O  O20  1  0.019718  0.509859  0.878199  1
