# generated using pymatgen
data_Cs2Na2SnS4
_symmetry_space_group_name_H-M   'P 1'
_cell_length_a   6.69114200
_cell_length_b   6.69114200
_cell_length_c   14.34199000
_cell_angle_alpha   90.00000000
_cell_angle_beta   90.00000000
_cell_angle_gamma   90.00000000
_symmetry_Int_Tables_number   1
_chemical_formula_structural   Cs2Na2SnS4
_chemical_formula_sum   'Cs4 Na4 Sn2 S8'
_cell_volume   642.11070238
_cell_formula_units_Z   2
loop_
 _symmetry_equiv_pos_site_id
 _symmetry_equiv_pos_as_xyz
  1  'x, y, z'
loop_
 _atom_site_type_symbol
 _atom_site_label
 _atom_site_symmetry_multiplicity
 _atom_site_fract_x
 _atom_site_fract_y
 _atom_site_fract_z
 _atom_site_occupancy
  Cs  Cs0  1  0.736591  0.736591  0.000000  1
  Cs  Cs1  1  0.263409  0.736591  0.500000  1
  Cs  Cs2  1  0.736591  0.263409  0.500000  1
  Cs  Cs3  1  0.263409  0.263409  0.000000  1
  Na  Na4  1  0.000000  0.500000  0.750000  1
  Na  Na5  1  0.500000  0.000000  0.750000  1
  Na  Na6  1  0.000000  0.500000  0.250000  1
  Na  Na7  1  0.500000  0.000000  0.250000  1
  Sn  Sn8  1  0.500000  0.500000  0.750000  1
  Sn  Sn9  1  0.500000  0.500000  0.250000  1
  S  S10  1  0.707136  0.707136  0.649904  1
  S  S11  1  0.292864  0.292864  0.649904  1
  S  S12  1  0.707136  0.707136  0.350096  1
  S  S13  1  0.707136  0.292864  0.149904  1
  S  S14  1  0.292864  0.707136  0.850096  1
  S  S15  1  0.292864  0.292864  0.350096  1
  S  S16  1  0.292864  0.707136  0.149904  1
  S  S17  1  0.707136  0.292864  0.850096  1
