# generated using pymatgen
data_SmCo2O5
_symmetry_space_group_name_H-M   'P 1'
_cell_length_a   5.65461400
_cell_length_b   7.38664600
_cell_length_c   8.56488200
_cell_angle_alpha   90.00000000
_cell_angle_beta   90.00000000
_cell_angle_gamma   90.00000000
_symmetry_Int_Tables_number   1
_chemical_formula_structural   SmCo2O5
_chemical_formula_sum   'Sm4 Co8 O20'
_cell_volume   357.74340339
_cell_formula_units_Z   4
loop_
 _symmetry_equiv_pos_site_id
 _symmetry_equiv_pos_as_xyz
  1  'x, y, z'
loop_
 _atom_site_type_symbol
 _atom_site_label
 _atom_site_symmetry_multiplicity
 _atom_site_fract_x
 _atom_site_fract_y
 _atom_site_fract_z
 _atom_site_occupancy
  Sm  Sm0  1  0.000000  0.142344  0.173810  1
  Sm  Sm1  1  0.000000  0.857656  0.826190  1
  Sm  Sm2  1  0.000000  0.642344  0.326190  1
  Sm  Sm3  1  0.000000  0.357656  0.673810  1
  Co  Co4  1  0.257891  0.000000  0.500000  1
  Co  Co5  1  0.742109  0.500000  0.000000  1
  Co  Co6  1  0.742109  0.000000  0.500000  1
  Co  Co7  1  0.257891  0.500000  0.000000  1
  Co  Co8  1  0.500000  0.403018  0.352901  1
  Co  Co9  1  0.500000  0.596982  0.647099  1
  Co  Co10  1  0.500000  0.903018  0.147099  1
  Co  Co11  1  0.500000  0.096982  0.852901  1
  O  O12  1  0.279643  0.000000  0.000000  1
  O  O13  1  0.720357  0.500000  0.500000  1
  O  O14  1  0.720357  0.000000  0.000000  1
  O  O15  1  0.279643  0.500000  0.500000  1
  O  O16  1  0.000000  0.157796  0.449021  1
  O  O17  1  0.000000  0.842204  0.550979  1
  O  O18  1  0.000000  0.657796  0.050979  1
  O  O19  1  0.000000  0.342204  0.949021  1
  O  O20  1  0.500000  0.152871  0.442955  1
  O  O21  1  0.500000  0.847129  0.557045  1
  O  O22  1  0.500000  0.652871  0.057045  1
  O  O23  1  0.500000  0.347129  0.942955  1
  O  O24  1  0.249373  0.403442  0.210307  1
  O  O25  1  0.249373  0.596558  0.789693  1
  O  O26  1  0.750627  0.903442  0.289693  1
  O  O27  1  0.750627  0.096558  0.710307  1
  O  O28  1  0.750627  0.596558  0.789693  1
  O  O29  1  0.750627  0.403442  0.210307  1
  O  O30  1  0.249373  0.096558  0.710307  1
  O  O31  1  0.249373  0.903442  0.289693  1
