# generated using pymatgen
data_Tm2Si13GeIr6
_symmetry_space_group_name_H-M   'P 1'
_cell_length_a   8.08532456
_cell_length_b   8.08070125
_cell_length_c   8.09382500
_cell_angle_alpha   56.35563533
_cell_angle_beta   56.55251608
_cell_angle_gamma   56.58251946
_symmetry_Int_Tables_number   1
_chemical_formula_structural   Tm2Si13GeIr6
_chemical_formula_sum   'Tm2 Si13 Ge1 Ir6'
_cell_volume   343.64519005
_cell_formula_units_Z   1
loop_
 _symmetry_equiv_pos_site_id
 _symmetry_equiv_pos_as_xyz
  1  'x, y, z'
loop_
 _atom_site_type_symbol
 _atom_site_label
 _atom_site_symmetry_multiplicity
 _atom_site_fract_x
 _atom_site_fract_y
 _atom_site_fract_z
 _atom_site_occupancy
  Tm  Tm0  1  0.498275  0.500892  0.500283  1
  Tm  Tm1  1  0.999219  0.000052  0.999573  1
  Si  Si2  1  0.670901  0.849234  0.067544  1
  Si  Si3  1  0.066242  0.669270  0.851936  1
  Si  Si4  1  0.651035  0.826508  0.434423  1
  Si  Si5  1  0.249390  0.250011  0.251521  1
  Si  Si6  1  0.749300  0.748337  0.749190  1
  Si  Si7  1  0.173437  0.562800  0.350105  1
  Si  Si8  1  0.563334  0.351281  0.172963  1
  Si  Si9  1  0.350665  0.172766  0.563100  1
  Si  Si10  1  0.936581  0.326300  0.149049  1
  Si  Si11  1  0.326982  0.150270  0.936745  1
  Si  Si12  1  0.152224  0.934751  0.324549  1
  Si  Si13  1  0.823578  0.440728  0.652373  1
  Si  Si14  1  0.435296  0.649723  0.828841  1
  Ge  Ge15  1  0.851301  0.070576  0.668835  1
  Ir  Ir16  1  0.749857  0.070293  0.424106  1
  Ir  Ir17  1  0.428993  0.749792  0.070868  1
  Ir  Ir18  1  0.072035  0.427665  0.749913  1
  Ir  Ir19  1  0.256959  0.925115  0.569122  1
  Ir  Ir20  1  0.565744  0.253706  0.933712  1
  Ir  Ir21  1  0.928651  0.569929  0.251248  1
