# generated using pymatgen
data_Nd2Sc3(SnSb)2
_symmetry_space_group_name_H-M   'P 1'
_cell_length_a   7.97454300
_cell_length_b   7.87348100
_cell_length_c   14.91748000
_cell_angle_alpha   90.00000000
_cell_angle_beta   90.00000000
_cell_angle_gamma   90.00000000
_symmetry_Int_Tables_number   1
_chemical_formula_structural   Nd2Sc3(SnSb)2
_chemical_formula_sum   'Nd8 Sc12 Sn8 Sb8'
_cell_volume   936.62997461
_cell_formula_units_Z   4
loop_
 _symmetry_equiv_pos_site_id
 _symmetry_equiv_pos_as_xyz
  1  'x, y, z'
loop_
 _atom_site_type_symbol
 _atom_site_label
 _atom_site_symmetry_multiplicity
 _atom_site_fract_x
 _atom_site_fract_y
 _atom_site_fract_z
 _atom_site_occupancy
  Nd  Nd0  1  0.518245  0.321686  0.904450  1
  Nd  Nd1  1  0.018245  0.178314  0.595550  1
  Nd  Nd2  1  0.481755  0.678314  0.404450  1
  Nd  Nd3  1  0.981755  0.821686  0.095550  1
  Nd  Nd4  1  0.481755  0.678314  0.095550  1
  Nd  Nd5  1  0.981755  0.821686  0.404450  1
  Nd  Nd6  1  0.518245  0.321686  0.595550  1
  Nd  Nd7  1  0.018245  0.178314  0.904450  1
  Sc  Sc8  1  0.354902  0.843278  0.873961  1
  Sc  Sc9  1  0.854902  0.656722  0.626039  1
  Sc  Sc10  1  0.645098  0.156722  0.373961  1
  Sc  Sc11  1  0.145098  0.343278  0.126039  1
  Sc  Sc12  1  0.645098  0.156722  0.126039  1
  Sc  Sc13  1  0.145098  0.343278  0.373961  1
  Sc  Sc14  1  0.354902  0.843278  0.626039  1
  Sc  Sc15  1  0.854902  0.656722  0.873961  1
  Sc  Sc16  1  0.182011  0.502484  0.750000  1
  Sc  Sc17  1  0.682011  0.997516  0.750000  1
  Sc  Sc18  1  0.817989  0.497516  0.250000  1
  Sc  Sc19  1  0.317989  0.002484  0.250000  1
  Sn  Sn20  1  0.547318  0.631285  0.750000  1
  Sn  Sn21  1  0.047318  0.868715  0.750000  1
  Sn  Sn22  1  0.452682  0.368715  0.250000  1
  Sn  Sn23  1  0.952682  0.131285  0.250000  1
  Sn  Sn24  1  0.322981  0.144966  0.750000  1
  Sn  Sn25  1  0.822981  0.355034  0.750000  1
  Sn  Sn26  1  0.677019  0.855034  0.250000  1
  Sn  Sn27  1  0.177019  0.644966  0.250000  1
  Sb  Sb28  1  0.302846  0.047430  0.045597  1
  Sb  Sb29  1  0.802846  0.452570  0.454403  1
  Sb  Sb30  1  0.697154  0.952570  0.545597  1
  Sb  Sb31  1  0.197154  0.547430  0.954403  1
  Sb  Sb32  1  0.697154  0.952570  0.954403  1
  Sb  Sb33  1  0.197154  0.547430  0.545597  1
  Sb  Sb34  1  0.302846  0.047430  0.454403  1
  Sb  Sb35  1  0.802846  0.452570  0.045597  1
