# generated using pymatgen
data_ScTaNi6
_symmetry_space_group_name_H-M   'P 1'
_cell_length_a   5.20858800
_cell_length_b   5.20858704
_cell_length_c   4.23987100
_cell_angle_alpha   90.00000000
_cell_angle_beta   90.00000000
_cell_angle_gamma   119.99999337
_symmetry_Int_Tables_number   1
_chemical_formula_structural   ScTaNi6
_chemical_formula_sum   'Sc1 Ta1 Ni6'
_cell_volume   99.61465526
_cell_formula_units_Z   1
loop_
 _symmetry_equiv_pos_site_id
 _symmetry_equiv_pos_as_xyz
  1  'x, y, z'
loop_
 _atom_site_type_symbol
 _atom_site_label
 _atom_site_symmetry_multiplicity
 _atom_site_fract_x
 _atom_site_fract_y
 _atom_site_fract_z
 _atom_site_occupancy
  Sc  Sc0  1  0.333333  0.666667  0.000000  1
  Ta  Ta1  1  0.666667  0.333333  0.500000  1
  Ni  Ni2  1  0.685895  0.842947  0.500000  1
  Ni  Ni3  1  0.157053  0.842947  0.500000  1
  Ni  Ni4  1  0.157053  0.314105  0.500000  1
  Ni  Ni5  1  0.320859  0.160429  0.000000  1
  Ni  Ni6  1  0.839571  0.160429  0.000000  1
  Ni  Ni7  1  0.839571  0.679141  0.000000  1
