# generated using pymatgen
data_Pr2Y3Er(RuO7)2
_symmetry_space_group_name_H-M   'P 1'
_cell_length_a   6.45807302
_cell_length_b   6.46315984
_cell_length_c   7.53811300
_cell_angle_alpha   90.00000000
_cell_angle_beta   90.00000000
_cell_angle_gamma   110.00223633
_symmetry_Int_Tables_number   1
_chemical_formula_structural   Pr2Y3Er(RuO7)2
_chemical_formula_sum   'Pr2 Y3 Er1 Ru2 O14'
_cell_volume   295.65834243
_cell_formula_units_Z   1
loop_
 _symmetry_equiv_pos_site_id
 _symmetry_equiv_pos_as_xyz
  1  'x, y, z'
loop_
 _atom_site_type_symbol
 _atom_site_label
 _atom_site_symmetry_multiplicity
 _atom_site_fract_x
 _atom_site_fract_y
 _atom_site_fract_z
 _atom_site_occupancy
  Pr  Pr0  1  0.001099  0.000142  0.499445  1
  Pr  Pr1  1  0.001099  0.000142  0.000555  1
  Y  Y2  1  0.483119  0.932375  0.750000  1
  Y  Y3  1  0.517709  0.067485  0.250000  1
  Y  Y4  1  0.931817  0.482656  0.750000  1
  Er  Er5  1  0.065236  0.515916  0.250000  1
  Ru  Ru6  1  0.499724  0.500476  0.499273  1
  Ru  Ru7  1  0.499724  0.500476  0.000727  1
  O  O8  1  0.586357  0.585063  0.750000  1
  O  O9  1  0.410930  0.414875  0.250000  1
  O  O10  1  0.839669  0.119196  0.750000  1
  O  O11  1  0.161816  0.877149  0.250000  1
  O  O12  1  0.118585  0.838260  0.750000  1
  O  O13  1  0.883011  0.163592  0.250000  1
  O  O14  1  0.438808  0.182040  0.965094  1
  O  O15  1  0.562117  0.818820  0.464879  1
  O  O16  1  0.181782  0.442869  0.966805  1
  O  O17  1  0.817344  0.557369  0.462148  1
  O  O18  1  0.438808  0.182040  0.534906  1
  O  O19  1  0.562117  0.818820  0.035121  1
  O  O20  1  0.817344  0.557369  0.037852  1
  O  O21  1  0.181782  0.442869  0.533195  1
