# generated using pymatgen
data_Rb2CrFeS4
_symmetry_space_group_name_H-M   'P 1'
_cell_length_a   7.02623242
_cell_length_b   7.02623303
_cell_length_c   5.35792177
_cell_angle_alpha   79.09677398
_cell_angle_beta   79.09678370
_cell_angle_gamma   117.27080916
_symmetry_Int_Tables_number   1
_chemical_formula_structural   Rb2CrFeS4
_chemical_formula_sum   'Rb2 Cr1 Fe1 S4'
_cell_volume   219.03456273
_cell_formula_units_Z   1
loop_
 _symmetry_equiv_pos_site_id
 _symmetry_equiv_pos_as_xyz
  1  'x, y, z'
loop_
 _atom_site_type_symbol
 _atom_site_label
 _atom_site_symmetry_multiplicity
 _atom_site_fract_x
 _atom_site_fract_y
 _atom_site_fract_z
 _atom_site_occupancy
  Rb  Rb0  1  0.145539  0.854461  0.000000  1
  Rb  Rb1  1  0.854161  0.145839  0.500000  1
  Cr  Cr2  1  0.502001  0.497999  0.000000  1
  Fe  Fe3  1  0.498107  0.501893  0.500000  1
  S  S4  1  0.213277  0.417653  0.853505  1
  S  S5  1  0.582347  0.786723  0.146495  1
  S  S6  1  0.786959  0.582391  0.662574  1
  S  S7  1  0.417609  0.213041  0.337426  1
