# generated using pymatgen
data_Pr7Nd5(GaBr3)4
_symmetry_space_group_name_H-M   'P 1'
_cell_length_a   10.53762207
_cell_length_b   10.53253818
_cell_length_c   10.54561583
_cell_angle_alpha   109.41175995
_cell_angle_beta   109.47841795
_cell_angle_gamma   109.53773228
_symmetry_Int_Tables_number   1
_chemical_formula_structural   Pr7Nd5(GaBr3)4
_chemical_formula_sum   'Pr7 Nd5 Ga4 Br12'
_cell_volume   900.84263288
_cell_formula_units_Z   1
loop_
 _symmetry_equiv_pos_site_id
 _symmetry_equiv_pos_as_xyz
  1  'x, y, z'
loop_
 _atom_site_type_symbol
 _atom_site_label
 _atom_site_symmetry_multiplicity
 _atom_site_fract_x
 _atom_site_fract_y
 _atom_site_fract_z
 _atom_site_occupancy
  Pr  Pr0  1  0.015676  0.258188  0.008250  1
  Pr  Pr1  1  0.007515  0.015769  0.258338  1
  Pr  Pr2  1  0.492813  0.750670  0.008821  1
  Pr  Pr3  1  0.492270  0.241985  0.483734  1
  Pr  Pr4  1  0.008031  0.491981  0.749508  1
  Pr  Pr5  1  0.258273  0.008061  0.015985  1
  Pr  Pr6  1  0.241947  0.257944  0.749923  1
  Nd  Nd7  1  0.482657  0.491773  0.241714  1
  Nd  Nd8  1  0.750430  0.241624  0.259275  1
  Nd  Nd9  1  0.749805  0.008903  0.491233  1
  Nd  Nd10  1  0.241167  0.482355  0.491182  1
  Nd  Nd11  1  0.258986  0.750148  0.241394  1
  Ga  Ga12  1  0.250094  0.250356  0.250358  1
  Ga  Ga13  1  0.500537  0.000156  0.250380  1
  Ga  Ga14  1  0.999663  0.250062  0.499976  1
  Ga  Ga15  1  0.250273  0.500447  0.000418  1
  Br  Br16  1  0.250763  0.753748  0.743890  1
  Br  Br17  1  0.508773  0.505738  0.753309  1
  Br  Br18  1  0.991522  0.744606  0.997054  1
  Br  Br19  1  0.744818  0.247981  0.753253  1
  Br  Br20  1  0.993259  0.990353  0.744071  1
  Br  Br21  1  0.249748  0.993349  0.503203  1
  Br  Br22  1  0.754011  0.508802  0.501298  1
  Br  Br23  1  0.507537  0.253381  0.999364  1
  Br  Br24  1  0.753695  0.745439  0.253032  1
  Br  Br25  1  0.745035  0.997375  0.992134  1
  Br  Br26  1  0.997490  0.505600  0.252355  1
  Br  Br27  1  0.503213  0.753208  0.506551  1
