# generated using pymatgen
data_CeEu(CoC2)2
_symmetry_space_group_name_H-M   'P 1'
_cell_length_a   3.74984026
_cell_length_b   3.78151544
_cell_length_c   7.34983542
_cell_angle_alpha   81.81124477
_cell_angle_beta   82.44223553
_cell_angle_gamma   89.99632810
_symmetry_Int_Tables_number   1
_chemical_formula_structural   CeEu(CoC2)2
_chemical_formula_sum   'Ce1 Eu1 Co2 C4'
_cell_volume   102.24395054
_cell_formula_units_Z   1
loop_
 _symmetry_equiv_pos_site_id
 _symmetry_equiv_pos_as_xyz
  1  'x, y, z'
loop_
 _atom_site_type_symbol
 _atom_site_label
 _atom_site_symmetry_multiplicity
 _atom_site_fract_x
 _atom_site_fract_y
 _atom_site_fract_z
 _atom_site_occupancy
  Ce  Ce0  1  0.933585  0.070050  0.499966  1
  Eu  Eu1  1  0.069420  0.926471  0.001792  1
  Co  Co2  1  0.370953  0.511006  0.691440  1
  Co  Co3  1  0.513695  0.371234  0.197437  1
  C  C4  1  0.441939  0.596141  0.426604  1
  C  C5  1  0.593597  0.443790  0.927345  1
  C  C6  1  0.492289  0.858584  0.274184  1
  C  C7  1  0.851522  0.489722  0.775032  1
