# generated using pymatgen
data_Li6AlSb3
_symmetry_space_group_name_H-M   'P 1'
_cell_length_a   7.95702312
_cell_length_b   7.97470954
_cell_length_c   8.06096082
_cell_angle_alpha   81.02902975
_cell_angle_beta   109.31877113
_cell_angle_gamma   119.20567308
_symmetry_Int_Tables_number   1
_chemical_formula_structural   Li6AlSb3
_chemical_formula_sum   'Li12 Al2 Sb6'
_cell_volume   421.33220679
_cell_formula_units_Z   2
loop_
 _symmetry_equiv_pos_site_id
 _symmetry_equiv_pos_as_xyz
  1  'x, y, z'
loop_
 _atom_site_type_symbol
 _atom_site_label
 _atom_site_symmetry_multiplicity
 _atom_site_fract_x
 _atom_site_fract_y
 _atom_site_fract_z
 _atom_site_occupancy
  Li  Li0  1  0.363052  0.501218  0.127456  1
  Li  Li1  1  0.537687  0.827949  0.607894  1
  Li  Li2  1  0.675301  0.831204  0.995519  1
  Li  Li3  1  0.190759  0.165164  0.610986  1
  Li  Li4  1  0.124652  0.500331  0.378316  1
  Li  Li5  1  0.040414  0.814597  0.132673  1
  Li  Li6  1  0.959586  0.185403  0.867327  1
  Li  Li7  1  0.875348  0.499669  0.621684  1
  Li  Li8  1  0.809241  0.834836  0.389014  1
  Li  Li9  1  0.324699  0.168796  0.004481  1
  Li  Li10  1  0.462313  0.172051  0.392106  1
  Li  Li11  1  0.636948  0.498782  0.872544  1
  Al  Al12  1  0.266235  0.812165  0.865640  1
  Al  Al13  1  0.733765  0.187835  0.134360  1
  Sb  Sb14  1  0.435045  0.857381  0.230252  1
  Sb  Sb15  1  0.077003  0.160728  0.240050  1
  Sb  Sb16  1  0.262761  0.510112  0.753811  1
  Sb  Sb17  1  0.737239  0.489888  0.246189  1
  Sb  Sb18  1  0.922997  0.839272  0.759950  1
  Sb  Sb19  1  0.564955  0.142619  0.769748  1
