# generated using pymatgen
data_Ho6Lu2Ti12Si15Ir
_symmetry_space_group_name_H-M   'P 1'
_cell_length_a   7.04107210
_cell_length_b   7.02565019
_cell_length_c   12.94443629
_cell_angle_alpha   89.88858910
_cell_angle_beta   89.85002373
_cell_angle_gamma   90.00708801
_symmetry_Int_Tables_number   1
_chemical_formula_structural   Ho6Lu2Ti12Si15Ir
_chemical_formula_sum   'Ho6 Lu2 Ti12 Si15 Ir1'
_cell_volume   640.33338200
_cell_formula_units_Z   1
loop_
 _symmetry_equiv_pos_site_id
 _symmetry_equiv_pos_as_xyz
  1  'x, y, z'
loop_
 _atom_site_type_symbol
 _atom_site_label
 _atom_site_symmetry_multiplicity
 _atom_site_fract_x
 _atom_site_fract_y
 _atom_site_fract_z
 _atom_site_occupancy
  Ho  Ho0  1  0.501372  0.159778  0.217040  1
  Ho  Ho1  1  0.840973  0.497253  0.283639  1
  Ho  Ho2  1  0.157739  0.503193  0.782856  1
  Ho  Ho3  1  0.660690  0.997726  0.967191  1
  Ho  Ho4  1  0.003265  0.338435  0.535018  1
  Ho  Ho5  1  0.999104  0.659437  0.033185  1
  Lu  Lu6  1  0.338864  0.000831  0.467098  1
  Lu  Lu7  1  0.499751  0.842460  0.716632  1
  Ti  Ti8  1  0.327459  0.326291  0.001171  1
  Ti  Ti9  1  0.172784  0.827647  0.250047  1
  Ti  Ti10  1  0.833213  0.171188  0.747342  1
  Ti  Ti11  1  0.671994  0.671766  0.498993  1
  Ti  Ti12  1  0.157802  0.010023  0.874431  1
  Ti  Ti13  1  0.491931  0.652495  0.126105  1
  Ti  Ti14  1  0.498528  0.342176  0.626847  1
  Ti  Ti15  1  0.655978  0.496616  0.874783  1
  Ti  Ti16  1  0.348092  0.506450  0.373686  1
  Ti  Ti17  1  0.846569  0.992193  0.374976  1
  Ti  Ti18  1  0.008078  0.151973  0.125823  1
  Ti  Ti19  1  0.992511  0.850591  0.619684  1
  Si  Si20  1  0.370528  0.702670  0.934413  1
  Si  Si21  1  0.630442  0.295825  0.434139  1
  Si  Si22  1  0.703705  0.369390  0.066533  1
  Si  Si23  1  0.302080  0.632907  0.564339  1
  Si  Si24  1  0.795878  0.869032  0.182735  1
  Si  Si25  1  0.131505  0.201962  0.316796  1
  Si  Si26  1  0.866440  0.799402  0.815258  1
  Si  Si27  1  0.292667  0.953634  0.065782  1
  Si  Si28  1  0.545203  0.791703  0.315271  1
  Si  Si29  1  0.458631  0.213557  0.816622  1
  Si  Si30  1  0.786402  0.549641  0.685136  1
  Si  Si31  1  0.208208  0.453516  0.185378  1
  Si  Si32  1  0.703281  0.043976  0.562022  1
  Si  Si33  1  0.952906  0.291248  0.937602  1
  Si  Si34  1  0.047564  0.708433  0.433466  1
  Ir  Ir35  1  0.197862  0.124583  0.687966  1
