# generated using pymatgen
data_Dy16Al4CuIr3
_symmetry_space_group_name_H-M   'P 1'
_cell_length_a   9.49068233
_cell_length_b   9.49068379
_cell_length_c   9.49068359
_cell_angle_alpha   60.85572356
_cell_angle_beta   60.85571781
_cell_angle_gamma   60.85572871
_symmetry_Int_Tables_number   1
_chemical_formula_structural   Dy16Al4CuIr3
_chemical_formula_sum   'Dy16 Al4 Cu1 Ir3'
_cell_volume   616.13633267
_cell_formula_units_Z   1
loop_
 _symmetry_equiv_pos_site_id
 _symmetry_equiv_pos_as_xyz
  1  'x, y, z'
loop_
 _atom_site_type_symbol
 _atom_site_label
 _atom_site_symmetry_multiplicity
 _atom_site_fract_x
 _atom_site_fract_y
 _atom_site_fract_z
 _atom_site_occupancy
  Dy  Dy0  1  0.597172  0.597172  0.597172  1
  Dy  Dy1  1  0.605109  0.605109  0.188440  1
  Dy  Dy2  1  0.605109  0.188440  0.605109  1
  Dy  Dy3  1  0.188440  0.605109  0.605109  1
  Dy  Dy4  1  0.050700  0.445022  0.445022  1
  Dy  Dy5  1  0.447735  0.056547  0.056547  1
  Dy  Dy6  1  0.445022  0.050700  0.445022  1
  Dy  Dy7  1  0.056547  0.447735  0.056547  1
  Dy  Dy8  1  0.445022  0.445022  0.050700  1
  Dy  Dy9  1  0.056547  0.056547  0.447735  1
  Dy  Dy10  1  0.188254  0.814339  0.814339  1
  Dy  Dy11  1  0.817108  0.188788  0.188788  1
  Dy  Dy12  1  0.814339  0.188254  0.814339  1
  Dy  Dy13  1  0.188788  0.817108  0.188788  1
  Dy  Dy14  1  0.814339  0.814339  0.188254  1
  Dy  Dy15  1  0.188788  0.188788  0.817108  1
  Al  Al16  1  0.826638  0.826638  0.826638  1
  Al  Al17  1  0.826015  0.826015  0.519272  1
  Al  Al18  1  0.826015  0.519272  0.826015  1
  Al  Al19  1  0.519272  0.826015  0.826015  1
  Cu  Cu20  1  0.393150  0.393150  0.393150  1
  Ir  Ir21  1  0.387952  0.387952  0.823987  1
  Ir  Ir22  1  0.387952  0.823987  0.387952  1
  Ir  Ir23  1  0.823987  0.387952  0.387952  1
