# generated using pymatgen
data_Hf8Nb12Ga11Ge5
_symmetry_space_group_name_H-M   'P 1'
_cell_length_a   6.87111299
_cell_length_b   6.99073404
_cell_length_c   13.34040003
_cell_angle_alpha   89.99437388
_cell_angle_beta   89.99495377
_cell_angle_gamma   90.06169041
_symmetry_Int_Tables_number   1
_chemical_formula_structural   Hf8Nb12Ga11Ge5
_chemical_formula_sum   'Hf8 Nb12 Ga11 Ge5'
_cell_volume   640.79404461
_cell_formula_units_Z   1
loop_
 _symmetry_equiv_pos_site_id
 _symmetry_equiv_pos_as_xyz
  1  'x, y, z'
loop_
 _atom_site_type_symbol
 _atom_site_label
 _atom_site_symmetry_multiplicity
 _atom_site_fract_x
 _atom_site_fract_y
 _atom_site_fract_z
 _atom_site_occupancy
  Hf  Hf0  1  0.491685  0.675769  0.592575  1
  Hf  Hf1  1  0.991311  0.824548  0.907479  1
  Hf  Hf2  1  0.509002  0.325220  0.093458  1
  Hf  Hf3  1  0.008379  0.175537  0.406912  1
  Hf  Hf4  1  0.506192  0.324802  0.406017  1
  Hf  Hf5  1  0.005282  0.175884  0.093795  1
  Hf  Hf6  1  0.494914  0.675833  0.906901  1
  Hf  Hf7  1  0.994622  0.824330  0.593100  1
  Nb  Nb8  1  0.653986  0.174185  0.626971  1
  Nb  Nb9  1  0.153761  0.325301  0.872855  1
  Nb  Nb10  1  0.346131  0.826722  0.126677  1
  Nb  Nb11  1  0.844919  0.672180  0.372791  1
  Nb  Nb12  1  0.342751  0.826726  0.374120  1
  Nb  Nb13  1  0.841553  0.672308  0.126332  1
  Nb  Nb14  1  0.657099  0.174328  0.873805  1
  Nb  Nb15  1  0.156970  0.325191  0.626271  1
  Nb  Nb16  1  0.834737  0.486093  0.751148  1
  Nb  Nb17  1  0.334745  0.014222  0.748817  1
  Nb  Nb18  1  0.164266  0.511834  0.251098  1
  Nb  Nb19  1  0.666751  0.988175  0.248862  1
  Ga  Ga20  1  0.683180  0.965301  0.460633  1
  Ga  Ga21  1  0.182708  0.534294  0.039370  1
  Ga  Ga22  1  0.317487  0.034012  0.960358  1
  Ga  Ga23  1  0.818013  0.466370  0.539981  1
  Ga  Ga24  1  0.456426  0.395695  0.750358  1
  Ga  Ga25  1  0.956092  0.104377  0.749612  1
  Ga  Ga26  1  0.540226  0.607097  0.250396  1
  Ga  Ga27  1  0.044008  0.893296  0.249602  1
  Ga  Ga28  1  0.696603  0.850526  0.749532  1
  Ga  Ga29  1  0.196847  0.649517  0.750479  1
  Ga  Ga30  1  0.303781  0.148269  0.249651  1
  Ge  Ge31  1  0.322121  0.034256  0.538737  1
  Ge  Ge32  1  0.822604  0.466089  0.960832  1
  Ge  Ge33  1  0.678413  0.965015  0.038450  1
  Ge  Ge34  1  0.178248  0.534729  0.461586  1
  Ge  Ge35  1  0.804185  0.351967  0.250440  1
