# generated using pymatgen
data_Tb3Dy3TiAl23Os8
_symmetry_space_group_name_H-M   'P 1'
_cell_length_a   8.86739411
_cell_length_b   8.86477694
_cell_length_c   9.58201100
_cell_angle_alpha   90.00119937
_cell_angle_beta   90.00137238
_cell_angle_gamma   120.02742923
_symmetry_Int_Tables_number   1
_chemical_formula_structural   Tb3Dy3TiAl23Os8
_chemical_formula_sum   'Tb3 Dy3 Ti1 Al23 Os8'
_cell_volume   652.12524976
_cell_formula_units_Z   1
loop_
 _symmetry_equiv_pos_site_id
 _symmetry_equiv_pos_as_xyz
  1  'x, y, z'
loop_
 _atom_site_type_symbol
 _atom_site_label
 _atom_site_symmetry_multiplicity
 _atom_site_fract_x
 _atom_site_fract_y
 _atom_site_fract_z
 _atom_site_occupancy
  Tb  Tb0  1  0.193614  0.387282  0.249773  1
  Tb  Tb1  1  0.807150  0.614282  0.748304  1
  Tb  Tb2  1  0.612669  0.806367  0.249772  1
  Dy  Dy3  1  0.386093  0.193006  0.748221  1
  Dy  Dy4  1  0.193838  0.806171  0.249745  1
  Dy  Dy5  1  0.806906  0.193036  0.748244  1
  Ti  Ti6  1  0.333257  0.666726  0.991412  1
  Al  Al7  1  0.666601  0.333182  0.981118  1
  Al  Al8  1  0.666575  0.333184  0.516261  1
  Al  Al9  1  0.333241  0.666737  0.482243  1
  Al  Al10  1  0.162465  0.324903  0.575138  1
  Al  Al11  1  0.837464  0.674712  0.424351  1
  Al  Al12  1  0.675067  0.837646  0.575096  1
  Al  Al13  1  0.836926  0.673641  0.076830  1
  Al  Al14  1  0.325288  0.162535  0.424505  1
  Al  Al15  1  0.159588  0.319153  0.925641  1
  Al  Al16  1  0.162592  0.837662  0.574969  1
  Al  Al17  1  0.326362  0.163083  0.076706  1
  Al  Al18  1  0.837337  0.162659  0.424540  1
  Al  Al19  1  0.680803  0.840501  0.925681  1
  Al  Al20  1  0.836798  0.163214  0.076673  1
  Al  Al21  1  0.159714  0.840508  0.925837  1
  Al  Al22  1  0.561571  0.123445  0.253243  1
  Al  Al23  1  0.441003  0.882035  0.750285  1
  Al  Al24  1  0.876556  0.438416  0.253237  1
  Al  Al25  1  0.118231  0.558970  0.750284  1
  Al  Al26  1  0.561831  0.438144  0.253237  1
  Al  Al27  1  0.440737  0.558943  0.750284  1
  Al  Al28  1  0.000111  0.999859  0.250416  1
  Al  Al29  1  0.000124  0.000255  0.749812  1
  Os  Os30  1  0.498980  0.998291  0.002736  1
  Os  Os31  1  0.001763  0.500893  0.002868  1
  Os  Os32  1  0.499519  0.999311  0.503174  1
  Os  Os33  1  0.498984  0.500707  0.002755  1
  Os  Os34  1  0.000748  0.500346  0.503042  1
  Os  Os35  1  0.499472  0.500198  0.503129  1
  Os  Os36  1  0.000005  0.000001  0.000443  1
  Os  Os37  1  0.000015  0.999996  0.499992  1
