# generated using pymatgen
data_Tb4Zn2FeRu5
_symmetry_space_group_name_H-M   'P 1'
_cell_length_a   5.30308300
_cell_length_b   5.23202143
_cell_length_c   8.90138500
_cell_angle_alpha   90.00000000
_cell_angle_beta   90.00000000
_cell_angle_gamma   118.43100257
_symmetry_Int_Tables_number   1
_chemical_formula_structural   Tb4Zn2FeRu5
_chemical_formula_sum   'Tb4 Zn2 Fe1 Ru5'
_cell_volume   217.18887831
_cell_formula_units_Z   1
loop_
 _symmetry_equiv_pos_site_id
 _symmetry_equiv_pos_as_xyz
  1  'x, y, z'
loop_
 _atom_site_type_symbol
 _atom_site_label
 _atom_site_symmetry_multiplicity
 _atom_site_fract_x
 _atom_site_fract_y
 _atom_site_fract_z
 _atom_site_occupancy
  Tb  Tb0  1  0.326647  0.665323  0.431740  1
  Tb  Tb1  1  0.660934  0.328609  0.557333  1
  Tb  Tb2  1  0.660934  0.328609  0.942667  1
  Tb  Tb3  1  0.326647  0.665323  0.068260  1
  Zn  Zn4  1  0.182281  0.839935  0.750000  1
  Zn  Zn5  1  0.181156  0.343469  0.750000  1
  Fe  Fe6  1  0.838092  0.161157  0.250000  1
  Ru  Ru7  1  0.982423  0.993784  0.499703  1
  Ru  Ru8  1  0.982423  0.993784  0.000297  1
  Ru  Ru9  1  0.828386  0.661802  0.250000  1
  Ru  Ru10  1  0.349878  0.178662  0.250000  1
  Ru  Ru11  1  0.680201  0.839545  0.750000  1
