# generated using pymatgen
data_Nd12Co4Ni2Sn
_symmetry_space_group_name_H-M   'P 1'
_cell_length_a   8.69156210
_cell_length_b   8.69156145
_cell_length_c   8.69156174
_cell_angle_alpha   108.94816167
_cell_angle_beta   110.26732286
_cell_angle_gamma   109.20122133
_symmetry_Int_Tables_number   1
_chemical_formula_structural   Nd12Co4Ni2Sn
_chemical_formula_sum   'Nd12 Co4 Ni2 Sn1'
_cell_volume   505.36653961
_cell_formula_units_Z   1
loop_
 _symmetry_equiv_pos_site_id
 _symmetry_equiv_pos_as_xyz
  1  'x, y, z'
loop_
 _atom_site_type_symbol
 _atom_site_label
 _atom_site_symmetry_multiplicity
 _atom_site_fract_x
 _atom_site_fract_y
 _atom_site_fract_z
 _atom_site_occupancy
  Nd  Nd0  1  0.883118  0.693059  0.190059  1
  Nd  Nd1  1  0.502999  0.693059  0.809940  1
  Nd  Nd2  1  0.116881  0.306941  0.809940  1
  Nd  Nd3  1  0.496999  0.306940  0.190059  1
  Nd  Nd4  1  0.192585  0.883758  0.691173  1
  Nd  Nd5  1  0.698071  0.188197  0.886268  1
  Nd  Nd6  1  0.192585  0.501411  0.308826  1
  Nd  Nd7  1  0.698071  0.811802  0.509873  1
  Nd  Nd8  1  0.807414  0.498587  0.691173  1
  Nd  Nd9  1  0.301929  0.811802  0.113731  1
  Nd  Nd10  1  0.807414  0.116241  0.308827  1
  Nd  Nd11  1  0.301928  0.188197  0.490125  1
  Co  Co12  1  0.113074  0.500000  0.613074  1
  Co  Co13  1  0.611077  0.111077  0.500000  1
  Co  Co14  1  0.886926  0.500000  0.386925  1
  Co  Co15  1  0.388922  0.888923  0.500000  1
  Ni  Ni16  1  0.500000  0.620433  0.120433  1
  Ni  Ni17  1  0.500000  0.379566  0.879567  1
  Sn  Sn18  1  0.000000  0.000000  0.000000  1
