# generated using pymatgen
data_Th6Ti2Sn7Sb3
_symmetry_space_group_name_H-M   'P 1'
_cell_length_a   9.42330714
_cell_length_b   9.41279481
_cell_length_c   6.27547700
_cell_angle_alpha   90.00000000
_cell_angle_beta   90.00000000
_cell_angle_gamma   120.11434168
_symmetry_Int_Tables_number   1
_chemical_formula_structural   Th6Ti2Sn7Sb3
_chemical_formula_sum   'Th6 Ti2 Sn7 Sb3'
_cell_volume   481.50164120
_cell_formula_units_Z   1
loop_
 _symmetry_equiv_pos_site_id
 _symmetry_equiv_pos_as_xyz
  1  'x, y, z'
loop_
 _atom_site_type_symbol
 _atom_site_label
 _atom_site_symmetry_multiplicity
 _atom_site_fract_x
 _atom_site_fract_y
 _atom_site_fract_z
 _atom_site_occupancy
  Th  Th0  1  0.618888  0.001412  0.750000  1
  Th  Th1  1  0.382382  0.999817  0.250000  1
  Th  Th2  1  0.001921  0.617365  0.750000  1
  Th  Th3  1  0.997703  0.381675  0.250000  1
  Th  Th4  1  0.383653  0.383305  0.750000  1
  Th  Th5  1  0.614046  0.616277  0.250000  1
  Ti  Ti6  1  0.000201  0.001210  0.497885  1
  Ti  Ti7  1  0.000201  0.001210  0.002115  1
  Sn  Sn8  1  0.999074  0.740646  0.250000  1
  Sn  Sn9  1  0.743195  0.741915  0.750000  1
  Sn  Sn10  1  0.258681  0.258218  0.250000  1
  Sn  Sn11  1  0.333321  0.666308  0.498591  1
  Sn  Sn12  1  0.666794  0.334658  0.498691  1
  Sn  Sn13  1  0.666794  0.334658  0.001309  1
  Sn  Sn14  1  0.333321  0.666308  0.001409  1
  Sb  Sb15  1  0.255953  0.999783  0.750000  1
  Sb  Sb16  1  0.742816  0.998760  0.250000  1
  Sb  Sb17  1  0.001057  0.256476  0.750000  1
