# generated using pymatgen
data_Be3(BRu)2
_symmetry_space_group_name_H-M   'P 1'
_cell_length_a   5.56960532
_cell_length_b   5.56960549
_cell_length_c   5.78930714
_cell_angle_alpha   98.43047669
_cell_angle_beta   98.43047396
_cell_angle_gamma   43.71217403
_symmetry_Int_Tables_number   1
_chemical_formula_structural   Be3(BRu)2
_chemical_formula_sum   'Be6 B4 Ru4'
_cell_volume   122.54314770
_cell_formula_units_Z   2
loop_
 _symmetry_equiv_pos_site_id
 _symmetry_equiv_pos_as_xyz
  1  'x, y, z'
loop_
 _atom_site_type_symbol
 _atom_site_label
 _atom_site_symmetry_multiplicity
 _atom_site_fract_x
 _atom_site_fract_y
 _atom_site_fract_z
 _atom_site_occupancy
  Be  Be0  1  0.076847  0.353807  0.813486  1
  Be  Be1  1  0.646193  0.923153  0.686514  1
  Be  Be2  1  0.923153  0.646193  0.186514  1
  Be  Be3  1  0.353807  0.076847  0.313486  1
  Be  Be4  1  0.840821  0.159179  0.750000  1
  Be  Be5  1  0.159179  0.840821  0.250000  1
  B  B6  1  0.061417  0.741928  0.924459  1
  B  B7  1  0.258072  0.938583  0.575541  1
  B  B8  1  0.938583  0.258072  0.075541  1
  B  B9  1  0.741928  0.061417  0.424459  1
  Ru  Ru10  1  0.227040  0.547025  0.566676  1
  Ru  Ru11  1  0.452975  0.772960  0.933324  1
  Ru  Ru12  1  0.772960  0.452975  0.433324  1
  Ru  Ru13  1  0.547025  0.227040  0.066676  1
