# generated using pymatgen
data_TbYbHo2(B6Ru)2
_symmetry_space_group_name_H-M   'P 1'
_cell_length_a   3.65434800
_cell_length_b   9.14199092
_cell_length_c   11.53637800
_cell_angle_alpha   89.82019220
_cell_angle_beta   90.00000000
_cell_angle_gamma   90.00000000
_symmetry_Int_Tables_number   1
_chemical_formula_structural   TbYbHo2(B6Ru)2
_chemical_formula_sum   'Tb2 Yb2 Ho4 B24 Ru4'
_cell_volume   385.40560559
_cell_formula_units_Z   2
loop_
 _symmetry_equiv_pos_site_id
 _symmetry_equiv_pos_as_xyz
  1  'x, y, z'
loop_
 _atom_site_type_symbol
 _atom_site_label
 _atom_site_symmetry_multiplicity
 _atom_site_fract_x
 _atom_site_fract_y
 _atom_site_fract_z
 _atom_site_occupancy
  Tb  Tb0  1  0.000000  0.822499  0.086199  1
  Tb  Tb1  1  0.000000  0.177501  0.913801  1
  Yb  Yb2  1  0.000000  0.325113  0.414995  1
  Yb  Yb3  1  0.000000  0.674887  0.585005  1
  Ho  Ho4  1  0.000000  0.941649  0.369903  1
  Ho  Ho5  1  0.000000  0.058351  0.630097  1
  Ho  Ho6  1  0.000000  0.442488  0.131320  1
  Ho  Ho7  1  0.000000  0.557512  0.868680  1
  B  B8  1  0.500000  0.554092  0.432504  1
  B  B9  1  0.500000  0.445908  0.567496  1
  B  B10  1  0.500000  0.054029  0.067283  1
  B  B11  1  0.500000  0.945971  0.932717  1
  B  B12  1  0.500000  0.747679  0.418024  1
  B  B13  1  0.500000  0.252321  0.581976  1
  B  B14  1  0.500000  0.248369  0.081753  1
  B  B15  1  0.500000  0.751631  0.918247  1
  B  B16  1  0.500000  0.790631  0.265156  1
  B  B17  1  0.500000  0.209369  0.734844  1
  B  B18  1  0.500000  0.289919  0.234692  1
  B  B19  1  0.500000  0.710081  0.765308  1
  B  B20  1  0.500000  0.631068  0.185590  1
  B  B21  1  0.500000  0.368932  0.814410  1
  B  B22  1  0.500000  0.130814  0.314190  1
  B  B23  1  0.500000  0.869186  0.685810  1
  B  B24  1  0.500000  0.983621  0.211907  1
  B  B25  1  0.500000  0.016379  0.788093  1
  B  B26  1  0.500000  0.483927  0.288550  1
  B  B27  1  0.500000  0.516073  0.711450  1
  B  B28  1  0.500000  0.602828  0.028284  1
  B  B29  1  0.500000  0.397172  0.971716  1
  B  B30  1  0.500000  0.099857  0.472375  1
  B  B31  1  0.500000  0.900143  0.527625  1
  Ru  Ru32  1  0.000000  0.639639  0.319245  1
  Ru  Ru33  1  0.000000  0.360361  0.680755  1
  Ru  Ru34  1  0.000000  0.137265  0.178600  1
  Ru  Ru35  1  0.000000  0.862735  0.821400  1
