# generated using pymatgen
data_Tb3Dy7CuSiPb6
_symmetry_space_group_name_H-M   'P 1'
_cell_length_a   9.22396700
_cell_length_b   9.22396784
_cell_length_c   6.75184100
_cell_angle_alpha   90.00000000
_cell_angle_beta   90.00000000
_cell_angle_gamma   119.99999341
_symmetry_Int_Tables_number   1
_chemical_formula_structural   Tb3Dy7CuSiPb6
_chemical_formula_sum   'Tb3 Dy7 Cu1 Si1 Pb6'
_cell_volume   497.49461873
_cell_formula_units_Z   1
loop_
 _symmetry_equiv_pos_site_id
 _symmetry_equiv_pos_as_xyz
  1  'x, y, z'
loop_
 _atom_site_type_symbol
 _atom_site_label
 _atom_site_symmetry_multiplicity
 _atom_site_fract_x
 _atom_site_fract_y
 _atom_site_fract_z
 _atom_site_occupancy
  Tb  Tb0  1  0.666667  0.333333  0.000000  1
  Tb  Tb1  1  0.666667  0.333333  0.500000  1
  Tb  Tb2  1  0.333333  0.666667  0.500000  1
  Dy  Dy3  1  0.248457  0.999830  0.239192  1
  Dy  Dy4  1  0.751373  0.999830  0.760808  1
  Dy  Dy5  1  0.000170  0.248627  0.239192  1
  Dy  Dy6  1  0.000170  0.751543  0.760808  1
  Dy  Dy7  1  0.751373  0.751543  0.239192  1
  Dy  Dy8  1  0.248457  0.248627  0.760808  1
  Dy  Dy9  1  0.333333  0.666667  0.000000  1
  Cu  Cu10  1  0.000000  0.000000  0.500000  1
  Si  Si11  1  0.000000  0.000000  0.000000  1
  Pb  Pb12  1  0.606421  0.999544  0.249707  1
  Pb  Pb13  1  0.393123  0.999544  0.750293  1
  Pb  Pb14  1  0.000456  0.606877  0.249707  1
  Pb  Pb15  1  0.000456  0.393579  0.750293  1
  Pb  Pb16  1  0.393123  0.393579  0.249707  1
  Pb  Pb17  1  0.606421  0.606877  0.750293  1
