# generated using pymatgen
data_Ho5In2PbS
_symmetry_space_group_name_H-M   'P 1'
_cell_length_a   9.14295900
_cell_length_b   9.14295955
_cell_length_c   6.58166800
_cell_angle_alpha   90.00000000
_cell_angle_beta   90.00000000
_cell_angle_gamma   120.13951798
_symmetry_Int_Tables_number   1
_chemical_formula_structural   Ho5In2PbS
_chemical_formula_sum   'Ho10 In4 Pb2 S2'
_cell_volume   475.80378367
_cell_formula_units_Z   2
loop_
 _symmetry_equiv_pos_site_id
 _symmetry_equiv_pos_as_xyz
  1  'x, y, z'
loop_
 _atom_site_type_symbol
 _atom_site_label
 _atom_site_symmetry_multiplicity
 _atom_site_fract_x
 _atom_site_fract_y
 _atom_site_fract_z
 _atom_site_occupancy
  Ho  Ho0  1  0.757290  0.757290  0.750000  1
  Ho  Ho1  1  0.241637  0.998790  0.750000  1
  Ho  Ho2  1  0.998790  0.241637  0.750000  1
  Ho  Ho3  1  0.241296  0.241296  0.250000  1
  Ho  Ho4  1  0.756500  0.997968  0.250000  1
  Ho  Ho5  1  0.997968  0.756500  0.250000  1
  Ho  Ho6  1  0.667417  0.334939  0.997733  1
  Ho  Ho7  1  0.334939  0.667417  0.997733  1
  Ho  Ho8  1  0.334939  0.667417  0.502267  1
  Ho  Ho9  1  0.667417  0.334939  0.502267  1
  In  In10  1  0.401124  0.401124  0.750000  1
  In  In11  1  0.601425  0.000704  0.750000  1
  In  In12  1  0.000704  0.601425  0.750000  1
  In  In13  1  0.597717  0.597717  0.250000  1
  Pb  Pb14  1  0.399835  0.000721  0.250000  1
  Pb  Pb15  1  0.000721  0.399835  0.250000  1
  S  S16  1  0.000140  0.000140  0.001228  1
  S  S17  1  0.000140  0.000140  0.498772  1
