# generated using pymatgen
data_Nd20Co4SnSb7
_symmetry_space_group_name_H-M   'P 1'
_cell_length_a   8.22483517
_cell_length_b   9.02434942
_cell_length_c   12.60942619
_cell_angle_alpha   90.04054051
_cell_angle_beta   89.99666897
_cell_angle_gamma   90.02403650
_symmetry_Int_Tables_number   1
_chemical_formula_structural   Nd20Co4SnSb7
_chemical_formula_sum   'Nd20 Co4 Sn1 Sb7'
_cell_volume   935.91903947
_cell_formula_units_Z   1
loop_
 _symmetry_equiv_pos_site_id
 _symmetry_equiv_pos_as_xyz
  1  'x, y, z'
loop_
 _atom_site_type_symbol
 _atom_site_label
 _atom_site_symmetry_multiplicity
 _atom_site_fract_x
 _atom_site_fract_y
 _atom_site_fract_z
 _atom_site_occupancy
  Nd  Nd0  1  0.153431  0.750375  0.204220  1
  Nd  Nd1  1  0.653914  0.249962  0.295591  1
  Nd  Nd2  1  0.846750  0.249955  0.796375  1
  Nd  Nd3  1  0.347131  0.750070  0.703417  1
  Nd  Nd4  1  0.452647  0.749970  0.997064  1
  Nd  Nd5  1  0.951133  0.249028  0.502600  1
  Nd  Nd6  1  0.546238  0.250236  0.002629  1
  Nd  Nd7  1  0.046755  0.750954  0.496719  1
  Nd  Nd8  1  0.625872  0.750336  0.305125  1
  Nd  Nd9  1  0.123181  0.249959  0.194894  1
  Nd  Nd10  1  0.375389  0.250053  0.695023  1
  Nd  Nd11  1  0.875803  0.750074  0.805354  1
  Nd  Nd12  1  0.819858  0.966589  0.067017  1
  Nd  Nd13  1  0.318079  0.033105  0.434480  1
  Nd  Nd14  1  0.181096  0.466388  0.934381  1
  Nd  Nd15  1  0.681012  0.532661  0.565421  1
  Nd  Nd16  1  0.181608  0.033438  0.934400  1
  Nd  Nd17  1  0.680875  0.966382  0.564504  1
  Nd  Nd18  1  0.818913  0.533321  0.065128  1
  Nd  Nd19  1  0.318955  0.466809  0.435025  1
  Co  Co20  1  0.429704  0.748909  0.490593  1
  Co  Co21  1  0.928449  0.250427  0.009081  1
  Co  Co22  1  0.570497  0.250426  0.510172  1
  Co  Co23  1  0.071066  0.749402  0.990074  1
  Sn  Sn24  1  0.927069  0.993835  0.327067  1
  Sb  Sb25  1  0.426459  0.006952  0.173129  1
  Sb  Sb26  1  0.073887  0.493201  0.673645  1
  Sb  Sb27  1  0.573639  0.507164  0.826329  1
  Sb  Sb28  1  0.073936  0.006893  0.674013  1
  Sb  Sb29  1  0.573583  0.993003  0.826713  1
  Sb  Sb30  1  0.926534  0.506912  0.326422  1
  Sb  Sb31  1  0.426538  0.493210  0.173396  1
