# generated using pymatgen
data_Tm4TcB12Rh
_symmetry_space_group_name_H-M   'P 1'
_cell_length_a   3.63649200
_cell_length_b   9.06979871
_cell_length_c   11.45164938
_cell_angle_alpha   90.36319359
_cell_angle_beta   90.00000000
_cell_angle_gamma   90.00000000
_symmetry_Int_Tables_number   1
_chemical_formula_structural   Tm4TcB12Rh
_chemical_formula_sum   'Tm8 Tc2 B24 Rh2'
_cell_volume   377.69357961
_cell_formula_units_Z   2
loop_
 _symmetry_equiv_pos_site_id
 _symmetry_equiv_pos_as_xyz
  1  'x, y, z'
loop_
 _atom_site_type_symbol
 _atom_site_label
 _atom_site_symmetry_multiplicity
 _atom_site_fract_x
 _atom_site_fract_y
 _atom_site_fract_z
 _atom_site_occupancy
  Tm  Tm0  1  0.500000  0.317822  0.410974  1
  Tm  Tm1  1  0.500000  0.682178  0.589026  1
  Tm  Tm2  1  0.500000  0.173807  0.917292  1
  Tm  Tm3  1  0.500000  0.826193  0.082708  1
  Tm  Tm4  1  0.500000  0.442098  0.126773  1
  Tm  Tm5  1  0.500000  0.557902  0.873227  1
  Tm  Tm6  1  0.500000  0.053725  0.628396  1
  Tm  Tm7  1  0.500000  0.946275  0.371604  1
  Tc  Tc8  1  0.500000  0.139427  0.180010  1
  Tc  Tc9  1  0.500000  0.860573  0.819990  1
  B  B10  1  0.000000  0.106589  0.471420  1
  B  B11  1  0.000000  0.893411  0.528580  1
  B  B12  1  0.000000  0.394390  0.970656  1
  B  B13  1  0.000000  0.605610  0.029344  1
  B  B14  1  0.000000  0.132345  0.315394  1
  B  B15  1  0.000000  0.867655  0.684606  1
  B  B16  1  0.000000  0.367354  0.816912  1
  B  B17  1  0.000000  0.632646  0.183088  1
  B  B18  1  0.000000  0.053283  0.067019  1
  B  B19  1  0.000000  0.946717  0.932981  1
  B  B20  1  0.000000  0.445488  0.565492  1
  B  B21  1  0.000000  0.554512  0.434508  1
  B  B22  1  0.000000  0.483234  0.287782  1
  B  B23  1  0.000000  0.516766  0.712218  1
  B  B24  1  0.000000  0.017092  0.787020  1
  B  B25  1  0.000000  0.982908  0.212980  1
  B  B26  1  0.000000  0.248971  0.080646  1
  B  B27  1  0.000000  0.751029  0.919354  1
  B  B28  1  0.000000  0.250101  0.578519  1
  B  B29  1  0.000000  0.749899  0.421481  1
  B  B30  1  0.000000  0.293683  0.235133  1
  B  B31  1  0.000000  0.706317  0.764867  1
  B  B32  1  0.000000  0.207696  0.735318  1
  B  B33  1  0.000000  0.792304  0.264682  1
  Rh  Rh34  1  0.500000  0.361503  0.678727  1
  Rh  Rh35  1  0.500000  0.638497  0.321273  1
