# generated using pymatgen
data_Tb2Ho3Hf5(Si5Ir2)4
_symmetry_space_group_name_H-M   'P 1'
_cell_length_a   12.48879723
_cell_length_b   12.48920623
_cell_length_c   4.16601900
_cell_angle_alpha   90.00000000
_cell_angle_beta   90.00000000
_cell_angle_gamma   90.06854940
_symmetry_Int_Tables_number   1
_chemical_formula_structural   Tb2Ho3Hf5(Si5Ir2)4
_chemical_formula_sum   'Tb2 Ho3 Hf5 Si20 Ir8'
_cell_volume   649.79503288
_cell_formula_units_Z   1
loop_
 _symmetry_equiv_pos_site_id
 _symmetry_equiv_pos_as_xyz
  1  'x, y, z'
loop_
 _atom_site_type_symbol
 _atom_site_label
 _atom_site_symmetry_multiplicity
 _atom_site_fract_x
 _atom_site_fract_y
 _atom_site_fract_z
 _atom_site_occupancy
  Tb  Tb0  1  0.884149  0.384722  0.500000  1
  Tb  Tb1  1  0.115851  0.615278  0.500000  1
  Ho  Ho2  1  0.000000  0.000000  0.000000  1
  Ho  Ho3  1  0.384715  0.115825  0.500000  1
  Ho  Ho4  1  0.615285  0.884175  0.500000  1
  Hf  Hf5  1  0.500000  0.500000  0.000000  1
  Hf  Hf6  1  0.673559  0.175036  0.500000  1
  Hf  Hf7  1  0.326441  0.824964  0.500000  1
  Hf  Hf8  1  0.175257  0.326188  0.500000  1
  Hf  Hf9  1  0.824743  0.673812  0.500000  1
  Si  Si10  1  0.565688  0.067763  0.000000  1
  Si  Si11  1  0.434312  0.932237  0.000000  1
  Si  Si12  1  0.067953  0.434077  0.000000  1
  Si  Si13  1  0.932047  0.565923  0.000000  1
  Si  Si14  1  0.665357  0.701595  0.000000  1
  Si  Si15  1  0.334643  0.298405  0.000000  1
  Si  Si16  1  0.163841  0.800718  0.000000  1
  Si  Si17  1  0.836159  0.199282  0.000000  1
  Si  Si18  1  0.298696  0.665401  0.000000  1
  Si  Si19  1  0.701304  0.334599  0.000000  1
  Si  Si20  1  0.199562  0.163778  0.000000  1
  Si  Si21  1  0.800438  0.836222  0.000000  1
  Si  Si22  1  0.650879  0.508127  0.500000  1
  Si  Si23  1  0.349121  0.491873  0.500000  1
  Si  Si24  1  0.156671  0.992649  0.500000  1
  Si  Si25  1  0.843329  0.007351  0.500000  1
  Si  Si26  1  0.491907  0.651024  0.500000  1
  Si  Si27  1  0.508093  0.348976  0.500000  1
  Si  Si28  1  0.007415  0.156494  0.500000  1
  Si  Si29  1  0.992585  0.843506  0.500000  1
  Ir  Ir30  1  0.741406  0.522205  0.000000  1
  Ir  Ir31  1  0.258594  0.477795  0.000000  1
  Ir  Ir32  1  0.246568  0.977827  0.000000  1
  Ir  Ir33  1  0.753432  0.022173  0.000000  1
  Ir  Ir34  1  0.478267  0.742066  0.000000  1
  Ir  Ir35  1  0.521733  0.257934  0.000000  1
  Ir  Ir36  1  0.022658  0.245891  0.000000  1
  Ir  Ir37  1  0.977342  0.754109  0.000000  1
