# generated using pymatgen
data_Rb8Tm6NiBr20
_symmetry_space_group_name_H-M   'P 1'
_cell_length_a   12.27560768
_cell_length_b   12.27560780
_cell_length_c   12.27560700
_cell_angle_alpha   59.99999947
_cell_angle_beta   59.99999913
_cell_angle_gamma   60.00000287
_symmetry_Int_Tables_number   1
_chemical_formula_structural   Rb8Tm6NiBr20
_chemical_formula_sum   'Rb8 Tm6 Ni1 Br20'
_cell_volume   1308.01880519
_cell_formula_units_Z   1
loop_
 _symmetry_equiv_pos_site_id
 _symmetry_equiv_pos_as_xyz
  1  'x, y, z'
loop_
 _atom_site_type_symbol
 _atom_site_label
 _atom_site_symmetry_multiplicity
 _atom_site_fract_x
 _atom_site_fract_y
 _atom_site_fract_z
 _atom_site_occupancy
  Rb  Rb0  1  0.359066  0.359066  0.359066  1
  Rb  Rb1  1  0.640934  0.640934  0.640934  1
  Rb  Rb2  1  0.359066  0.359066  0.922803  1
  Rb  Rb3  1  0.359066  0.922803  0.359066  1
  Rb  Rb4  1  0.640934  0.640934  0.077197  1
  Rb  Rb5  1  0.640934  0.077197  0.640934  1
  Rb  Rb6  1  0.922803  0.359066  0.359066  1
  Rb  Rb7  1  0.077197  0.640934  0.640934  1
  Tm  Tm8  1  0.847440  0.152560  0.152560  1
  Tm  Tm9  1  0.152560  0.847440  0.847440  1
  Tm  Tm10  1  0.152560  0.847440  0.152560  1
  Tm  Tm11  1  0.847440  0.152560  0.847440  1
  Tm  Tm12  1  0.152560  0.152560  0.847440  1
  Tm  Tm13  1  0.847440  0.847440  0.152560  1
  Ni  Ni14  1  0.000000  0.000000  0.000000  1
  Br  Br15  1  0.327956  0.000000  0.000000  1
  Br  Br16  1  0.672044  0.000000  0.000000  1
  Br  Br17  1  0.000000  0.327956  0.672044  1
  Br  Br18  1  0.000000  0.672044  0.327956  1
  Br  Br19  1  0.000000  0.327956  0.000000  1
  Br  Br20  1  0.672044  0.000000  0.327956  1
  Br  Br21  1  0.000000  0.672044  0.000000  1
  Br  Br22  1  0.327956  0.000000  0.672044  1
  Br  Br23  1  0.000000  0.000000  0.327956  1
  Br  Br24  1  0.000000  0.000000  0.672044  1
  Br  Br25  1  0.672044  0.327956  0.000000  1
  Br  Br26  1  0.327956  0.672044  0.000000  1
  Br  Br27  1  0.682593  0.317407  0.317407  1
  Br  Br28  1  0.317407  0.682593  0.682593  1
  Br  Br29  1  0.317407  0.682593  0.317407  1
  Br  Br30  1  0.682593  0.317407  0.682593  1
  Br  Br31  1  0.317407  0.317407  0.682593  1
  Br  Br32  1  0.682593  0.682593  0.317407  1
  Br  Br33  1  0.250000  0.250000  0.250000  1
  Br  Br34  1  0.750000  0.750000  0.750000  1
