# generated using pymatgen
data_Sm2CoB10
_symmetry_space_group_name_H-M   'P 1'
_cell_length_a   4.16775900
_cell_length_b   5.58714400
_cell_length_c   11.14176200
_cell_angle_alpha   90.00000000
_cell_angle_beta   90.00000000
_cell_angle_gamma   90.00000000
_symmetry_Int_Tables_number   1
_chemical_formula_structural   Sm2CoB10
_chemical_formula_sum   'Sm4 Co2 B20'
_cell_volume   259.44561805
_cell_formula_units_Z   2
loop_
 _symmetry_equiv_pos_site_id
 _symmetry_equiv_pos_as_xyz
  1  'x, y, z'
loop_
 _atom_site_type_symbol
 _atom_site_label
 _atom_site_symmetry_multiplicity
 _atom_site_fract_x
 _atom_site_fract_y
 _atom_site_fract_z
 _atom_site_occupancy
  Sm  Sm0  1  0.500000  0.199701  0.365955  1
  Sm  Sm1  1  0.500000  0.800299  0.634045  1
  Sm  Sm2  1  0.500000  0.300299  0.865955  1
  Sm  Sm3  1  0.500000  0.699701  0.134045  1
  Co  Co4  1  0.000000  0.000000  0.000000  1
  Co  Co5  1  0.000000  0.500000  0.500000  1
  B  B6  1  0.000000  0.372260  0.039989  1
  B  B7  1  0.000000  0.627740  0.960011  1
  B  B8  1  0.000000  0.127740  0.539989  1
  B  B9  1  0.000000  0.872260  0.460011  1
  B  B10  1  0.000000  0.343667  0.197516  1
  B  B11  1  0.000000  0.656333  0.802484  1
  B  B12  1  0.000000  0.156333  0.697516  1
  B  B13  1  0.000000  0.843667  0.302484  1
  B  B14  1  0.000000  0.033040  0.186642  1
  B  B15  1  0.000000  0.966960  0.813358  1
  B  B16  1  0.000000  0.466960  0.686642  1
  B  B17  1  0.000000  0.533040  0.313358  1
  B  B18  1  0.299279  0.201025  0.112899  1
  B  B19  1  0.700721  0.798975  0.887101  1
  B  B20  1  0.299279  0.798975  0.887101  1
  B  B21  1  0.700721  0.298975  0.612899  1
  B  B22  1  0.700721  0.201025  0.112899  1
  B  B23  1  0.299279  0.701025  0.387101  1
  B  B24  1  0.700721  0.701025  0.387101  1
  B  B25  1  0.299279  0.298975  0.612899  1
