# generated using pymatgen
data_Dy3HoAl18(RePd2)2
_symmetry_space_group_name_H-M   'P 1'
_cell_length_a   7.59715102
_cell_length_b   7.59831723
_cell_length_c   9.50712400
_cell_angle_alpha   90.00000000
_cell_angle_beta   90.00000000
_cell_angle_gamma   118.42204908
_symmetry_Int_Tables_number   1
_chemical_formula_structural   Dy3HoAl18(RePd2)2
_chemical_formula_sum   'Dy3 Ho1 Al18 Re2 Pd4'
_cell_volume   482.65424867
_cell_formula_units_Z   1
loop_
 _symmetry_equiv_pos_site_id
 _symmetry_equiv_pos_as_xyz
  1  'x, y, z'
loop_
 _atom_site_type_symbol
 _atom_site_label
 _atom_site_symmetry_multiplicity
 _atom_site_fract_x
 _atom_site_fract_y
 _atom_site_fract_z
 _atom_site_occupancy
  Dy  Dy0  1  0.994325  0.683541  0.250000  1
  Dy  Dy1  1  0.006020  0.316369  0.750000  1
  Dy  Dy2  1  0.683510  0.994251  0.250000  1
  Ho  Ho3  1  0.316006  0.005938  0.750000  1
  Al  Al4  1  0.134414  0.134386  0.250000  1
  Al  Al5  1  0.865695  0.865565  0.750000  1
  Al  Al6  1  0.002349  0.336268  0.077491  1
  Al  Al7  1  0.997774  0.663883  0.922423  1
  Al  Al8  1  0.997774  0.663883  0.577577  1
  Al  Al9  1  0.336268  0.002334  0.422710  1
  Al  Al10  1  0.002349  0.336268  0.422509  1
  Al  Al11  1  0.663541  0.997612  0.577583  1
  Al  Al12  1  0.663541  0.997612  0.922417  1
  Al  Al13  1  0.336268  0.002334  0.077290  1
  Al  Al14  1  0.329745  0.329563  0.548210  1
  Al  Al15  1  0.670320  0.670301  0.452015  1
  Al  Al16  1  0.670320  0.670301  0.047985  1
  Al  Al17  1  0.329745  0.329563  0.951790  1
  Al  Al18  1  0.345528  0.554660  0.250000  1
  Al  Al19  1  0.654305  0.445182  0.750000  1
  Al  Al20  1  0.554668  0.345478  0.250000  1
  Al  Al21  1  0.445362  0.654615  0.750000  1
  Re  Re22  1  0.000128  0.000053  0.999809  1
  Re  Re23  1  0.000128  0.000053  0.500191  1
  Pd  Pd24  1  0.672188  0.327776  0.999979  1
  Pd  Pd25  1  0.327770  0.672219  0.999969  1
  Pd  Pd26  1  0.327770  0.672219  0.500031  1
  Pd  Pd27  1  0.672188  0.327776  0.500021  1
