# generated using pymatgen
data_Nd2Sm2C2Br5
_symmetry_space_group_name_H-M   'P 1'
_cell_length_a   3.93165129
_cell_length_b   8.27218877
_cell_length_c   9.91969152
_cell_angle_alpha   104.70481417
_cell_angle_beta   78.56979143
_cell_angle_gamma   90.00000502
_symmetry_Int_Tables_number   1
_chemical_formula_structural   Nd2Sm2C2Br5
_chemical_formula_sum   'Nd2 Sm2 C2 Br5'
_cell_volume   305.43479936
_cell_formula_units_Z   1
loop_
 _symmetry_equiv_pos_site_id
 _symmetry_equiv_pos_as_xyz
  1  'x, y, z'
loop_
 _atom_site_type_symbol
 _atom_site_label
 _atom_site_symmetry_multiplicity
 _atom_site_fract_x
 _atom_site_fract_y
 _atom_site_fract_z
 _atom_site_occupancy
  Nd  Nd0  1  0.003298  0.200139  0.993403  1
  Nd  Nd1  1  0.003623  0.795467  0.992753  1
  Sm  Sm2  1  0.658849  0.894170  0.682301  1
  Sm  Sm3  1  0.348155  0.101087  0.303689  1
  C  C4  1  0.466178  0.022147  0.067645  1
  C  C5  1  0.540873  0.973343  0.918254  1
  Br  Br6  1  0.166100  0.629453  0.667800  1
  Br  Br7  1  0.840698  0.365855  0.318601  1
  Br  Br8  1  0.502825  0.498200  0.994349  1
  Br  Br9  1  0.172085  0.153806  0.655830  1
  Br  Br10  1  0.834913  0.841628  0.330173  1
