# generated using pymatgen
data_Nb2CrFe(BRu2)2
_symmetry_space_group_name_H-M   'P 1'
_cell_length_a   9.19469000
_cell_length_b   9.19469000
_cell_length_c   2.96788700
_cell_angle_alpha   90.00000000
_cell_angle_beta   90.00000000
_cell_angle_gamma   90.00000000
_symmetry_Int_Tables_number   1
_chemical_formula_structural   Nb2CrFe(BRu2)2
_chemical_formula_sum   'Nb4 Cr2 Fe2 B4 Ru8'
_cell_volume   250.91206493
_cell_formula_units_Z   2
loop_
 _symmetry_equiv_pos_site_id
 _symmetry_equiv_pos_as_xyz
  1  'x, y, z'
loop_
 _atom_site_type_symbol
 _atom_site_label
 _atom_site_symmetry_multiplicity
 _atom_site_fract_x
 _atom_site_fract_y
 _atom_site_fract_z
 _atom_site_occupancy
  Nb  Nb0  1  0.826239  0.673761  0.000000  1
  Nb  Nb1  1  0.173761  0.326239  0.000000  1
  Nb  Nb2  1  0.326239  0.826239  0.000000  1
  Nb  Nb3  1  0.673761  0.173761  0.000000  1
  Cr  Cr4  1  0.500000  0.500000  0.000000  1
  Cr  Cr5  1  0.000000  0.000000  0.000000  1
  Fe  Fe6  1  0.500000  0.000000  0.500000  1
  Fe  Fe7  1  0.000000  0.500000  0.500000  1
  B  B8  1  0.613865  0.886135  0.000000  1
  B  B9  1  0.386135  0.113865  0.000000  1
  B  B10  1  0.113865  0.613865  0.000000  1
  B  B11  1  0.886135  0.386135  0.000000  1
  Ru  Ru12  1  0.566896  0.718373  0.500000  1
  Ru  Ru13  1  0.433104  0.281627  0.500000  1
  Ru  Ru14  1  0.066896  0.781627  0.500000  1
  Ru  Ru15  1  0.933104  0.218373  0.500000  1
  Ru  Ru16  1  0.281627  0.566896  0.500000  1
  Ru  Ru17  1  0.718373  0.433104  0.500000  1
  Ru  Ru18  1  0.218373  0.066896  0.500000  1
  Ru  Ru19  1  0.781627  0.933104  0.500000  1
