# generated using pymatgen
data_Eu2PdRhPb4
_symmetry_space_group_name_H-M   'P 1'
_cell_length_a   6.16918839
_cell_length_b   6.16918858
_cell_length_c   8.25839500
_cell_angle_alpha   90.00000000
_cell_angle_beta   90.00000000
_cell_angle_gamma   136.93385890
_symmetry_Int_Tables_number   1
_chemical_formula_structural   Eu2PdRhPb4
_chemical_formula_sum   'Eu2 Pd1 Rh1 Pb4'
_cell_volume   214.62092431
_cell_formula_units_Z   1
loop_
 _symmetry_equiv_pos_site_id
 _symmetry_equiv_pos_as_xyz
  1  'x, y, z'
loop_
 _atom_site_type_symbol
 _atom_site_label
 _atom_site_symmetry_multiplicity
 _atom_site_fract_x
 _atom_site_fract_y
 _atom_site_fract_z
 _atom_site_occupancy
  Eu  Eu0  1  0.065754  0.934246  0.250000  1
  Eu  Eu1  1  0.934251  0.065749  0.750000  1
  Pd  Pd2  1  0.216720  0.783280  0.750000  1
  Rh  Rh3  1  0.784184  0.215816  0.250000  1
  Pb  Pb4  1  0.645638  0.354362  0.546757  1
  Pb  Pb5  1  0.353908  0.646092  0.447018  1
  Pb  Pb6  1  0.645638  0.354362  0.953243  1
  Pb  Pb7  1  0.353908  0.646092  0.052982  1
