# generated using pymatgen
data_CeHo5OsO12
_symmetry_space_group_name_H-M   'P 1'
_cell_length_a   6.45164047
_cell_length_b   6.47763522
_cell_length_c   6.47954449
_cell_angle_alpha   98.86461568
_cell_angle_beta   98.83082491
_cell_angle_gamma   98.70269562
_symmetry_Int_Tables_number   1
_chemical_formula_structural   CeHo5OsO12
_chemical_formula_sum   'Ce1 Ho5 Os1 O12'
_cell_volume   260.10309771
_cell_formula_units_Z   1
loop_
 _symmetry_equiv_pos_site_id
 _symmetry_equiv_pos_as_xyz
  1  'x, y, z'
loop_
 _atom_site_type_symbol
 _atom_site_label
 _atom_site_symmetry_multiplicity
 _atom_site_fract_x
 _atom_site_fract_y
 _atom_site_fract_z
 _atom_site_occupancy
  Ce  Ce0  1  0.140428  0.306352  0.605649  1
  Ho  Ho1  1  0.394022  0.858164  0.692696  1
  Ho  Ho2  1  0.694372  0.391824  0.865263  1
  Ho  Ho3  1  0.310317  0.612957  0.143365  1
  Ho  Ho4  1  0.608070  0.138025  0.299969  1
  Ho  Ho5  1  0.855996  0.693855  0.386899  1
  Os  Os6  1  0.000122  0.998128  0.997812  1
  O  O7  1  0.070293  0.301744  0.962214  1
  O  O8  1  0.043991  0.928400  0.698473  1
  O  O9  1  0.410420  0.565900  0.822784  1
  O  O10  1  0.176928  0.589211  0.434783  1
  O  O11  1  0.697596  0.043300  0.928831  1
  O  O12  1  0.431026  0.181293  0.589157  1
  O  O13  1  0.565206  0.825332  0.412451  1
  O  O14  1  0.301854  0.958061  0.071031  1
  O  O15  1  0.825823  0.407851  0.567598  1
  O  O16  1  0.590497  0.435580  0.180035  1
  O  O17  1  0.953905  0.065936  0.300040  1
  O  O18  1  0.929134  0.698087  0.040950  1
