# generated using pymatgen
data_Tm3Lu7(GePb3)2
_symmetry_space_group_name_H-M   'P 1'
_cell_length_a   9.19666799
_cell_length_b   9.18931049
_cell_length_c   6.42154900
_cell_angle_alpha   90.00000000
_cell_angle_beta   90.00000000
_cell_angle_gamma   120.07959922
_symmetry_Int_Tables_number   1
_chemical_formula_structural   Tm3Lu7(GePb3)2
_chemical_formula_sum   'Tm3 Lu7 Ge2 Pb6'
_cell_volume   469.60743254
_cell_formula_units_Z   1
loop_
 _symmetry_equiv_pos_site_id
 _symmetry_equiv_pos_as_xyz
  1  'x, y, z'
loop_
 _atom_site_type_symbol
 _atom_site_label
 _atom_site_symmetry_multiplicity
 _atom_site_fract_x
 _atom_site_fract_y
 _atom_site_fract_z
 _atom_site_occupancy
  Tm  Tm0  1  0.252052  0.999997  0.750000  1
  Tm  Tm1  1  0.747824  0.999947  0.250000  1
  Tm  Tm2  1  0.000034  0.251989  0.750000  1
  Lu  Lu3  1  0.999969  0.748300  0.250000  1
  Lu  Lu4  1  0.748527  0.748492  0.750000  1
  Lu  Lu5  1  0.251586  0.251579  0.250000  1
  Lu  Lu6  1  0.333336  0.666697  0.499971  1
  Lu  Lu7  1  0.666673  0.333475  0.499989  1
  Lu  Lu8  1  0.666673  0.333475  0.000011  1
  Lu  Lu9  1  0.333336  0.666697  0.000029  1
  Ge  Ge10  1  0.999998  0.999523  0.499327  1
  Ge  Ge11  1  0.999998  0.999523  0.000673  1
  Pb  Pb12  1  0.606721  0.999725  0.750000  1
  Pb  Pb13  1  0.392875  0.000032  0.250000  1
  Pb  Pb14  1  0.999688  0.606641  0.750000  1
  Pb  Pb15  1  0.000303  0.393715  0.250000  1
  Pb  Pb16  1  0.393897  0.393948  0.750000  1
  Pb  Pb17  1  0.606508  0.606245  0.250000  1
