# generated using pymatgen
data_Ba2VWO6
_symmetry_space_group_name_H-M   'P 1'
_cell_length_a   5.84782802
_cell_length_b   5.84738583
_cell_length_c   5.84829014
_cell_angle_alpha   119.98271081
_cell_angle_beta   120.00661542
_cell_angle_gamma   60.00733690
_symmetry_Int_Tables_number   1
_chemical_formula_structural   Ba2VWO6
_chemical_formula_sum   'Ba2 V1 W1 O6'
_cell_volume   141.42602185
_cell_formula_units_Z   1
loop_
 _symmetry_equiv_pos_site_id
 _symmetry_equiv_pos_as_xyz
  1  'x, y, z'
loop_
 _atom_site_type_symbol
 _atom_site_label
 _atom_site_symmetry_multiplicity
 _atom_site_fract_x
 _atom_site_fract_y
 _atom_site_fract_z
 _atom_site_occupancy
  Ba  Ba0  1  0.750029  0.749970  0.250030  1
  Ba  Ba1  1  0.249970  0.250029  0.749968  1
  V  V2  1  0.500000  0.500000  0.499998  1
  W  W3  1  0.000000  0.000000  0.999999  1
  O  O4  1  0.238021  0.237911  0.237903  1
  O  O5  1  0.762035  0.237869  0.237864  1
  O  O6  1  0.237969  0.762029  0.237963  1
  O  O7  1  0.761979  0.762089  0.762098  1
  O  O8  1  0.762031  0.237972  0.762038  1
  O  O9  1  0.237966  0.762131  0.762135  1
