# generated using pymatgen
data_CaThCo2(As2Pd)2
_symmetry_space_group_name_H-M   'P 1'
_cell_length_a   4.26758000
_cell_length_b   4.26758000
_cell_length_c   9.69689600
_cell_angle_alpha   90.00000000
_cell_angle_beta   90.00000000
_cell_angle_gamma   90.00000000
_symmetry_Int_Tables_number   1
_chemical_formula_structural   CaThCo2(As2Pd)2
_chemical_formula_sum   'Ca1 Th1 Co2 As4 Pd2'
_cell_volume   176.60218806
_cell_formula_units_Z   1
loop_
 _symmetry_equiv_pos_site_id
 _symmetry_equiv_pos_as_xyz
  1  'x, y, z'
loop_
 _atom_site_type_symbol
 _atom_site_label
 _atom_site_symmetry_multiplicity
 _atom_site_fract_x
 _atom_site_fract_y
 _atom_site_fract_z
 _atom_site_occupancy
  Ca  Ca0  1  0.000000  0.500000  0.256484  1
  Th  Th1  1  0.500000  0.000000  0.739177  1
  Co  Co2  1  0.000000  0.500000  0.609611  1
  Co  Co3  1  0.500000  0.000000  0.395630  1
  As  As4  1  0.000000  0.000000  0.498295  1
  As  As5  1  0.500000  0.500000  0.498295  1
  As  As6  1  0.000000  0.500000  0.847708  1
  As  As7  1  0.500000  0.000000  0.158168  1
  Pd  Pd8  1  0.000000  0.000000  0.998316  1
  Pd  Pd9  1  0.500000  0.500000  0.998316  1
