# generated using pymatgen
data_Tb2Dy5Co6Sn23
_symmetry_space_group_name_H-M   'P 1'
_cell_length_a   9.70890352
_cell_length_b   9.69999294
_cell_length_c   9.97492522
_cell_angle_alpha   90.00000362
_cell_angle_beta   90.02070994
_cell_angle_gamma   119.96965235
_symmetry_Int_Tables_number   1
_chemical_formula_structural   Tb2Dy5Co6Sn23
_chemical_formula_sum   'Tb2 Dy5 Co6 Sn23'
_cell_volume   813.79416848
_cell_formula_units_Z   1
loop_
 _symmetry_equiv_pos_site_id
 _symmetry_equiv_pos_as_xyz
  1  'x, y, z'
loop_
 _atom_site_type_symbol
 _atom_site_label
 _atom_site_symmetry_multiplicity
 _atom_site_fract_x
 _atom_site_fract_y
 _atom_site_fract_z
 _atom_site_occupancy
  Tb  Tb0  1  0.999965  0.999983  0.000172  1
  Tb  Tb1  1  0.956502  0.478251  0.694062  1
  Dy  Dy2  1  0.478380  0.521573  0.305849  1
  Dy  Dy3  1  0.521594  0.478530  0.694160  1
  Dy  Dy4  1  0.478380  0.956807  0.305849  1
  Dy  Dy5  1  0.521594  0.043063  0.694160  1
  Dy  Dy6  1  0.043037  0.521518  0.305799  1
  Co  Co7  1  0.832607  0.167620  0.196827  1
  Co  Co8  1  0.167669  0.832691  0.803262  1
  Co  Co9  1  0.832607  0.664987  0.196827  1
  Co  Co10  1  0.167669  0.334977  0.803262  1
  Co  Co11  1  0.335076  0.167538  0.197033  1
  Co  Co12  1  0.664845  0.832423  0.803129  1
  Sn  Sn13  1  0.346076  0.000131  0.000029  1
  Sn  Sn14  1  0.654022  0.000208  0.000063  1
  Sn  Sn15  1  0.000011  0.345962  0.999968  1
  Sn  Sn16  1  0.000011  0.654048  0.999968  1
  Sn  Sn17  1  0.654022  0.653814  0.000063  1
  Sn  Sn18  1  0.346076  0.345945  0.000029  1
  Sn  Sn19  1  0.333315  0.666658  0.818150  1
  Sn  Sn20  1  0.666710  0.333354  0.182511  1
  Sn  Sn21  1  0.000046  0.000023  0.499847  1
  Sn  Sn22  1  0.780904  0.218579  0.451084  1
  Sn  Sn23  1  0.219208  0.781506  0.548551  1
  Sn  Sn24  1  0.780904  0.562325  0.451084  1
  Sn  Sn25  1  0.219208  0.437701  0.548551  1
  Sn  Sn26  1  0.437626  0.218813  0.451382  1
  Sn  Sn27  1  0.562547  0.781274  0.548487  1
  Sn  Sn28  1  0.333264  0.666632  0.116621  1
  Sn  Sn29  1  0.665825  0.332912  0.883731  1
  Sn  Sn30  1  0.118115  0.882119  0.274808  1
  Sn  Sn31  1  0.882078  0.117713  0.724957  1
  Sn  Sn32  1  0.118115  0.235997  0.274808  1
  Sn  Sn33  1  0.882078  0.764364  0.724957  1
  Sn  Sn34  1  0.763751  0.881876  0.274961  1
  Sn  Sn35  1  0.236163  0.118081  0.724998  1
