# generated using pymatgen
data_PrDy2TmSbMo3O14
_symmetry_space_group_name_H-M   'P 1'
_cell_length_a   7.40964595
_cell_length_b   7.48714600
_cell_length_c   7.48714500
_cell_angle_alpha   58.99521694
_cell_angle_beta   58.91169468
_cell_angle_gamma   58.91169388
_symmetry_Int_Tables_number   1
_chemical_formula_structural   PrDy2TmSbMo3O14
_chemical_formula_sum   'Pr1 Dy2 Tm1 Sb1 Mo3 O14'
_cell_volume   286.59986013
_cell_formula_units_Z   1
loop_
 _symmetry_equiv_pos_site_id
 _symmetry_equiv_pos_as_xyz
  1  'x, y, z'
loop_
 _atom_site_type_symbol
 _atom_site_label
 _atom_site_symmetry_multiplicity
 _atom_site_fract_x
 _atom_site_fract_y
 _atom_site_fract_z
 _atom_site_occupancy
  Pr  Pr0  1  0.125000  0.125000  0.125000  1
  Dy  Dy1  1  0.125000  0.625000  0.125000  1
  Dy  Dy2  1  0.125000  0.125000  0.625000  1
  Tm  Tm3  1  0.625000  0.125000  0.125000  1
  Sb  Sb4  1  0.625000  0.625000  0.625000  1
  Mo  Mo5  1  0.125000  0.625000  0.625000  1
  Mo  Mo6  1  0.625000  0.125000  0.625000  1
  Mo  Mo7  1  0.625000  0.625000  0.125000  1
  O  O8  1  0.699445  0.713798  0.299031  1
  O  O9  1  0.286937  0.272305  0.709214  1
  O  O10  1  0.699445  0.299031  0.713798  1
  O  O11  1  0.286937  0.709214  0.272305  1
  O  O12  1  0.292870  0.714908  0.714908  1
  O  O13  1  0.691559  0.287170  0.287170  1
  O  O14  1  0.550555  0.536202  0.950969  1
  O  O15  1  0.963063  0.977695  0.540786  1
  O  O16  1  0.550555  0.950969  0.536202  1
  O  O17  1  0.963063  0.540786  0.977695  1
  O  O18  1  0.957130  0.535092  0.535092  1
  O  O19  1  0.558441  0.962830  0.962830  1
  O  O20  1  0.260281  0.252719  0.252719  1
  O  O21  1  0.989719  0.997281  0.997281  1
