# generated using pymatgen
data_TaBr11
_symmetry_space_group_name_H-M   'P 1'
_cell_length_a   7.88743444
_cell_length_b   8.38454895
_cell_length_c   8.83286343
_cell_angle_alpha   91.08917796
_cell_angle_beta   92.19092716
_cell_angle_gamma   114.18770591
_symmetry_Int_Tables_number   1
_chemical_formula_structural   TaBr11
_chemical_formula_sum   'Ta1 Br11'
_cell_volume   532.08239919
_cell_formula_units_Z   1
loop_
 _symmetry_equiv_pos_site_id
 _symmetry_equiv_pos_as_xyz
  1  'x, y, z'
loop_
 _atom_site_type_symbol
 _atom_site_label
 _atom_site_symmetry_multiplicity
 _atom_site_fract_x
 _atom_site_fract_y
 _atom_site_fract_z
 _atom_site_occupancy
  Ta  Ta0  1  0.000000  0.500000  0.500000  1
  Br  Br1  1  0.000000  0.000000  0.000000  1
  Br  Br2  1  0.670218  0.772518  0.040306  1
  Br  Br3  1  0.526009  0.212260  0.184770  1
  Br  Br4  1  0.097646  0.556494  0.233773  1
  Br  Br5  1  0.735402  0.192891  0.415955  1
  Br  Br6  1  0.784994  0.647550  0.457073  1
  Br  Br7  1  0.215006  0.352450  0.542928  1
  Br  Br8  1  0.264598  0.807109  0.584045  1
  Br  Br9  1  0.902355  0.443506  0.766227  1
  Br  Br10  1  0.473990  0.787740  0.815230  1
  Br  Br11  1  0.329783  0.227482  0.959695  1
