# generated using pymatgen
data_Tb3Ta3(B2Ru5)2
_symmetry_space_group_name_H-M   'P 1'
_cell_length_a   9.62253972
_cell_length_b   9.62253972
_cell_length_c   3.12361200
_cell_angle_alpha   90.00000000
_cell_angle_beta   90.00000000
_cell_angle_gamma   90.42671211
_symmetry_Int_Tables_number   1
_chemical_formula_structural   Tb3Ta3(B2Ru5)2
_chemical_formula_sum   'Tb3 Ta3 B4 Ru10'
_cell_volume   289.21743005
_cell_formula_units_Z   1
loop_
 _symmetry_equiv_pos_site_id
 _symmetry_equiv_pos_as_xyz
  1  'x, y, z'
loop_
 _atom_site_type_symbol
 _atom_site_label
 _atom_site_symmetry_multiplicity
 _atom_site_fract_x
 _atom_site_fract_y
 _atom_site_fract_z
 _atom_site_occupancy
  Tb  Tb0  1  0.824119  0.674790  0.000000  1
  Tb  Tb1  1  0.174790  0.324119  0.000000  1
  Tb  Tb2  1  0.325728  0.825728  0.000000  1
  Ta  Ta3  1  0.675991  0.175991  0.000000  1
  Ta  Ta4  1  0.498209  0.502407  0.000000  1
  Ta  Ta5  1  0.002407  0.998209  0.000000  1
  B  B6  1  0.623459  0.881706  0.000000  1
  B  B7  1  0.381706  0.123459  0.000000  1
  B  B8  1  0.119371  0.619371  0.000000  1
  B  B9  1  0.875423  0.375423  0.000000  1
  Ru  Ru10  1  0.571280  0.722009  0.500000  1
  Ru  Ru11  1  0.441254  0.280347  0.500000  1
  Ru  Ru12  1  0.069392  0.780568  0.500000  1
  Ru  Ru13  1  0.915108  0.212899  0.500000  1
  Ru  Ru14  1  0.280568  0.569392  0.500000  1
  Ru  Ru15  1  0.712899  0.415108  0.500000  1
  Ru  Ru16  1  0.222009  0.071280  0.500000  1
  Ru  Ru17  1  0.780347  0.941254  0.500000  1
  Ru  Ru18  1  0.510148  0.010148  0.500000  1
  Ru  Ru19  1  0.995794  0.495794  0.500000  1
