# generated using pymatgen
data_Sc22Ir5Ru2Rh
_symmetry_space_group_name_H-M   'P 1'
_cell_length_a   9.45919776
_cell_length_b   9.46444575
_cell_length_c   9.45919778
_cell_angle_alpha   59.98164509
_cell_angle_beta   59.98266931
_cell_angle_gamma   59.98164570
_symmetry_Int_Tables_number   1
_chemical_formula_structural   Sc22Ir5Ru2Rh
_chemical_formula_sum   'Sc22 Ir5 Ru2 Rh1'
_cell_volume   598.56507759
_cell_formula_units_Z   1
loop_
 _symmetry_equiv_pos_site_id
 _symmetry_equiv_pos_as_xyz
  1  'x, y, z'
loop_
 _atom_site_type_symbol
 _atom_site_label
 _atom_site_symmetry_multiplicity
 _atom_site_fract_x
 _atom_site_fract_y
 _atom_site_fract_z
 _atom_site_occupancy
  Sc  Sc0  1  0.804255  0.802750  0.195745  1
  Sc  Sc1  1  0.196997  0.803003  0.196997  1
  Sc  Sc2  1  0.804255  0.197250  0.195745  1
  Sc  Sc3  1  0.195745  0.197250  0.804255  1
  Sc  Sc4  1  0.803003  0.196997  0.803003  1
  Sc  Sc5  1  0.195745  0.802750  0.804255  1
  Sc  Sc6  1  0.616543  0.617050  0.149358  1
  Sc  Sc7  1  0.617351  0.149818  0.617351  1
  Sc  Sc8  1  0.149358  0.617050  0.616543  1
  Sc  Sc9  1  0.617351  0.615483  0.617351  1
  Sc  Sc10  1  0.383457  0.382950  0.850642  1
  Sc  Sc11  1  0.382649  0.850182  0.382649  1
  Sc  Sc12  1  0.850642  0.382950  0.383457  1
  Sc  Sc13  1  0.382649  0.384517  0.382649  1
  Sc  Sc14  1  0.844207  0.842548  0.470696  1
  Sc  Sc15  1  0.842987  0.471307  0.842987  1
  Sc  Sc16  1  0.470696  0.842548  0.844207  1
  Sc  Sc17  1  0.842987  0.842718  0.842987  1
  Sc  Sc18  1  0.155793  0.157452  0.529304  1
  Sc  Sc19  1  0.157013  0.528693  0.157013  1
  Sc  Sc20  1  0.529304  0.157452  0.155793  1
  Sc  Sc21  1  0.157013  0.157282  0.157013  1
  Ir  Ir22  1  0.000000  0.000000  0.500000  1
  Ir  Ir23  1  0.000000  0.500000  0.500000  1
  Ir  Ir24  1  0.500000  0.500000  0.000000  1
  Ir  Ir25  1  0.000000  0.500000  0.000000  1
  Ir  Ir26  1  0.500000  0.000000  0.000000  1
  Ru  Ru27  1  0.000000  0.000000  0.000000  1
  Ru  Ru28  1  0.500000  0.500000  0.500000  1
  Rh  Rh29  1  0.500000  0.000000  0.500000  1
