# generated using pymatgen
data_NaTcF6
_symmetry_space_group_name_H-M   'P 1'
_cell_length_a   5.95711035
_cell_length_b   5.95710989
_cell_length_c   5.95711000
_cell_angle_alpha   59.99999939
_cell_angle_beta   60.00000196
_cell_angle_gamma   60.00000515
_symmetry_Int_Tables_number   1
_chemical_formula_structural   NaTcF6
_chemical_formula_sum   'Na1 Tc1 F6'
_cell_volume   149.48303257
_cell_formula_units_Z   1
loop_
 _symmetry_equiv_pos_site_id
 _symmetry_equiv_pos_as_xyz
  1  'x, y, z'
loop_
 _atom_site_type_symbol
 _atom_site_label
 _atom_site_symmetry_multiplicity
 _atom_site_fract_x
 _atom_site_fract_y
 _atom_site_fract_z
 _atom_site_occupancy
  Na  Na0  1  0.500000  0.500000  0.500000  1
  Tc  Tc1  1  0.000000  0.000000  0.000000  1
  F  F2  1  0.225811  0.774189  0.225811  1
  F  F3  1  0.225811  0.774189  0.774189  1
  F  F4  1  0.774189  0.225811  0.225811  1
  F  F5  1  0.774189  0.774189  0.225811  1
  F  F6  1  0.225811  0.225811  0.774189  1
  F  F7  1  0.774189  0.225811  0.774189  1
