# generated using pymatgen
data_Ta2Mn2(Pd3Pt)3
_symmetry_space_group_name_H-M   'P 1'
_cell_length_a   6.85412790
_cell_length_b   6.85412180
_cell_length_c   6.84887457
_cell_angle_alpha   109.56188461
_cell_angle_beta   109.56195039
_cell_angle_gamma   109.32134951
_symmetry_Int_Tables_number   1
_chemical_formula_structural   Ta2Mn2(Pd3Pt)3
_chemical_formula_sum   'Ta2 Mn2 Pd9 Pt3'
_cell_volume   247.58843928
_cell_formula_units_Z   1
loop_
 _symmetry_equiv_pos_site_id
 _symmetry_equiv_pos_as_xyz
  1  'x, y, z'
loop_
 _atom_site_type_symbol
 _atom_site_label
 _atom_site_symmetry_multiplicity
 _atom_site_fract_x
 _atom_site_fract_y
 _atom_site_fract_z
 _atom_site_occupancy
  Ta  Ta0  1  0.251052  0.251052  0.502105  1
  Ta  Ta1  1  0.748948  0.748948  0.497895  1
  Mn  Mn2  1  0.250649  0.749352  0.000002  1
  Mn  Mn3  1  0.749351  0.250648  0.999998  1
  Pd  Pd4  1  0.499448  0.252509  0.253018  1
  Pd  Pd5  1  0.500552  0.747491  0.746982  1
  Pd  Pd6  1  0.999490  0.246429  0.746982  1
  Pd  Pd7  1  0.246429  0.999490  0.746982  1
  Pd  Pd8  1  0.000510  0.753571  0.253018  1
  Pd  Pd9  1  0.753571  0.000510  0.253018  1
  Pd  Pd10  1  0.252509  0.499448  0.253018  1
  Pd  Pd11  1  0.747491  0.500552  0.746982  1
  Pd  Pd12  1  0.000000  0.000000  0.000000  1
  Pt  Pt13  1  0.500000  0.000000  0.500000  1
  Pt  Pt14  1  0.000000  0.500000  0.500000  1
  Pt  Pt15  1  0.500000  0.500000  0.000000  1
