# generated using pymatgen
data_Nb12Ga7RuN4
_symmetry_space_group_name_H-M   'P 1'
_cell_length_a   7.05522856
_cell_length_b   7.05522849
_cell_length_c   7.05522832
_cell_angle_alpha   89.74294976
_cell_angle_beta   90.25705010
_cell_angle_gamma   90.25706042
_symmetry_Int_Tables_number   1
_chemical_formula_structural   Nb12Ga7RuN4
_chemical_formula_sum   'Nb12 Ga7 Ru1 N4'
_cell_volume   351.17223420
_cell_formula_units_Z   1
loop_
 _symmetry_equiv_pos_site_id
 _symmetry_equiv_pos_as_xyz
  1  'x, y, z'
loop_
 _atom_site_type_symbol
 _atom_site_label
 _atom_site_symmetry_multiplicity
 _atom_site_fract_x
 _atom_site_fract_y
 _atom_site_fract_z
 _atom_site_occupancy
  Nb  Nb0  1  0.795410  0.956726  0.373504  1
  Nb  Nb1  1  0.705415  0.043602  0.875952  1
  Nb  Nb2  1  0.207987  0.456713  0.122757  1
  Nb  Nb3  1  0.293035  0.546603  0.626058  1
  Nb  Nb4  1  0.956398  0.375952  0.794585  1
  Nb  Nb5  1  0.043274  0.873504  0.704590  1
  Nb  Nb6  1  0.453397  0.126058  0.206965  1
  Nb  Nb7  1  0.543287  0.622757  0.292013  1
  Nb  Nb8  1  0.377243  0.792013  0.956713  1
  Nb  Nb9  1  0.873942  0.706965  0.046603  1
  Nb  Nb10  1  0.126496  0.204590  0.456726  1
  Nb  Nb11  1  0.624048  0.294585  0.543602  1
  Ga  Ga12  1  0.319211  0.176847  0.819021  1
  Ga  Ga13  1  0.823153  0.319021  0.180789  1
  Ga  Ga14  1  0.680979  0.680789  0.676847  1
  Ga  Ga15  1  0.569413  0.430587  0.930587  1
  Ga  Ga16  1  0.424655  0.928005  0.562032  1
  Ga  Ga17  1  0.937968  0.575345  0.428005  1
  Ga  Ga18  1  0.071995  0.062032  0.075345  1
  Ru  Ru19  1  0.179170  0.820830  0.320830  1
  N  N20  1  0.875765  0.124235  0.624235  1
  N  N21  1  0.623027  0.876834  0.128435  1
  N  N22  1  0.123166  0.628435  0.876973  1
  N  N23  1  0.371565  0.376973  0.376834  1
