# generated using pymatgen
data_Tb2Ga(PRh2)6
_symmetry_space_group_name_H-M   'P 1'
_cell_length_a   3.88955304
_cell_length_b   9.68181640
_cell_length_c   9.68207753
_cell_angle_alpha   119.98257213
_cell_angle_beta   89.99673341
_cell_angle_gamma   89.98894260
_symmetry_Int_Tables_number   1
_chemical_formula_structural   Tb2Ga(PRh2)6
_chemical_formula_sum   'Tb2 Ga1 P6 Rh12'
_cell_volume   315.81441959
_cell_formula_units_Z   1
loop_
 _symmetry_equiv_pos_site_id
 _symmetry_equiv_pos_as_xyz
  1  'x, y, z'
loop_
 _atom_site_type_symbol
 _atom_site_label
 _atom_site_symmetry_multiplicity
 _atom_site_fract_x
 _atom_site_fract_y
 _atom_site_fract_z
 _atom_site_occupancy
  Tb  Tb0  1  0.250592  0.666855  0.333570  1
  Tb  Tb1  1  0.749408  0.333145  0.666430  1
  Ga  Ga2  1  0.500000  0.000000  0.000000  1
  P  P3  1  0.749622  0.883177  0.597568  1
  P  P4  1  0.749907  0.402830  0.285725  1
  P  P5  1  0.749912  0.714390  0.117093  1
  P  P6  1  0.250378  0.116823  0.402432  1
  P  P7  1  0.250093  0.597170  0.714275  1
  P  P8  1  0.250088  0.285610  0.882907  1
  Rh  Rh9  1  0.752582  0.122557  0.842812  1
  Rh  Rh10  1  0.752994  0.157200  0.279269  1
  Rh  Rh11  1  0.752564  0.720460  0.877795  1
  Rh  Rh12  1  0.247418  0.877443  0.157188  1
  Rh  Rh13  1  0.247006  0.842800  0.720731  1
  Rh  Rh14  1  0.247436  0.279540  0.122205  1
  Rh  Rh15  1  0.749759  0.614948  0.549187  1
  Rh  Rh16  1  0.749893  0.451183  0.066080  1
  Rh  Rh17  1  0.749911  0.934355  0.385182  1
  Rh  Rh18  1  0.250241  0.385052  0.450813  1
  Rh  Rh19  1  0.250107  0.548817  0.933920  1
  Rh  Rh20  1  0.250089  0.065645  0.614818  1
