# generated using pymatgen
data_Li8Er7TmSn8
_symmetry_space_group_name_H-M   'P 1'
_cell_length_a   9.33770100
_cell_length_b   9.33770019
_cell_length_c   7.21778500
_cell_angle_alpha   89.99918023
_cell_angle_beta   90.00081595
_cell_angle_gamma   119.99810497
_symmetry_Int_Tables_number   1
_chemical_formula_structural   Li8Er7TmSn8
_chemical_formula_sum   'Li8 Er7 Tm1 Sn8'
_cell_volume   545.03294599
_cell_formula_units_Z   1
loop_
 _symmetry_equiv_pos_site_id
 _symmetry_equiv_pos_as_xyz
  1  'x, y, z'
loop_
 _atom_site_type_symbol
 _atom_site_label
 _atom_site_symmetry_multiplicity
 _atom_site_fract_x
 _atom_site_fract_y
 _atom_site_fract_z
 _atom_site_occupancy
  Li  Li0  1  0.833137  0.666426  0.711865  1
  Li  Li1  1  0.833238  0.166762  0.711917  1
  Li  Li2  1  0.333358  0.666642  0.821118  1
  Li  Li3  1  0.666615  0.333385  0.321221  1
  Li  Li4  1  0.666446  0.833179  0.212011  1
  Li  Li5  1  0.166821  0.333554  0.212011  1
  Li  Li6  1  0.166766  0.833234  0.211993  1
  Li  Li7  1  0.333574  0.166863  0.711865  1
  Er  Er8  1  0.000000  0.000000  0.999880  1
  Er  Er9  1  0.000009  0.999991  0.499899  1
  Er  Er10  1  0.511439  0.488561  0.005870  1
  Er  Er11  1  0.022908  0.511433  0.505851  1
  Er  Er12  1  0.488567  0.977092  0.505851  1
  Er  Er13  1  0.511409  0.022860  0.005823  1
  Er  Er14  1  0.977140  0.488591  0.005823  1
  Tm  Tm15  1  0.488550  0.511450  0.505911  1
  Sn  Sn16  1  0.166671  0.833329  0.771153  1
  Sn  Sn17  1  0.666563  0.333437  0.741093  1
  Sn  Sn18  1  0.333414  0.666586  0.241591  1
  Sn  Sn19  1  0.833373  0.166627  0.271101  1
  Sn  Sn20  1  0.166828  0.333390  0.770861  1
  Sn  Sn21  1  0.333417  0.166852  0.271216  1
  Sn  Sn22  1  0.833148  0.666583  0.271216  1
  Sn  Sn23  1  0.666610  0.833172  0.770861  1
