# generated using pymatgen
data_Ce3Pr(MgIr)4
_symmetry_space_group_name_H-M   'P 1'
_cell_length_a   4.11334100
_cell_length_b   7.15962469
_cell_length_c   8.73320962
_cell_angle_alpha   89.19131669
_cell_angle_beta   90.00000000
_cell_angle_gamma   90.00000000
_symmetry_Int_Tables_number   1
_chemical_formula_structural   Ce3Pr(MgIr)4
_chemical_formula_sum   'Ce3 Pr1 Mg4 Ir4'
_cell_volume   257.16721192
_cell_formula_units_Z   1
loop_
 _symmetry_equiv_pos_site_id
 _symmetry_equiv_pos_as_xyz
  1  'x, y, z'
loop_
 _atom_site_type_symbol
 _atom_site_label
 _atom_site_symmetry_multiplicity
 _atom_site_fract_x
 _atom_site_fract_y
 _atom_site_fract_z
 _atom_site_occupancy
  Ce  Ce0  1  0.750000  0.461815  0.819049  1
  Ce  Ce1  1  0.750000  0.965103  0.681762  1
  Ce  Ce2  1  0.250000  0.038972  0.314545  1
  Pr  Pr3  1  0.250000  0.539285  0.181980  1
  Mg  Mg4  1  0.250000  0.637098  0.557352  1
  Mg  Mg5  1  0.750000  0.366303  0.442903  1
  Mg  Mg6  1  0.750000  0.862876  0.055043  1
  Mg  Mg7  1  0.250000  0.131271  0.942453  1
  Ir  Ir8  1  0.250000  0.741662  0.861149  1
  Ir  Ir9  1  0.750000  0.239701  0.132295  1
  Ir  Ir10  1  0.750000  0.770164  0.376895  1
  Ir  Ir11  1  0.250000  0.245749  0.634576  1
