# generated using pymatgen
data_Hf6Si6Mo2IrRu3
_symmetry_space_group_name_H-M   'P 1'
_cell_length_a   7.66777625
_cell_length_b   7.66756336
_cell_length_c   7.66636891
_cell_angle_alpha   126.59271056
_cell_angle_beta   124.60464519
_cell_angle_gamma   80.54725480
_symmetry_Int_Tables_number   1
_chemical_formula_structural   Hf6Si6Mo2IrRu3
_chemical_formula_sum   'Hf6 Si6 Mo2 Ir1 Ru3'
_cell_volume   287.31825973
_cell_formula_units_Z   1
loop_
 _symmetry_equiv_pos_site_id
 _symmetry_equiv_pos_as_xyz
  1  'x, y, z'
loop_
 _atom_site_type_symbol
 _atom_site_label
 _atom_site_symmetry_multiplicity
 _atom_site_fract_x
 _atom_site_fract_y
 _atom_site_fract_z
 _atom_site_occupancy
  Hf  Hf0  1  0.461514  0.682432  0.723724  1
  Hf  Hf1  1  0.540815  0.261349  0.222554  1
  Hf  Hf2  1  0.746544  0.837061  0.589568  1
  Hf  Hf3  1  0.252554  0.842111  0.090644  1
  Hf  Hf4  1  0.054267  0.260633  0.704274  1
  Hf  Hf5  1  0.944912  0.656111  0.208093  1
  Si  Si6  1  0.272000  0.258818  0.491023  1
  Si  Si7  1  0.727591  0.219616  0.988512  1
  Si  Si8  1  0.326728  0.588678  0.252731  1
  Si  Si9  1  0.672944  0.926958  0.262719  1
  Si  Si10  1  0.164364  0.924907  0.751824  1
  Si  Si11  1  0.836059  0.587839  0.761396  1
  Mo  Mo12  1  0.499749  0.501943  0.002506  1
  Mo  Mo13  1  0.000371  0.501344  0.500946  1
  Ir  Ir14  1  0.098376  0.254005  0.099630  1
  Ru  Ru15  1  0.900207  0.001881  0.152989  1
  Ru  Ru16  1  0.347597  0.000149  0.601569  1
  Ru  Ru17  1  0.653410  0.253765  0.654903  1
