# generated using pymatgen
data_Tb4Al15(ZnPt2)3
_symmetry_space_group_name_H-M   'P 1'
_cell_length_a   7.56820128
_cell_length_b   7.57525245
_cell_length_c   9.50639900
_cell_angle_alpha   90.00000000
_cell_angle_beta   90.00000000
_cell_angle_gamma   119.34236752
_symmetry_Int_Tables_number   1
_chemical_formula_structural   Tb4Al15(ZnPt2)3
_chemical_formula_sum   'Tb4 Al15 Zn3 Pt6'
_cell_volume   475.09059786
_cell_formula_units_Z   1
loop_
 _symmetry_equiv_pos_site_id
 _symmetry_equiv_pos_as_xyz
  1  'x, y, z'
loop_
 _atom_site_type_symbol
 _atom_site_label
 _atom_site_symmetry_multiplicity
 _atom_site_fract_x
 _atom_site_fract_y
 _atom_site_fract_z
 _atom_site_occupancy
  Tb  Tb0  1  0.996214  0.673204  0.250000  1
  Tb  Tb1  1  0.004971  0.327297  0.750000  1
  Tb  Tb2  1  0.671729  0.993933  0.250000  1
  Tb  Tb3  1  0.327072  0.004761  0.750000  1
  Al  Al4  1  0.006059  0.335665  0.081052  1
  Al  Al5  1  0.996754  0.666854  0.921807  1
  Al  Al6  1  0.996754  0.666854  0.578193  1
  Al  Al7  1  0.333009  0.001587  0.421096  1
  Al  Al8  1  0.006059  0.335665  0.418948  1
  Al  Al9  1  0.667548  0.997955  0.578463  1
  Al  Al10  1  0.667548  0.997955  0.921537  1
  Al  Al11  1  0.333009  0.001587  0.078904  1
  Al  Al12  1  0.332441  0.332768  0.553982  1
  Al  Al13  1  0.663707  0.666055  0.443533  1
  Al  Al14  1  0.663707  0.666055  0.056467  1
  Al  Al15  1  0.332441  0.332768  0.946018  1
  Al  Al16  1  0.660527  0.453848  0.750000  1
  Al  Al17  1  0.544266  0.341680  0.250000  1
  Al  Al18  1  0.455384  0.659915  0.750000  1
  Zn  Zn19  1  0.141731  0.140710  0.250000  1
  Zn  Zn20  1  0.860541  0.859772  0.750000  1
  Zn  Zn21  1  0.341567  0.542074  0.250000  1
  Pt  Pt22  1  0.672882  0.326818  0.999876  1
  Pt  Pt23  1  0.326325  0.674277  0.994149  1
  Pt  Pt24  1  0.326325  0.674277  0.505851  1
  Pt  Pt25  1  0.672882  0.326818  0.500124  1
  Pt  Pt26  1  0.999273  0.999427  0.000320  1
  Pt  Pt27  1  0.999273  0.999427  0.499680  1
