# generated using pymatgen
data_Tb7CeY2(SiB4)4
_symmetry_space_group_name_H-M   'P 1'
_cell_length_a   7.25300005
_cell_length_b   7.25300021
_cell_length_c   8.16348200
_cell_angle_alpha   89.99716245
_cell_angle_beta   89.99716233
_cell_angle_gamma   90.04768185
_symmetry_Int_Tables_number   1
_chemical_formula_structural   Tb7CeY2(SiB4)4
_chemical_formula_sum   'Tb7 Ce1 Y2 Si4 B16'
_cell_volume   429.44807307
_cell_formula_units_Z   1
loop_
 _symmetry_equiv_pos_site_id
 _symmetry_equiv_pos_as_xyz
  1  'x, y, z'
loop_
 _atom_site_type_symbol
 _atom_site_label
 _atom_site_symmetry_multiplicity
 _atom_site_fract_x
 _atom_site_fract_y
 _atom_site_fract_z
 _atom_site_occupancy
  Tb  Tb0  1  0.318816  0.818816  0.776939  1
  Tb  Tb1  1  0.319585  0.819585  0.223060  1
  Tb  Tb2  1  0.819392  0.680599  0.222780  1
  Tb  Tb3  1  0.819671  0.680770  0.777035  1
  Tb  Tb4  1  0.680693  0.180693  0.776513  1
  Tb  Tb5  1  0.180770  0.319671  0.777035  1
  Tb  Tb6  1  0.180599  0.319392  0.222780  1
  Ce  Ce7  1  0.682226  0.182226  0.230395  1
  Y  Y8  1  0.000709  0.999086  0.500451  1
  Y  Y9  1  0.499086  0.500709  0.500451  1
  Si  Si10  1  0.115388  0.615388  0.501559  1
  Si  Si11  1  0.886144  0.386144  0.500146  1
  Si  Si12  1  0.385027  0.114126  0.499303  1
  Si  Si13  1  0.614126  0.885027  0.499303  1
  B  B14  1  0.172608  0.039010  0.999118  1
  B  B15  1  0.827585  0.960821  0.999828  1
  B  B16  1  0.960603  0.171901  0.999540  1
  B  B17  1  0.327315  0.539691  0.999216  1
  B  B18  1  0.039691  0.827315  0.999216  1
  B  B19  1  0.671901  0.460603  0.999540  1
  B  B20  1  0.539010  0.672608  0.999118  1
  B  B21  1  0.460821  0.327585  0.999828  1
  B  B22  1  0.090337  0.590337  0.999426  1
  B  B23  1  0.909350  0.409350  0.001031  1
  B  B24  1  0.409652  0.090042  0.999588  1
  B  B25  1  0.590042  0.909652  0.999588  1
  B  B26  1  0.999376  0.999520  0.160120  1
  B  B27  1  0.000183  0.999775  0.838486  1
  B  B28  1  0.499775  0.500183  0.838486  1
  B  B29  1  0.499520  0.499376  0.160120  1
