# generated using pymatgen
data_V9Si4Mo3
_symmetry_space_group_name_H-M   'P 1'
_cell_length_a   4.73622900
_cell_length_b   4.74784174
_cell_length_c   9.56746627
_cell_angle_alpha   89.93732604
_cell_angle_beta   90.00000000
_cell_angle_gamma   90.00000000
_symmetry_Int_Tables_number   1
_chemical_formula_structural   V9Si4Mo3
_chemical_formula_sum   'V9 Si4 Mo3'
_cell_volume   215.14220089
_cell_formula_units_Z   1
loop_
 _symmetry_equiv_pos_site_id
 _symmetry_equiv_pos_as_xyz
  1  'x, y, z'
loop_
 _atom_site_type_symbol
 _atom_site_label
 _atom_site_symmetry_multiplicity
 _atom_site_fract_x
 _atom_site_fract_y
 _atom_site_fract_z
 _atom_site_occupancy
  V  V0  1  0.500000  0.248025  0.498494  1
  V  V1  1  0.750406  0.001107  0.252851  1
  V  V2  1  0.750510  0.000288  0.749815  1
  V  V3  1  0.000000  0.496977  0.125861  1
  V  V4  1  0.000000  0.498934  0.625257  1
  V  V5  1  0.500000  0.750127  0.997883  1
  V  V6  1  0.500000  0.753302  0.498157  1
  V  V7  1  0.249594  0.001107  0.252851  1
  V  V8  1  0.249490  0.000288  0.749815  1
  Si  Si9  1  0.500000  0.503758  0.249301  1
  Si  Si10  1  0.500000  0.503005  0.743672  1
  Si  Si11  1  0.000000  0.993957  0.004089  1
  Si  Si12  1  0.000000  0.999292  0.503582  1
  Mo  Mo13  1  0.000000  0.500250  0.374516  1
  Mo  Mo14  1  0.000000  0.500369  0.874371  1
  Mo  Mo15  1  0.500000  0.249212  0.999484  1
