# generated using pymatgen
data_Tb4Er8InCuNi4
_symmetry_space_group_name_H-M   'P 1'
_cell_length_a   8.25519005
_cell_length_b   8.25518827
_cell_length_c   8.25518900
_cell_angle_alpha   110.50554364
_cell_angle_beta   110.80272879
_cell_angle_gamma   107.13058725
_symmetry_Int_Tables_number   1
_chemical_formula_structural   Tb4Er8InCuNi4
_chemical_formula_sum   'Tb4 Er8 In1 Cu1 Ni4'
_cell_volume   432.52875400
_cell_formula_units_Z   1
loop_
 _symmetry_equiv_pos_site_id
 _symmetry_equiv_pos_as_xyz
  1  'x, y, z'
loop_
 _atom_site_type_symbol
 _atom_site_label
 _atom_site_symmetry_multiplicity
 _atom_site_fract_x
 _atom_site_fract_y
 _atom_site_fract_z
 _atom_site_occupancy
  Tb  Tb0  1  0.183168  0.292812  0.475979  1
  Tb  Tb1  1  0.816832  0.707188  0.524021  1
  Tb  Tb2  1  0.183168  0.707188  0.890356  1
  Tb  Tb3  1  0.816832  0.292812  0.109644  1
  Er  Er4  1  0.321845  0.627301  0.305456  1
  Er  Er5  1  0.678155  0.372699  0.694544  1
  Er  Er6  1  0.321845  0.016389  0.694544  1
  Er  Er7  1  0.678155  0.983611  0.305456  1
  Er  Er8  1  0.414190  0.219854  0.194336  1
  Er  Er9  1  0.585810  0.780146  0.805664  1
  Er  Er10  1  0.025518  0.219854  0.805664  1
  Er  Er11  1  0.974482  0.780146  0.194336  1
  In  In12  1  0.500000  0.500000  0.000000  1
  Cu  Cu13  1  0.000000  0.000000  0.000000  1
  Ni  Ni14  1  0.126843  0.626843  0.500000  1
  Ni  Ni15  1  0.873157  0.373157  0.500000  1
  Ni  Ni16  1  0.363573  0.000000  0.363573  1
  Ni  Ni17  1  0.636427  0.000000  0.636427  1
