# generated using pymatgen
data_SrMn(FeAs4)3
_symmetry_space_group_name_H-M   'P 1'
_cell_length_a   7.32511275
_cell_length_b   7.32511175
_cell_length_c   7.32511342
_cell_angle_alpha   109.59754980
_cell_angle_beta   109.59755425
_cell_angle_gamma   109.59754003
_symmetry_Int_Tables_number   1
_chemical_formula_structural   SrMn(FeAs4)3
_chemical_formula_sum   'Sr1 Mn1 Fe3 As12'
_cell_volume   301.14317095
_cell_formula_units_Z   1
loop_
 _symmetry_equiv_pos_site_id
 _symmetry_equiv_pos_as_xyz
  1  'x, y, z'
loop_
 _atom_site_type_symbol
 _atom_site_label
 _atom_site_symmetry_multiplicity
 _atom_site_fract_x
 _atom_site_fract_y
 _atom_site_fract_z
 _atom_site_occupancy
  Sr  Sr0  1  0.000000  0.000000  0.000000  1
  Mn  Mn1  1  0.500000  0.500000  0.500000  1
  Fe  Fe2  1  0.500000  0.000000  0.000000  1
  Fe  Fe3  1  0.000000  0.500000  0.000000  1
  Fe  Fe4  1  0.000000  0.000000  0.500000  1
  As  As5  1  0.856360  0.660146  0.499494  1
  As  As6  1  0.143640  0.339854  0.500506  1
  As  As7  1  0.156515  0.657227  0.813450  1
  As  As8  1  0.843485  0.342773  0.186550  1
  As  As9  1  0.660146  0.499494  0.856360  1
  As  As10  1  0.339854  0.500506  0.143640  1
  As  As11  1  0.657227  0.813450  0.156515  1
  As  As12  1  0.342773  0.186550  0.843485  1
  As  As13  1  0.499494  0.856360  0.660146  1
  As  As14  1  0.500506  0.143640  0.339854  1
  As  As15  1  0.186550  0.843485  0.342773  1
  As  As16  1  0.813450  0.156515  0.657227  1
