# generated using pymatgen
data_ZrTl4SeBr12
_symmetry_space_group_name_H-M   'P 1'
_cell_length_a   7.54394900
_cell_length_b   7.54394900
_cell_length_c   10.85053000
_cell_angle_alpha   90.00000000
_cell_angle_beta   90.00000000
_cell_angle_gamma   90.00000000
_symmetry_Int_Tables_number   1
_chemical_formula_structural   ZrTl4SeBr12
_chemical_formula_sum   'Zr1 Tl4 Se1 Br12'
_cell_volume   617.51631960
_cell_formula_units_Z   1
loop_
 _symmetry_equiv_pos_site_id
 _symmetry_equiv_pos_as_xyz
  1  'x, y, z'
loop_
 _atom_site_type_symbol
 _atom_site_label
 _atom_site_symmetry_multiplicity
 _atom_site_fract_x
 _atom_site_fract_y
 _atom_site_fract_z
 _atom_site_occupancy
  Zr  Zr0  1  0.000000  0.000000  0.000000  1
  Tl  Tl1  1  0.500000  0.000000  0.748277  1
  Tl  Tl2  1  0.500000  0.000000  0.251723  1
  Tl  Tl3  1  0.000000  0.500000  0.251723  1
  Tl  Tl4  1  0.000000  0.500000  0.748277  1
  Se  Se5  1  0.500000  0.500000  0.500000  1
  Br  Br6  1  0.787228  0.278492  0.000000  1
  Br  Br7  1  0.212772  0.721508  0.000000  1
  Br  Br8  1  0.500000  0.500000  0.260092  1
  Br  Br9  1  0.289497  0.226109  0.500000  1
  Br  Br10  1  0.278492  0.212772  0.000000  1
  Br  Br11  1  0.773891  0.289497  0.500000  1
  Br  Br12  1  0.000000  0.000000  0.244742  1
  Br  Br13  1  0.710503  0.773891  0.500000  1
  Br  Br14  1  0.226109  0.710503  0.500000  1
  Br  Br15  1  0.500000  0.500000  0.739908  1
  Br  Br16  1  0.721508  0.787228  0.000000  1
  Br  Br17  1  0.000000  0.000000  0.755258  1
