# generated using pymatgen
data_NdHo4LuRh18
_symmetry_space_group_name_H-M   'P 1'
_cell_length_a   5.26338400
_cell_length_b   5.26338241
_cell_length_c   17.53524100
_cell_angle_alpha   90.00000000
_cell_angle_beta   90.00000000
_cell_angle_gamma   119.99999740
_symmetry_Int_Tables_number   1
_chemical_formula_structural   NdHo4LuRh18
_chemical_formula_sum   'Nd1 Ho4 Lu1 Rh18'
_cell_volume   420.69985584
_cell_formula_units_Z   1
loop_
 _symmetry_equiv_pos_site_id
 _symmetry_equiv_pos_as_xyz
  1  'x, y, z'
loop_
 _atom_site_type_symbol
 _atom_site_label
 _atom_site_symmetry_multiplicity
 _atom_site_fract_x
 _atom_site_fract_y
 _atom_site_fract_z
 _atom_site_occupancy
  Nd  Nd0  1  0.666667  0.333333  0.250474  1
  Ho  Ho1  1  0.666667  0.333333  0.041032  1
  Ho  Ho2  1  0.666667  0.333333  0.459888  1
  Ho  Ho3  1  0.333333  0.666667  0.957627  1
  Ho  Ho4  1  0.333333  0.666667  0.749393  1
  Lu  Lu5  1  0.333333  0.666667  0.542524  1
  Rh  Rh6  1  0.167194  0.334388  0.124741  1
  Rh  Rh7  1  0.832472  0.664945  0.624982  1
  Rh  Rh8  1  0.665612  0.832806  0.124741  1
  Rh  Rh9  1  0.167194  0.832806  0.124741  1
  Rh  Rh10  1  0.832472  0.167528  0.624982  1
  Rh  Rh11  1  0.335055  0.167528  0.624982  1
  Rh  Rh12  1  0.832742  0.665486  0.874027  1
  Rh  Rh13  1  0.832742  0.167258  0.874027  1
  Rh  Rh14  1  0.334514  0.167258  0.874027  1
  Rh  Rh15  1  0.664976  0.832487  0.375986  1
  Rh  Rh16  1  0.167513  0.832487  0.375986  1
  Rh  Rh17  1  0.167513  0.335024  0.375986  1
  Rh  Rh18  1  0.000000  0.000000  0.250403  1
  Rh  Rh19  1  0.000000  0.000000  0.749590  1
  Rh  Rh20  1  0.333333  0.666667  0.250206  1
  Rh  Rh21  1  0.666667  0.333333  0.749584  1
  Rh  Rh22  1  0.000000  0.000000  0.999554  1
  Rh  Rh23  1  0.000000  0.000000  0.500516  1
