# generated using pymatgen
data_Ti16IrPd7O4
_symmetry_space_group_name_H-M   'P 1'
_cell_length_a   8.26740023
_cell_length_b   8.30369096
_cell_length_c   8.30369100
_cell_angle_alpha   59.99999587
_cell_angle_beta   59.85468188
_cell_angle_gamma   59.85468282
_symmetry_Int_Tables_number   1
_chemical_formula_structural   Ti16IrPd7O4
_chemical_formula_sum   'Ti16 Ir1 Pd7 O4'
_cell_volume   402.19705955
_cell_formula_units_Z   1
loop_
 _symmetry_equiv_pos_site_id
 _symmetry_equiv_pos_as_xyz
  1  'x, y, z'
loop_
 _atom_site_type_symbol
 _atom_site_label
 _atom_site_symmetry_multiplicity
 _atom_site_fract_x
 _atom_site_fract_y
 _atom_site_fract_z
 _atom_site_occupancy
  Ti  Ti0  1  0.123077  0.625641  0.625641  1
  Ti  Ti1  1  0.625005  0.128142  0.623426  1
  Ti  Ti2  1  0.625005  0.623426  0.128142  1
  Ti  Ti3  1  0.625005  0.623426  0.623426  1
  Ti  Ti4  1  0.819940  0.819008  0.180526  1
  Ti  Ti5  1  0.178815  0.178142  0.821521  1
  Ti  Ti6  1  0.819940  0.180526  0.819008  1
  Ti  Ti7  1  0.178815  0.821521  0.178142  1
  Ti  Ti8  1  0.178815  0.821521  0.821521  1
  Ti  Ti9  1  0.819940  0.180526  0.180526  1
  Ti  Ti10  1  0.427924  0.428386  0.071845  1
  Ti  Ti11  1  0.067371  0.072167  0.430231  1
  Ti  Ti12  1  0.427924  0.071845  0.428386  1
  Ti  Ti13  1  0.067371  0.430231  0.072167  1
  Ti  Ti14  1  0.067371  0.430231  0.430231  1
  Ti  Ti15  1  0.427924  0.071845  0.071845  1
  Ir  Ir16  1  0.783644  0.405452  0.405452  1
  Pd  Pd17  1  0.410597  0.765538  0.411933  1
  Pd  Pd18  1  0.410597  0.411933  0.765538  1
  Pd  Pd19  1  0.410597  0.411933  0.411933  1
  Pd  Pd20  1  0.484427  0.838524  0.838524  1
  Pd  Pd21  1  0.838836  0.481896  0.839633  1
  Pd  Pd22  1  0.838836  0.839633  0.481896  1
  Pd  Pd23  1  0.838836  0.839633  0.839633  1
  O  O24  1  0.626132  0.124623  0.124623  1
  O  O25  1  0.125752  0.625557  0.124346  1
  O  O26  1  0.125752  0.124346  0.625557  1
  O  O27  1  0.125752  0.124346  0.124346  1
