# generated using pymatgen
data_ErPa3Ni4SnPt
_symmetry_space_group_name_H-M   'P 1'
_cell_length_a   7.24823554
_cell_length_b   7.26752766
_cell_length_c   3.57270600
_cell_angle_alpha   90.00000000
_cell_angle_beta   90.00000000
_cell_angle_gamma   90.80684619
_symmetry_Int_Tables_number   1
_chemical_formula_structural   ErPa3Ni4SnPt
_chemical_formula_sum   'Er1 Pa3 Ni4 Sn1 Pt1'
_cell_volume   188.17988881
_cell_formula_units_Z   1
loop_
 _symmetry_equiv_pos_site_id
 _symmetry_equiv_pos_as_xyz
  1  'x, y, z'
loop_
 _atom_site_type_symbol
 _atom_site_label
 _atom_site_symmetry_multiplicity
 _atom_site_fract_x
 _atom_site_fract_y
 _atom_site_fract_z
 _atom_site_occupancy
  Er  Er0  1  0.815867  0.668987  0.500000  1
  Pa  Pa1  1  0.665527  0.192685  0.500000  1
  Pa  Pa2  1  0.339545  0.810016  0.500000  1
  Pa  Pa3  1  0.179470  0.330016  0.500000  1
  Ni  Ni4  1  0.881629  0.366109  0.000000  1
  Ni  Ni5  1  0.136893  0.621647  0.000000  1
  Ni  Ni6  1  0.371233  0.132203  0.000000  1
  Ni  Ni7  1  0.611043  0.887858  0.000000  1
  Sn  Sn8  1  0.996070  0.990529  0.000000  1
  Pt  Pt9  1  0.502723  0.499952  0.000000  1
