# generated using pymatgen
data_LiLu3In3AgPt
_symmetry_space_group_name_H-M   'P 1'
_cell_length_a   7.91855600
_cell_length_b   7.91855543
_cell_length_c   3.58072900
_cell_angle_alpha   90.00000000
_cell_angle_beta   90.00000000
_cell_angle_gamma   120.00000238
_symmetry_Int_Tables_number   1
_chemical_formula_structural   LiLu3In3AgPt
_chemical_formula_sum   'Li1 Lu3 In3 Ag1 Pt1'
_cell_volume   194.44376802
_cell_formula_units_Z   1
loop_
 _symmetry_equiv_pos_site_id
 _symmetry_equiv_pos_as_xyz
  1  'x, y, z'
loop_
 _atom_site_type_symbol
 _atom_site_label
 _atom_site_symmetry_multiplicity
 _atom_site_fract_x
 _atom_site_fract_y
 _atom_site_fract_z
 _atom_site_occupancy
  Li  Li0  1  0.000000  0.000000  0.500000  1
  Lu  Lu1  1  0.025212  0.610074  0.500000  1
  Lu  Lu2  1  0.584861  0.974788  0.500000  1
  Lu  Lu3  1  0.389926  0.415139  0.500000  1
  In  In4  1  0.991111  0.260314  0.000000  1
  In  In5  1  0.269202  0.008889  0.000000  1
  In  In6  1  0.739686  0.730798  0.000000  1
  Ag  Ag7  1  0.666667  0.333333  0.000000  1
  Pt  Pt8  1  0.333333  0.666667  0.000000  1
