# generated using pymatgen
data_Yb3Pa(CuGe)4
_symmetry_space_group_name_H-M   'P 1'
_cell_length_a   4.32071700
_cell_length_b   7.08767242
_cell_length_c   7.28294890
_cell_angle_alpha   89.35673770
_cell_angle_beta   90.00000000
_cell_angle_gamma   90.00000000
_symmetry_Int_Tables_number   1
_chemical_formula_structural   Yb3Pa(CuGe)4
_chemical_formula_sum   'Yb3 Pa1 Cu4 Ge4'
_cell_volume   223.01770895
_cell_formula_units_Z   1
loop_
 _symmetry_equiv_pos_site_id
 _symmetry_equiv_pos_as_xyz
  1  'x, y, z'
loop_
 _atom_site_type_symbol
 _atom_site_label
 _atom_site_symmetry_multiplicity
 _atom_site_fract_x
 _atom_site_fract_y
 _atom_site_fract_z
 _atom_site_occupancy
  Yb  Yb0  1  0.250000  0.504122  0.710727  1
  Yb  Yb1  1  0.750000  0.992553  0.214645  1
  Yb  Yb2  1  0.750000  0.496436  0.289116  1
  Pa  Pa3  1  0.250000  0.003856  0.787426  1
  Cu  Cu4  1  0.250000  0.809884  0.418148  1
  Cu  Cu5  1  0.250000  0.313509  0.080420  1
  Cu  Cu6  1  0.750000  0.197088  0.578072  1
  Cu  Cu7  1  0.750000  0.687963  0.919995  1
  Ge  Ge8  1  0.250000  0.200677  0.410149  1
  Ge  Ge9  1  0.250000  0.710197  0.087509  1
  Ge  Ge10  1  0.750000  0.803782  0.594312  1
  Ge  Ge11  1  0.750000  0.279935  0.909481  1
