# generated using pymatgen
data_Er2Sc2Si7Pt9W
_symmetry_space_group_name_H-M   'P 1'
_cell_length_a   9.92386575
_cell_length_b   9.95460748
_cell_length_c   3.97856500
_cell_angle_alpha   90.00000000
_cell_angle_beta   90.00000000
_cell_angle_gamma   119.65910268
_symmetry_Int_Tables_number   1
_chemical_formula_structural   Er2Sc2Si7Pt9W
_chemical_formula_sum   'Er2 Sc2 Si7 Pt9 W1'
_cell_volume   341.54169740
_cell_formula_units_Z   1
loop_
 _symmetry_equiv_pos_site_id
 _symmetry_equiv_pos_as_xyz
  1  'x, y, z'
loop_
 _atom_site_type_symbol
 _atom_site_label
 _atom_site_symmetry_multiplicity
 _atom_site_fract_x
 _atom_site_fract_y
 _atom_site_fract_z
 _atom_site_occupancy
  Er  Er0  1  0.000715  0.996442  0.000000  1
  Er  Er1  1  0.332139  0.668180  0.500000  1
  Sc  Sc2  1  0.566185  0.109648  0.500000  1
  Sc  Sc3  1  0.547028  0.439198  0.500000  1
  Si  Si4  1  0.245422  0.199367  0.500000  1
  Si  Si5  1  0.804971  0.046566  0.500000  1
  Si  Si6  1  0.951574  0.734857  0.500000  1
  Si  Si7  1  0.552900  0.644168  0.000000  1
  Si  Si8  1  0.355794  0.912087  0.000000  1
  Si  Si9  1  0.080598  0.447614  0.000000  1
  Si  Si10  1  0.679545  0.338937  0.000000  1
  Pt  Pt11  1  0.218043  0.939388  0.500000  1
  Pt  Pt12  1  0.060069  0.286001  0.500000  1
  Pt  Pt13  1  0.719189  0.778502  0.500000  1
  Pt  Pt14  1  0.307197  0.412402  0.000000  1
  Pt  Pt15  1  0.587967  0.899739  0.000000  1
  Pt  Pt16  1  0.099132  0.691951  0.000000  1
  Pt  Pt17  1  0.392101  0.177032  0.000000  1
  Pt  Pt18  1  0.830000  0.208192  0.000000  1
  Pt  Pt19  1  0.785644  0.614310  0.000000  1
  W  W20  1  0.883783  0.455421  0.500000  1
