# generated using pymatgen
data_Sr4Ca2NbIO12
_symmetry_space_group_name_H-M   'P 1'
_cell_length_a   5.99376640
_cell_length_b   5.85108499
_cell_length_c   10.21276661
_cell_angle_alpha   54.71791129
_cell_angle_beta   89.92580528
_cell_angle_gamma   89.92483652
_symmetry_Int_Tables_number   1
_chemical_formula_structural   Sr4Ca2NbIO12
_chemical_formula_sum   'Sr4 Ca2 Nb1 I1 O12'
_cell_volume   292.37392322
_cell_formula_units_Z   1
loop_
 _symmetry_equiv_pos_site_id
 _symmetry_equiv_pos_as_xyz
  1  'x, y, z'
loop_
 _atom_site_type_symbol
 _atom_site_label
 _atom_site_symmetry_multiplicity
 _atom_site_fract_x
 _atom_site_fract_y
 _atom_site_fract_z
 _atom_site_occupancy
  Sr  Sr0  1  0.039796  0.727501  0.769260  1
  Sr  Sr1  1  0.960204  0.272499  0.230740  1
  Sr  Sr2  1  0.547993  0.251582  0.765354  1
  Sr  Sr3  1  0.452007  0.748418  0.234646  1
  Ca  Ca4  1  0.500000  0.500000  0.000000  1
  Ca  Ca5  1  0.000000  0.500000  0.500000  1
  Nb  Nb6  1  0.000000  0.000000  0.000000  1
  I  I7  1  0.500000  0.000000  0.500000  1
  O  O8  1  0.465859  0.876067  0.717998  1
  O  O9  1  0.534141  0.123933  0.282002  1
  O  O10  1  0.967129  0.156712  0.764328  1
  O  O11  1  0.032871  0.843288  0.235672  1
  O  O12  1  0.757548  0.764314  0.558274  1
  O  O13  1  0.242452  0.235686  0.441726  1
  O  O14  1  0.275660  0.237813  0.953987  1
  O  O15  1  0.724340  0.762187  0.046013  1
  O  O16  1  0.315335  0.695304  0.545840  1
  O  O17  1  0.684665  0.304696  0.454160  1
  O  O18  1  0.806632  0.314696  0.964842  1
  O  O19  1  0.193368  0.685304  0.035158  1
