# generated using pymatgen
data_Li11SnAs5
_symmetry_space_group_name_H-M   'P 1'
_cell_length_a   7.52462130
_cell_length_b   7.52462175
_cell_length_c   10.72235434
_cell_angle_alpha   62.30157066
_cell_angle_beta   62.30156816
_cell_angle_gamma   33.53307488
_symmetry_Int_Tables_number   1
_chemical_formula_structural   Li11SnAs5
_chemical_formula_sum   'Li11 Sn1 As5'
_cell_volume   293.20328179
_cell_formula_units_Z   1
loop_
 _symmetry_equiv_pos_site_id
 _symmetry_equiv_pos_as_xyz
  1  'x, y, z'
loop_
 _atom_site_type_symbol
 _atom_site_label
 _atom_site_symmetry_multiplicity
 _atom_site_fract_x
 _atom_site_fract_y
 _atom_site_fract_z
 _atom_site_occupancy
  Li  Li0  1  0.802807  0.802807  0.073826  1
  Li  Li1  1  0.402066  0.402066  0.150186  1
  Li  Li2  1  0.394582  0.394582  0.650200  1
  Li  Li3  1  0.389211  0.389211  0.909600  1
  Li  Li4  1  0.001751  0.001751  0.759949  1
  Li  Li5  1  0.980381  0.980381  0.260405  1
  Li  Li6  1  0.592776  0.592776  0.354007  1
  Li  Li7  1  0.613108  0.613108  0.835599  1
  Li  Li8  1  0.609303  0.609303  0.082565  1
  Li  Li9  1  0.202973  0.202973  0.906891  1
  Li  Li10  1  0.809535  0.809535  0.562609  1
  Sn  Sn11  1  0.205326  0.205326  0.437015  1
  As  As12  1  0.004604  0.004604  0.998570  1
  As  As13  1  0.596653  0.596653  0.599687  1
  As  As14  1  0.191528  0.191528  0.196508  1
  As  As15  1  0.806384  0.806384  0.819239  1
  As  As16  1  0.397011  0.397011  0.403143  1
