# generated using pymatgen
data_Sm2Re7Si4Mo
_symmetry_space_group_name_H-M   'P 1'
_cell_length_a   7.17815130
_cell_length_b   7.74899539
_cell_length_c   4.17836500
_cell_angle_alpha   90.00000000
_cell_angle_beta   90.00000000
_cell_angle_gamma   90.21006718
_symmetry_Int_Tables_number   1
_chemical_formula_structural   Sm2Re7Si4Mo
_chemical_formula_sum   'Sm2 Re7 Si4 Mo1'
_cell_volume   232.41356211
_cell_formula_units_Z   1
loop_
 _symmetry_equiv_pos_site_id
 _symmetry_equiv_pos_as_xyz
  1  'x, y, z'
loop_
 _atom_site_type_symbol
 _atom_site_label
 _atom_site_symmetry_multiplicity
 _atom_site_fract_x
 _atom_site_fract_y
 _atom_site_fract_z
 _atom_site_occupancy
  Sm  Sm0  1  0.500642  0.498791  0.000000  1
  Sm  Sm1  1  0.999049  0.999999  0.500000  1
  Re  Re2  1  0.155360  0.604695  0.500000  1
  Re  Re3  1  0.082673  0.340587  0.000000  1
  Re  Re4  1  0.920323  0.657095  0.000000  1
  Re  Re5  1  0.419082  0.840521  0.500000  1
  Re  Re6  1  0.580113  0.163605  0.500000  1
  Re  Re7  1  0.344569  0.107053  0.000000  1
  Re  Re8  1  0.845715  0.394300  0.500000  1
  Si  Si9  1  0.224310  0.806164  0.000000  1
  Si  Si10  1  0.777488  0.195706  0.000000  1
  Si  Si11  1  0.724913  0.692294  0.500000  1
  Si  Si12  1  0.275568  0.305839  0.500000  1
  Mo  Mo13  1  0.650197  0.893352  0.000000  1
