# generated using pymatgen
data_Cs16ZrSnSb8
_symmetry_space_group_name_H-M   'P 1'
_cell_length_a   12.58911800
_cell_length_b   12.58911696
_cell_length_c   12.58911800
_cell_angle_alpha   59.99999726
_cell_angle_beta   60.00000000
_cell_angle_gamma   60.00000333
_symmetry_Int_Tables_number   1
_chemical_formula_structural   Cs16ZrSnSb8
_chemical_formula_sum   'Cs16 Zr1 Sn1 Sb8'
_cell_volume   1410.81763966
_cell_formula_units_Z   1
loop_
 _symmetry_equiv_pos_site_id
 _symmetry_equiv_pos_as_xyz
  1  'x, y, z'
loop_
 _atom_site_type_symbol
 _atom_site_label
 _atom_site_symmetry_multiplicity
 _atom_site_fract_x
 _atom_site_fract_y
 _atom_site_fract_z
 _atom_site_occupancy
  Cs  Cs0  1  0.623181  0.130456  0.623181  1
  Cs  Cs1  1  0.623181  0.623181  0.130456  1
  Cs  Cs2  1  0.130456  0.623181  0.623181  1
  Cs  Cs3  1  0.623181  0.623181  0.623181  1
  Cs  Cs4  1  0.022957  0.022957  0.477043  1
  Cs  Cs5  1  0.776247  0.223753  0.223753  1
  Cs  Cs6  1  0.223753  0.776247  0.776247  1
  Cs  Cs7  1  0.776247  0.776247  0.223753  1
  Cs  Cs8  1  0.776247  0.223753  0.776247  1
  Cs  Cs9  1  0.223753  0.776247  0.223753  1
  Cs  Cs10  1  0.477043  0.022957  0.477043  1
  Cs  Cs11  1  0.477043  0.022957  0.022957  1
  Cs  Cs12  1  0.022957  0.477043  0.477043  1
  Cs  Cs13  1  0.022957  0.477043  0.022957  1
  Cs  Cs14  1  0.223753  0.223753  0.776247  1
  Cs  Cs15  1  0.477043  0.477043  0.022957  1
  Zr  Zr16  1  0.750000  0.750000  0.750000  1
  Sn  Sn17  1  0.500000  0.500000  0.500000  1
  Sb  Sb18  1  0.402165  0.793503  0.402165  1
  Sb  Sb19  1  0.844569  0.844569  0.466294  1
  Sb  Sb20  1  0.466294  0.844569  0.844569  1
  Sb  Sb21  1  0.844569  0.844569  0.844569  1
  Sb  Sb22  1  0.793503  0.402165  0.402165  1
  Sb  Sb23  1  0.402165  0.402165  0.402165  1
  Sb  Sb24  1  0.402165  0.402165  0.793503  1
  Sb  Sb25  1  0.844569  0.466294  0.844569  1
