# generated using pymatgen
data_PrGa2Ni2Pt
_symmetry_space_group_name_H-M   'P 1'
_cell_length_a   9.09256900
_cell_length_b   9.09257034
_cell_length_c   4.19546000
_cell_angle_alpha   90.00000000
_cell_angle_beta   90.00000000
_cell_angle_gamma   119.99999876
_symmetry_Int_Tables_number   1
_chemical_formula_structural   PrGa2Ni2Pt
_chemical_formula_sum   'Pr3 Ga6 Ni6 Pt3'
_cell_volume   300.38863465
_cell_formula_units_Z   3
loop_
 _symmetry_equiv_pos_site_id
 _symmetry_equiv_pos_as_xyz
  1  'x, y, z'
loop_
 _atom_site_type_symbol
 _atom_site_label
 _atom_site_symmetry_multiplicity
 _atom_site_fract_x
 _atom_site_fract_y
 _atom_site_fract_z
 _atom_site_occupancy
  Pr  Pr0  1  0.333333  0.666667  0.500000  1
  Pr  Pr1  1  0.666667  0.333333  0.500000  1
  Pr  Pr2  1  0.000000  0.000000  0.000000  1
  Ga  Ga3  1  0.281908  0.000000  0.500000  1
  Ga  Ga4  1  0.000000  0.281908  0.500000  1
  Ga  Ga5  1  0.718092  0.718092  0.500000  1
  Ga  Ga6  1  0.536256  0.000000  0.000000  1
  Ga  Ga7  1  0.000000  0.536256  0.000000  1
  Ga  Ga8  1  0.463744  0.463744  0.000000  1
  Ni  Ni9  1  0.162208  0.383408  0.000000  1
  Ni  Ni10  1  0.616592  0.778800  0.000000  1
  Ni  Ni11  1  0.221200  0.837792  0.000000  1
  Ni  Ni12  1  0.778800  0.616592  0.000000  1
  Ni  Ni13  1  0.837792  0.221200  0.000000  1
  Ni  Ni14  1  0.383408  0.162208  0.000000  1
  Pt  Pt15  1  0.716234  0.000000  0.500000  1
  Pt  Pt16  1  0.000000  0.716234  0.500000  1
  Pt  Pt17  1  0.283766  0.283766  0.500000  1
