# generated using pymatgen
data_ErPaNi2Hg
_symmetry_space_group_name_H-M   'P 1'
_cell_length_a   7.37126265
_cell_length_b   7.37126228
_cell_length_c   3.56271200
_cell_angle_alpha   90.00000000
_cell_angle_beta   90.00000000
_cell_angle_gamma   94.30468440
_symmetry_Int_Tables_number   1
_chemical_formula_structural   ErPaNi2Hg
_chemical_formula_sum   'Er2 Pa2 Ni4 Hg2'
_cell_volume   193.03568026
_cell_formula_units_Z   2
loop_
 _symmetry_equiv_pos_site_id
 _symmetry_equiv_pos_as_xyz
  1  'x, y, z'
loop_
 _atom_site_type_symbol
 _atom_site_label
 _atom_site_symmetry_multiplicity
 _atom_site_fract_x
 _atom_site_fract_y
 _atom_site_fract_z
 _atom_site_occupancy
  Er  Er0  1  0.171565  0.328435  0.500000  1
  Er  Er1  1  0.828435  0.671565  0.500000  1
  Pa  Pa2  1  0.673096  0.173096  0.500000  1
  Pa  Pa3  1  0.326904  0.826904  0.500000  1
  Ni  Ni4  1  0.132484  0.632484  0.000000  1
  Ni  Ni5  1  0.867516  0.367516  0.000000  1
  Ni  Ni6  1  0.615390  0.884610  0.000000  1
  Ni  Ni7  1  0.384610  0.115390  0.000000  1
  Hg  Hg8  1  0.500000  0.500000  0.000000  1
  Hg  Hg9  1  0.000000  0.000000  0.000000  1
