# generated using pymatgen
data_Nd4Ga10IrPd5
_symmetry_space_group_name_H-M   'P 1'
_cell_length_a   8.73545263
_cell_length_b   8.73702908
_cell_length_c   8.73702869
_cell_angle_alpha   140.82219547
_cell_angle_beta   107.86342452
_cell_angle_gamma   85.30234050
_symmetry_Int_Tables_number   1
_chemical_formula_structural   Nd4Ga10IrPd5
_chemical_formula_sum   'Nd4 Ga10 Ir1 Pd5'
_cell_volume   387.23518698
_cell_formula_units_Z   1
loop_
 _symmetry_equiv_pos_site_id
 _symmetry_equiv_pos_as_xyz
  1  'x, y, z'
loop_
 _atom_site_type_symbol
 _atom_site_label
 _atom_site_symmetry_multiplicity
 _atom_site_fract_x
 _atom_site_fract_y
 _atom_site_fract_z
 _atom_site_occupancy
  Nd  Nd0  1  0.861250  0.637845  0.223404  1
  Nd  Nd1  1  0.136714  0.363222  0.773493  1
  Nd  Nd2  1  0.412989  0.136878  0.276113  1
  Nd  Nd3  1  0.587280  0.860260  0.727018  1
  Ga  Ga4  1  0.498312  0.747967  0.244579  1
  Ga  Ga5  1  0.498312  0.253733  0.750346  1
  Ga  Ga6  1  0.208012  0.959438  0.750023  1
  Ga  Ga7  1  0.788405  0.539589  0.747905  1
  Ga  Ga8  1  0.788405  0.040500  0.248816  1
  Ga  Ga9  1  0.208012  0.457989  0.248574  1
  Ga  Ga10  1  0.070881  0.904098  0.166783  1
  Ga  Ga11  1  0.928457  0.094468  0.833988  1
  Ga  Ga12  1  0.739982  0.406896  0.333087  1
  Ga  Ga13  1  0.267155  0.596856  0.670299  1
  Ir  Ir14  1  0.550442  0.645787  0.904654  1
  Pd  Pd15  1  0.001768  0.749665  0.751221  1
  Pd  Pd16  1  0.001768  0.250547  0.252103  1
  Pd  Pd17  1  0.259717  0.854819  0.404899  1
  Pd  Pd18  1  0.741577  0.144501  0.597075  1
  Pd  Pd19  1  0.450560  0.354940  0.095621  1
