# generated using pymatgen
data_Nd2Y(CuSn)4
_symmetry_space_group_name_H-M   'P 1'
_cell_length_a   8.54053403
_cell_length_b   8.54053254
_cell_length_c   8.54053338
_cell_angle_alpha   149.00950972
_cell_angle_beta   132.08898370
_cell_angle_gamma   58.16082491
_symmetry_Int_Tables_number   1
_chemical_formula_structural   Nd2Y(CuSn)4
_chemical_formula_sum   'Nd2 Y1 Cu4 Sn4'
_cell_volume   236.22164814
_cell_formula_units_Z   1
loop_
 _symmetry_equiv_pos_site_id
 _symmetry_equiv_pos_as_xyz
  1  'x, y, z'
loop_
 _atom_site_type_symbol
 _atom_site_label
 _atom_site_symmetry_multiplicity
 _atom_site_fract_x
 _atom_site_fract_y
 _atom_site_fract_z
 _atom_site_occupancy
  Nd  Nd0  1  0.132647  0.132647  0.000000  1
  Nd  Nd1  1  0.867353  0.867353  0.000000  1
  Y  Y2  1  0.500000  0.000000  0.500000  1
  Cu  Cu3  1  0.852220  0.668131  0.184089  1
  Cu  Cu4  1  0.484042  0.668131  0.815911  1
  Cu  Cu5  1  0.515958  0.331869  0.184089  1
  Cu  Cu6  1  0.147780  0.331869  0.815911  1
  Sn  Sn7  1  0.795794  0.500000  0.295794  1
  Sn  Sn8  1  0.204206  0.500000  0.704206  1
  Sn  Sn9  1  0.715310  0.215310  0.500000  1
  Sn  Sn10  1  0.284690  0.784690  0.500000  1
