# generated using pymatgen
data_Cs6YHoI12
_symmetry_space_group_name_H-M   'P 1'
_cell_length_a   10.64477845
_cell_length_b   10.65579090
_cell_length_c   8.80796600
_cell_angle_alpha   90.00000000
_cell_angle_beta   90.00000000
_cell_angle_gamma   89.89976727
_symmetry_Int_Tables_number   1
_chemical_formula_structural   Cs6YHoI12
_chemical_formula_sum   'Cs6 Y1 Ho1 I12'
_cell_volume   999.07313611
_cell_formula_units_Z   1
loop_
 _symmetry_equiv_pos_site_id
 _symmetry_equiv_pos_as_xyz
  1  'x, y, z'
loop_
 _atom_site_type_symbol
 _atom_site_label
 _atom_site_symmetry_multiplicity
 _atom_site_fract_x
 _atom_site_fract_y
 _atom_site_fract_z
 _atom_site_occupancy
  Cs  Cs0  1  0.000000  0.000000  0.500000  1
  Cs  Cs1  1  0.000000  0.000000  0.000000  1
  Cs  Cs2  1  0.234094  0.586765  0.500000  1
  Cs  Cs3  1  0.765906  0.413235  0.500000  1
  Cs  Cs4  1  0.412909  0.232126  0.000000  1
  Cs  Cs5  1  0.587091  0.767874  0.000000  1
  Y  Y6  1  0.500000  0.000000  0.500000  1
  Ho  Ho7  1  0.000000  0.500000  0.000000  1
  I  I8  1  0.695149  0.059028  0.744662  1
  I  I9  1  0.304851  0.940972  0.744662  1
  I  I10  1  0.941007  0.694175  0.243290  1
  I  I11  1  0.058993  0.305825  0.243290  1
  I  I12  1  0.304851  0.940972  0.255338  1
  I  I13  1  0.695149  0.059028  0.255338  1
  I  I14  1  0.058993  0.305825  0.756710  1
  I  I15  1  0.941007  0.694175  0.756710  1
  I  I16  1  0.570864  0.724035  0.500000  1
  I  I17  1  0.429136  0.275965  0.500000  1
  I  I18  1  0.275072  0.569694  0.000000  1
  I  I19  1  0.724928  0.430306  0.000000  1
