# generated using pymatgen
data_DyEr7In3Ni
_symmetry_space_group_name_H-M   'P 1'
_cell_length_a   10.36890502
_cell_length_b   10.36890462
_cell_length_c   6.90878302
_cell_angle_alpha   90.00749523
_cell_angle_beta   89.99250504
_cell_angle_gamma   119.99990385
_symmetry_Int_Tables_number   1
_chemical_formula_structural   DyEr7In3Ni
_chemical_formula_sum   'Dy2 Er14 In6 Ni2'
_cell_volume   643.27752261
_cell_formula_units_Z   2
loop_
 _symmetry_equiv_pos_site_id
 _symmetry_equiv_pos_as_xyz
  1  'x, y, z'
loop_
 _atom_site_type_symbol
 _atom_site_label
 _atom_site_symmetry_multiplicity
 _atom_site_fract_x
 _atom_site_fract_y
 _atom_site_fract_z
 _atom_site_occupancy
  Dy  Dy0  1  0.532242  0.064898  0.524216  1
  Dy  Dy1  1  0.935102  0.467758  0.524216  1
  Er  Er2  1  0.532678  0.467322  0.525100  1
  Er  Er3  1  0.467404  0.934428  0.024355  1
  Er  Er4  1  0.065572  0.532596  0.024355  1
  Er  Er5  1  0.467344  0.532656  0.025038  1
  Er  Er6  1  0.177787  0.354939  0.731199  1
  Er  Er7  1  0.645061  0.822213  0.731199  1
  Er  Er8  1  0.177182  0.822818  0.731497  1
  Er  Er9  1  0.822478  0.645184  0.230422  1
  Er  Er10  1  0.354816  0.177522  0.230422  1
  Er  Er11  1  0.822851  0.177149  0.230279  1
  Er  Er12  1  0.666474  0.333526  0.909510  1
  Er  Er13  1  0.333561  0.666439  0.408748  1
  Er  Er14  1  0.999936  0.000064  0.507061  1
  Er  Er15  1  0.000011  0.999989  0.007523  1
  In  In16  1  0.837264  0.674698  0.766249  1
  In  In17  1  0.325302  0.162736  0.766249  1
  In  In18  1  0.837370  0.162630  0.766752  1
  In  In19  1  0.162721  0.325501  0.266053  1
  In  In20  1  0.674499  0.837279  0.266053  1
  In  In21  1  0.162859  0.837141  0.266021  1
  Ni  Ni22  1  0.666269  0.333731  0.296192  1
  Ni  Ni23  1  0.333221  0.666779  0.796974  1
