# generated using pymatgen
data_TbDy4(Th3Ru2)3
_symmetry_space_group_name_H-M   'P 1'
_cell_length_a   9.78841071
_cell_length_b   9.92125772
_cell_length_c   6.36503661
_cell_angle_alpha   90.08171670
_cell_angle_beta   90.22285909
_cell_angle_gamma   120.54382343
_symmetry_Int_Tables_number   1
_chemical_formula_structural   TbDy4(Th3Ru2)3
_chemical_formula_sum   'Tb1 Dy4 Th9 Ru6'
_cell_volume   532.35053648
_cell_formula_units_Z   1
loop_
 _symmetry_equiv_pos_site_id
 _symmetry_equiv_pos_as_xyz
  1  'x, y, z'
loop_
 _atom_site_type_symbol
 _atom_site_label
 _atom_site_symmetry_multiplicity
 _atom_site_fract_x
 _atom_site_fract_y
 _atom_site_fract_z
 _atom_site_occupancy
  Tb  Tb0  1  0.460191  0.536380  0.298346  1
  Dy  Dy1  1  0.073010  0.535119  0.301241  1
  Dy  Dy2  1  0.924004  0.459979  0.798765  1
  Dy  Dy3  1  0.250954  0.125300  0.508766  1
  Dy  Dy4  1  0.541088  0.078480  0.794637  1
  Th  Th5  1  0.748465  0.876053  0.011826  1
  Th  Th6  1  0.666211  0.332041  0.271161  1
  Th  Th7  1  0.127675  0.873215  0.004880  1
  Th  Th8  1  0.459328  0.922765  0.301222  1
  Th  Th9  1  0.536937  0.460729  0.797108  1
  Th  Th10  1  0.879694  0.131804  0.513281  1
  Th  Th11  1  0.125316  0.250337  0.011614  1
  Th  Th12  1  0.876394  0.747962  0.507765  1
  Th  Th13  1  0.332958  0.666645  0.771150  1
  Ru  Ru14  1  0.809739  0.629953  0.045751  1
  Ru  Ru15  1  0.818482  0.181433  0.052363  1
  Ru  Ru16  1  0.632911  0.820431  0.542863  1
  Ru  Ru17  1  0.371623  0.189584  0.041250  1
  Ru  Ru18  1  0.182083  0.374471  0.560997  1
  Ru  Ru19  1  0.182936  0.807315  0.549006  1
