# generated using pymatgen
data_Hf3CdC2
_symmetry_space_group_name_H-M   'P 1'
_cell_length_a   3.30432100
_cell_length_b   3.30432131
_cell_length_c   20.43776500
_cell_angle_alpha   90.00000000
_cell_angle_beta   90.00000000
_cell_angle_gamma   120.00000689
_symmetry_Int_Tables_number   1
_chemical_formula_structural   Hf3CdC2
_chemical_formula_sum   'Hf6 Cd2 C4'
_cell_volume   193.25400575
_cell_formula_units_Z   2
loop_
 _symmetry_equiv_pos_site_id
 _symmetry_equiv_pos_as_xyz
  1  'x, y, z'
loop_
 _atom_site_type_symbol
 _atom_site_label
 _atom_site_symmetry_multiplicity
 _atom_site_fract_x
 _atom_site_fract_y
 _atom_site_fract_z
 _atom_site_occupancy
  Hf  Hf0  1  0.000000  0.000000  0.000000  1
  Hf  Hf1  1  0.333333  0.666667  0.124875  1
  Hf  Hf2  1  0.333333  0.666667  0.375125  1
  Hf  Hf3  1  0.000000  0.000000  0.500000  1
  Hf  Hf4  1  0.666666  0.333333  0.624875  1
  Hf  Hf5  1  0.666666  0.333333  0.875125  1
  Cd  Cd6  1  0.000000  0.000000  0.250000  1
  Cd  Cd7  1  0.000000  0.000000  0.750000  1
  C  C8  1  0.666666  0.333333  0.068020  1
  C  C9  1  0.666666  0.333333  0.431980  1
  C  C10  1  0.333333  0.666667  0.568020  1
  C  C11  1  0.333333  0.666667  0.931980  1
