# generated using pymatgen
data_Ce7U3GeSe20
_symmetry_space_group_name_H-M   'P 1'
_cell_length_a   10.71242857
_cell_length_b   10.76373841
_cell_length_c   6.72288300
_cell_angle_alpha   89.96881765
_cell_angle_beta   90.01870382
_cell_angle_gamma   89.20130521
_symmetry_Int_Tables_number   1
_chemical_formula_structural   Ce7U3GeSe20
_chemical_formula_sum   'Ce7 U3 Ge1 Se20'
_cell_volume   775.11178648
_cell_formula_units_Z   1
loop_
 _symmetry_equiv_pos_site_id
 _symmetry_equiv_pos_as_xyz
  1  'x, y, z'
loop_
 _atom_site_type_symbol
 _atom_site_label
 _atom_site_symmetry_multiplicity
 _atom_site_fract_x
 _atom_site_fract_y
 _atom_site_fract_z
 _atom_site_occupancy
  Ce  Ce0  1  0.849335  0.350918  0.747878  1
  Ce  Ce1  1  0.154825  0.652007  0.752985  1
  Ce  Ce2  1  0.155996  0.356995  0.256773  1
  Ce  Ce3  1  0.657943  0.842316  0.749581  1
  Ce  Ce4  1  0.652891  0.155746  0.242408  1
  Ce  Ce5  1  0.357122  0.838414  0.254805  1
  Ce  Ce6  1  0.349837  0.159172  0.750921  1
  U  U7  1  0.495687  0.501311  0.641301  1
  U  U8  1  0.001903  0.004333  0.862134  1
  U  U9  1  0.001738  0.996122  0.359602  1
  Ge  Ge10  1  0.806570  0.601462  0.234857  1
  Se  Se11  1  0.291207  0.589500  0.389887  1
  Se  Se12  1  0.286952  0.414851  0.874891  1
  Se  Se13  1  0.708520  0.584107  0.860692  1
  Se  Se14  1  0.701662  0.406706  0.386608  1
  Se  Se15  1  0.587301  0.292869  0.870371  1
  Se  Se16  1  0.588318  0.702531  0.396013  1
  Se  Se17  1  0.411570  0.294577  0.388687  1
  Se  Se18  1  0.414429  0.707334  0.876700  1
  Se  Se19  1  0.210667  0.917035  0.619445  1
  Se  Se20  1  0.208270  0.092866  0.122722  1
  Se  Se21  1  0.798059  0.915813  0.118225  1
  Se  Se22  1  0.795876  0.088021  0.617190  1
  Se  Se23  1  0.915506  0.210188  0.121969  1
  Se  Se24  1  0.920241  0.799052  0.628159  1
  Se  Se25  1  0.086163  0.207755  0.615586  1
  Se  Se26  1  0.099715  0.801357  0.114283  1
  Se  Se27  1  0.991421  0.509432  0.499873  1
  Se  Se28  1  0.993987  0.508564  0.009222  1
  Se  Se29  1  0.501558  0.997494  0.000003  1
  Se  Se30  1  0.504732  0.001151  0.500231  1
