# generated using pymatgen
data_Sm6CoCl10
_symmetry_space_group_name_H-M   'P 1'
_cell_length_a   7.29470954
_cell_length_b   8.93332204
_cell_length_c   9.12107267
_cell_angle_alpha   109.08753499
_cell_angle_beta   97.03102863
_cell_angle_gamma   105.99870692
_symmetry_Int_Tables_number   1
_chemical_formula_structural   Sm6CoCl10
_chemical_formula_sum   'Sm6 Co1 Cl10'
_cell_volume   524.96249769
_cell_formula_units_Z   1
loop_
 _symmetry_equiv_pos_site_id
 _symmetry_equiv_pos_as_xyz
  1  'x, y, z'
loop_
 _atom_site_type_symbol
 _atom_site_label
 _atom_site_symmetry_multiplicity
 _atom_site_fract_x
 _atom_site_fract_y
 _atom_site_fract_z
 _atom_site_occupancy
  Sm  Sm0  1  0.866357  0.142878  0.192956  1
  Sm  Sm1  1  0.133643  0.857122  0.807044  1
  Sm  Sm2  1  0.532090  0.704661  0.904852  1
  Sm  Sm3  1  0.467910  0.295339  0.095148  1
  Sm  Sm4  1  0.638458  0.058370  0.755522  1
  Sm  Sm5  1  0.361542  0.941630  0.244478  1
  Co  Co6  1  0.500000  0.000000  0.000000  1
  Cl  Cl7  1  0.736977  0.080285  0.450892  1
  Cl  Cl8  1  0.263023  0.919715  0.549108  1
  Cl  Cl9  1  0.950916  0.826113  0.073227  1
  Cl  Cl10  1  0.049084  0.173887  0.926773  1
  Cl  Cl11  1  0.289904  0.247881  0.342544  1
  Cl  Cl12  1  0.710096  0.752119  0.657456  1
  Cl  Cl13  1  0.591143  0.372804  0.839239  1
  Cl  Cl14  1  0.408857  0.627196  0.160761  1
  Cl  Cl15  1  0.846154  0.455219  0.274389  1
  Cl  Cl16  1  0.153846  0.544781  0.725611  1
