# generated using pymatgen
data_Yb6YPa(Si4Mo3)4
_symmetry_space_group_name_H-M   'P 1'
_cell_length_a   6.75410403
_cell_length_b   6.95635141
_cell_length_c   12.99384465
_cell_angle_alpha   89.97729124
_cell_angle_beta   90.09385812
_cell_angle_gamma   89.87161421
_symmetry_Int_Tables_number   1
_chemical_formula_structural   Yb6YPa(Si4Mo3)4
_chemical_formula_sum   'Yb6 Y1 Pa1 Si16 Mo12'
_cell_volume   610.49937084
_cell_formula_units_Z   1
loop_
 _symmetry_equiv_pos_site_id
 _symmetry_equiv_pos_as_xyz
  1  'x, y, z'
loop_
 _atom_site_type_symbol
 _atom_site_label
 _atom_site_symmetry_multiplicity
 _atom_site_fract_x
 _atom_site_fract_y
 _atom_site_fract_z
 _atom_site_occupancy
  Yb  Yb0  1  0.495696  0.335398  0.090366  1
  Yb  Yb1  1  0.996470  0.163851  0.410128  1
  Yb  Yb2  1  0.501143  0.668570  0.592593  1
  Yb  Yb3  1  0.001746  0.832399  0.907418  1
  Yb  Yb4  1  0.501321  0.667988  0.907933  1
  Yb  Yb5  1  0.001374  0.832522  0.591162  1
  Y  Y6  1  0.498003  0.333463  0.408563  1
  Pa  Pa7  1  0.996904  0.167918  0.094151  1
  Si  Si8  1  0.658633  0.041661  0.545435  1
  Si  Si9  1  0.160166  0.459222  0.955074  1
  Si  Si10  1  0.342245  0.956611  0.046403  1
  Si  Si11  1  0.843067  0.541835  0.452733  1
  Si  Si12  1  0.341737  0.956955  0.453367  1
  Si  Si13  1  0.839402  0.546535  0.045645  1
  Si  Si14  1  0.657976  0.042446  0.953599  1
  Si  Si15  1  0.158834  0.458088  0.545563  1
  Si  Si16  1  0.534685  0.373321  0.750847  1
  Si  Si17  1  0.034896  0.124622  0.748744  1
  Si  Si18  1  0.466487  0.633218  0.247664  1
  Si  Si19  1  0.965811  0.866459  0.251448  1
  Si  Si20  1  0.801596  0.628858  0.749746  1
  Si  Si21  1  0.302055  0.871043  0.750227  1
  Si  Si22  1  0.198786  0.370819  0.251149  1
  Si  Si23  1  0.693144  0.129783  0.251684  1
  Mo  Mo24  1  0.834582  0.330961  0.627446  1
  Mo  Mo25  1  0.332217  0.168233  0.874030  1
  Mo  Mo26  1  0.166776  0.664512  0.126139  1
  Mo  Mo27  1  0.666620  0.831483  0.373819  1
  Mo  Mo28  1  0.168965  0.666236  0.373075  1
  Mo  Mo29  1  0.673098  0.840188  0.126173  1
  Mo  Mo30  1  0.838394  0.328034  0.874394  1
  Mo  Mo31  1  0.334245  0.169790  0.627339  1
  Mo  Mo32  1  0.661586  0.010083  0.749776  1
  Mo  Mo33  1  0.161537  0.489808  0.750540  1
  Mo  Mo34  1  0.333154  0.999254  0.248699  1
  Mo  Mo35  1  0.836646  0.497825  0.246927  1
