# generated using pymatgen
data_La2Nd3IrOs
_symmetry_space_group_name_H-M   'P 1'
_cell_length_a   9.07859987
_cell_length_b   9.07859891
_cell_length_c   7.38464106
_cell_angle_alpha   84.37416424
_cell_angle_beta   84.37416420
_cell_angle_gamma   43.34050898
_symmetry_Int_Tables_number   1
_chemical_formula_structural   La2Nd3IrOs
_chemical_formula_sum   'La4 Nd6 Ir2 Os2'
_cell_volume   415.40522188
_cell_formula_units_Z   2
loop_
 _symmetry_equiv_pos_site_id
 _symmetry_equiv_pos_as_xyz
  1  'x, y, z'
loop_
 _atom_site_type_symbol
 _atom_site_label
 _atom_site_symmetry_multiplicity
 _atom_site_fract_x
 _atom_site_fract_y
 _atom_site_fract_z
 _atom_site_occupancy
  La  La0  1  0.020193  0.794451  0.909641  1
  La  La1  1  0.205549  0.979807  0.590359  1
  La  La2  1  0.986489  0.200333  0.085965  1
  La  La3  1  0.799667  0.013511  0.414035  1
  Nd  Nd4  1  0.354741  0.211070  0.816884  1
  Nd  Nd5  1  0.788930  0.645259  0.683116  1
  Nd  Nd6  1  0.641577  0.789187  0.181245  1
  Nd  Nd7  1  0.210813  0.358423  0.318755  1
  Nd  Nd8  1  0.568830  0.431170  0.750000  1
  Nd  Nd9  1  0.431151  0.568849  0.250000  1
  Ir  Ir10  1  0.825964  0.398446  0.421218  1
  Ir  Ir11  1  0.601554  0.174036  0.078782  1
  Os  Os12  1  0.171209  0.606668  0.577428  1
  Os  Os13  1  0.393332  0.828791  0.922572  1
