# generated using pymatgen
data_Y6Ho4InPb5
_symmetry_space_group_name_H-M   'P 1'
_cell_length_a   9.04112800
_cell_length_b   9.04501974
_cell_length_c   6.66547400
_cell_angle_alpha   90.00000000
_cell_angle_beta   90.00000000
_cell_angle_gamma   119.98576802
_symmetry_Int_Tables_number   1
_chemical_formula_structural   Y6Ho4InPb5
_chemical_formula_sum   'Y6 Ho4 In1 Pb5'
_cell_volume   472.12399347
_cell_formula_units_Z   1
loop_
 _symmetry_equiv_pos_site_id
 _symmetry_equiv_pos_as_xyz
  1  'x, y, z'
loop_
 _atom_site_type_symbol
 _atom_site_label
 _atom_site_symmetry_multiplicity
 _atom_site_fract_x
 _atom_site_fract_y
 _atom_site_fract_z
 _atom_site_occupancy
  Y  Y0  1  0.239399  0.000000  0.250000  1
  Y  Y1  1  0.237919  0.237667  0.750000  1
  Y  Y2  1  0.000252  0.762333  0.750000  1
  Y  Y3  1  0.995891  0.235037  0.250000  1
  Y  Y4  1  0.760855  0.764963  0.250000  1
  Y  Y5  1  0.761959  0.000000  0.750000  1
  Ho  Ho6  1  0.335946  0.669661  0.001717  1
  Ho  Ho7  1  0.666285  0.330339  0.498283  1
  Ho  Ho8  1  0.666285  0.330339  0.001717  1
  Ho  Ho9  1  0.335946  0.669661  0.498283  1
  In  In10  1  0.603292  0.000000  0.250000  1
  Pb  Pb11  1  0.604954  0.604114  0.750000  1
  Pb  Pb12  1  0.000839  0.395886  0.750000  1
  Pb  Pb13  1  0.999898  0.605228  0.250000  1
  Pb  Pb14  1  0.394669  0.394772  0.250000  1
  Pb  Pb15  1  0.395610  0.000000  0.750000  1
