# generated using pymatgen
data_YbHo3FeOs7
_symmetry_space_group_name_H-M   'P 1'
_cell_length_a   5.25089180
_cell_length_b   5.25138516
_cell_length_c   8.83926723
_cell_angle_alpha   90.15737306
_cell_angle_beta   90.15414819
_cell_angle_gamma   60.34418151
_symmetry_Int_Tables_number   1
_chemical_formula_structural   YbHo3FeOs7
_chemical_formula_sum   'Yb1 Ho3 Fe1 Os7'
_cell_volume   211.81050053
_cell_formula_units_Z   1
loop_
 _symmetry_equiv_pos_site_id
 _symmetry_equiv_pos_as_xyz
  1  'x, y, z'
loop_
 _atom_site_type_symbol
 _atom_site_label
 _atom_site_symmetry_multiplicity
 _atom_site_fract_x
 _atom_site_fract_y
 _atom_site_fract_z
 _atom_site_occupancy
  Yb  Yb0  1  0.330938  0.331388  0.562059  1
  Ho  Ho1  1  0.666645  0.667079  0.437656  1
  Ho  Ho2  1  0.667363  0.667584  0.067091  1
  Ho  Ho3  1  0.331333  0.331646  0.931186  1
  Fe  Fe4  1  0.169230  0.169241  0.249748  1
  Os  Os5  1  0.995413  0.996160  0.498396  1
  Os  Os6  1  0.997297  0.997770  0.003019  1
  Os  Os7  1  0.827252  0.345358  0.750274  1
  Os  Os8  1  0.347088  0.826311  0.750333  1
  Os  Os9  1  0.833097  0.833013  0.750155  1
  Os  Os10  1  0.178040  0.656376  0.250034  1
  Os  Os11  1  0.656307  0.178072  0.250044  1
