# generated using pymatgen
data_HfSc2Ga2SiRu3
_symmetry_space_group_name_H-M   'P 1'
_cell_length_a   7.07459800
_cell_length_b   7.09420813
_cell_length_c   3.34099900
_cell_angle_alpha   90.00000000
_cell_angle_beta   90.00000000
_cell_angle_gamma   119.90860154
_symmetry_Int_Tables_number   1
_chemical_formula_structural   HfSc2Ga2SiRu3
_chemical_formula_sum   'Hf1 Sc2 Ga2 Si1 Ru3'
_cell_volume   145.34895560
_cell_formula_units_Z   1
loop_
 _symmetry_equiv_pos_site_id
 _symmetry_equiv_pos_as_xyz
  1  'x, y, z'
loop_
 _atom_site_type_symbol
 _atom_site_label
 _atom_site_symmetry_multiplicity
 _atom_site_fract_x
 _atom_site_fract_y
 _atom_site_fract_z
 _atom_site_occupancy
  Hf  Hf0  1  0.393891  0.000000  0.500000  1
  Sc  Sc1  1  0.999935  0.394025  0.500000  1
  Sc  Sc2  1  0.605910  0.605975  0.500000  1
  Ga  Ga3  1  0.331813  0.662125  0.000000  1
  Ga  Ga4  1  0.669689  0.337875  0.000000  1
  Si  Si5  1  0.997095  0.000000  0.500000  1
  Ru  Ru6  1  0.005259  0.756175  0.000000  1
  Ru  Ru7  1  0.249084  0.243825  0.000000  1
  Ru  Ru8  1  0.747322  0.000000  0.000000  1
