# generated using pymatgen
data_TbDy7(NiAg)2
_symmetry_space_group_name_H-M   'P 1'
_cell_length_a   9.45617606
_cell_length_b   9.45617519
_cell_length_c   9.46421400
_cell_angle_alpha   59.97187454
_cell_angle_beta   59.97187756
_cell_angle_gamma   60.02312742
_symmetry_Int_Tables_number   1
_chemical_formula_structural   TbDy7(NiAg)2
_chemical_formula_sum   'Tb2 Dy14 Ni4 Ag4'
_cell_volume   598.26232267
_cell_formula_units_Z   2
loop_
 _symmetry_equiv_pos_site_id
 _symmetry_equiv_pos_as_xyz
  1  'x, y, z'
loop_
 _atom_site_type_symbol
 _atom_site_label
 _atom_site_symmetry_multiplicity
 _atom_site_fract_x
 _atom_site_fract_y
 _atom_site_fract_z
 _atom_site_occupancy
  Tb  Tb0  1  0.600717  0.600717  0.600053  1
  Tb  Tb1  1  0.600717  0.600717  0.198516  1
  Dy  Dy2  1  0.602170  0.197080  0.600376  1
  Dy  Dy3  1  0.197080  0.602170  0.600376  1
  Dy  Dy4  1  0.061602  0.437876  0.438815  1
  Dy  Dy5  1  0.437876  0.061602  0.061708  1
  Dy  Dy6  1  0.437876  0.061602  0.438815  1
  Dy  Dy7  1  0.061602  0.437876  0.061708  1
  Dy  Dy8  1  0.438558  0.438558  0.061442  1
  Dy  Dy9  1  0.061332  0.061332  0.438668  1
  Dy  Dy10  1  0.185019  0.814941  0.814842  1
  Dy  Dy11  1  0.814941  0.185019  0.185198  1
  Dy  Dy12  1  0.814941  0.185019  0.814842  1
  Dy  Dy13  1  0.185019  0.814941  0.185198  1
  Dy  Dy14  1  0.815002  0.815002  0.184998  1
  Dy  Dy15  1  0.185432  0.185432  0.814568  1
  Ni  Ni16  1  0.392716  0.392716  0.393967  1
  Ni  Ni17  1  0.392716  0.392716  0.820600  1
  Ni  Ni18  1  0.392399  0.821746  0.392927  1
  Ni  Ni19  1  0.821746  0.392399  0.392927  1
  Ag  Ag20  1  0.832046  0.832046  0.832028  1
  Ag  Ag21  1  0.832046  0.832046  0.503880  1
  Ag  Ag22  1  0.832111  0.504341  0.831774  1
  Ag  Ag23  1  0.504341  0.832111  0.831774  1
