# generated using pymatgen
data_Y6Si11PIr18
_symmetry_space_group_name_H-M   'P 1'
_cell_length_a   4.01318200
_cell_length_b   11.42712795
_cell_length_c   12.80381593
_cell_angle_alpha   89.71519873
_cell_angle_beta   90.00000000
_cell_angle_gamma   90.00000000
_symmetry_Int_Tables_number   1
_chemical_formula_structural   Y6Si11PIr18
_chemical_formula_sum   'Y6 Si11 P1 Ir18'
_cell_volume   587.16478715
_cell_formula_units_Z   1
loop_
 _symmetry_equiv_pos_site_id
 _symmetry_equiv_pos_as_xyz
  1  'x, y, z'
loop_
 _atom_site_type_symbol
 _atom_site_label
 _atom_site_symmetry_multiplicity
 _atom_site_fract_x
 _atom_site_fract_y
 _atom_site_fract_z
 _atom_site_occupancy
  Y  Y0  1  0.000000  0.498591  0.524958  1
  Y  Y1  1  0.500000  0.000455  0.474370  1
  Y  Y2  1  0.500000  0.816569  0.205283  1
  Y  Y3  1  0.500000  0.180367  0.205130  1
  Y  Y4  1  0.000000  0.682263  0.796035  1
  Y  Y5  1  0.000000  0.318953  0.793259  1
  Si  Si6  1  0.500000  0.499506  0.878449  1
  Si  Si7  1  0.000000  0.998568  0.122953  1
  Si  Si8  1  0.500000  0.500879  0.344121  1
  Si  Si9  1  0.000000  0.000407  0.657345  1
  Si  Si10  1  0.500000  0.306280  0.616133  1
  Si  Si11  1  0.500000  0.694181  0.618653  1
  Si  Si12  1  0.000000  0.195676  0.380588  1
  Si  Si13  1  0.000000  0.805906  0.382759  1
  Si  Si14  1  0.500000  0.847871  0.894446  1
  Si  Si15  1  0.500000  0.153157  0.894228  1
  Si  Si16  1  0.000000  0.652168  0.106025  1
  P  P17  1  0.000000  0.340785  0.103037  1
  Ir  Ir18  1  0.500000  0.508983  0.158476  1
  Ir  Ir19  1  0.000000  0.999836  0.843839  1
  Ir  Ir20  1  0.500000  0.499213  0.693316  1
  Ir  Ir21  1  0.000000  0.000662  0.307813  1
  Ir  Ir22  1  0.000000  0.496398  0.986413  1
  Ir  Ir23  1  0.500000  0.000058  0.018301  1
  Ir  Ir24  1  0.500000  0.332020  0.994898  1
  Ir  Ir25  1  0.500000  0.667141  0.987223  1
  Ir  Ir26  1  0.000000  0.167593  0.009745  1
  Ir  Ir27  1  0.000000  0.831319  0.011790  1
  Ir  Ir28  1  0.500000  0.302964  0.427298  1
  Ir  Ir29  1  0.500000  0.699275  0.430802  1
  Ir  Ir30  1  0.000000  0.199294  0.568550  1
  Ir  Ir31  1  0.000000  0.801643  0.570518  1
  Ir  Ir32  1  0.500000  0.878992  0.711750  1
  Ir  Ir33  1  0.500000  0.122575  0.711813  1
  Ir  Ir34  1  0.000000  0.621818  0.289459  1
  Ir  Ir35  1  0.000000  0.377635  0.280221  1
