# generated using pymatgen
data_Y3Si5
_symmetry_space_group_name_H-M   'P 1'
_cell_length_a   6.68277200
_cell_length_b   6.68277122
_cell_length_c   8.29278000
_cell_angle_alpha   90.00000000
_cell_angle_beta   90.00000000
_cell_angle_gamma   119.99999395
_symmetry_Int_Tables_number   1
_chemical_formula_structural   Y3Si5
_chemical_formula_sum   'Y6 Si10'
_cell_volume   320.73329091
_cell_formula_units_Z   2
loop_
 _symmetry_equiv_pos_site_id
 _symmetry_equiv_pos_as_xyz
  1  'x, y, z'
loop_
 _atom_site_type_symbol
 _atom_site_label
 _atom_site_symmetry_multiplicity
 _atom_site_fract_x
 _atom_site_fract_y
 _atom_site_fract_z
 _atom_site_occupancy
  Y  Y0  1  0.330670  0.000000  0.000000  1
  Y  Y1  1  0.330670  0.000000  0.500000  1
  Y  Y2  1  0.000000  0.330670  0.500000  1
  Y  Y3  1  0.000000  0.330670  0.000000  1
  Y  Y4  1  0.669330  0.669330  0.000000  1
  Y  Y5  1  0.669330  0.669330  0.500000  1
  Si  Si6  1  0.380334  0.331379  0.250000  1
  Si  Si7  1  0.668621  0.048955  0.250000  1
  Si  Si8  1  0.951045  0.619666  0.250000  1
  Si  Si9  1  0.619666  0.951045  0.750000  1
  Si  Si10  1  0.000000  0.000000  0.250000  1
  Si  Si11  1  0.666667  0.333333  0.750000  1
  Si  Si12  1  0.048955  0.668621  0.750000  1
  Si  Si13  1  0.331379  0.380334  0.750000  1
  Si  Si14  1  0.333333  0.666667  0.250000  1
  Si  Si15  1  0.000000  0.000000  0.750000  1
