# generated using pymatgen
data_Li3Dy4ZnSi6
_symmetry_space_group_name_H-M   'P 1'
_cell_length_a   9.23655856
_cell_length_b   9.23655704
_cell_length_c   6.70046552
_cell_angle_alpha   90.43391238
_cell_angle_beta   89.56608593
_cell_angle_gamma   153.41205601
_symmetry_Int_Tables_number   1
_chemical_formula_structural   Li3Dy4ZnSi6
_chemical_formula_sum   'Li3 Dy4 Zn1 Si6'
_cell_volume   255.84327465
_cell_formula_units_Z   1
loop_
 _symmetry_equiv_pos_site_id
 _symmetry_equiv_pos_as_xyz
  1  'x, y, z'
loop_
 _atom_site_type_symbol
 _atom_site_label
 _atom_site_symmetry_multiplicity
 _atom_site_fract_x
 _atom_site_fract_y
 _atom_site_fract_z
 _atom_site_occupancy
  Li  Li0  1  0.189845  0.810155  0.439035  1
  Li  Li1  1  0.190751  0.809249  0.060841  1
  Li  Li2  1  0.810573  0.189427  0.939882  1
  Dy  Dy3  1  0.550915  0.449085  0.251320  1
  Dy  Dy4  1  0.449120  0.550880  0.751469  1
  Dy  Dy5  1  0.345823  0.654177  0.249415  1
  Dy  Dy6  1  0.652858  0.347142  0.746888  1
  Zn  Zn7  1  0.808783  0.191217  0.557856  1
  Si  Si8  1  0.939844  0.060156  0.070240  1
  Si  Si9  1  0.059998  0.940002  0.930226  1
  Si  Si10  1  0.058858  0.941142  0.573773  1
  Si  Si11  1  0.940510  0.059490  0.426791  1
  Si  Si12  1  0.721494  0.278506  0.251286  1
  Si  Si13  1  0.280628  0.719372  0.750977  1
