# generated using pymatgen
data_Hf4ZnIn2Rh3
_symmetry_space_group_name_H-M   'P 1'
_cell_length_a   7.50529455
_cell_length_b   7.50529473
_cell_length_c   6.72169900
_cell_angle_alpha   90.00000000
_cell_angle_beta   90.00000000
_cell_angle_gamma   89.87992404
_symmetry_Int_Tables_number   1
_chemical_formula_structural   Hf4ZnIn2Rh3
_chemical_formula_sum   'Hf8 Zn2 In4 Rh6'
_cell_volume   378.62876051
_cell_formula_units_Z   2
loop_
 _symmetry_equiv_pos_site_id
 _symmetry_equiv_pos_as_xyz
  1  'x, y, z'
loop_
 _atom_site_type_symbol
 _atom_site_label
 _atom_site_symmetry_multiplicity
 _atom_site_fract_x
 _atom_site_fract_y
 _atom_site_fract_z
 _atom_site_occupancy
  Hf  Hf0  1  0.150993  0.173944  0.000000  1
  Hf  Hf1  1  0.826056  0.849007  0.000000  1
  Hf  Hf2  1  0.664317  0.335683  0.500000  1
  Hf  Hf3  1  0.354660  0.645340  0.500000  1
  Hf  Hf4  1  0.673829  0.326171  0.000000  1
  Hf  Hf5  1  0.338689  0.661311  0.000000  1
  Hf  Hf6  1  0.806795  0.832458  0.500000  1
  Hf  Hf7  1  0.167542  0.193205  0.500000  1
  Zn  Zn8  1  0.129801  0.870199  0.273703  1
  Zn  Zn9  1  0.129801  0.870199  0.726297  1
  In  In10  1  0.493113  0.000375  0.249096  1
  In  In11  1  0.493113  0.000375  0.750904  1
  In  In12  1  0.999625  0.506887  0.249096  1
  In  In13  1  0.999625  0.506887  0.750904  1
  Rh  Rh14  1  0.371043  0.365643  0.235321  1
  Rh  Rh15  1  0.634357  0.628957  0.764679  1
  Rh  Rh16  1  0.634357  0.628957  0.235321  1
  Rh  Rh17  1  0.880620  0.119380  0.737490  1
  Rh  Rh18  1  0.880620  0.119380  0.262510  1
  Rh  Rh19  1  0.371043  0.365643  0.764679  1
