# generated using pymatgen
data_DyPa(BrN)2
_symmetry_space_group_name_H-M   'P 1'
_cell_length_a   10.86856070
_cell_length_b   10.86856108
_cell_length_c   10.86856181
_cell_angle_alpha   20.76040365
_cell_angle_beta   20.76039816
_cell_angle_gamma   20.76039895
_symmetry_Int_Tables_number   1
_chemical_formula_structural   DyPa(BrN)2
_chemical_formula_sum   'Dy1 Pa1 Br2 N2'
_cell_volume   141.22361707
_cell_formula_units_Z   1
loop_
 _symmetry_equiv_pos_site_id
 _symmetry_equiv_pos_as_xyz
  1  'x, y, z'
loop_
 _atom_site_type_symbol
 _atom_site_label
 _atom_site_symmetry_multiplicity
 _atom_site_fract_x
 _atom_site_fract_y
 _atom_site_fract_z
 _atom_site_occupancy
  Dy  Dy0  1  0.786930  0.786930  0.786930  1
  Pa  Pa1  1  0.207588  0.207588  0.207588  1
  Br  Br2  1  0.605843  0.605843  0.605843  1
  Br  Br3  1  0.393430  0.393430  0.393430  1
  N  N4  1  0.863456  0.863456  0.863456  1
  N  N5  1  0.142753  0.142753  0.142753  1
