# generated using pymatgen
data_Nd8Hg2IrPt
_symmetry_space_group_name_H-M   'P 1'
_cell_length_a   9.96247883
_cell_length_b   9.96243489
_cell_length_c   9.94805246
_cell_angle_alpha   60.14348571
_cell_angle_beta   60.18132664
_cell_angle_gamma   60.32664062
_symmetry_Int_Tables_number   1
_chemical_formula_structural   Nd8Hg2IrPt
_chemical_formula_sum   'Nd16 Hg4 Ir2 Pt2'
_cell_volume   701.59021722
_cell_formula_units_Z   2
loop_
 _symmetry_equiv_pos_site_id
 _symmetry_equiv_pos_as_xyz
  1  'x, y, z'
loop_
 _atom_site_type_symbol
 _atom_site_label
 _atom_site_symmetry_multiplicity
 _atom_site_fract_x
 _atom_site_fract_y
 _atom_site_fract_z
 _atom_site_occupancy
  Nd  Nd0  1  0.350202  0.350356  0.346960  1
  Nd  Nd1  1  0.352711  0.352555  0.947807  1
  Nd  Nd2  1  0.356559  0.942618  0.351490  1
  Nd  Nd3  1  0.942427  0.356607  0.351618  1
  Nd  Nd4  1  0.806309  0.190873  0.190060  1
  Nd  Nd5  1  0.189559  0.805011  0.812488  1
  Nd  Nd6  1  0.190884  0.806391  0.189941  1
  Nd  Nd7  1  0.805054  0.189444  0.812420  1
  Nd  Nd8  1  0.191216  0.191048  0.809381  1
  Nd  Nd9  1  0.810138  0.810023  0.187281  1
  Nd  Nd10  1  0.940311  0.564403  0.560742  1
  Nd  Nd11  1  0.562124  0.938955  0.937773  1
  Nd  Nd12  1  0.564291  0.940186  0.560794  1
  Nd  Nd13  1  0.938942  0.562238  0.937718  1
  Nd  Nd14  1  0.562702  0.562834  0.939551  1
  Nd  Nd15  1  0.939159  0.939084  0.559945  1
  Hg  Hg16  1  0.584197  0.584207  0.583874  1
  Hg  Hg17  1  0.584301  0.584285  0.246403  1
  Hg  Hg18  1  0.583669  0.247215  0.584693  1
  Hg  Hg19  1  0.247205  0.583655  0.584692  1
  Ir  Ir20  1  0.141328  0.572369  0.143597  1
  Ir  Ir21  1  0.572412  0.141351  0.143630  1
  Pt  Pt22  1  0.142648  0.142602  0.145601  1
  Pt  Pt23  1  0.141652  0.141691  0.571540  1
