# generated using pymatgen
data_Yb2Zn3Pd
_symmetry_space_group_name_H-M   'P 1'
_cell_length_a   5.39759200
_cell_length_b   5.39759218
_cell_length_c   9.11959000
_cell_angle_alpha   90.00000000
_cell_angle_beta   90.00000000
_cell_angle_gamma   119.99999889
_symmetry_Int_Tables_number   1
_chemical_formula_structural   Yb2Zn3Pd
_chemical_formula_sum   'Yb4 Zn6 Pd2'
_cell_volume   230.09441202
_cell_formula_units_Z   2
loop_
 _symmetry_equiv_pos_site_id
 _symmetry_equiv_pos_as_xyz
  1  'x, y, z'
loop_
 _atom_site_type_symbol
 _atom_site_label
 _atom_site_symmetry_multiplicity
 _atom_site_fract_x
 _atom_site_fract_y
 _atom_site_fract_z
 _atom_site_occupancy
  Yb  Yb0  1  0.666666  0.333332  0.056827  1
  Yb  Yb1  1  0.666666  0.333332  0.443173  1
  Yb  Yb2  1  0.333334  0.666667  0.556827  1
  Yb  Yb3  1  0.333334  0.666667  0.943173  1
  Zn  Zn4  1  0.165642  0.331285  0.249999  1
  Zn  Zn5  1  0.165642  0.834357  0.249999  1
  Zn  Zn6  1  0.668715  0.834357  0.249999  1
  Zn  Zn7  1  0.331285  0.165642  0.749999  1
  Zn  Zn8  1  0.834358  0.165642  0.749999  1
  Zn  Zn9  1  0.834357  0.668714  0.749999  1
  Pd  Pd10  1  0.000000  0.000000  0.000000  1
  Pd  Pd11  1  0.000000  0.000000  0.500000  1
