# generated using pymatgen
data_Sm2Ho4Tm4In8PdPt3
_symmetry_space_group_name_H-M   'P 1'
_cell_length_a   3.61046200
_cell_length_b   8.16646700
_cell_length_c   18.25692400
_cell_angle_alpha   90.00000000
_cell_angle_beta   90.00000000
_cell_angle_gamma   90.00000000
_symmetry_Int_Tables_number   1
_chemical_formula_structural   Sm2Ho4Tm4In8PdPt3
_chemical_formula_sum   'Sm2 Ho4 Tm4 In8 Pd1 Pt3'
_cell_volume   538.30026989
_cell_formula_units_Z   1
loop_
 _symmetry_equiv_pos_site_id
 _symmetry_equiv_pos_as_xyz
  1  'x, y, z'
loop_
 _atom_site_type_symbol
 _atom_site_label
 _atom_site_symmetry_multiplicity
 _atom_site_fract_x
 _atom_site_fract_y
 _atom_site_fract_z
 _atom_site_occupancy
  Sm  Sm0  1  0.000000  0.999712  0.999951  1
  Sm  Sm1  1  0.000000  0.500165  0.500148  1
  Ho  Ho2  1  0.000000  0.245147  0.218640  1
  Ho  Ho3  1  0.000000  0.757894  0.780337  1
  Ho  Ho4  1  0.000000  0.258077  0.719710  1
  Ho  Ho5  1  0.000000  0.738411  0.280331  1
  Tm  Tm6  1  0.000000  0.119154  0.414806  1
  Tm  Tm7  1  0.000000  0.881357  0.586036  1
  Tm  Tm8  1  0.000000  0.381683  0.913896  1
  Tm  Tm9  1  0.000000  0.618678  0.085822  1
  In  In10  1  0.500000  0.419644  0.349493  1
  In  In11  1  0.500000  0.578663  0.650527  1
  In  In12  1  0.500000  0.078674  0.849433  1
  In  In13  1  0.500000  0.921985  0.151428  1
  In  In14  1  0.500000  0.298100  0.066136  1
  In  In15  1  0.500000  0.701833  0.933780  1
  In  In16  1  0.500000  0.201809  0.566235  1
  In  In17  1  0.500000  0.798959  0.433138  1
  Pd  Pd18  1  0.500000  0.025101  0.304321  1
  Pt  Pt19  1  0.500000  0.974808  0.695705  1
  Pt  Pt20  1  0.500000  0.474781  0.804244  1
  Pt  Pt21  1  0.500000  0.525366  0.195882  1
