# generated using pymatgen
data_La5Dy11Cd4Ir3Pt
_symmetry_space_group_name_H-M   'P 1'
_cell_length_a   9.76540666
_cell_length_b   9.78598795
_cell_length_c   9.78598732
_cell_angle_alpha   60.07844239
_cell_angle_beta   60.14664520
_cell_angle_gamma   60.14664272
_symmetry_Int_Tables_number   1
_chemical_formula_structural   La5Dy11Cd4Ir3Pt
_chemical_formula_sum   'La5 Dy11 Cd4 Ir3 Pt1'
_cell_volume   663.13457838
_cell_formula_units_Z   1
loop_
 _symmetry_equiv_pos_site_id
 _symmetry_equiv_pos_as_xyz
  1  'x, y, z'
loop_
 _atom_site_type_symbol
 _atom_site_label
 _atom_site_symmetry_multiplicity
 _atom_site_fract_x
 _atom_site_fract_y
 _atom_site_fract_z
 _atom_site_occupancy
  La  La0  1  0.803523  0.195856  0.195856  1
  La  La1  1  0.813463  0.189092  0.808477  1
  La  La2  1  0.193104  0.809043  0.187271  1
  La  La3  1  0.813463  0.808477  0.189092  1
  La  La4  1  0.193104  0.187271  0.809043  1
  Dy  Dy5  1  0.597448  0.596784  0.596784  1
  Dy  Dy6  1  0.598736  0.604907  0.204792  1
  Dy  Dy7  1  0.598736  0.204792  0.604907  1
  Dy  Dy8  1  0.200672  0.601270  0.601270  1
  Dy  Dy9  1  0.060118  0.436356  0.436356  1
  Dy  Dy10  1  0.434238  0.064385  0.064385  1
  Dy  Dy11  1  0.436397  0.057278  0.440487  1
  Dy  Dy12  1  0.063081  0.435973  0.061330  1
  Dy  Dy13  1  0.436397  0.440487  0.057278  1
  Dy  Dy14  1  0.063081  0.061330  0.435973  1
  Dy  Dy15  1  0.198720  0.802086  0.802086  1
  Cd  Cd16  1  0.833173  0.827652  0.827652  1
  Cd  Cd17  1  0.827767  0.829603  0.513219  1
  Cd  Cd18  1  0.827767  0.513219  0.829603  1
  Cd  Cd19  1  0.511522  0.827817  0.827817  1
  Ir  Ir20  1  0.388753  0.396902  0.825158  1
  Ir  Ir21  1  0.388753  0.825158  0.396902  1
  Ir  Ir22  1  0.825117  0.391656  0.391656  1
  Pt  Pt23  1  0.392862  0.392604  0.392604  1
