# generated using pymatgen
data_La12Co6Sn
_symmetry_space_group_name_H-M   'P 1'
_cell_length_a   8.79025416
_cell_length_b   8.79025408
_cell_length_c   8.79025400
_cell_angle_alpha   109.47122275
_cell_angle_beta   109.47122257
_cell_angle_gamma   109.47122213
_symmetry_Int_Tables_number   1
_chemical_formula_structural   La12Co6Sn
_chemical_formula_sum   'La12 Co6 Sn1'
_cell_volume   522.85632370
_cell_formula_units_Z   1
loop_
 _symmetry_equiv_pos_site_id
 _symmetry_equiv_pos_as_xyz
  1  'x, y, z'
loop_
 _atom_site_type_symbol
 _atom_site_label
 _atom_site_symmetry_multiplicity
 _atom_site_fract_x
 _atom_site_fract_y
 _atom_site_fract_z
 _atom_site_occupancy
  La  La0  1  0.812829  0.687808  0.500637  1
  La  La1  1  0.187171  0.312192  0.499363  1
  La  La2  1  0.187171  0.687808  0.874979  1
  La  La3  1  0.812829  0.312192  0.125021  1
  La  La4  1  0.687808  0.500637  0.812829  1
  La  La5  1  0.312192  0.499363  0.187171  1
  La  La6  1  0.687808  0.874979  0.187171  1
  La  La7  1  0.312192  0.125021  0.812829  1
  La  La8  1  0.500637  0.812829  0.687808  1
  La  La9  1  0.499363  0.187171  0.312192  1
  La  La10  1  0.125021  0.812829  0.312192  1
  La  La11  1  0.874979  0.187171  0.687808  1
  Co  Co12  1  0.878909  0.378909  0.500000  1
  Co  Co13  1  0.121091  0.621091  0.500000  1
  Co  Co14  1  0.378909  0.500000  0.878909  1
  Co  Co15  1  0.621091  0.500000  0.121091  1
  Co  Co16  1  0.500000  0.878909  0.378909  1
  Co  Co17  1  0.500000  0.121091  0.621091  1
  Sn  Sn18  1  0.000000  0.000000  0.000000  1
