# generated using pymatgen
data_Lu2Ga(PRh2)6
_symmetry_space_group_name_H-M   'P 1'
_cell_length_a   9.65223300
_cell_length_b   9.65223140
_cell_length_c   3.86580100
_cell_angle_alpha   90.00000000
_cell_angle_beta   90.00000000
_cell_angle_gamma   119.99999520
_symmetry_Int_Tables_number   1
_chemical_formula_structural   Lu2Ga(PRh2)6
_chemical_formula_sum   'Lu2 Ga1 P6 Rh12'
_cell_volume   311.90739303
_cell_formula_units_Z   1
loop_
 _symmetry_equiv_pos_site_id
 _symmetry_equiv_pos_as_xyz
  1  'x, y, z'
loop_
 _atom_site_type_symbol
 _atom_site_label
 _atom_site_symmetry_multiplicity
 _atom_site_fract_x
 _atom_site_fract_y
 _atom_site_fract_z
 _atom_site_occupancy
  Lu  Lu0  1  0.333333  0.666667  0.750407  1
  Lu  Lu1  1  0.666667  0.333333  0.249593  1
  Ga  Ga2  1  0.000000  0.000000  0.500000  1
  P  P3  1  0.403730  0.285522  0.749531  1
  P  P4  1  0.714478  0.118208  0.749531  1
  P  P5  1  0.881792  0.596270  0.749531  1
  P  P6  1  0.596270  0.714478  0.250469  1
  P  P7  1  0.285522  0.881792  0.250469  1
  P  P8  1  0.118208  0.403730  0.250469  1
  Rh  Rh9  1  0.453194  0.068025  0.749854  1
  Rh  Rh10  1  0.931975  0.385168  0.749854  1
  Rh  Rh11  1  0.614832  0.546806  0.749854  1
  Rh  Rh12  1  0.546806  0.931975  0.250146  1
  Rh  Rh13  1  0.068025  0.614832  0.250146  1
  Rh  Rh14  1  0.385168  0.453194  0.250146  1
  Rh  Rh15  1  0.157498  0.280251  0.752559  1
  Rh  Rh16  1  0.719749  0.877247  0.752559  1
  Rh  Rh17  1  0.122753  0.842502  0.752559  1
  Rh  Rh18  1  0.842502  0.719749  0.247441  1
  Rh  Rh19  1  0.280251  0.122753  0.247441  1
  Rh  Rh20  1  0.877247  0.157498  0.247441  1
