# generated using pymatgen
data_Ca2SmCu6Ni7B2
_symmetry_space_group_name_H-M   'P 1'
_cell_length_a   5.06497991
_cell_length_b   5.06498106
_cell_length_c   10.94261100
_cell_angle_alpha   90.00000000
_cell_angle_beta   90.00000000
_cell_angle_gamma   120.14454990
_symmetry_Int_Tables_number   1
_chemical_formula_structural   Ca2SmCu6Ni7B2
_chemical_formula_sum   'Ca2 Sm1 Cu6 Ni7 B2'
_cell_volume   242.75753300
_cell_formula_units_Z   1
loop_
 _symmetry_equiv_pos_site_id
 _symmetry_equiv_pos_as_xyz
  1  'x, y, z'
loop_
 _atom_site_type_symbol
 _atom_site_label
 _atom_site_symmetry_multiplicity
 _atom_site_fract_x
 _atom_site_fract_y
 _atom_site_fract_z
 _atom_site_occupancy
  Ca  Ca0  1  0.000000  0.000000  0.675348  1
  Ca  Ca1  1  0.000000  0.000000  0.324652  1
  Sm  Sm2  1  0.000000  0.000000  0.000000  1
  Cu  Cu3  1  0.500000  0.000000  0.500000  1
  Cu  Cu4  1  0.000000  0.500000  0.500000  1
  Cu  Cu5  1  0.664125  0.335875  0.684950  1
  Cu  Cu6  1  0.335875  0.664125  0.684950  1
  Cu  Cu7  1  0.335875  0.664125  0.315050  1
  Cu  Cu8  1  0.664125  0.335875  0.315050  1
  Ni  Ni9  1  0.500000  0.500000  0.500000  1
  Ni  Ni10  1  0.500000  0.500000  0.871211  1
  Ni  Ni11  1  0.500000  0.000000  0.871442  1
  Ni  Ni12  1  0.000000  0.500000  0.871442  1
  Ni  Ni13  1  0.500000  0.500000  0.128789  1
  Ni  Ni14  1  0.500000  0.000000  0.128558  1
  Ni  Ni15  1  0.000000  0.500000  0.128558  1
  B  B16  1  0.667039  0.332961  0.000000  1
  B  B17  1  0.332961  0.667039  0.000000  1
