# generated using pymatgen
data_Ac4Zn4Ir3Au
_symmetry_space_group_name_H-M   'P 1'
_cell_length_a   4.43235900
_cell_length_b   8.14761098
_cell_length_c   7.84013800
_cell_angle_alpha   89.86391941
_cell_angle_beta   90.00000000
_cell_angle_gamma   90.00000000
_symmetry_Int_Tables_number   1
_chemical_formula_structural   Ac4Zn4Ir3Au
_chemical_formula_sum   'Ac4 Zn4 Ir3 Au1'
_cell_volume   283.13117800
_cell_formula_units_Z   1
loop_
 _symmetry_equiv_pos_site_id
 _symmetry_equiv_pos_as_xyz
  1  'x, y, z'
loop_
 _atom_site_type_symbol
 _atom_site_label
 _atom_site_symmetry_multiplicity
 _atom_site_fract_x
 _atom_site_fract_y
 _atom_site_fract_z
 _atom_site_occupancy
  Ac  Ac0  1  0.250000  0.996579  0.261584  1
  Ac  Ac1  1  0.250000  0.506358  0.254993  1
  Ac  Ac2  1  0.750000  0.995181  0.741447  1
  Ac  Ac3  1  0.750000  0.502829  0.747412  1
  Zn  Zn4  1  0.250000  0.746009  0.583802  1
  Zn  Zn5  1  0.250000  0.244995  0.909513  1
  Zn  Zn6  1  0.750000  0.254499  0.424941  1
  Zn  Zn7  1  0.750000  0.754558  0.080204  1
  Ir  Ir8  1  0.250000  0.250257  0.584625  1
  Ir  Ir9  1  0.250000  0.751059  0.912825  1
  Ir  Ir10  1  0.750000  0.749243  0.410665  1
  Au  Au11  1  0.750000  0.248431  0.087987  1
