# generated using pymatgen
data_YHoZn4Ru
_symmetry_space_group_name_H-M   'P 1'
_cell_length_a   6.97853400
_cell_length_b   6.97853400
_cell_length_c   5.29456400
_cell_angle_alpha   90.00000000
_cell_angle_beta   90.00000000
_cell_angle_gamma   90.00000000
_symmetry_Int_Tables_number   1
_chemical_formula_structural   YHoZn4Ru
_chemical_formula_sum   'Y2 Ho2 Zn8 Ru2'
_cell_volume   257.84493213
_cell_formula_units_Z   2
loop_
 _symmetry_equiv_pos_site_id
 _symmetry_equiv_pos_as_xyz
  1  'x, y, z'
loop_
 _atom_site_type_symbol
 _atom_site_label
 _atom_site_symmetry_multiplicity
 _atom_site_fract_x
 _atom_site_fract_y
 _atom_site_fract_z
 _atom_site_occupancy
  Y  Y0  1  0.000000  0.500000  0.767482  1
  Y  Y1  1  0.500000  0.000000  0.232518  1
  Ho  Ho2  1  0.000000  0.000000  0.000000  1
  Ho  Ho3  1  0.500000  0.500000  0.000000  1
  Zn  Zn4  1  0.187625  0.687625  0.289381  1
  Zn  Zn5  1  0.812375  0.687625  0.289381  1
  Zn  Zn6  1  0.812375  0.312375  0.289381  1
  Zn  Zn7  1  0.312375  0.187625  0.710619  1
  Zn  Zn8  1  0.187625  0.312375  0.289381  1
  Zn  Zn9  1  0.687625  0.187625  0.710619  1
  Zn  Zn10  1  0.687625  0.812375  0.710619  1
  Zn  Zn11  1  0.312375  0.812375  0.710619  1
  Ru  Ru12  1  0.500000  0.500000  0.500000  1
  Ru  Ru13  1  0.000000  0.000000  0.500000  1
