# generated using pymatgen
data_Dy12Tc2Ni3Bi
_symmetry_space_group_name_H-M   'P 1'
_cell_length_a   8.40038691
_cell_length_b   8.40193151
_cell_length_c   8.40038783
_cell_angle_alpha   111.01061534
_cell_angle_beta   111.72410241
_cell_angle_gamma   105.73602014
_symmetry_Int_Tables_number   1
_chemical_formula_structural   Dy12Tc2Ni3Bi
_chemical_formula_sum   'Dy12 Tc2 Ni3 Bi1'
_cell_volume   454.99078215
_cell_formula_units_Z   1
loop_
 _symmetry_equiv_pos_site_id
 _symmetry_equiv_pos_as_xyz
  1  'x, y, z'
loop_
 _atom_site_type_symbol
 _atom_site_label
 _atom_site_symmetry_multiplicity
 _atom_site_fract_x
 _atom_site_fract_y
 _atom_site_fract_z
 _atom_site_occupancy
  Dy  Dy0  1  0.272579  0.183096  0.455722  1
  Dy  Dy1  1  0.722641  0.820982  0.543596  1
  Dy  Dy2  1  0.277385  0.820982  0.098342  1
  Dy  Dy3  1  0.727374  0.183096  0.910517  1
  Dy  Dy4  1  0.622306  0.308711  0.302432  1
  Dy  Dy5  1  0.377738  0.680072  0.686550  1
  Dy  Dy6  1  0.006279  0.308711  0.686404  1
  Dy  Dy7  1  0.993521  0.680072  0.302334  1
  Dy  Dy8  1  0.222133  0.412318  0.190185  1
  Dy  Dy9  1  0.781527  0.585109  0.803581  1
  Dy  Dy10  1  0.218692  0.022395  0.803704  1
  Dy  Dy11  1  0.777831  0.967987  0.190156  1
  Tc  Tc12  1  0.000006  0.374834  0.374828  1
  Tc  Tc13  1  0.000000  0.000437  0.000437  1
  Ni  Ni14  1  0.000245  0.650724  0.650480  1
  Ni  Ni15  1  0.385588  0.886495  0.500907  1
  Ni  Ni16  1  0.614126  0.115300  0.501174  1
  Bi  Bi17  1  0.500028  0.498678  0.998650  1
