# generated using pymatgen
data_NdYNb3Co9As7
_symmetry_space_group_name_H-M   'P 1'
_cell_length_a   3.83748400
_cell_length_b   9.56147007
_cell_length_c   9.56147000
_cell_angle_alpha   119.99999975
_cell_angle_beta   90.00000000
_cell_angle_gamma   90.00000000
_symmetry_Int_Tables_number   1
_chemical_formula_structural   NdYNb3Co9As7
_chemical_formula_sum   'Nd1 Y1 Nb3 Co9 As7'
_cell_volume   303.82712720
_cell_formula_units_Z   1
loop_
 _symmetry_equiv_pos_site_id
 _symmetry_equiv_pos_as_xyz
  1  'x, y, z'
loop_
 _atom_site_type_symbol
 _atom_site_label
 _atom_site_symmetry_multiplicity
 _atom_site_fract_x
 _atom_site_fract_y
 _atom_site_fract_z
 _atom_site_occupancy
  Nd  Nd0  1  0.500000  0.333333  0.666667  1
  Y  Y1  1  0.000000  0.666667  0.333333  1
  Nb  Nb2  1  0.500000  0.777504  0.897608  1
  Nb  Nb3  1  0.500000  0.120104  0.222496  1
  Nb  Nb4  1  0.500000  0.102392  0.879896  1
  Co  Co5  1  0.000000  0.572947  0.940765  1
  Co  Co6  1  0.000000  0.367818  0.427053  1
  Co  Co7  1  0.000000  0.059235  0.632182  1
  Co  Co8  1  0.000000  0.876419  0.159027  1
  Co  Co9  1  0.000000  0.282607  0.123581  1
  Co  Co10  1  0.000000  0.840973  0.717393  1
  Co  Co11  1  0.500000  0.946665  0.383720  1
  Co  Co12  1  0.500000  0.437054  0.053335  1
  Co  Co13  1  0.500000  0.616280  0.562946  1
  As  As14  1  0.000000  0.000000  0.000000  1
  As  As15  1  0.500000  0.708176  0.123913  1
  As  As16  1  0.500000  0.415738  0.291824  1
  As  As17  1  0.500000  0.876087  0.584262  1
  As  As18  1  0.000000  0.584304  0.691835  1
  As  As19  1  0.000000  0.107532  0.415696  1
  As  As20  1  0.000000  0.308165  0.892468  1
