# generated using pymatgen
data_TbMg2PaRh2
_symmetry_space_group_name_H-M   'P 1'
_cell_length_a   3.80109900
_cell_length_b   7.38965289
_cell_length_c   9.13614829
_cell_angle_alpha   91.53808912
_cell_angle_beta   90.00000000
_cell_angle_gamma   90.00000000
_symmetry_Int_Tables_number   1
_chemical_formula_structural   TbMg2PaRh2
_chemical_formula_sum   'Tb2 Mg4 Pa2 Rh4'
_cell_volume   256.53100145
_cell_formula_units_Z   2
loop_
 _symmetry_equiv_pos_site_id
 _symmetry_equiv_pos_as_xyz
  1  'x, y, z'
loop_
 _atom_site_type_symbol
 _atom_site_label
 _atom_site_symmetry_multiplicity
 _atom_site_fract_x
 _atom_site_fract_y
 _atom_site_fract_z
 _atom_site_occupancy
  Tb  Tb0  1  0.250000  0.529205  0.817573  1
  Tb  Tb1  1  0.750000  0.470795  0.182427  1
  Mg  Mg2  1  0.750000  0.851510  0.951130  1
  Mg  Mg3  1  0.250000  0.148490  0.048870  1
  Mg  Mg4  1  0.250000  0.638058  0.446668  1
  Mg  Mg5  1  0.750000  0.361942  0.553332  1
  Pa  Pa6  1  0.750000  0.969326  0.313206  1
  Pa  Pa7  1  0.250000  0.030674  0.686794  1
  Rh  Rh8  1  0.750000  0.781504  0.637111  1
  Rh  Rh9  1  0.250000  0.218496  0.362889  1
  Rh  Rh10  1  0.250000  0.771509  0.168606  1
  Rh  Rh11  1  0.750000  0.228491  0.831394  1
