# generated using pymatgen
data_Zr6NiBiPb
_symmetry_space_group_name_H-M   'P 1'
_cell_length_a   3.69015900
_cell_length_b   7.93077558
_cell_length_c   7.93077600
_cell_angle_alpha   120.00000176
_cell_angle_beta   90.00000000
_cell_angle_gamma   90.00000000
_symmetry_Int_Tables_number   1
_chemical_formula_structural   Zr6NiBiPb
_chemical_formula_sum   'Zr6 Ni1 Bi1 Pb1'
_cell_volume   201.00508646
_cell_formula_units_Z   1
loop_
 _symmetry_equiv_pos_site_id
 _symmetry_equiv_pos_as_xyz
  1  'x, y, z'
loop_
 _atom_site_type_symbol
 _atom_site_label
 _atom_site_symmetry_multiplicity
 _atom_site_fract_x
 _atom_site_fract_y
 _atom_site_fract_z
 _atom_site_occupancy
  Zr  Zr0  1  0.500000  0.763298  0.761575  1
  Zr  Zr1  1  0.500000  0.998277  0.236702  1
  Zr  Zr2  1  0.500000  0.238425  0.001723  1
  Zr  Zr3  1  0.000000  0.391863  0.392472  1
  Zr  Zr4  1  0.000000  0.000610  0.608137  1
  Zr  Zr5  1  0.000000  0.607528  0.999390  1
  Ni  Ni6  1  0.000000  0.000000  0.000000  1
  Bi  Bi7  1  0.500000  0.333333  0.666667  1
  Pb  Pb8  1  0.500000  0.666667  0.333333  1
