# generated using pymatgen
data_Tb5Dy5(GaBi2)2
_symmetry_space_group_name_H-M   'P 1'
_cell_length_a   8.10993702
_cell_length_b   9.31760210
_cell_length_c   12.14714510
_cell_angle_alpha   89.98548939
_cell_angle_beta   90.00282151
_cell_angle_gamma   90.00843626
_symmetry_Int_Tables_number   1
_chemical_formula_structural   Tb5Dy5(GaBi2)2
_chemical_formula_sum   'Tb10 Dy10 Ga4 Bi8'
_cell_volume   917.90099852
_cell_formula_units_Z   2
loop_
 _symmetry_equiv_pos_site_id
 _symmetry_equiv_pos_as_xyz
  1  'x, y, z'
loop_
 _atom_site_type_symbol
 _atom_site_label
 _atom_site_symmetry_multiplicity
 _atom_site_fract_x
 _atom_site_fract_y
 _atom_site_fract_z
 _atom_site_occupancy
  Tb  Tb0  1  0.832831  0.749947  0.784738  1
  Tb  Tb1  1  0.167169  0.250053  0.215262  1
  Tb  Tb2  1  0.332520  0.250036  0.715313  1
  Tb  Tb3  1  0.667480  0.749964  0.284687  1
  Tb  Tb4  1  0.359510  0.749990  0.707051  1
  Tb  Tb5  1  0.640490  0.250010  0.292949  1
  Tb  Tb6  1  0.859559  0.250000  0.793118  1
  Tb  Tb7  1  0.140441  0.750000  0.206882  1
  Tb  Tb8  1  0.681121  0.052711  0.563385  1
  Tb  Tb9  1  0.318879  0.947289  0.436615  1
  Dy  Dy10  1  0.959698  0.749950  0.497849  1
  Dy  Dy11  1  0.040302  0.250050  0.502151  1
  Dy  Dy12  1  0.459683  0.250003  0.002113  1
  Dy  Dy13  1  0.540317  0.749997  0.997887  1
  Dy  Dy14  1  0.180995  0.947171  0.936628  1
  Dy  Dy15  1  0.318987  0.552665  0.436615  1
  Dy  Dy16  1  0.819005  0.052829  0.063372  1
  Dy  Dy17  1  0.681013  0.447335  0.563385  1
  Dy  Dy18  1  0.818985  0.447204  0.063389  1
  Dy  Dy19  1  0.181015  0.552796  0.936611  1
  Ga  Ga20  1  0.591442  0.749537  0.525355  1
  Ga  Ga21  1  0.408558  0.250463  0.474645  1
  Ga  Ga22  1  0.091258  0.250010  0.974556  1
  Ga  Ga23  1  0.908742  0.749990  0.025444  1
  Bi  Bi24  1  0.567033  0.490384  0.826267  1
  Bi  Bi25  1  0.432967  0.509616  0.173733  1
  Bi  Bi26  1  0.067013  0.509599  0.673765  1
  Bi  Bi27  1  0.433032  0.990384  0.173628  1
  Bi  Bi28  1  0.932987  0.490401  0.326235  1
  Bi  Bi29  1  0.566968  0.009616  0.826372  1
  Bi  Bi30  1  0.932889  0.009622  0.326135  1
  Bi  Bi31  1  0.067111  0.990378  0.673865  1
