# generated using pymatgen
data_TbEr6Sn23Rh6
_symmetry_space_group_name_H-M   'P 1'
_cell_length_a   9.84176100
_cell_length_b   9.84176121
_cell_length_c   10.09441300
_cell_angle_alpha   90.00000000
_cell_angle_beta   90.00000000
_cell_angle_gamma   120.00000265
_symmetry_Int_Tables_number   1
_chemical_formula_structural   TbEr6Sn23Rh6
_chemical_formula_sum   'Tb1 Er6 Sn23 Rh6'
_cell_volume   846.75413751
_cell_formula_units_Z   1
loop_
 _symmetry_equiv_pos_site_id
 _symmetry_equiv_pos_as_xyz
  1  'x, y, z'
loop_
 _atom_site_type_symbol
 _atom_site_label
 _atom_site_symmetry_multiplicity
 _atom_site_fract_x
 _atom_site_fract_y
 _atom_site_fract_z
 _atom_site_occupancy
  Tb  Tb0  1  0.000000  0.000000  0.000000  1
  Er  Er1  1  0.480049  0.519951  0.307518  1
  Er  Er2  1  0.519951  0.480049  0.692482  1
  Er  Er3  1  0.480049  0.960101  0.307518  1
  Er  Er4  1  0.519951  0.039899  0.692482  1
  Er  Er5  1  0.039899  0.519951  0.307518  1
  Er  Er6  1  0.960101  0.480049  0.692482  1
  Sn  Sn7  1  0.120224  0.879776  0.281824  1
  Sn  Sn8  1  0.879776  0.120224  0.718176  1
  Sn  Sn9  1  0.120224  0.240447  0.281824  1
  Sn  Sn10  1  0.879776  0.759553  0.718176  1
  Sn  Sn11  1  0.759553  0.879776  0.281824  1
  Sn  Sn12  1  0.240447  0.120224  0.718176  1
  Sn  Sn13  1  0.777441  0.222559  0.456114  1
  Sn  Sn14  1  0.222559  0.777441  0.543886  1
  Sn  Sn15  1  0.777441  0.554881  0.456114  1
  Sn  Sn16  1  0.222559  0.445119  0.543886  1
  Sn  Sn17  1  0.445119  0.222559  0.456114  1
  Sn  Sn18  1  0.554881  0.777441  0.543886  1
  Sn  Sn19  1  0.351165  0.000000  0.000000  1
  Sn  Sn20  1  0.648835  0.000000  0.000000  1
  Sn  Sn21  1  0.000000  0.351165  0.000000  1
  Sn  Sn22  1  0.000000  0.648835  0.000000  1
  Sn  Sn23  1  0.648835  0.648835  0.000000  1
  Sn  Sn24  1  0.351165  0.351165  0.000000  1
  Sn  Sn25  1  0.333333  0.666667  0.124244  1
  Sn  Sn26  1  0.666667  0.333333  0.875756  1
  Sn  Sn27  1  0.333333  0.666667  0.821074  1
  Sn  Sn28  1  0.666667  0.333333  0.178926  1
  Sn  Sn29  1  0.000000  0.000000  0.500000  1
  Rh  Rh30  1  0.831211  0.168789  0.198628  1
  Rh  Rh31  1  0.168789  0.831211  0.801372  1
  Rh  Rh32  1  0.831211  0.662424  0.198628  1
  Rh  Rh33  1  0.168789  0.337576  0.801372  1
  Rh  Rh34  1  0.337576  0.168789  0.198628  1
  Rh  Rh35  1  0.662424  0.831211  0.801372  1
