# generated using pymatgen
data_Dy6HoTh(ReB6)4
_symmetry_space_group_name_H-M   'P 1'
_cell_length_a   3.70988000
_cell_length_b   9.19841425
_cell_length_c   11.59499600
_cell_angle_alpha   90.04004715
_cell_angle_beta   90.00000000
_cell_angle_gamma   90.00000000
_symmetry_Int_Tables_number   1
_chemical_formula_structural   Dy6HoTh(ReB6)4
_chemical_formula_sum   'Dy6 Ho1 Th1 Re4 B24'
_cell_volume   395.67929338
_cell_formula_units_Z   1
loop_
 _symmetry_equiv_pos_site_id
 _symmetry_equiv_pos_as_xyz
  1  'x, y, z'
loop_
 _atom_site_type_symbol
 _atom_site_label
 _atom_site_symmetry_multiplicity
 _atom_site_fract_x
 _atom_site_fract_y
 _atom_site_fract_z
 _atom_site_occupancy
  Dy  Dy0  1  0.000000  0.677561  0.587293  1
  Dy  Dy1  1  0.000000  0.823372  0.085054  1
  Dy  Dy2  1  0.000000  0.175854  0.913975  1
  Dy  Dy3  1  0.000000  0.941904  0.369366  1
  Dy  Dy4  1  0.000000  0.056160  0.631543  1
  Dy  Dy5  1  0.000000  0.443464  0.128256  1
  Ho  Ho6  1  0.000000  0.557513  0.870357  1
  Th  Th7  1  0.000000  0.322594  0.414115  1
  Re  Re8  1  0.000000  0.638944  0.320467  1
  Re  Re9  1  0.000000  0.362156  0.680345  1
  Re  Re10  1  0.000000  0.138273  0.178198  1
  Re  Re11  1  0.000000  0.861224  0.821105  1
  B  B12  1  0.500000  0.555742  0.432224  1
  B  B13  1  0.500000  0.447004  0.569657  1
  B  B14  1  0.500000  0.053027  0.066472  1
  B  B15  1  0.500000  0.946386  0.932787  1
  B  B16  1  0.500000  0.749720  0.418080  1
  B  B17  1  0.500000  0.251290  0.585077  1
  B  B18  1  0.500000  0.248425  0.080440  1
  B  B19  1  0.500000  0.750845  0.918210  1
  B  B20  1  0.500000  0.791793  0.265135  1
  B  B21  1  0.500000  0.208549  0.735977  1
  B  B22  1  0.500000  0.290236  0.232157  1
  B  B23  1  0.500000  0.708065  0.765850  1
  B  B24  1  0.500000  0.632019  0.184664  1
  B  B25  1  0.500000  0.369798  0.815150  1
  B  B26  1  0.500000  0.129448  0.312139  1
  B  B27  1  0.500000  0.868706  0.686360  1
  B  B28  1  0.500000  0.982435  0.210879  1
  B  B29  1  0.500000  0.016591  0.788727  1
  B  B30  1  0.500000  0.485800  0.286455  1
  B  B31  1  0.500000  0.517904  0.713556  1
  B  B32  1  0.500000  0.601301  0.027390  1
  B  B33  1  0.500000  0.399690  0.971174  1
  B  B34  1  0.500000  0.097538  0.472825  1
  B  B35  1  0.500000  0.898666  0.528541  1
