# generated using pymatgen
data_Sb7OsW2
_symmetry_space_group_name_H-M   'P 1'
_cell_length_a   8.32597496
_cell_length_b   8.31882695
_cell_length_c   8.32597448
_cell_angle_alpha   109.25843466
_cell_angle_beta   109.93217385
_cell_angle_gamma   109.25842091
_symmetry_Int_Tables_number   1
_chemical_formula_structural   Sb7OsW2
_chemical_formula_sum   'Sb14 Os2 W4'
_cell_volume   443.71655169
_cell_formula_units_Z   2
loop_
 _symmetry_equiv_pos_site_id
 _symmetry_equiv_pos_as_xyz
  1  'x, y, z'
loop_
 _atom_site_type_symbol
 _atom_site_label
 _atom_site_symmetry_multiplicity
 _atom_site_fract_x
 _atom_site_fract_y
 _atom_site_fract_z
 _atom_site_occupancy
  Sb  Sb0  1  0.749484  0.251163  0.501679  1
  Sb  Sb1  1  0.501679  0.251163  0.749484  1
  Sb  Sb2  1  0.502064  0.751026  0.248963  1
  Sb  Sb3  1  0.251842  0.503683  0.751842  1
  Sb  Sb4  1  0.751842  0.503683  0.251842  1
  Sb  Sb5  1  0.248963  0.751026  0.502064  1
  Sb  Sb6  1  0.327848  0.327229  0.327848  1
  Sb  Sb7  1  0.000413  0.999828  0.326877  1
  Sb  Sb8  1  0.326877  0.999828  0.000413  1
  Sb  Sb9  1  0.999381  0.327229  0.999381  1
  Sb  Sb10  1  0.672951  0.999828  0.999415  1
  Sb  Sb11  1  0.999967  0.674481  0.999967  1
  Sb  Sb12  1  0.999415  0.999828  0.672951  1
  Sb  Sb13  1  0.674514  0.674481  0.674514  1
  Os  Os14  1  0.338670  0.338531  0.999861  1
  Os  Os15  1  0.999861  0.338531  0.338670  1
  W  W16  1  0.999627  0.654759  0.655132  1
  W  W17  1  0.659091  0.999470  0.659091  1
  W  W18  1  0.340379  0.999470  0.340379  1
  W  W19  1  0.655132  0.654759  0.999627  1
