# generated using pymatgen
data_Zr3CoSn3Os2
_symmetry_space_group_name_H-M   'P 1'
_cell_length_a   7.56336800
_cell_length_b   7.56336678
_cell_length_c   3.40017500
_cell_angle_alpha   90.00000000
_cell_angle_beta   90.00000000
_cell_angle_gamma   119.99999657
_symmetry_Int_Tables_number   1
_chemical_formula_structural   Zr3CoSn3Os2
_chemical_formula_sum   'Zr3 Co1 Sn3 Os2'
_cell_volume   168.44662361
_cell_formula_units_Z   1
loop_
 _symmetry_equiv_pos_site_id
 _symmetry_equiv_pos_as_xyz
  1  'x, y, z'
loop_
 _atom_site_type_symbol
 _atom_site_label
 _atom_site_symmetry_multiplicity
 _atom_site_fract_x
 _atom_site_fract_y
 _atom_site_fract_z
 _atom_site_occupancy
  Zr  Zr0  1  0.395403  0.395403  0.500000  1
  Zr  Zr1  1  0.000000  0.604597  0.500000  1
  Zr  Zr2  1  0.604597  0.000000  0.500000  1
  Co  Co3  1  0.000000  0.000000  0.500000  1
  Sn  Sn4  1  0.000000  0.262655  0.000000  1
  Sn  Sn5  1  0.262655  0.000000  0.000000  1
  Sn  Sn6  1  0.737345  0.737345  0.000000  1
  Os  Os7  1  0.333333  0.666667  0.000000  1
  Os  Os8  1  0.666667  0.333333  0.000000  1
