# generated using pymatgen
data_SmCr2AgO8
_symmetry_space_group_name_H-M   'P 1'
_cell_length_a   6.11116205
_cell_length_b   6.11116222
_cell_length_c   6.11116171
_cell_angle_alpha   105.97566624
_cell_angle_beta   105.97566673
_cell_angle_gamma   116.71429619
_symmetry_Int_Tables_number   1
_chemical_formula_structural   SmCr2AgO8
_chemical_formula_sum   'Sm1 Cr2 Ag1 O8'
_cell_volume   173.55985529
_cell_formula_units_Z   1
loop_
 _symmetry_equiv_pos_site_id
 _symmetry_equiv_pos_as_xyz
  1  'x, y, z'
loop_
 _atom_site_type_symbol
 _atom_site_label
 _atom_site_symmetry_multiplicity
 _atom_site_fract_x
 _atom_site_fract_y
 _atom_site_fract_z
 _atom_site_occupancy
  Sm  Sm0  1  0.500000  0.500000  0.000000  1
  Cr  Cr1  1  0.250000  0.750000  0.500000  1
  Cr  Cr2  1  0.000000  0.000000  0.000000  1
  Ag  Ag3  1  0.750000  0.250000  0.500000  1
  O  O4  1  0.833720  0.009586  0.175866  1
  O  O5  1  0.915316  0.601368  0.313949  1
  O  O6  1  0.287419  0.601368  0.686051  1
  O  O7  1  0.833720  0.657853  0.824134  1
  O  O8  1  0.342147  0.166280  0.175866  1
  O  O9  1  0.398632  0.712581  0.313949  1
  O  O10  1  0.398632  0.084684  0.686051  1
  O  O11  1  0.990414  0.166280  0.824134  1
