# generated using pymatgen
data_TbCe4Si2Ir
_symmetry_space_group_name_H-M   'P 1'
_cell_length_a   8.37328764
_cell_length_b   8.37328586
_cell_length_c   8.37328700
_cell_angle_alpha   124.48126785
_cell_angle_beta   124.48994290
_cell_angle_gamma   82.39179668
_symmetry_Int_Tables_number   1
_chemical_formula_structural   TbCe4Si2Ir
_chemical_formula_sum   'Tb2 Ce8 Si4 Ir2'
_cell_volume   383.25946024
_cell_formula_units_Z   2
loop_
 _symmetry_equiv_pos_site_id
 _symmetry_equiv_pos_as_xyz
  1  'x, y, z'
loop_
 _atom_site_type_symbol
 _atom_site_label
 _atom_site_symmetry_multiplicity
 _atom_site_fract_x
 _atom_site_fract_y
 _atom_site_fract_z
 _atom_site_occupancy
  Tb  Tb0  1  0.496229  0.499842  0.996071  1
  Tb  Tb1  1  0.996229  0.000158  0.996387  1
  Ce  Ce2  1  0.523786  0.667515  0.494389  1
  Ce  Ce3  1  0.826874  0.970603  0.494389  1
  Ce  Ce4  1  0.326874  0.832485  0.856271  1
  Ce  Ce5  1  0.481201  0.324175  0.495120  1
  Ce  Ce6  1  0.170946  0.013919  0.495120  1
  Ce  Ce7  1  0.981201  0.486081  0.157027  1
  Ce  Ce8  1  0.670946  0.175825  0.157027  1
  Ce  Ce9  1  0.023786  0.529397  0.856271  1
  Si  Si10  1  0.620775  0.121816  0.742591  1
  Si  Si11  1  0.120775  0.378184  0.498960  1
  Si  Si12  1  0.243899  0.250000  0.993899  1
  Si  Si13  1  0.743899  0.750000  0.993899  1
  Ir  Ir14  1  0.886288  0.615895  0.502183  1
  Ir  Ir15  1  0.386288  0.884105  0.270393  1
