# generated using pymatgen
data_DyLu7(InPt)2
_symmetry_space_group_name_H-M   'P 1'
_cell_length_a   9.55114193
_cell_length_b   9.55114177
_cell_length_c   9.53884100
_cell_angle_alpha   60.04259722
_cell_angle_beta   60.04259777
_cell_angle_gamma   59.91480601
_symmetry_Int_Tables_number   1
_chemical_formula_structural   DyLu7(InPt)2
_chemical_formula_sum   'Dy2 Lu14 In4 Pt4'
_cell_volume   615.30404002
_cell_formula_units_Z   2
loop_
 _symmetry_equiv_pos_site_id
 _symmetry_equiv_pos_as_xyz
  1  'x, y, z'
loop_
 _atom_site_type_symbol
 _atom_site_label
 _atom_site_symmetry_multiplicity
 _atom_site_fract_x
 _atom_site_fract_y
 _atom_site_fract_z
 _atom_site_occupancy
  Dy  Dy0  1  0.814348  0.814348  0.185652  1
  Dy  Dy1  1  0.185652  0.185652  0.814348  1
  Lu  Lu2  1  0.600734  0.600734  0.599539  1
  Lu  Lu3  1  0.600734  0.600734  0.198991  1
  Lu  Lu4  1  0.599539  0.198991  0.600734  1
  Lu  Lu5  1  0.198991  0.599539  0.600734  1
  Lu  Lu6  1  0.060083  0.439917  0.439917  1
  Lu  Lu7  1  0.439917  0.060083  0.060083  1
  Lu  Lu8  1  0.439917  0.060083  0.439917  1
  Lu  Lu9  1  0.060083  0.439917  0.060083  1
  Lu  Lu10  1  0.440157  0.440157  0.059843  1
  Lu  Lu11  1  0.059843  0.059843  0.440157  1
  Lu  Lu12  1  0.189753  0.810247  0.810247  1
  Lu  Lu13  1  0.810247  0.189753  0.189753  1
  Lu  Lu14  1  0.810247  0.189753  0.810247  1
  Lu  Lu15  1  0.189753  0.810247  0.189753  1
  In  In16  1  0.833911  0.833911  0.832376  1
  In  In17  1  0.833911  0.833911  0.499803  1
  In  In18  1  0.832376  0.499803  0.833911  1
  In  In19  1  0.499803  0.832376  0.833911  1
  Pt  Pt20  1  0.393068  0.393068  0.390879  1
  Pt  Pt21  1  0.393068  0.393068  0.822986  1
  Pt  Pt22  1  0.390879  0.822986  0.393068  1
  Pt  Pt23  1  0.822986  0.390879  0.393068  1
