# generated using pymatgen
data_Pt2O2F9
_symmetry_space_group_name_H-M   'P 1'
_cell_length_a   5.26148645
_cell_length_b   5.54792661
_cell_length_c   8.28743658
_cell_angle_alpha   90.37935593
_cell_angle_beta   107.22014759
_cell_angle_gamma   117.97076540
_symmetry_Int_Tables_number   1
_chemical_formula_structural   Pt2O2F9
_chemical_formula_sum   'Pt2 O2 F9'
_cell_volume   201.02014865
_cell_formula_units_Z   1
loop_
 _symmetry_equiv_pos_site_id
 _symmetry_equiv_pos_as_xyz
  1  'x, y, z'
loop_
 _atom_site_type_symbol
 _atom_site_label
 _atom_site_symmetry_multiplicity
 _atom_site_fract_x
 _atom_site_fract_y
 _atom_site_fract_z
 _atom_site_occupancy
  Pt  Pt0  1  0.064547  0.676205  0.622573  1
  Pt  Pt1  1  0.227454  0.242036  0.358517  1
  O  O2  1  0.608365  0.411785  0.915977  1
  O  O3  1  0.648450  0.361346  0.057649  1
  F  F4  1  0.381289  0.014805  0.302159  1
  F  F5  1  0.428145  0.511022  0.230904  1
  F  F6  1  0.496585  0.903979  0.682593  1
  F  F7  1  0.870007  0.054310  0.157933  1
  F  F8  1  0.072906  0.861967  0.821070  1
  F  F9  1  0.043913  0.478801  0.405414  1
  F  F10  1  0.992237  0.960686  0.489673  1
  F  F11  1  0.108073  0.403789  0.750049  1
  F  F12  1  0.600454  0.441017  0.574838  1
