# generated using pymatgen
data_V4Co2PdSe12
_symmetry_space_group_name_H-M   'P 1'
_cell_length_a   6.99875708
_cell_length_b   6.99875640
_cell_length_c   19.00990004
_cell_angle_alpha   70.36754387
_cell_angle_beta   70.36754575
_cell_angle_gamma   27.38256479
_symmetry_Int_Tables_number   1
_chemical_formula_structural   V4Co2PdSe12
_chemical_formula_sum   'V4 Co2 Pd1 Se12'
_cell_volume   401.84316997
_cell_formula_units_Z   1
loop_
 _symmetry_equiv_pos_site_id
 _symmetry_equiv_pos_as_xyz
  1  'x, y, z'
loop_
 _atom_site_type_symbol
 _atom_site_label
 _atom_site_symmetry_multiplicity
 _atom_site_fract_x
 _atom_site_fract_y
 _atom_site_fract_z
 _atom_site_occupancy
  V  V0  1  0.625171  0.625171  0.846071  1
  V  V1  1  0.374829  0.374829  0.153929  1
  V  V2  1  0.744764  0.744764  0.593549  1
  V  V3  1  0.255236  0.255236  0.406451  1
  Co  Co4  1  0.231700  0.231700  0.715346  1
  Co  Co5  1  0.768300  0.768300  0.284654  1
  Pd  Pd6  1  0.000000  0.000000  0.000000  1
  Se  Se7  1  0.977793  0.977793  0.877550  1
  Se  Se8  1  0.022207  0.022207  0.122450  1
  Se  Se9  1  0.627258  0.627258  0.396773  1
  Se  Se10  1  0.372742  0.372742  0.603227  1
  Se  Se11  1  0.140908  0.140908  0.546998  1
  Se  Se12  1  0.859092  0.859092  0.453002  1
  Se  Se13  1  0.808063  0.808063  0.766510  1
  Se  Se14  1  0.191937  0.191937  0.233490  1
  Se  Se15  1  0.186614  0.186614  0.921582  1
  Se  Se16  1  0.813386  0.813386  0.078418  1
  Se  Se17  1  0.605571  0.605571  0.716967  1
  Se  Se18  1  0.394429  0.394429  0.283033  1
