# generated using pymatgen
data_TmLu5Al24(Ru3Rh)2
_symmetry_space_group_name_H-M   'P 1'
_cell_length_a   8.74115308
_cell_length_b   8.73967979
_cell_length_c   9.53698800
_cell_angle_alpha   90.00000000
_cell_angle_beta   90.00000000
_cell_angle_gamma   119.80108651
_symmetry_Int_Tables_number   1
_chemical_formula_structural   TmLu5Al24(Ru3Rh)2
_chemical_formula_sum   'Tm1 Lu5 Al24 Ru6 Rh2'
_cell_volume   632.22712260
_cell_formula_units_Z   1
loop_
 _symmetry_equiv_pos_site_id
 _symmetry_equiv_pos_as_xyz
  1  'x, y, z'
loop_
 _atom_site_type_symbol
 _atom_site_label
 _atom_site_symmetry_multiplicity
 _atom_site_fract_x
 _atom_site_fract_y
 _atom_site_fract_z
 _atom_site_occupancy
  Tm  Tm0  1  0.189779  0.386937  0.250000  1
  Lu  Lu1  1  0.804647  0.195449  0.750000  1
  Lu  Lu2  1  0.195399  0.804700  0.250000  1
  Lu  Lu3  1  0.387862  0.190090  0.750000  1
  Lu  Lu4  1  0.612188  0.809991  0.250000  1
  Lu  Lu5  1  0.809957  0.612224  0.750000  1
  Al  Al6  1  0.667213  0.332833  0.977797  1
  Al  Al7  1  0.332893  0.667415  0.022026  1
  Al  Al8  1  0.332893  0.667415  0.477974  1
  Al  Al9  1  0.667213  0.332833  0.522203  1
  Al  Al10  1  0.836748  0.163003  0.421964  1
  Al  Al11  1  0.163058  0.836917  0.578167  1
  Al  Al12  1  0.324909  0.161531  0.421349  1
  Al  Al13  1  0.163058  0.836917  0.921833  1
  Al  Al14  1  0.675187  0.838378  0.578781  1
  Al  Al15  1  0.836748  0.163003  0.078036  1
  Al  Al16  1  0.838408  0.675184  0.421317  1
  Al  Al17  1  0.675187  0.838378  0.921219  1
  Al  Al18  1  0.161606  0.324839  0.578920  1
  Al  Al19  1  0.324909  0.161531  0.078651  1
  Al  Al20  1  0.161606  0.324839  0.921080  1
  Al  Al21  1  0.838408  0.675184  0.078683  1
  Al  Al22  1  0.439228  0.560828  0.750000  1
  Al  Al23  1  0.561120  0.439234  0.250000  1
  Al  Al24  1  0.123421  0.560829  0.750000  1
  Al  Al25  1  0.876301  0.439254  0.250000  1
  Al  Al26  1  0.439182  0.876550  0.750000  1
  Al  Al27  1  0.560802  0.123411  0.250000  1
  Al  Al28  1  0.000416  0.999639  0.750000  1
  Al  Al29  1  0.999342  0.999922  0.250000  1
  Ru  Ru30  1  0.999875  0.500094  0.999838  1
  Ru  Ru31  1  0.500069  0.000129  0.999952  1
  Ru  Ru32  1  0.999875  0.500094  0.500162  1
  Ru  Ru33  1  0.500069  0.000129  0.500048  1
  Ru  Ru34  1  0.000018  0.000052  0.000015  1
  Ru  Ru35  1  0.000018  0.000052  0.499985  1
  Rh  Rh36  1  0.500193  0.500097  0.999887  1
  Rh  Rh37  1  0.500193  0.500097  0.500113  1
