# generated using pymatgen
data_Yb6Hf4Al12Ir7
_symmetry_space_group_name_H-M   'P 1'
_cell_length_a   9.12711126
_cell_length_b   9.12711213
_cell_length_c   9.12711200
_cell_angle_alpha   60.00000047
_cell_angle_beta   59.99999732
_cell_angle_gamma   60.00000136
_symmetry_Int_Tables_number   1
_chemical_formula_structural   Yb6Hf4Al12Ir7
_chemical_formula_sum   'Yb6 Hf4 Al12 Ir7'
_cell_volume   537.63199955
_cell_formula_units_Z   1
loop_
 _symmetry_equiv_pos_site_id
 _symmetry_equiv_pos_as_xyz
  1  'x, y, z'
loop_
 _atom_site_type_symbol
 _atom_site_label
 _atom_site_symmetry_multiplicity
 _atom_site_fract_x
 _atom_site_fract_y
 _atom_site_fract_z
 _atom_site_occupancy
  Yb  Yb0  1  0.702334  0.702334  0.297666  1
  Yb  Yb1  1  0.297666  0.702334  0.297666  1
  Yb  Yb2  1  0.702334  0.297666  0.297666  1
  Yb  Yb3  1  0.297666  0.297666  0.702334  1
  Yb  Yb4  1  0.702334  0.297666  0.702334  1
  Yb  Yb5  1  0.297666  0.702334  0.702334  1
  Hf  Hf6  1  0.880940  0.880940  0.357181  1
  Hf  Hf7  1  0.880940  0.357181  0.880940  1
  Hf  Hf8  1  0.357181  0.880940  0.880940  1
  Hf  Hf9  1  0.880940  0.880940  0.880940  1
  Al  Al10  1  0.120546  0.120546  0.638361  1
  Al  Al11  1  0.120546  0.638361  0.120546  1
  Al  Al12  1  0.638361  0.120546  0.120546  1
  Al  Al13  1  0.120546  0.120546  0.120546  1
  Al  Al14  1  0.669887  0.669887  0.990339  1
  Al  Al15  1  0.669887  0.990339  0.669887  1
  Al  Al16  1  0.990339  0.669887  0.669887  1
  Al  Al17  1  0.669887  0.669887  0.669887  1
  Al  Al18  1  0.326151  0.326151  0.021547  1
  Al  Al19  1  0.326151  0.021547  0.326151  1
  Al  Al20  1  0.021547  0.326151  0.326151  1
  Al  Al21  1  0.326151  0.326151  0.326151  1
  Ir  Ir22  1  0.000000  0.000000  0.000000  1
  Ir  Ir23  1  0.998622  0.998622  0.501378  1
  Ir  Ir24  1  0.501378  0.998622  0.501378  1
  Ir  Ir25  1  0.998622  0.501378  0.501378  1
  Ir  Ir26  1  0.501378  0.501378  0.998622  1
  Ir  Ir27  1  0.998622  0.501378  0.998622  1
  Ir  Ir28  1  0.501378  0.998622  0.998622  1
