# generated using pymatgen
data_Tb8Y4GaCo4Pt
_symmetry_space_group_name_H-M   'P 1'
_cell_length_a   8.29237081
_cell_length_b   8.29237069
_cell_length_c   8.29237126
_cell_angle_alpha   107.14702373
_cell_angle_beta   110.24143626
_cell_angle_gamma   111.05097792
_symmetry_Int_Tables_number   1
_chemical_formula_structural   Tb8Y4GaCo4Pt
_chemical_formula_sum   'Tb8 Y4 Ga1 Co4 Pt1'
_cell_volume   438.38739899
_cell_formula_units_Z   1
loop_
 _symmetry_equiv_pos_site_id
 _symmetry_equiv_pos_as_xyz
  1  'x, y, z'
loop_
 _atom_site_type_symbol
 _atom_site_label
 _atom_site_symmetry_multiplicity
 _atom_site_fract_x
 _atom_site_fract_y
 _atom_site_fract_z
 _atom_site_occupancy
  Tb  Tb0  1  0.697226  0.280967  0.978193  1
  Tb  Tb1  1  0.302774  0.719033  0.021807  1
  Tb  Tb2  1  0.697226  0.719033  0.416259  1
  Tb  Tb3  1  0.302774  0.280967  0.583741  1
  Tb  Tb4  1  0.802765  0.119650  0.316885  1
  Tb  Tb5  1  0.802765  0.485880  0.683115  1
  Tb  Tb6  1  0.197235  0.880350  0.683115  1
  Tb  Tb7  1  0.197235  0.514120  0.316885  1
  Y  Y8  1  0.604178  0.789993  0.814185  1
  Y  Y9  1  0.975808  0.789993  0.185815  1
  Y  Y10  1  0.024192  0.210007  0.814185  1
  Y  Y11  1  0.395822  0.210007  0.185815  1
  Ga  Ga12  1  0.500000  0.000000  0.500000  1
  Co  Co13  1  0.878507  0.500000  0.378507  1
  Co  Co14  1  0.121493  0.500000  0.621493  1
  Co  Co15  1  0.000000  0.112376  0.112376  1
  Co  Co16  1  0.000000  0.887624  0.887624  1
  Pt  Pt17  1  0.500000  0.500000  0.000000  1
