# generated using pymatgen
data_Ca6NpTaO12
_symmetry_space_group_name_H-M   'P 1'
_cell_length_a   5.94312879
_cell_length_b   5.67730615
_cell_length_c   9.99682583
_cell_angle_alpha   55.56074531
_cell_angle_beta   90.95487036
_cell_angle_gamma   90.27023811
_symmetry_Int_Tables_number   1
_chemical_formula_structural   Ca6NpTaO12
_chemical_formula_sum   'Ca6 Np1 Ta1 O12'
_cell_volume   278.13906990
_cell_formula_units_Z   1
loop_
 _symmetry_equiv_pos_site_id
 _symmetry_equiv_pos_as_xyz
  1  'x, y, z'
loop_
 _atom_site_type_symbol
 _atom_site_label
 _atom_site_symmetry_multiplicity
 _atom_site_fract_x
 _atom_site_fract_y
 _atom_site_fract_z
 _atom_site_occupancy
  Ca  Ca0  1  0.048811  0.713853  0.781811  1
  Ca  Ca1  1  0.951189  0.286147  0.218189  1
  Ca  Ca2  1  0.561903  0.251546  0.769463  1
  Ca  Ca3  1  0.438097  0.748454  0.230537  1
  Ca  Ca4  1  0.500000  0.500000  0.000000  1
  Ca  Ca5  1  0.000000  0.500000  0.500000  1
  Np  Np6  1  0.500000  0.000000  0.500000  1
  Ta  Ta7  1  0.000000  0.000000  0.000000  1
  O  O8  1  0.435558  0.903001  0.726399  1
  O  O9  1  0.564442  0.096999  0.273601  1
  O  O10  1  0.938469  0.116384  0.770044  1
  O  O11  1  0.061531  0.883616  0.229956  1
  O  O12  1  0.782877  0.752084  0.583765  1
  O  O13  1  0.217123  0.247916  0.416235  1
  O  O14  1  0.281018  0.241928  0.933178  1
  O  O15  1  0.718982  0.758072  0.066822  1
  O  O16  1  0.329671  0.648125  0.561868  1
  O  O17  1  0.670329  0.351875  0.438132  1
  O  O18  1  0.818459  0.336825  0.953253  1
  O  O19  1  0.181541  0.663175  0.046747  1
