# generated using pymatgen
data_Tb2Er10Tc3Pt
_symmetry_space_group_name_H-M   'P 1'
_cell_length_a   6.29340314
_cell_length_b   7.35082553
_cell_length_c   9.13669700
_cell_angle_alpha   90.00000000
_cell_angle_beta   90.00000000
_cell_angle_gamma   89.98967984
_symmetry_Int_Tables_number   1
_chemical_formula_structural   Tb2Er10Tc3Pt
_chemical_formula_sum   'Tb2 Er10 Tc3 Pt1'
_cell_volume   422.67920657
_cell_formula_units_Z   1
loop_
 _symmetry_equiv_pos_site_id
 _symmetry_equiv_pos_as_xyz
  1  'x, y, z'
loop_
 _atom_site_type_symbol
 _atom_site_label
 _atom_site_symmetry_multiplicity
 _atom_site_fract_x
 _atom_site_fract_y
 _atom_site_fract_z
 _atom_site_occupancy
  Tb  Tb0  1  0.127539  0.456211  0.750000  1
  Tb  Tb1  1  0.371828  0.964143  0.750000  1
  Er  Er2  1  0.328921  0.676309  0.067735  1
  Er  Er3  1  0.165253  0.177253  0.435364  1
  Er  Er4  1  0.667160  0.318641  0.557910  1
  Er  Er5  1  0.836704  0.827102  0.940818  1
  Er  Er6  1  0.667160  0.318641  0.942090  1
  Er  Er7  1  0.836704  0.827102  0.559182  1
  Er  Er8  1  0.328921  0.676309  0.432265  1
  Er  Er9  1  0.165253  0.177253  0.064636  1
  Er  Er10  1  0.872536  0.542791  0.250000  1
  Er  Er11  1  0.624284  0.038531  0.250000  1
  Tc  Tc12  1  0.037565  0.886025  0.250000  1
  Tc  Tc13  1  0.463999  0.387781  0.250000  1
  Tc  Tc14  1  0.956413  0.113958  0.750000  1
  Pt  Pt15  1  0.549760  0.611950  0.750000  1
