# generated using pymatgen
data_Ho11Er(TcRu)2
_symmetry_space_group_name_H-M   'P 1'
_cell_length_a   6.25901606
_cell_length_b   7.34821203
_cell_length_c   9.08234105
_cell_angle_alpha   90.00358448
_cell_angle_beta   90.01204786
_cell_angle_gamma   90.00938066
_symmetry_Int_Tables_number   1
_chemical_formula_structural   Ho11Er(TcRu)2
_chemical_formula_sum   'Ho11 Er1 Tc2 Ru2'
_cell_volume   417.72025523
_cell_formula_units_Z   1
loop_
 _symmetry_equiv_pos_site_id
 _symmetry_equiv_pos_as_xyz
  1  'x, y, z'
loop_
 _atom_site_type_symbol
 _atom_site_label
 _atom_site_symmetry_multiplicity
 _atom_site_fract_x
 _atom_site_fract_y
 _atom_site_fract_z
 _atom_site_occupancy
  Ho  Ho0  1  0.333942  0.676340  0.063231  1
  Ho  Ho1  1  0.166023  0.176345  0.436675  1
  Ho  Ho2  1  0.664507  0.324010  0.562453  1
  Ho  Ho3  1  0.835563  0.824098  0.937584  1
  Ho  Ho4  1  0.664498  0.323984  0.937591  1
  Ho  Ho5  1  0.835476  0.824014  0.562451  1
  Ho  Ho6  1  0.333992  0.676331  0.436757  1
  Ho  Ho7  1  0.874182  0.539264  0.249962  1
  Ho  Ho8  1  0.625823  0.039365  0.249946  1
  Ho  Ho9  1  0.131539  0.457438  0.750047  1
  Ho  Ho10  1  0.368425  0.957556  0.750059  1
  Er  Er11  1  0.165977  0.176281  0.063240  1
  Tc  Tc12  1  0.038690  0.886002  0.249974  1
  Tc  Tc13  1  0.461267  0.385813  0.249934  1
  Ru  Ru14  1  0.960776  0.116585  0.750109  1
  Ru  Ru15  1  0.539321  0.616575  0.749989  1
