# generated using pymatgen
data_Gd8Si6Ir7Pd
_symmetry_space_group_name_H-M   'P 1'
_cell_length_a   10.64412037
_cell_length_b   10.68114760
_cell_length_c   7.55167100
_cell_angle_alpha   72.72981382
_cell_angle_beta   72.65489656
_cell_angle_gamma   31.00157594
_symmetry_Int_Tables_number   1
_chemical_formula_structural   Gd8Si6Ir7Pd
_chemical_formula_sum   'Gd8 Si6 Ir7 Pd1'
_cell_volume   420.60776210
_cell_formula_units_Z   1
loop_
 _symmetry_equiv_pos_site_id
 _symmetry_equiv_pos_as_xyz
  1  'x, y, z'
loop_
 _atom_site_type_symbol
 _atom_site_label
 _atom_site_symmetry_multiplicity
 _atom_site_fract_x
 _atom_site_fract_y
 _atom_site_fract_z
 _atom_site_occupancy
  Gd  Gd0  1  0.928538  0.205961  0.331559  1
  Gd  Gd1  1  0.074494  0.788683  0.668569  1
  Gd  Gd2  1  0.791624  0.070493  0.172995  1
  Gd  Gd3  1  0.449048  0.213865  0.901385  1
  Gd  Gd4  1  0.784006  0.556717  0.599308  1
  Gd  Gd5  1  0.216291  0.444949  0.404394  1
  Gd  Gd6  1  0.202099  0.933470  0.826031  1
  Gd  Gd7  1  0.553260  0.787254  0.089120  1
  Si  Si8  1  0.301404  0.041774  0.439559  1
  Si  Si9  1  0.390561  0.607554  0.250569  1
  Si  Si10  1  0.042136  0.299988  0.939373  1
  Si  Si11  1  0.701588  0.950159  0.563713  1
  Si  Si12  1  0.952411  0.704450  0.060032  1
  Si  Si13  1  0.607337  0.394326  0.750665  1
  Ir  Ir14  1  0.592667  0.283188  0.528739  1
  Ir  Ir15  1  0.709862  0.413662  0.976640  1
  Ir  Ir16  1  0.285976  0.590311  0.025198  1
  Ir  Ir17  1  0.411883  0.712445  0.471015  1
  Ir  Ir18  1  0.624285  0.937608  0.306293  1
  Ir  Ir19  1  0.935892  0.624228  0.809030  1
  Ir  Ir20  1  0.368164  0.071558  0.692774  1
  Pd  Pd21  1  0.076476  0.367360  0.193035  1
