# generated using pymatgen
data_LaNd(GeRh2)2
_symmetry_space_group_name_H-M   'P 1'
_cell_length_a   9.45643854
_cell_length_b   9.45643912
_cell_length_c   4.19711100
_cell_angle_alpha   90.00000000
_cell_angle_beta   90.00000000
_cell_angle_gamma   155.12970197
_symmetry_Int_Tables_number   1
_chemical_formula_structural   LaNd(GeRh2)2
_chemical_formula_sum   'La1 Nd1 Ge2 Rh4'
_cell_volume   157.84810889
_cell_formula_units_Z   1
loop_
 _symmetry_equiv_pos_site_id
 _symmetry_equiv_pos_as_xyz
  1  'x, y, z'
loop_
 _atom_site_type_symbol
 _atom_site_label
 _atom_site_symmetry_multiplicity
 _atom_site_fract_x
 _atom_site_fract_y
 _atom_site_fract_z
 _atom_site_occupancy
  La  La0  1  0.094645  0.905355  0.750000  1
  Nd  Nd1  1  0.902280  0.097720  0.250000  1
  Ge  Ge2  1  0.324022  0.675978  0.750000  1
  Ge  Ge3  1  0.677518  0.322482  0.250000  1
  Rh  Rh4  1  0.543675  0.456325  0.250000  1
  Rh  Rh5  1  0.456073  0.543927  0.750000  1
  Rh  Rh6  1  0.251012  0.748988  0.250000  1
  Rh  Rh7  1  0.750776  0.249224  0.750000  1
