# generated using pymatgen
data_Er6Al24IrOs5Pt2
_symmetry_space_group_name_H-M   'P 1'
_cell_length_a   8.77811569
_cell_length_b   8.78331358
_cell_length_c   9.53703700
_cell_angle_alpha   90.05443925
_cell_angle_beta   89.80231056
_cell_angle_gamma   119.21404273
_symmetry_Int_Tables_number   1
_chemical_formula_structural   Er6Al24IrOs5Pt2
_chemical_formula_sum   'Er6 Al24 Ir1 Os5 Pt2'
_cell_volume   641.78031076
_cell_formula_units_Z   1
loop_
 _symmetry_equiv_pos_site_id
 _symmetry_equiv_pos_as_xyz
  1  'x, y, z'
loop_
 _atom_site_type_symbol
 _atom_site_label
 _atom_site_symmetry_multiplicity
 _atom_site_fract_x
 _atom_site_fract_y
 _atom_site_fract_z
 _atom_site_occupancy
  Er  Er0  1  0.189061  0.386060  0.251628  1
  Er  Er1  1  0.810939  0.613940  0.748372  1
  Er  Er2  1  0.610679  0.812943  0.251047  1
  Er  Er3  1  0.389321  0.187057  0.748953  1
  Er  Er4  1  0.196470  0.808086  0.249997  1
  Er  Er5  1  0.803530  0.191914  0.750003  1
  Al  Al6  1  0.336214  0.669708  0.029603  1
  Al  Al7  1  0.663786  0.330292  0.970397  1
  Al  Al8  1  0.670415  0.331125  0.528746  1
  Al  Al9  1  0.329585  0.668875  0.471254  1
  Al  Al10  1  0.158668  0.325100  0.576783  1
  Al  Al11  1  0.841332  0.674900  0.423217  1
  Al  Al12  1  0.674055  0.840299  0.576825  1
  Al  Al13  1  0.832123  0.674924  0.077505  1
  Al  Al14  1  0.325945  0.159701  0.423175  1
  Al  Al15  1  0.167877  0.325076  0.922495  1
  Al  Al16  1  0.164185  0.834645  0.576488  1
  Al  Al17  1  0.326706  0.163739  0.076411  1
  Al  Al18  1  0.835815  0.165355  0.423512  1
  Al  Al19  1  0.673294  0.836261  0.923589  1
  Al  Al20  1  0.831238  0.159742  0.077642  1
  Al  Al21  1  0.168762  0.840258  0.922358  1
  Al  Al22  1  0.560253  0.125401  0.249806  1
  Al  Al23  1  0.439747  0.874599  0.750194  1
  Al  Al24  1  0.874030  0.438637  0.252515  1
  Al  Al25  1  0.125970  0.561363  0.747485  1
  Al  Al26  1  0.561166  0.437800  0.247662  1
  Al  Al27  1  0.438834  0.562200  0.752338  1
  Al  Al28  1  0.998450  0.002906  0.249957  1
  Al  Al29  1  0.001550  0.997094  0.750043  1
  Ir  Ir30  1  0.500000  0.500000  0.000000  1
  Os  Os31  1  0.500000  0.000000  0.000000  1
  Os  Os32  1  0.500000  0.000000  0.500000  1
  Os  Os33  1  0.000000  0.500000  0.500000  1
  Os  Os34  1  0.000000  0.000000  0.000000  1
  Os  Os35  1  0.000000  0.000000  0.500000  1
  Pt  Pt36  1  0.000000  0.500000  0.000000  1
  Pt  Pt37  1  0.500000  0.500000  0.500000  1
