# generated using pymatgen
data_NaOs2(Br3O)2
_symmetry_space_group_name_H-M   'P 1'
_cell_length_a   3.71850991
_cell_length_b   9.12419826
_cell_length_c   9.12453565
_cell_angle_alpha   76.14460044
_cell_angle_beta   78.24282852
_cell_angle_gamma   78.24239030
_symmetry_Int_Tables_number   1
_chemical_formula_structural   NaOs2(Br3O)2
_chemical_formula_sum   'Na1 Os2 Br6 O2'
_cell_volume   290.32973592
_cell_formula_units_Z   1
loop_
 _symmetry_equiv_pos_site_id
 _symmetry_equiv_pos_as_xyz
  1  'x, y, z'
loop_
 _atom_site_type_symbol
 _atom_site_label
 _atom_site_symmetry_multiplicity
 _atom_site_fract_x
 _atom_site_fract_y
 _atom_site_fract_z
 _atom_site_occupancy
  Na  Na0  1  0.500105  0.499858  0.499931  1
  Os  Os1  1  0.999981  0.169363  0.830675  1
  Os  Os2  1  0.999978  0.830675  0.169368  1
  Br  Br3  1  0.126055  0.203607  0.544282  1
  Br  Br4  1  0.874341  0.125685  0.125635  1
  Br  Br5  1  0.873924  0.455777  0.796375  1
  Br  Br6  1  0.873890  0.796442  0.455778  1
  Br  Br7  1  0.126068  0.544247  0.203615  1
  Br  Br8  1  0.125662  0.874344  0.874331  1
  O  O9  1  0.499997  0.833003  0.167003  1
  O  O10  1  0.499997  0.166998  0.833007  1
