# generated using pymatgen
data_Tb4Lu(CoO6)2
_symmetry_space_group_name_H-M   'P 1'
_cell_length_a   6.74055481
_cell_length_b   6.74055572
_cell_length_c   7.19919580
_cell_angle_alpha   74.83065818
_cell_angle_beta   74.83064815
_cell_angle_gamma   50.55416542
_symmetry_Int_Tables_number   1
_chemical_formula_structural   Tb4Lu(CoO6)2
_chemical_formula_sum   'Tb4 Lu1 Co2 O12'
_cell_volume   241.78462712
_cell_formula_units_Z   1
loop_
 _symmetry_equiv_pos_site_id
 _symmetry_equiv_pos_as_xyz
  1  'x, y, z'
loop_
 _atom_site_type_symbol
 _atom_site_label
 _atom_site_symmetry_multiplicity
 _atom_site_fract_x
 _atom_site_fract_y
 _atom_site_fract_z
 _atom_site_occupancy
  Tb  Tb0  1  0.693733  0.693733  0.143086  1
  Tb  Tb1  1  0.000414  0.000414  0.998667  1
  Tb  Tb2  1  0.306264  0.306264  0.853369  1
  Tb  Tb3  1  0.307099  0.307099  0.337372  1
  Lu  Lu4  1  0.692037  0.692037  0.663899  1
  Co  Co5  1  0.244095  0.755918  0.501290  1
  Co  Co6  1  0.755918  0.244095  0.501290  1
  O  O7  1  0.406072  0.900000  0.916185  1
  O  O8  1  0.586935  0.093444  0.579307  1
  O  O9  1  0.897675  0.420325  0.427011  1
  O  O10  1  0.096030  0.597401  0.076607  1
  O  O11  1  0.002013  0.002013  0.328768  1
  O  O12  1  0.501588  0.501588  0.675430  1
  O  O13  1  0.900000  0.406072  0.916185  1
  O  O14  1  0.093444  0.586935  0.579307  1
  O  O15  1  0.420325  0.897675  0.427011  1
  O  O16  1  0.597401  0.096030  0.076607  1
  O  O17  1  0.499553  0.499553  0.327525  1
  O  O18  1  0.999402  0.999402  0.671082  1
