# generated using pymatgen
data_LaPr5(AlC3)2
_symmetry_space_group_name_H-M   'P 1'
_cell_length_a   3.82248900
_cell_length_b   7.54915800
_cell_length_c   10.28307100
_cell_angle_alpha   90.00000000
_cell_angle_beta   90.00000000
_cell_angle_gamma   90.00000000
_symmetry_Int_Tables_number   1
_chemical_formula_structural   LaPr5(AlC3)2
_chemical_formula_sum   'La1 Pr5 Al2 C6'
_cell_volume   296.73419324
_cell_formula_units_Z   1
loop_
 _symmetry_equiv_pos_site_id
 _symmetry_equiv_pos_as_xyz
  1  'x, y, z'
loop_
 _atom_site_type_symbol
 _atom_site_label
 _atom_site_symmetry_multiplicity
 _atom_site_fract_x
 _atom_site_fract_y
 _atom_site_fract_z
 _atom_site_occupancy
  La  La0  1  0.000000  0.250000  0.538967  1
  Pr  Pr1  1  0.500000  0.511840  0.193456  1
  Pr  Pr2  1  0.500000  0.489113  0.807104  1
  Pr  Pr3  1  0.500000  0.988160  0.193456  1
  Pr  Pr4  1  0.500000  0.010887  0.807104  1
  Pr  Pr5  1  0.000000  0.750000  0.458841  1
  Al  Al6  1  0.000000  0.750000  0.011645  1
  Al  Al7  1  0.000000  0.250000  0.988710  1
  C  C8  1  0.500000  0.509053  0.563989  1
  C  C9  1  0.500000  0.496298  0.436523  1
  C  C10  1  0.500000  0.990947  0.563989  1
  C  C11  1  0.500000  0.003702  0.436523  1
  C  C12  1  0.000000  0.750000  0.208421  1
  C  C13  1  0.000000  0.250000  0.791272  1
