# generated using pymatgen
data_NdSmTcC2
_symmetry_space_group_name_H-M   'P 1'
_cell_length_a   5.29975700
_cell_length_b   6.70419400
_cell_length_c   10.14605600
_cell_angle_alpha   90.00000000
_cell_angle_beta   90.00000000
_cell_angle_gamma   90.00000000
_symmetry_Int_Tables_number   1
_chemical_formula_structural   NdSmTcC2
_chemical_formula_sum   'Nd4 Sm4 Tc4 C8'
_cell_volume   360.49544799
_cell_formula_units_Z   4
loop_
 _symmetry_equiv_pos_site_id
 _symmetry_equiv_pos_as_xyz
  1  'x, y, z'
loop_
 _atom_site_type_symbol
 _atom_site_label
 _atom_site_symmetry_multiplicity
 _atom_site_fract_x
 _atom_site_fract_y
 _atom_site_fract_z
 _atom_site_occupancy
  Nd  Nd0  1  0.750000  0.472171  0.787698  1
  Nd  Nd1  1  0.250000  0.027829  0.287698  1
  Nd  Nd2  1  0.750000  0.972171  0.712302  1
  Nd  Nd3  1  0.250000  0.527829  0.212302  1
  Sm  Sm4  1  0.750000  0.818757  0.054105  1
  Sm  Sm5  1  0.250000  0.181243  0.945895  1
  Sm  Sm6  1  0.750000  0.318757  0.445895  1
  Sm  Sm7  1  0.250000  0.681243  0.554105  1
  Tc  Tc8  1  0.750000  0.773519  0.359227  1
  Tc  Tc9  1  0.250000  0.726481  0.859227  1
  Tc  Tc10  1  0.250000  0.226481  0.640773  1
  Tc  Tc11  1  0.750000  0.273519  0.140773  1
  C  C12  1  0.250000  0.960496  0.741816  1
  C  C13  1  0.750000  0.539504  0.241816  1
  C  C14  1  0.250000  0.460496  0.758184  1
  C  C15  1  0.750000  0.039504  0.258184  1
  C  C16  1  0.250000  0.317476  0.462167  1
  C  C17  1  0.750000  0.182524  0.962167  1
  C  C18  1  0.250000  0.817476  0.037833  1
  C  C19  1  0.750000  0.682524  0.537833  1
