# generated using pymatgen
data_CsK5Mo2O9
_symmetry_space_group_name_H-M   'P 1'
_cell_length_a   8.36327800
_cell_length_b   9.17014700
_cell_length_c   17.21324900
_cell_angle_alpha   90.00000000
_cell_angle_beta   90.00000000
_cell_angle_gamma   90.00000000
_symmetry_Int_Tables_number   1
_chemical_formula_structural   CsK5Mo2O9
_chemical_formula_sum   'Cs4 K20 Mo8 O36'
_cell_volume   1320.12690377
_cell_formula_units_Z   4
loop_
 _symmetry_equiv_pos_site_id
 _symmetry_equiv_pos_as_xyz
  1  'x, y, z'
loop_
 _atom_site_type_symbol
 _atom_site_label
 _atom_site_symmetry_multiplicity
 _atom_site_fract_x
 _atom_site_fract_y
 _atom_site_fract_z
 _atom_site_occupancy
  Cs  Cs0  1  0.250000  0.751390  0.269669  1
  Cs  Cs1  1  0.250000  0.748610  0.769669  1
  Cs  Cs2  1  0.750000  0.248610  0.730331  1
  Cs  Cs3  1  0.750000  0.251390  0.230331  1
  K  K4  1  0.983517  0.015787  0.395164  1
  K  K5  1  0.983517  0.484213  0.895164  1
  K  K6  1  0.516483  0.484213  0.895164  1
  K  K7  1  0.993882  0.968320  0.100939  1
  K  K8  1  0.483517  0.984213  0.604836  1
  K  K9  1  0.750000  0.747440  0.977961  1
  K  K10  1  0.250000  0.247440  0.522039  1
  K  K11  1  0.483517  0.515787  0.104836  1
  K  K12  1  0.006118  0.468320  0.399061  1
  K  K13  1  0.506118  0.531680  0.600939  1
  K  K14  1  0.516483  0.015787  0.395164  1
  K  K15  1  0.993882  0.531680  0.600939  1
  K  K16  1  0.016483  0.984213  0.604836  1
  K  K17  1  0.250000  0.252560  0.022039  1
  K  K18  1  0.493882  0.031680  0.899061  1
  K  K19  1  0.006118  0.031680  0.899061  1
  K  K20  1  0.493882  0.468320  0.399061  1
  K  K21  1  0.750000  0.752560  0.477961  1
  K  K22  1  0.016483  0.515787  0.104836  1
  K  K23  1  0.506118  0.968320  0.100939  1
  Mo  Mo24  1  0.750000  0.249024  0.007969  1
  Mo  Mo25  1  0.750000  0.250976  0.507969  1
  Mo  Mo26  1  0.250000  0.299409  0.755875  1
  Mo  Mo27  1  0.750000  0.799409  0.744125  1
  Mo  Mo28  1  0.250000  0.200591  0.255875  1
  Mo  Mo29  1  0.250000  0.750976  0.992031  1
  Mo  Mo30  1  0.750000  0.700591  0.244125  1
  Mo  Mo31  1  0.250000  0.749024  0.492031  1
  O  O32  1  0.441952  0.755399  0.937844  1
  O  O33  1  0.250000  0.539285  0.989001  1
  O  O34  1  0.941952  0.255399  0.562156  1
  O  O35  1  0.250000  0.230158  0.854039  1
  O  O36  1  0.424281  0.086985  0.243315  1
  O  O37  1  0.558048  0.244601  0.062156  1
  O  O38  1  0.750000  0.037196  0.002531  1
  O  O39  1  0.250000  0.269842  0.354039  1
  O  O40  1  0.058048  0.755399  0.937844  1
  O  O41  1  0.750000  0.255120  0.899022  1
  O  O42  1  0.250000  0.537196  0.497469  1
  O  O43  1  0.250000  0.962804  0.997469  1
  O  O44  1  0.941952  0.244601  0.062156  1
  O  O45  1  0.075719  0.413015  0.743315  1
  O  O46  1  0.924281  0.586985  0.256685  1
  O  O47  1  0.750000  0.652092  0.812441  1
  O  O48  1  0.750000  0.462804  0.502531  1
  O  O49  1  0.250000  0.960715  0.489001  1
  O  O50  1  0.750000  0.039285  0.510999  1
  O  O51  1  0.441952  0.744601  0.437844  1
  O  O52  1  0.750000  0.730158  0.645961  1
  O  O53  1  0.575719  0.586985  0.256685  1
  O  O54  1  0.750000  0.244880  0.399022  1
  O  O55  1  0.750000  0.769842  0.145961  1
  O  O56  1  0.575719  0.913015  0.756685  1
  O  O57  1  0.750000  0.460715  0.010999  1
  O  O58  1  0.250000  0.347908  0.187559  1
  O  O59  1  0.075719  0.086985  0.243315  1
  O  O60  1  0.924281  0.913015  0.756685  1
  O  O61  1  0.250000  0.755120  0.600978  1
  O  O62  1  0.250000  0.744880  0.100978  1
  O  O63  1  0.250000  0.152092  0.687559  1
  O  O64  1  0.558048  0.255399  0.562156  1
  O  O65  1  0.058048  0.744601  0.437844  1
  O  O66  1  0.750000  0.847908  0.312441  1
  O  O67  1  0.424281  0.413015  0.743315  1
