# generated using pymatgen
data_Ga3Pt3Rh2
_symmetry_space_group_name_H-M   'P 1'
_cell_length_a   5.46035384
_cell_length_b   5.46035318
_cell_length_c   4.00474300
_cell_angle_alpha   90.00000000
_cell_angle_beta   90.00000000
_cell_angle_gamma   95.90399824
_symmetry_Int_Tables_number   1
_chemical_formula_structural   Ga3Pt3Rh2
_chemical_formula_sum   'Ga3 Pt3 Rh2'
_cell_volume   118.76989881
_cell_formula_units_Z   1
loop_
 _symmetry_equiv_pos_site_id
 _symmetry_equiv_pos_as_xyz
  1  'x, y, z'
loop_
 _atom_site_type_symbol
 _atom_site_label
 _atom_site_symmetry_multiplicity
 _atom_site_fract_x
 _atom_site_fract_y
 _atom_site_fract_z
 _atom_site_occupancy
  Ga  Ga0  1  0.000000  0.000000  0.000000  1
  Ga  Ga1  1  0.718223  0.281777  0.500000  1
  Ga  Ga2  1  0.281777  0.718223  0.500000  1
  Pt  Pt3  1  0.500000  0.500000  0.000000  1
  Pt  Pt4  1  0.000000  0.500000  0.000000  1
  Pt  Pt5  1  0.500000  0.000000  0.000000  1
  Rh  Rh6  1  0.208500  0.208500  0.500000  1
  Rh  Rh7  1  0.791500  0.791500  0.500000  1
