# generated using pymatgen
data_Na2Cu(SiPd2)3
_symmetry_space_group_name_H-M   'P 1'
_cell_length_a   6.69265608
_cell_length_b   6.68133117
_cell_length_c   6.69265659
_cell_angle_alpha   129.91895757
_cell_angle_beta   114.30161257
_cell_angle_gamma   87.00516581
_symmetry_Int_Tables_number   1
_chemical_formula_structural   Na2Cu(SiPd2)3
_chemical_formula_sum   'Na2 Cu1 Si3 Pd6'
_cell_volume   199.34850374
_cell_formula_units_Z   1
loop_
 _symmetry_equiv_pos_site_id
 _symmetry_equiv_pos_as_xyz
  1  'x, y, z'
loop_
 _atom_site_type_symbol
 _atom_site_label
 _atom_site_symmetry_multiplicity
 _atom_site_fract_x
 _atom_site_fract_y
 _atom_site_fract_z
 _atom_site_occupancy
  Na  Na0  1  0.004646  0.984850  0.980204  1
  Na  Na1  1  0.497388  0.048529  0.551141  1
  Cu  Cu2  1  0.361776  0.440952  0.079175  1
  Si  Si3  1  0.806274  0.233831  0.427557  1
  Si  Si4  1  0.634829  0.686402  0.051573  1
  Si  Si5  1  0.199727  0.617188  0.417462  1
  Pd  Pd6  1  0.946301  0.502939  0.952643  1
  Pd  Pd7  1  0.550295  0.502939  0.556638  1
  Pd  Pd8  1  0.034864  0.993439  0.534139  1
  Pd  Pd9  1  0.800803  0.490247  0.286451  1
  Pd  Pd10  1  0.203796  0.490247  0.689443  1
  Pd  Pd11  1  0.459300  0.993439  0.958574  1
