# generated using pymatgen
data_Li3Tb3ZnP2
_symmetry_space_group_name_H-M   'P 1'
_cell_length_a   6.99687500
_cell_length_b   6.99687382
_cell_length_c   4.08633700
_cell_angle_alpha   90.00000000
_cell_angle_beta   90.00000000
_cell_angle_gamma   119.99999140
_symmetry_Int_Tables_number   1
_chemical_formula_structural   Li3Tb3ZnP2
_chemical_formula_sum   'Li3 Tb3 Zn1 P2'
_cell_volume   173.24990558
_cell_formula_units_Z   1
loop_
 _symmetry_equiv_pos_site_id
 _symmetry_equiv_pos_as_xyz
  1  'x, y, z'
loop_
 _atom_site_type_symbol
 _atom_site_label
 _atom_site_symmetry_multiplicity
 _atom_site_fract_x
 _atom_site_fract_y
 _atom_site_fract_z
 _atom_site_occupancy
  Li  Li0  1  0.750283  0.750283  0.500000  1
  Li  Li1  1  0.249717  0.000000  0.500000  1
  Li  Li2  1  0.000000  0.249717  0.500000  1
  Tb  Tb3  1  0.421444  0.421444  0.000000  1
  Tb  Tb4  1  0.578556  0.000000  0.000000  1
  Tb  Tb5  1  0.000000  0.578556  0.000000  1
  Zn  Zn6  1  0.000000  0.000000  0.000000  1
  P  P7  1  0.666667  0.333333  0.500000  1
  P  P8  1  0.333333  0.666667  0.500000  1
