# generated using pymatgen
data_HoErPa2(Pt2Pb)2
_symmetry_space_group_name_H-M   'P 1'
_cell_length_a   7.95063122
_cell_length_b   7.93871224
_cell_length_c   3.61166000
_cell_angle_alpha   90.00000000
_cell_angle_beta   90.00000000
_cell_angle_gamma   90.17911378
_symmetry_Int_Tables_number   1
_chemical_formula_structural   HoErPa2(Pt2Pb)2
_chemical_formula_sum   'Ho1 Er1 Pa2 Pt4 Pb2'
_cell_volume   227.95882369
_cell_formula_units_Z   1
loop_
 _symmetry_equiv_pos_site_id
 _symmetry_equiv_pos_as_xyz
  1  'x, y, z'
loop_
 _atom_site_type_symbol
 _atom_site_label
 _atom_site_symmetry_multiplicity
 _atom_site_fract_x
 _atom_site_fract_y
 _atom_site_fract_z
 _atom_site_occupancy
  Ho  Ho0  1  0.828175  0.671668  0.500000  1
  Er  Er1  1  0.328313  0.828577  0.500000  1
  Pa  Pa2  1  0.668128  0.168097  0.500000  1
  Pa  Pa3  1  0.168458  0.331815  0.500000  1
  Pt  Pt4  1  0.370996  0.138216  0.000000  1
  Pt  Pt5  1  0.129050  0.614974  0.000000  1
  Pt  Pt6  1  0.627798  0.885398  0.000000  1
  Pt  Pt7  1  0.871305  0.361225  0.000000  1
  Pb  Pb8  1  0.004057  0.988019  0.000000  1
  Pb  Pb9  1  0.503723  0.512012  0.000000  1
