# generated using pymatgen
data_CsY3CI6
_symmetry_space_group_name_H-M   'P 1'
_cell_length_a   9.40089192
_cell_length_b   9.47563754
_cell_length_c   9.96655757
_cell_angle_alpha   71.47158509
_cell_angle_beta   84.53755103
_cell_angle_gamma   89.34961822
_symmetry_Int_Tables_number   1
_chemical_formula_structural   CsY3CI6
_chemical_formula_sum   'Cs2 Y6 C2 I12'
_cell_volume   837.80577962
_cell_formula_units_Z   2
loop_
 _symmetry_equiv_pos_site_id
 _symmetry_equiv_pos_as_xyz
  1  'x, y, z'
loop_
 _atom_site_type_symbol
 _atom_site_label
 _atom_site_symmetry_multiplicity
 _atom_site_fract_x
 _atom_site_fract_y
 _atom_site_fract_z
 _atom_site_occupancy
  Cs  Cs0  1  0.464749  0.367671  0.328154  1
  Cs  Cs1  1  0.535252  0.632329  0.671846  1
  Y  Y2  1  0.920090  0.757884  0.003705  1
  Y  Y3  1  0.079910  0.242116  0.996294  1
  Y  Y4  1  0.755428  0.081485  0.001318  1
  Y  Y5  1  0.244571  0.918515  0.998683  1
  Y  Y6  1  0.973323  0.895713  0.310459  1
  Y  Y7  1  0.026676  0.104287  0.689542  1
  C  C8  1  0.006491  0.024640  0.924821  1
  C  C9  1  0.993508  0.975360  0.075179  1
  I  I10  1  0.074751  0.199946  0.329052  1
  I  I11  1  0.925249  0.800054  0.670948  1
  I  I12  1  0.203714  0.594359  0.999901  1
  I  I13  1  0.796287  0.405641  0.000099  1
  I  I14  1  0.403132  0.200075  0.001875  1
  I  I15  1  0.596867  0.799926  0.998124  1
  I  I16  1  0.664156  0.002162  0.327390  1
  I  I17  1  0.335844  0.997838  0.672610  1
  I  I18  1  0.279293  0.777982  0.323378  1
  I  I19  1  0.720707  0.222018  0.676622  1
  I  I20  1  0.852125  0.591119  0.327716  1
  I  I21  1  0.147874  0.408881  0.672284  1
