# generated using pymatgen
data_AgF35
_symmetry_space_group_name_H-M   'P 1'
_cell_length_a   8.88361809
_cell_length_b   8.21374741
_cell_length_c   10.29498747
_cell_angle_alpha   83.57031478
_cell_angle_beta   93.79871830
_cell_angle_gamma   63.63551242
_symmetry_Int_Tables_number   1
_chemical_formula_structural   AgF35
_chemical_formula_sum   'Ag1 F35'
_cell_volume   663.13530002
_cell_formula_units_Z   1
loop_
 _symmetry_equiv_pos_site_id
 _symmetry_equiv_pos_as_xyz
  1  'x, y, z'
loop_
 _atom_site_type_symbol
 _atom_site_label
 _atom_site_symmetry_multiplicity
 _atom_site_fract_x
 _atom_site_fract_y
 _atom_site_fract_z
 _atom_site_occupancy
  Ag  Ag0  1  0.870472  0.247073  0.759196  1
  F  F1  1  0.161155  0.773361  0.186005  1
  F  F2  1  0.597395  0.222888  0.490600  1
  F  F3  1  0.387310  0.801073  0.488476  1
  F  F4  1  0.815636  0.681365  0.736323  1
  F  F5  1  0.142868  0.333347  0.299961  1
  F  F6  1  0.117041  0.726572  0.869838  1
  F  F7  1  0.901981  0.220851  0.139368  1
  F  F8  1  0.552573  0.162956  0.374660  1
  F  F9  1  0.432160  0.827156  0.617416  1
  F  F10  1  0.637233  0.344212  0.678493  1
  F  F11  1  0.388255  0.756117  0.234516  1
  F  F12  1  0.939941  0.052849  0.652080  1
  F  F13  1  0.007037  0.870700  0.440787  1
  F  F14  1  0.909692  0.396607  0.619329  1
  F  F15  1  0.089642  0.675822  0.450377  1
  F  F16  1  0.819554  0.830151  0.651336  1
  F  F17  1  0.155814  0.170279  0.376241  1
  F  F18  1  0.802536  0.445096  0.863467  1
  F  F19  1  0.109645  0.574775  0.117536  1
  F  F20  1  0.223128  0.694683  0.768489  1
  F  F21  1  0.791344  0.290529  0.235084  1
  F  F22  1  0.895699  0.764123  0.112127  1
  F  F23  1  0.102079  0.151399  0.841257  1
  F  F24  1  0.831790  0.095272  0.896252  1
  F  F25  1  0.246959  0.910882  0.075560  1
  F  F26  1  0.494755  0.576543  0.993986  1
  F  F27  1  0.513104  0.395099  0.998651  1
  F  F28  1  0.468379  0.085243  0.862123  1
  F  F29  1  0.576439  0.938907  0.139341  1
  F  F30  1  0.280691  0.252464  0.603175  1
  F  F31  1  0.728208  0.741388  0.406227  1
  F  F32  1  0.266697  0.393966  0.676620  1
  F  F33  1  0.756776  0.592438  0.336633  1
  F  F34  1  0.547608  0.893664  0.856553  1
  F  F35  1  0.438397  0.110150  0.151920  1
