# generated using pymatgen
data_RbCo2P3O10
_symmetry_space_group_name_H-M   'P 1'
_cell_length_a   7.96656582
_cell_length_b   7.96660897
_cell_length_c   9.56936857
_cell_angle_alpha   69.54894403
_cell_angle_beta   69.54832046
_cell_angle_gamma   71.93777690
_symmetry_Int_Tables_number   1
_chemical_formula_structural   RbCo2P3O10
_chemical_formula_sum   'Rb2 Co4 P6 O20'
_cell_volume   520.82203315
_cell_formula_units_Z   2
loop_
 _symmetry_equiv_pos_site_id
 _symmetry_equiv_pos_as_xyz
  1  'x, y, z'
loop_
 _atom_site_type_symbol
 _atom_site_label
 _atom_site_symmetry_multiplicity
 _atom_site_fract_x
 _atom_site_fract_y
 _atom_site_fract_z
 _atom_site_occupancy
  Rb  Rb0  1  0.702847  0.297155  0.249996  1
  Rb  Rb1  1  0.297153  0.702845  0.750004  1
  Co  Co2  1  0.687167  0.784030  0.948215  1
  Co  Co3  1  0.312833  0.215970  0.051785  1
  Co  Co4  1  0.215978  0.312847  0.551781  1
  Co  Co5  1  0.784022  0.687153  0.448219  1
  P  P6  1  0.854642  0.476793  0.772168  1
  P  P7  1  0.476796  0.854650  0.272164  1
  P  P8  1  0.145358  0.523207  0.227832  1
  P  P9  1  0.107525  0.892471  0.250004  1
  P  P10  1  0.892475  0.107529  0.749996  1
  P  P11  1  0.523204  0.145350  0.727836  1
  O  O12  1  0.574950  0.720792  0.171606  1
  O  O13  1  0.425050  0.279208  0.828394  1
  O  O14  1  0.279213  0.425072  0.328393  1
  O  O15  1  0.944709  0.520410  0.318860  1
  O  O16  1  0.740225  0.163262  0.658582  1
  O  O17  1  0.075854  0.116095  0.630478  1
  O  O18  1  0.836742  0.259772  0.841417  1
  O  O19  1  0.204797  0.464003  0.079290  1
  O  O20  1  0.720787  0.574928  0.671607  1
  O  O21  1  0.259775  0.836738  0.341418  1
  O  O22  1  0.520414  0.944706  0.818863  1
  O  O23  1  0.883923  0.924151  0.869506  1
  O  O24  1  0.479586  0.055294  0.181137  1
  O  O25  1  0.055291  0.479590  0.681140  1
  O  O26  1  0.535996  0.795224  0.420708  1
  O  O27  1  0.924146  0.883905  0.369522  1
  O  O28  1  0.163258  0.740228  0.158583  1
  O  O29  1  0.464004  0.204776  0.579292  1
  O  O30  1  0.795203  0.535997  0.920710  1
  O  O31  1  0.116077  0.075849  0.130494  1
