# generated using pymatgen
data_Th12Zn9Au3C4
_symmetry_space_group_name_H-M   'P 1'
_cell_length_a   9.47727317
_cell_length_b   9.47727417
_cell_length_c   9.47727463
_cell_angle_alpha   60.21093768
_cell_angle_beta   60.21093304
_cell_angle_gamma   60.21093835
_symmetry_Int_Tables_number   1
_chemical_formula_structural   Th12Zn9Au3C4
_chemical_formula_sum   'Th12 Zn9 Au3 C4'
_cell_volume   604.78998072
_cell_formula_units_Z   1
loop_
 _symmetry_equiv_pos_site_id
 _symmetry_equiv_pos_as_xyz
  1  'x, y, z'
loop_
 _atom_site_type_symbol
 _atom_site_label
 _atom_site_symmetry_multiplicity
 _atom_site_fract_x
 _atom_site_fract_y
 _atom_site_fract_z
 _atom_site_occupancy
  Th  Th0  1  0.444900  0.444900  0.056130  1
  Th  Th1  1  0.055641  0.444368  0.055641  1
  Th  Th2  1  0.444368  0.055641  0.055641  1
  Th  Th3  1  0.055641  0.055641  0.444368  1
  Th  Th4  1  0.444900  0.056130  0.444900  1
  Th  Th5  1  0.056130  0.444900  0.444900  1
  Th  Th6  1  0.805100  0.805100  0.193870  1
  Th  Th7  1  0.194359  0.805632  0.194359  1
  Th  Th8  1  0.805632  0.194359  0.194359  1
  Th  Th9  1  0.194359  0.194359  0.805632  1
  Th  Th10  1  0.805100  0.193870  0.805100  1
  Th  Th11  1  0.193870  0.805100  0.805100  1
  Zn  Zn12  1  0.825366  0.825366  0.520891  1
  Zn  Zn13  1  0.825366  0.520891  0.825366  1
  Zn  Zn14  1  0.520891  0.825366  0.825366  1
  Zn  Zn15  1  0.825660  0.825660  0.825660  1
  Zn  Zn16  1  0.424634  0.424634  0.729109  1
  Zn  Zn17  1  0.424634  0.729109  0.424634  1
  Zn  Zn18  1  0.729109  0.424634  0.424634  1
  Zn  Zn19  1  0.424340  0.424340  0.424340  1
  Zn  Zn20  1  0.625000  0.625000  0.625000  1
  Au  Au21  1  0.625000  0.625000  0.125000  1
  Au  Au22  1  0.625000  0.125000  0.625000  1
  Au  Au23  1  0.125000  0.625000  0.625000  1
  C  C24  1  0.125000  0.125000  0.625000  1
  C  C25  1  0.125000  0.625000  0.125000  1
  C  C26  1  0.625000  0.125000  0.125000  1
  C  C27  1  0.125000  0.125000  0.125000  1
