# generated using pymatgen
data_Sc2Ti3Zn(Co5B2)2
_symmetry_space_group_name_H-M   'P 1'
_cell_length_a   8.63609201
_cell_length_b   8.63711301
_cell_length_c   2.97479400
_cell_angle_alpha   90.00000000
_cell_angle_beta   90.00000000
_cell_angle_gamma   89.99597313
_symmetry_Int_Tables_number   1
_chemical_formula_structural   Sc2Ti3Zn(Co5B2)2
_chemical_formula_sum   'Sc2 Ti3 Zn1 Co10 B4'
_cell_volume   221.89256889
_cell_formula_units_Z   1
loop_
 _symmetry_equiv_pos_site_id
 _symmetry_equiv_pos_as_xyz
  1  'x, y, z'
loop_
 _atom_site_type_symbol
 _atom_site_label
 _atom_site_symmetry_multiplicity
 _atom_site_fract_x
 _atom_site_fract_y
 _atom_site_fract_z
 _atom_site_occupancy
  Sc  Sc0  1  0.826496  0.322575  0.000000  1
  Sc  Sc1  1  0.320630  0.171601  0.000000  1
  Ti  Ti2  1  0.500436  0.498770  0.000000  1
  Ti  Ti3  1  0.677363  0.826465  0.000000  1
  Ti  Ti4  1  0.172811  0.677977  0.000000  1
  Zn  Zn5  1  0.002706  0.003541  0.000000  1
  Co  Co6  1  0.502102  0.990859  0.500000  1
  Co  Co7  1  0.002722  0.509553  0.500000  1
  Co  Co8  1  0.069773  0.228326  0.500000  1
  Co  Co9  1  0.220797  0.917386  0.500000  1
  Co  Co10  1  0.775864  0.059832  0.500000  1
  Co  Co11  1  0.928691  0.783025  0.500000  1
  Co  Co12  1  0.431044  0.717149  0.500000  1
  Co  Co13  1  0.568403  0.273671  0.500000  1
  Co  Co14  1  0.720338  0.579036  0.500000  1
  Co  Co15  1  0.277065  0.440328  0.500000  1
  B  B16  1  0.622979  0.113062  0.000000  1
  B  B17  1  0.120452  0.383919  0.000000  1
  B  B18  1  0.881508  0.629496  0.000000  1
  B  B19  1  0.377820  0.873430  0.000000  1
