# generated using pymatgen
data_Cs2HfCd3As4
_symmetry_space_group_name_H-M   'P 1'
_cell_length_a   8.36910281
_cell_length_b   8.36910264
_cell_length_c   6.38376200
_cell_angle_alpha   90.00000000
_cell_angle_beta   90.00000000
_cell_angle_gamma   135.11255910
_symmetry_Int_Tables_number   1
_chemical_formula_structural   Cs2HfCd3As4
_chemical_formula_sum   'Cs2 Hf1 Cd3 As4'
_cell_volume   315.54741377
_cell_formula_units_Z   1
loop_
 _symmetry_equiv_pos_site_id
 _symmetry_equiv_pos_as_xyz
  1  'x, y, z'
loop_
 _atom_site_type_symbol
 _atom_site_label
 _atom_site_symmetry_multiplicity
 _atom_site_fract_x
 _atom_site_fract_y
 _atom_site_fract_z
 _atom_site_occupancy
  Cs  Cs0  1  0.500000  0.000000  0.254476  1
  Cs  Cs1  1  0.000000  0.500000  0.745524  1
  Hf  Hf2  1  0.000000  0.000000  0.000000  1
  Cd  Cd3  1  0.500000  0.500000  0.500000  1
  Cd  Cd4  1  0.500000  0.500000  0.000000  1
  Cd  Cd5  1  0.000000  0.000000  0.500000  1
  As  As6  1  0.662969  0.867824  0.765606  1
  As  As7  1  0.132176  0.337031  0.234394  1
  As  As8  1  0.867824  0.662969  0.234394  1
  As  As9  1  0.337031  0.132176  0.765606  1
