# generated using pymatgen
data_LiDyTaB6
_symmetry_space_group_name_H-M   'P 1'
_cell_length_a   3.40783300
_cell_length_b   8.91651300
_cell_length_c   11.28141400
_cell_angle_alpha   90.00000000
_cell_angle_beta   90.00000000
_cell_angle_gamma   90.00000000
_symmetry_Int_Tables_number   1
_chemical_formula_structural   LiDyTaB6
_chemical_formula_sum   'Li4 Dy4 Ta4 B24'
_cell_volume   342.79690192
_cell_formula_units_Z   4
loop_
 _symmetry_equiv_pos_site_id
 _symmetry_equiv_pos_as_xyz
  1  'x, y, z'
loop_
 _atom_site_type_symbol
 _atom_site_label
 _atom_site_symmetry_multiplicity
 _atom_site_fract_x
 _atom_site_fract_y
 _atom_site_fract_z
 _atom_site_occupancy
  Li  Li0  1  0.000000  0.143067  0.182480  1
  Li  Li1  1  0.000000  0.856933  0.817520  1
  Li  Li2  1  0.000000  0.643067  0.317520  1
  Li  Li3  1  0.000000  0.356933  0.682480  1
  Dy  Dy4  1  0.000000  0.820822  0.087314  1
  Dy  Dy5  1  0.000000  0.179178  0.912686  1
  Dy  Dy6  1  0.000000  0.320822  0.412686  1
  Dy  Dy7  1  0.000000  0.679178  0.587314  1
  Ta  Ta8  1  0.000000  0.444810  0.128362  1
  Ta  Ta9  1  0.000000  0.555190  0.871638  1
  Ta  Ta10  1  0.000000  0.944810  0.371638  1
  Ta  Ta11  1  0.000000  0.055190  0.628362  1
  B  B12  1  0.500000  0.052125  0.065149  1
  B  B13  1  0.500000  0.947875  0.934851  1
  B  B14  1  0.500000  0.552125  0.434851  1
  B  B15  1  0.500000  0.447875  0.565149  1
  B  B16  1  0.500000  0.254278  0.083015  1
  B  B17  1  0.500000  0.745722  0.916985  1
  B  B18  1  0.500000  0.754278  0.416985  1
  B  B19  1  0.500000  0.245722  0.583015  1
  B  B20  1  0.500000  0.299552  0.234762  1
  B  B21  1  0.500000  0.700448  0.765238  1
  B  B22  1  0.500000  0.799552  0.265238  1
  B  B23  1  0.500000  0.200448  0.734762  1
  B  B24  1  0.500000  0.128208  0.318041  1
  B  B25  1  0.500000  0.871792  0.681959  1
  B  B26  1  0.500000  0.628208  0.181959  1
  B  B27  1  0.500000  0.371792  0.818041  1
  B  B28  1  0.500000  0.481673  0.285416  1
  B  B29  1  0.500000  0.518327  0.714584  1
  B  B30  1  0.500000  0.981673  0.214584  1
  B  B31  1  0.500000  0.018327  0.785416  1
  B  B32  1  0.500000  0.097883  0.473959  1
  B  B33  1  0.500000  0.902117  0.526041  1
  B  B34  1  0.500000  0.597883  0.026041  1
  B  B35  1  0.500000  0.402117  0.973959  1
