# generated using pymatgen
data_Ca9PrSi6F
_symmetry_space_group_name_H-M   'P 1'
_cell_length_a   9.13913468
_cell_length_b   9.10331644
_cell_length_c   9.12518434
_cell_angle_alpha   130.17635652
_cell_angle_beta   130.28059876
_cell_angle_gamma   73.00821731
_symmetry_Int_Tables_number   1
_chemical_formula_structural   Ca9PrSi6F
_chemical_formula_sum   'Ca9 Pr1 Si6 F1'
_cell_volume   432.24921705
_cell_formula_units_Z   1
loop_
 _symmetry_equiv_pos_site_id
 _symmetry_equiv_pos_as_xyz
  1  'x, y, z'
loop_
 _atom_site_type_symbol
 _atom_site_label
 _atom_site_symmetry_multiplicity
 _atom_site_fract_x
 _atom_site_fract_y
 _atom_site_fract_z
 _atom_site_occupancy
  Ca  Ca0  1  0.432189  0.773033  0.000000  1
  Ca  Ca1  1  0.933376  0.931422  0.645190  1
  Ca  Ca2  1  0.288186  0.286232  0.354810  1
  Ca  Ca3  1  0.710973  0.066042  0.000000  1
  Ca  Ca4  1  0.067928  0.712194  0.000000  1
  Ca  Ca5  1  0.565526  0.565828  0.336793  1
  Ca  Ca6  1  0.228732  0.229035  0.663207  1
  Ca  Ca7  1  0.254188  0.754221  0.505714  1
  Ca  Ca8  1  0.748474  0.248507  0.494286  1
  Pr  Pr9  1  0.781841  0.430624  0.000000  1
  Si  Si10  1  0.996976  0.500442  0.494889  1
  Si  Si11  1  0.502087  0.005554  0.505111  1
  Si  Si12  1  0.131382  0.359493  0.000000  1
  Si  Si13  1  0.360605  0.135715  0.000000  1
  Si  Si14  1  0.865367  0.862449  0.225842  1
  Si  Si15  1  0.639525  0.636607  0.774158  1
  F  F16  1  0.492645  0.502602  0.000000  1
