# generated using pymatgen
data_Lu12CdNi4Os
_symmetry_space_group_name_H-M   'P 1'
_cell_length_a   8.10548666
_cell_length_b   8.10548678
_cell_length_c   8.10548610
_cell_angle_alpha   110.99670340
_cell_angle_beta   110.51001788
_cell_angle_gamma   106.93667492
_symmetry_Int_Tables_number   1
_chemical_formula_structural   Lu12CdNi4Os
_chemical_formula_sum   'Lu12 Cd1 Ni4 Os1'
_cell_volume   409.32932729
_cell_formula_units_Z   1
loop_
 _symmetry_equiv_pos_site_id
 _symmetry_equiv_pos_as_xyz
  1  'x, y, z'
loop_
 _atom_site_type_symbol
 _atom_site_label
 _atom_site_symmetry_multiplicity
 _atom_site_fract_x
 _atom_site_fract_y
 _atom_site_fract_z
 _atom_site_occupancy
  Lu  Lu0  1  0.677225  0.872186  0.194962  1
  Lu  Lu1  1  0.322775  0.517737  0.194962  1
  Lu  Lu2  1  0.820357  0.774915  0.595272  1
  Lu  Lu3  1  0.179643  0.774915  0.954559  1
  Lu  Lu4  1  0.820357  0.225085  0.045441  1
  Lu  Lu5  1  0.179643  0.225085  0.404728  1
  Lu  Lu6  1  0.677225  0.482263  0.805038  1
  Lu  Lu7  1  0.322775  0.127814  0.805038  1
  Lu  Lu8  1  0.581099  0.271863  0.309235  1
  Lu  Lu9  1  0.418901  0.728137  0.690765  1
  Lu  Lu10  1  0.037372  0.728137  0.309235  1
  Lu  Lu11  1  0.962628  0.271863  0.690765  1
  Cd  Cd12  1  0.500000  0.000000  0.500000  1
  Ni  Ni13  1  0.358015  0.500000  0.858015  1
  Ni  Ni14  1  0.641985  0.500000  0.141985  1
  Ni  Ni15  1  0.882587  0.882587  0.000000  1
  Ni  Ni16  1  0.117413  0.117413  0.000000  1
  Os  Os17  1  0.000000  0.500000  0.500000  1
