# generated using pymatgen
data_Tb2Ho5Sn23Os6
_symmetry_space_group_name_H-M   'P 1'
_cell_length_a   9.85113538
_cell_length_b   9.85113493
_cell_length_c   10.12529710
_cell_angle_alpha   89.98586724
_cell_angle_beta   90.01413330
_cell_angle_gamma   119.97134168
_symmetry_Int_Tables_number   1
_chemical_formula_structural   Tb2Ho5Sn23Os6
_chemical_formula_sum   'Tb2 Ho5 Sn23 Os6'
_cell_volume   851.20915908
_cell_formula_units_Z   1
loop_
 _symmetry_equiv_pos_site_id
 _symmetry_equiv_pos_as_xyz
  1  'x, y, z'
loop_
 _atom_site_type_symbol
 _atom_site_label
 _atom_site_symmetry_multiplicity
 _atom_site_fract_x
 _atom_site_fract_y
 _atom_site_fract_z
 _atom_site_occupancy
  Tb  Tb0  1  0.000001  0.999999  0.000004  1
  Tb  Tb1  1  0.514960  0.485040  0.697903  1
  Ho  Ho2  1  0.514676  0.029395  0.698078  1
  Ho  Ho3  1  0.970605  0.485324  0.698078  1
  Ho  Ho4  1  0.029369  0.514708  0.301915  1
  Ho  Ho5  1  0.485292  0.970631  0.301915  1
  Ho  Ho6  1  0.485313  0.514687  0.301905  1
  Sn  Sn7  1  0.666675  0.333325  0.175282  1
  Sn  Sn8  1  0.666867  0.333133  0.870085  1
  Sn  Sn9  1  0.333348  0.666652  0.130129  1
  Sn  Sn10  1  0.349876  0.349889  0.000069  1
  Sn  Sn11  1  0.000013  0.650044  0.999998  1
  Sn  Sn12  1  0.650058  0.000045  0.000004  1
  Sn  Sn13  1  0.650111  0.650124  0.000069  1
  Sn  Sn14  1  0.333269  0.666731  0.824773  1
  Sn  Sn15  1  0.439773  0.219809  0.462955  1
  Sn  Sn16  1  0.219901  0.780099  0.536886  1
  Sn  Sn17  1  0.219630  0.439738  0.536769  1
  Sn  Sn18  1  0.560262  0.780370  0.536769  1
  Sn  Sn19  1  0.117823  0.882177  0.275869  1
  Sn  Sn20  1  0.780191  0.560227  0.462955  1
  Sn  Sn21  1  0.780108  0.219892  0.463115  1
  Sn  Sn22  1  0.349956  0.999987  0.999998  1
  Sn  Sn23  1  0.117797  0.235608  0.275858  1
  Sn  Sn24  1  0.764392  0.882203  0.275858  1
  Sn  Sn25  1  0.235474  0.117610  0.724172  1
  Sn  Sn26  1  0.882390  0.764526  0.724172  1
  Sn  Sn27  1  0.882192  0.117808  0.724127  1
  Sn  Sn28  1  0.999986  0.000014  0.499997  1
  Sn  Sn29  1  0.999955  0.349942  0.000004  1
  Os  Os30  1  0.170448  0.829552  0.797675  1
  Os  Os31  1  0.169984  0.340698  0.797747  1
  Os  Os32  1  0.659302  0.830016  0.797747  1
  Os  Os33  1  0.340887  0.170435  0.202363  1
  Os  Os34  1  0.829565  0.659113  0.202363  1
  Os  Os35  1  0.829549  0.170451  0.202395  1
