# generated using pymatgen
data_Er4FeCo4Cu3O20
_symmetry_space_group_name_H-M   'P 1'
_cell_length_a   5.62729800
_cell_length_b   7.34745440
_cell_length_c   8.38032017
_cell_angle_alpha   90.32049255
_cell_angle_beta   90.00000000
_cell_angle_gamma   90.00000000
_symmetry_Int_Tables_number   1
_chemical_formula_structural   Er4FeCo4Cu3O20
_chemical_formula_sum   'Er4 Fe1 Co4 Cu3 O20'
_cell_volume   346.48994030
_cell_formula_units_Z   1
loop_
 _symmetry_equiv_pos_site_id
 _symmetry_equiv_pos_as_xyz
  1  'x, y, z'
loop_
 _atom_site_type_symbol
 _atom_site_label
 _atom_site_symmetry_multiplicity
 _atom_site_fract_x
 _atom_site_fract_y
 _atom_site_fract_z
 _atom_site_occupancy
  Er  Er0  1  0.500000  0.362684  0.326397  1
  Er  Er1  1  0.500000  0.635515  0.675044  1
  Er  Er2  1  0.500000  0.146478  0.827414  1
  Er  Er3  1  0.500000  0.847012  0.167862  1
  Fe  Fe4  1  0.000000  0.609341  0.354814  1
  Co  Co5  1  0.246018  0.002329  0.497907  1
  Co  Co6  1  0.753982  0.002329  0.497907  1
  Co  Co7  1  0.757883  0.497907  0.998993  1
  Co  Co8  1  0.242117  0.497907  0.998993  1
  Cu  Cu9  1  0.000000  0.072185  0.154167  1
  Cu  Cu10  1  0.000000  0.925478  0.844379  1
  Cu  Cu11  1  0.000000  0.421927  0.653323  1
  O  O12  1  0.226335  0.998613  0.999588  1
  O  O13  1  0.773665  0.998613  0.999588  1
  O  O14  1  0.766736  0.496775  0.503837  1
  O  O15  1  0.233264  0.496775  0.503837  1
  O  O16  1  0.000000  0.358074  0.069930  1
  O  O17  1  0.000000  0.641529  0.935267  1
  O  O18  1  0.000000  0.144247  0.563745  1
  O  O19  1  0.000000  0.849744  0.430105  1
  O  O20  1  0.258730  0.099204  0.292733  1
  O  O21  1  0.740644  0.901355  0.706933  1
  O  O22  1  0.259356  0.901355  0.706933  1
  O  O23  1  0.740792  0.396455  0.791785  1
  O  O24  1  0.741270  0.099204  0.292733  1
  O  O25  1  0.265088  0.600568  0.208614  1
  O  O26  1  0.734912  0.600568  0.208614  1
  O  O27  1  0.259208  0.396455  0.791785  1
  O  O28  1  0.500000  0.335781  0.053538  1
  O  O29  1  0.500000  0.660831  0.942679  1
  O  O30  1  0.500000  0.163809  0.553957  1
  O  O31  1  0.500000  0.838952  0.446600  1
