# generated using pymatgen
data_KRbSe12
_symmetry_space_group_name_H-M   'P 1'
_cell_length_a   11.41130991
_cell_length_b   11.41131041
_cell_length_c   11.41125373
_cell_angle_alpha   129.54021727
_cell_angle_beta   120.92478736
_cell_angle_gamma   81.34256152
_symmetry_Int_Tables_number   1
_chemical_formula_structural   KRbSe12
_chemical_formula_sum   'K2 Rb2 Se24'
_cell_volume   947.33950906
_cell_formula_units_Z   2
loop_
 _symmetry_equiv_pos_site_id
 _symmetry_equiv_pos_as_xyz
  1  'x, y, z'
loop_
 _atom_site_type_symbol
 _atom_site_label
 _atom_site_symmetry_multiplicity
 _atom_site_fract_x
 _atom_site_fract_y
 _atom_site_fract_z
 _atom_site_occupancy
  K  K0  1  0.500000  0.500000  0.000000  1
  K  K1  1  0.000000  0.000000  0.000000  1
  Rb  Rb2  1  0.749999  0.249999  0.500000  1
  Rb  Rb3  1  0.250001  0.750001  0.500000  1
  Se  Se4  1  0.646305  0.749995  0.896299  1
  Se  Se5  1  0.853696  0.750006  0.103701  1
  Se  Se6  1  0.353695  0.250005  0.103701  1
  Se  Se7  1  0.146304  0.249994  0.896299  1
  Se  Se8  1  0.245751  0.146992  0.683987  1
  Se  Se9  1  0.254240  0.938237  0.901233  1
  Se  Se10  1  0.037003  0.353007  0.098767  1
  Se  Se11  1  0.463005  0.561764  0.316013  1
  Se  Se12  1  0.754249  0.853008  0.316013  1
  Se  Se13  1  0.745760  0.061763  0.098767  1
  Se  Se14  1  0.962997  0.646993  0.901233  1
  Se  Se15  1  0.536995  0.438236  0.683987  1
  Se  Se16  1  0.920864  0.822564  0.523806  1
  Se  Se17  1  0.579147  0.102957  0.901724  1
  Se  Se18  1  0.201234  0.677424  0.098276  1
  Se  Se19  1  0.298756  0.397056  0.476194  1
  Se  Se20  1  0.079136  0.177436  0.476194  1
  Se  Se21  1  0.420853  0.897043  0.098276  1
  Se  Se22  1  0.798767  0.322576  0.901724  1
  Se  Se23  1  0.701244  0.602944  0.523806  1
  Se  Se24  1  0.667284  0.066774  0.734057  1
  Se  Se25  1  0.832725  0.566765  0.399490  1
  Se  Se26  1  0.167275  0.433235  0.600510  1
  Se  Se27  1  0.332716  0.933226  0.265943  1
