# generated using pymatgen
data_LiHf2Mg(NiSb)4
_symmetry_space_group_name_H-M   'P 1'
_cell_length_a   6.07173795
_cell_length_b   6.07173769
_cell_length_c   7.43636033
_cell_angle_alpha   65.90525767
_cell_angle_beta   65.90525411
_cell_angle_gamma   89.99999922
_symmetry_Int_Tables_number   1
_chemical_formula_structural   LiHf2Mg(NiSb)4
_chemical_formula_sum   'Li1 Hf2 Mg1 Ni4 Sb4'
_cell_volume   223.84203861
_cell_formula_units_Z   1
loop_
 _symmetry_equiv_pos_site_id
 _symmetry_equiv_pos_as_xyz
  1  'x, y, z'
loop_
 _atom_site_type_symbol
 _atom_site_label
 _atom_site_symmetry_multiplicity
 _atom_site_fract_x
 _atom_site_fract_y
 _atom_site_fract_z
 _atom_site_occupancy
  Li  Li0  1  0.000000  0.000000  0.000000  1
  Hf  Hf1  1  0.500000  0.500000  0.000000  1
  Hf  Hf2  1  0.750001  0.249999  0.500000  1
  Mg  Mg3  1  0.250001  0.750001  0.500000  1
  Ni  Ni4  1  0.126077  0.135898  0.251115  1
  Ni  Ni5  1  0.622808  0.612985  0.251115  1
  Ni  Ni6  1  0.864103  0.377192  0.748883  1
  Ni  Ni7  1  0.387012  0.873923  0.748885  1
  Sb  Sb8  1  0.496903  0.996903  0.006196  1
  Sb  Sb9  1  0.756579  0.756579  0.486843  1
  Sb  Sb10  1  0.243421  0.243421  0.513158  1
  Sb  Sb11  1  0.003100  0.503099  0.993802  1
