# generated using pymatgen
data_CaTbAl20IrRu3
_symmetry_space_group_name_H-M   'P 1'
_cell_length_a   6.87134780
_cell_length_b   6.86598750
_cell_length_c   9.16809983
_cell_angle_alpha   90.10716534
_cell_angle_beta   90.03565879
_cell_angle_gamma   96.67044479
_symmetry_Int_Tables_number   1
_chemical_formula_structural   CaTbAl20IrRu3
_chemical_formula_sum   'Ca1 Tb1 Al20 Ir1 Ru3'
_cell_volume   429.60912121
_cell_formula_units_Z   1
loop_
 _symmetry_equiv_pos_site_id
 _symmetry_equiv_pos_as_xyz
  1  'x, y, z'
loop_
 _atom_site_type_symbol
 _atom_site_label
 _atom_site_symmetry_multiplicity
 _atom_site_fract_x
 _atom_site_fract_y
 _atom_site_fract_z
 _atom_site_occupancy
  Ca  Ca0  1  0.873570  0.125100  0.750113  1
  Tb  Tb1  1  0.127854  0.874530  0.249995  1
  Al  Al2  1  0.620910  0.375729  0.545553  1
  Al  Al3  1  0.378906  0.624013  0.446635  1
  Al  Al4  1  0.376888  0.623094  0.052388  1
  Al  Al5  1  0.623404  0.376066  0.954832  1
  Al  Al6  1  0.225645  0.224483  0.498183  1
  Al  Al7  1  0.772659  0.776957  0.500980  1
  Al  Al8  1  0.773325  0.775465  0.001096  1
  Al  Al9  1  0.225184  0.226131  0.999962  1
  Al  Al10  1  0.844647  0.156040  0.100378  1
  Al  Al11  1  0.159417  0.839536  0.900028  1
  Al  Al12  1  0.160579  0.842078  0.601481  1
  Al  Al13  1  0.843199  0.154103  0.398030  1
  Al  Al14  1  0.856636  0.587656  0.751709  1
  Al  Al15  1  0.141472  0.413540  0.248545  1
  Al  Al16  1  0.413925  0.142919  0.750418  1
  Al  Al17  1  0.585563  0.859474  0.249572  1
  Al  Al18  1  0.220981  0.479616  0.752447  1
  Al  Al19  1  0.778825  0.518428  0.247556  1
  Al  Al20  1  0.520142  0.779585  0.749703  1
  Al  Al21  1  0.482067  0.221201  0.250196  1
  Ir  Ir22  1  0.999185  0.501907  0.499326  1
  Ru  Ru23  1  0.999452  0.502002  0.000808  1
  Ru  Ru24  1  0.497520  0.000020  0.000840  1
  Ru  Ru25  1  0.498045  0.000329  0.499227  1
