# generated using pymatgen
data_Ac8HoLuIn6
_symmetry_space_group_name_H-M   'P 1'
_cell_length_a   6.53414396
_cell_length_b   9.84256621
_cell_length_c   9.84256642
_cell_angle_alpha   83.85158990
_cell_angle_beta   70.67954513
_cell_angle_gamma   70.67954762
_symmetry_Int_Tables_number   1
_chemical_formula_structural   Ac8HoLuIn6
_chemical_formula_sum   'Ac8 Ho1 Lu1 In6'
_cell_volume   563.71040149
_cell_formula_units_Z   1
loop_
 _symmetry_equiv_pos_site_id
 _symmetry_equiv_pos_as_xyz
  1  'x, y, z'
loop_
 _atom_site_type_symbol
 _atom_site_label
 _atom_site_symmetry_multiplicity
 _atom_site_fract_x
 _atom_site_fract_y
 _atom_site_fract_z
 _atom_site_occupancy
  Ac  Ac0  1  0.720265  0.865216  0.692911  1
  Ac  Ac1  1  0.279568  0.134697  0.306994  1
  Ac  Ac2  1  0.779735  0.307089  0.134784  1
  Ac  Ac3  1  0.220432  0.693006  0.865303  1
  Ac  Ac4  1  0.585942  0.693896  0.134549  1
  Ac  Ac5  1  0.414779  0.306147  0.865249  1
  Ac  Ac6  1  0.085221  0.134751  0.693853  1
  Ac  Ac7  1  0.914058  0.865451  0.306104  1
  Ho  Ho8  1  0.250000  0.499368  0.500632  1
  Lu  Lu9  1  0.750000  0.500492  0.499508  1
  In  In10  1  0.152855  0.500027  0.193947  1
  In  In11  1  0.846868  0.499938  0.806102  1
  In  In12  1  0.347145  0.806053  0.499973  1
  In  In13  1  0.653132  0.193898  0.500062  1
  In  In14  1  0.250000  0.999934  0.000066  1
  In  In15  1  0.750000  0.000038  0.999962  1
