# generated using pymatgen
data_Y5TmTiAl23Os8
_symmetry_space_group_name_H-M   'P 1'
_cell_length_a   8.86126081
_cell_length_b   8.86126148
_cell_length_c   9.57238201
_cell_angle_alpha   90.00327230
_cell_angle_beta   89.99672968
_cell_angle_gamma   120.04875081
_symmetry_Int_Tables_number   1
_chemical_formula_structural   Y5TmTiAl23Os8
_chemical_formula_sum   'Y5 Tm1 Ti1 Al23 Os8'
_cell_volume   650.62113732
_cell_formula_units_Z   1
loop_
 _symmetry_equiv_pos_site_id
 _symmetry_equiv_pos_as_xyz
  1  'x, y, z'
loop_
 _atom_site_type_symbol
 _atom_site_label
 _atom_site_symmetry_multiplicity
 _atom_site_fract_x
 _atom_site_fract_y
 _atom_site_fract_z
 _atom_site_occupancy
  Y  Y0  1  0.193664  0.387227  0.250099  1
  Y  Y1  1  0.807595  0.614926  0.748095  1
  Y  Y2  1  0.612773  0.806336  0.250099  1
  Y  Y3  1  0.385074  0.192405  0.748095  1
  Y  Y4  1  0.193680  0.806320  0.250085  1
  Tm  Tm5  1  0.806474  0.193526  0.747572  1
  Ti  Ti6  1  0.333391  0.666609  0.991343  1
  Al  Al7  1  0.666859  0.333141  0.980785  1
  Al  Al8  1  0.666827  0.333173  0.516406  1
  Al  Al9  1  0.333423  0.666577  0.482371  1
  Al  Al10  1  0.162013  0.324868  0.575320  1
  Al  Al11  1  0.837116  0.674301  0.424491  1
  Al  Al12  1  0.675132  0.837987  0.575320  1
  Al  Al13  1  0.836667  0.673373  0.076726  1
  Al  Al14  1  0.325699  0.162884  0.424491  1
  Al  Al15  1  0.159073  0.319111  0.925483  1
  Al  Al16  1  0.162600  0.837400  0.575112  1
  Al  Al17  1  0.326627  0.163333  0.076726  1
  Al  Al18  1  0.837261  0.162739  0.425126  1
  Al  Al19  1  0.680889  0.840927  0.925483  1
  Al  Al20  1  0.836780  0.163220  0.076116  1
  Al  Al21  1  0.159729  0.840271  0.925766  1
  Al  Al22  1  0.561859  0.123530  0.253356  1
  Al  Al23  1  0.441937  0.882554  0.750372  1
  Al  Al24  1  0.876470  0.438141  0.253356  1
  Al  Al25  1  0.117446  0.558063  0.750372  1
  Al  Al26  1  0.561787  0.438213  0.253351  1
  Al  Al27  1  0.440873  0.559127  0.750259  1
  Al  Al28  1  0.000040  0.999960  0.250267  1
  Al  Al29  1  0.999072  0.000928  0.749680  1
  Os  Os30  1  0.499920  0.998795  0.002247  1
  Os  Os31  1  0.001205  0.500080  0.002247  1
  Os  Os32  1  0.500480  0.999619  0.503666  1
  Os  Os33  1  0.499245  0.500755  0.002717  1
  Os  Os34  1  0.000381  0.499520  0.503666  1
  Os  Os35  1  0.499705  0.500295  0.503090  1
  Os  Os36  1  0.000119  0.999881  0.000405  1
  Os  Os37  1  0.000111  0.999889  0.499842  1
