# generated using pymatgen
data_Ho6Tm2Ti11Si16Au
_symmetry_space_group_name_H-M   'P 1'
_cell_length_a   7.04484155
_cell_length_b   7.04503366
_cell_length_c   12.84848615
_cell_angle_alpha   90.12277521
_cell_angle_beta   89.88332574
_cell_angle_gamma   89.62496175
_symmetry_Int_Tables_number   1
_chemical_formula_structural   Ho6Tm2Ti11Si16Au
_chemical_formula_sum   'Ho6 Tm2 Ti11 Si16 Au1'
_cell_volume   637.66862405
_cell_formula_units_Z   1
loop_
 _symmetry_equiv_pos_site_id
 _symmetry_equiv_pos_as_xyz
  1  'x, y, z'
loop_
 _atom_site_type_symbol
 _atom_site_label
 _atom_site_symmetry_multiplicity
 _atom_site_fract_x
 _atom_site_fract_y
 _atom_site_fract_z
 _atom_site_occupancy
  Ho  Ho0  1  0.501393  0.157221  0.214424  1
  Ho  Ho1  1  0.841120  0.497175  0.283236  1
  Ho  Ho2  1  0.157415  0.501510  0.785546  1
  Ho  Ho3  1  0.656251  0.000792  0.968483  1
  Ho  Ho4  1  0.002399  0.340803  0.533371  1
  Ho  Ho5  1  0.000844  0.656404  0.031240  1
  Tm  Tm6  1  0.341237  0.001779  0.466766  1
  Tm  Tm7  1  0.497504  0.841487  0.716723  1
  Ti  Ti8  1  0.174964  0.826096  0.249670  1
  Ti  Ti9  1  0.825837  0.174756  0.750371  1
  Ti  Ti10  1  0.672451  0.672937  0.500171  1
  Ti  Ti11  1  0.147848  0.007162  0.876882  1
  Ti  Ti12  1  0.495348  0.651023  0.123050  1
  Ti  Ti13  1  0.506718  0.350894  0.625525  1
  Ti  Ti14  1  0.650811  0.495383  0.876806  1
  Ti  Ti15  1  0.350773  0.506951  0.374587  1
  Ti  Ti16  1  0.850225  0.992053  0.374511  1
  Ti  Ti17  1  0.007446  0.147670  0.122952  1
  Ti  Ti18  1  0.992178  0.850259  0.625595  1
  Si  Si19  1  0.202267  0.132370  0.684324  1
  Si  Si20  1  0.373853  0.720185  0.928324  1
  Si  Si21  1  0.630978  0.293469  0.432528  1
  Si  Si22  1  0.719923  0.373796  0.071287  1
  Si  Si23  1  0.294433  0.632234  0.567851  1
  Si  Si24  1  0.798010  0.866927  0.182661  1
  Si  Si25  1  0.133163  0.201256  0.315837  1
  Si  Si26  1  0.866374  0.798132  0.817214  1
  Si  Si27  1  0.286236  0.937898  0.065871  1
  Si  Si28  1  0.546770  0.791406  0.314747  1
  Si  Si29  1  0.454252  0.207312  0.809552  1
  Si  Si30  1  0.790604  0.547381  0.685498  1
  Si  Si31  1  0.207970  0.454185  0.190214  1
  Si  Si32  1  0.707513  0.047552  0.564648  1
  Si  Si33  1  0.937966  0.286155  0.934017  1
  Si  Si34  1  0.048330  0.708784  0.435474  1
  Au  Au35  1  0.328596  0.328601  0.000041  1
