# generated using pymatgen
data_Tm4Re2TcOs5
_symmetry_space_group_name_H-M   'P 1'
_cell_length_a   5.39696455
_cell_length_b   5.19644844
_cell_length_c   8.87901400
_cell_angle_alpha   90.00000000
_cell_angle_beta   90.00000000
_cell_angle_gamma   119.85582573
_symmetry_Int_Tables_number   1
_chemical_formula_structural   Tm4Re2TcOs5
_chemical_formula_sum   'Tm4 Re2 Tc1 Os5'
_cell_volume   215.96365548
_cell_formula_units_Z   1
loop_
 _symmetry_equiv_pos_site_id
 _symmetry_equiv_pos_as_xyz
  1  'x, y, z'
loop_
 _atom_site_type_symbol
 _atom_site_label
 _atom_site_symmetry_multiplicity
 _atom_site_fract_x
 _atom_site_fract_y
 _atom_site_fract_z
 _atom_site_occupancy
  Tm  Tm0  1  0.669524  0.333704  0.562757  1
  Tm  Tm1  1  0.330067  0.660771  0.435319  1
  Tm  Tm2  1  0.330067  0.660771  0.064681  1
  Tm  Tm3  1  0.669524  0.333704  0.937243  1
  Re  Re4  1  0.167385  0.831508  0.750000  1
  Re  Re5  1  0.833073  0.668993  0.250000  1
  Tc  Tc6  1  0.169614  0.349107  0.750000  1
  Os  Os7  1  0.002542  0.988210  0.499763  1
  Os  Os8  1  0.002542  0.988210  0.000237  1
  Os  Os9  1  0.653404  0.830591  0.750000  1
  Os  Os10  1  0.826261  0.178851  0.250000  1
  Os  Os11  1  0.345997  0.175580  0.250000  1
