# generated using pymatgen
data_YScB6Ru
_symmetry_space_group_name_H-M   'P 1'
_cell_length_a   3.56511700
_cell_length_b   8.96384900
_cell_length_c   11.35124200
_cell_angle_alpha   90.00000000
_cell_angle_beta   90.00000000
_cell_angle_gamma   90.00000000
_symmetry_Int_Tables_number   1
_chemical_formula_structural   YScB6Ru
_chemical_formula_sum   'Y4 Sc4 B24 Ru4'
_cell_volume   362.75357547
_cell_formula_units_Z   4
loop_
 _symmetry_equiv_pos_site_id
 _symmetry_equiv_pos_as_xyz
  1  'x, y, z'
loop_
 _atom_site_type_symbol
 _atom_site_label
 _atom_site_symmetry_multiplicity
 _atom_site_fract_x
 _atom_site_fract_y
 _atom_site_fract_z
 _atom_site_occupancy
  Y  Y0  1  0.500000  0.320764  0.414020  1
  Y  Y1  1  0.500000  0.679236  0.585980  1
  Y  Y2  1  0.500000  0.179236  0.914020  1
  Y  Y3  1  0.500000  0.820764  0.085980  1
  Sc  Sc4  1  0.500000  0.445378  0.126037  1
  Sc  Sc5  1  0.500000  0.554622  0.873963  1
  Sc  Sc6  1  0.500000  0.054622  0.626037  1
  Sc  Sc7  1  0.500000  0.945378  0.373963  1
  B  B8  1  0.000000  0.100296  0.473040  1
  B  B9  1  0.000000  0.899704  0.526960  1
  B  B10  1  0.000000  0.399704  0.973040  1
  B  B11  1  0.000000  0.600296  0.026960  1
  B  B12  1  0.000000  0.129368  0.317413  1
  B  B13  1  0.000000  0.870632  0.682587  1
  B  B14  1  0.000000  0.370632  0.817413  1
  B  B15  1  0.000000  0.629368  0.182587  1
  B  B16  1  0.000000  0.055468  0.067535  1
  B  B17  1  0.000000  0.944532  0.932465  1
  B  B18  1  0.000000  0.444532  0.567535  1
  B  B19  1  0.000000  0.555468  0.432465  1
  B  B20  1  0.000000  0.482675  0.285099  1
  B  B21  1  0.000000  0.517325  0.714901  1
  B  B22  1  0.000000  0.017325  0.785099  1
  B  B23  1  0.000000  0.982675  0.214901  1
  B  B24  1  0.000000  0.253158  0.081310  1
  B  B25  1  0.000000  0.746842  0.918690  1
  B  B26  1  0.000000  0.246842  0.581310  1
  B  B27  1  0.000000  0.753158  0.418690  1
  B  B28  1  0.000000  0.293946  0.234556  1
  B  B29  1  0.000000  0.706054  0.765444  1
  B  B30  1  0.000000  0.206054  0.734556  1
  B  B31  1  0.000000  0.793946  0.265444  1
  Ru  Ru32  1  0.500000  0.140690  0.181659  1
  Ru  Ru33  1  0.500000  0.859310  0.818341  1
  Ru  Ru34  1  0.500000  0.359310  0.681659  1
  Ru  Ru35  1  0.500000  0.640690  0.318341  1
