# generated using pymatgen
data_LiNd3Ag2Ge3
_symmetry_space_group_name_H-M   'P 1'
_cell_length_a   7.31334134
_cell_length_b   7.29953547
_cell_length_c   4.37005900
_cell_angle_alpha   90.00000000
_cell_angle_beta   90.00000000
_cell_angle_gamma   119.93757774
_symmetry_Int_Tables_number   1
_chemical_formula_structural   LiNd3Ag2Ge3
_chemical_formula_sum   'Li1 Nd3 Ag2 Ge3'
_cell_volume   202.16307305
_cell_formula_units_Z   1
loop_
 _symmetry_equiv_pos_site_id
 _symmetry_equiv_pos_as_xyz
  1  'x, y, z'
loop_
 _atom_site_type_symbol
 _atom_site_label
 _atom_site_symmetry_multiplicity
 _atom_site_fract_x
 _atom_site_fract_y
 _atom_site_fract_z
 _atom_site_occupancy
  Li  Li0  1  0.000000  0.229598  0.500000  1
  Nd  Nd1  1  0.000000  0.587054  0.000000  1
  Nd  Nd2  1  0.580234  0.999516  0.000000  1
  Nd  Nd3  1  0.419766  0.419281  0.000000  1
  Ag  Ag4  1  0.244216  0.001307  0.500000  1
  Ag  Ag5  1  0.755784  0.757091  0.500000  1
  Ge  Ge6  1  0.330972  0.665487  0.500000  1
  Ge  Ge7  1  0.669028  0.334514  0.500000  1
  Ge  Ge8  1  0.000000  0.006153  0.000000  1
