# generated using pymatgen
data_Nd2DyHo3(RuO7)2
_symmetry_space_group_name_H-M   'P 1'
_cell_length_a   6.44202307
_cell_length_b   6.43743092
_cell_length_c   7.50091800
_cell_angle_alpha   90.00000000
_cell_angle_beta   90.00000000
_cell_angle_gamma   110.07277094
_symmetry_Int_Tables_number   1
_chemical_formula_structural   Nd2DyHo3(RuO7)2
_chemical_formula_sum   'Nd2 Dy1 Ho3 Ru2 O14'
_cell_volume   292.16886331
_cell_formula_units_Z   1
loop_
 _symmetry_equiv_pos_site_id
 _symmetry_equiv_pos_as_xyz
  1  'x, y, z'
loop_
 _atom_site_type_symbol
 _atom_site_label
 _atom_site_symmetry_multiplicity
 _atom_site_fract_x
 _atom_site_fract_y
 _atom_site_fract_z
 _atom_site_occupancy
  Nd  Nd0  1  0.999965  0.000105  0.499811  1
  Nd  Nd1  1  0.999965  0.000105  0.000189  1
  Dy  Dy2  1  0.481811  0.929844  0.750000  1
  Ho  Ho3  1  0.517904  0.069123  0.250000  1
  Ho  Ho4  1  0.930753  0.482058  0.750000  1
  Ho  Ho5  1  0.068986  0.517785  0.250000  1
  Ru  Ru6  1  0.500122  0.500054  0.499659  1
  Ru  Ru7  1  0.500122  0.500054  0.000341  1
  O  O8  1  0.590137  0.589551  0.750000  1
  O  O9  1  0.409952  0.410027  0.250000  1
  O  O10  1  0.838638  0.118331  0.750000  1
  O  O11  1  0.162751  0.882273  0.250000  1
  O  O12  1  0.116055  0.837268  0.750000  1
  O  O13  1  0.882261  0.162742  0.250000  1
  O  O14  1  0.440060  0.181198  0.963480  1
  O  O15  1  0.560109  0.818923  0.462227  1
  O  O16  1  0.181202  0.440498  0.963044  1
  O  O17  1  0.818918  0.559722  0.462992  1
  O  O18  1  0.440060  0.181198  0.536520  1
  O  O19  1  0.560109  0.818923  0.037773  1
  O  O20  1  0.818918  0.559722  0.037008  1
  O  O21  1  0.181202  0.440498  0.536956  1
