# generated using pymatgen
data_Tb4GdYH18
_symmetry_space_group_name_H-M   'P 1'
_cell_length_a   6.38306402
_cell_length_b   6.38391749
_cell_length_c   6.64561500
_cell_angle_alpha   90.00287153
_cell_angle_beta   89.99733550
_cell_angle_gamma   120.00839567
_symmetry_Int_Tables_number   1
_chemical_formula_structural   Tb4GdYH18
_chemical_formula_sum   'Tb4 Gd1 Y1 H18'
_cell_volume   234.50144727
_cell_formula_units_Z   1
loop_
 _symmetry_equiv_pos_site_id
 _symmetry_equiv_pos_as_xyz
  1  'x, y, z'
loop_
 _atom_site_type_symbol
 _atom_site_label
 _atom_site_symmetry_multiplicity
 _atom_site_fract_x
 _atom_site_fract_y
 _atom_site_fract_z
 _atom_site_occupancy
  Tb  Tb0  1  0.330034  0.999862  0.750001  1
  Tb  Tb1  1  0.000045  0.330182  0.750077  1
  Tb  Tb2  1  0.329873  0.329838  0.249948  1
  Tb  Tb3  1  0.670012  0.000267  0.250098  1
  Gd  Gd4  1  0.669759  0.669741  0.750067  1
  Y  Y5  1  0.000142  0.669993  0.249992  1
  H  H6  1  0.305341  0.305405  0.592090  1
  H  H7  1  0.694785  0.000175  0.591876  1
  H  H8  1  0.000303  0.694669  0.591401  1
  H  H9  1  0.695172  0.695035  0.092481  1
  H  H10  1  0.304993  0.999985  0.092187  1
  H  H11  1  0.999922  0.304676  0.091883  1
  H  H12  1  0.355751  0.355831  0.907899  1
  H  H13  1  0.643791  0.999932  0.907645  1
  H  H14  1  0.000092  0.643982  0.908092  1
  H  H15  1  0.643672  0.643708  0.407339  1
  H  H16  1  0.356378  0.000215  0.407660  1
  H  H17  1  0.999931  0.356426  0.407333  1
  H  H18  1  0.000574  0.000627  0.819414  1
  H  H19  1  0.999953  0.999294  0.319335  1
  H  H20  1  0.332800  0.666671  0.704723  1
  H  H21  1  0.666621  0.332694  0.704716  1
  H  H22  1  0.667451  0.334142  0.204876  1
  H  H23  1  0.332605  0.666650  0.204882  1
