# generated using pymatgen
data_Ac6P13Rh20
_symmetry_space_group_name_H-M   'P 1'
_cell_length_a   13.75397200
_cell_length_b   13.75397187
_cell_length_c   4.04282900
_cell_angle_alpha   90.00000000
_cell_angle_beta   90.00000000
_cell_angle_gamma   120.00000032
_symmetry_Int_Tables_number   1
_chemical_formula_structural   Ac6P13Rh20
_chemical_formula_sum   'Ac6 P13 Rh20'
_cell_volume   662.32671107
_cell_formula_units_Z   1
loop_
 _symmetry_equiv_pos_site_id
 _symmetry_equiv_pos_as_xyz
  1  'x, y, z'
loop_
 _atom_site_type_symbol
 _atom_site_label
 _atom_site_symmetry_multiplicity
 _atom_site_fract_x
 _atom_site_fract_y
 _atom_site_fract_z
 _atom_site_occupancy
  Ac  Ac0  1  0.530203  0.718373  0.246627  1
  Ac  Ac1  1  0.281627  0.811830  0.246627  1
  Ac  Ac2  1  0.188170  0.469797  0.246627  1
  Ac  Ac3  1  0.469797  0.281627  0.753373  1
  Ac  Ac4  1  0.718373  0.188170  0.753373  1
  Ac  Ac5  1  0.811830  0.530203  0.753373  1
  P  P6  1  0.515542  0.128304  0.250946  1
  P  P7  1  0.871696  0.387239  0.250946  1
  P  P8  1  0.612761  0.484458  0.250946  1
  P  P9  1  0.950545  0.726583  0.255667  1
  P  P10  1  0.273417  0.223962  0.255667  1
  P  P11  1  0.776038  0.049455  0.255667  1
  P  P12  1  0.387239  0.515542  0.749054  1
  P  P13  1  0.484458  0.871696  0.749054  1
  P  P14  1  0.128304  0.612761  0.749054  1
  P  P15  1  0.726583  0.776038  0.744333  1
  P  P16  1  0.223962  0.950545  0.744333  1
  P  P17  1  0.049455  0.273417  0.744333  1
  P  P18  1  0.000000  0.000000  0.000000  1
  Rh  Rh19  1  0.333333  0.666667  0.750086  1
  Rh  Rh20  1  0.926945  0.248796  0.259743  1
  Rh  Rh21  1  0.751204  0.678148  0.259743  1
  Rh  Rh22  1  0.321852  0.073055  0.259743  1
  Rh  Rh23  1  0.440294  0.025167  0.752236  1
  Rh  Rh24  1  0.974833  0.415128  0.752236  1
  Rh  Rh25  1  0.584872  0.559706  0.752236  1
  Rh  Rh26  1  0.666667  0.333333  0.249914  1
  Rh  Rh27  1  0.090497  0.181857  0.242619  1
  Rh  Rh28  1  0.818143  0.908640  0.242619  1
  Rh  Rh29  1  0.091360  0.909503  0.242619  1
  Rh  Rh30  1  0.025167  0.584872  0.247764  1
  Rh  Rh31  1  0.415128  0.440294  0.247764  1
  Rh  Rh32  1  0.559706  0.974833  0.247764  1
  Rh  Rh33  1  0.678148  0.926945  0.740257  1
  Rh  Rh34  1  0.073055  0.751204  0.740257  1
  Rh  Rh35  1  0.248796  0.321852  0.740257  1
  Rh  Rh36  1  0.909503  0.818143  0.757381  1
  Rh  Rh37  1  0.181857  0.091360  0.757381  1
  Rh  Rh38  1  0.908640  0.090497  0.757381  1
