# generated using pymatgen
data_Y8TcIrBr8
_symmetry_space_group_name_H-M   'P 1'
_cell_length_a   8.99673036
_cell_length_b   8.99673008
_cell_length_c   6.59855604
_cell_angle_alpha   89.49857441
_cell_angle_beta   89.49857571
_cell_angle_gamma   89.32482687
_symmetry_Int_Tables_number   1
_chemical_formula_structural   Y8TcIrBr8
_chemical_formula_sum   'Y8 Tc1 Ir1 Br8'
_cell_volume   534.01723538
_cell_formula_units_Z   1
loop_
 _symmetry_equiv_pos_site_id
 _symmetry_equiv_pos_as_xyz
  1  'x, y, z'
loop_
 _atom_site_type_symbol
 _atom_site_label
 _atom_site_symmetry_multiplicity
 _atom_site_fract_x
 _atom_site_fract_y
 _atom_site_fract_z
 _atom_site_occupancy
  Y  Y0  1  0.749313  0.099603  0.991939  1
  Y  Y1  1  0.099127  0.750229  0.487372  1
  Y  Y2  1  0.097814  0.249157  0.993788  1
  Y  Y3  1  0.249156  0.097953  0.489179  1
  Y  Y4  1  0.902047  0.750844  0.010821  1
  Y  Y5  1  0.900397  0.250687  0.508061  1
  Y  Y6  1  0.249771  0.900873  0.012628  1
  Y  Y7  1  0.750843  0.902186  0.506212  1
  Tc  Tc8  1  0.994963  0.005037  0.250000  1
  Ir  Ir9  1  0.005172  0.994828  0.750000  1
  Br  Br10  1  0.581131  0.182570  0.592731  1
  Br  Br11  1  0.810685  0.585176  0.406102  1
  Br  Br12  1  0.414824  0.189315  0.093898  1
  Br  Br13  1  0.189402  0.414177  0.594745  1
  Br  Br14  1  0.585823  0.810598  0.905255  1
  Br  Br15  1  0.419284  0.817185  0.408611  1
  Br  Br16  1  0.182815  0.580716  0.091389  1
  Br  Br17  1  0.817430  0.418869  0.907269  1
