# generated using pymatgen
data_ErMg(TcSn4)2
_symmetry_space_group_name_H-M   'P 1'
_cell_length_a   7.58575248
_cell_length_b   7.58575180
_cell_length_c   7.58575190
_cell_angle_alpha   125.41659951
_cell_angle_beta   125.41661249
_cell_angle_gamma   80.84912942
_symmetry_Int_Tables_number   1
_chemical_formula_structural   ErMg(TcSn4)2
_chemical_formula_sum   'Er1 Mg1 Tc2 Sn8'
_cell_volume   279.45197221
_cell_formula_units_Z   1
loop_
 _symmetry_equiv_pos_site_id
 _symmetry_equiv_pos_as_xyz
  1  'x, y, z'
loop_
 _atom_site_type_symbol
 _atom_site_label
 _atom_site_symmetry_multiplicity
 _atom_site_fract_x
 _atom_site_fract_y
 _atom_site_fract_z
 _atom_site_occupancy
  Er  Er0  1  0.500000  0.500000  0.000000  1
  Mg  Mg1  1  0.000000  0.000000  0.000000  1
  Tc  Tc2  1  0.755400  0.755400  0.000000  1
  Tc  Tc3  1  0.244600  0.244600  0.000000  1
  Sn  Sn4  1  0.704634  0.514581  0.505506  1
  Sn  Sn5  1  0.514581  0.009076  0.809948  1
  Sn  Sn6  1  0.199128  0.704634  0.190052  1
  Sn  Sn7  1  0.800872  0.295366  0.809948  1
  Sn  Sn8  1  0.485419  0.990924  0.190052  1
  Sn  Sn9  1  0.295366  0.485419  0.494494  1
  Sn  Sn10  1  0.990924  0.800872  0.505506  1
  Sn  Sn11  1  0.009076  0.199128  0.494494  1
