# generated using pymatgen
data_ThZn2GaPd2
_symmetry_space_group_name_H-M   'P 1'
_cell_length_a   5.33597200
_cell_length_b   5.33999889
_cell_length_c   4.43228600
_cell_angle_alpha   90.00000000
_cell_angle_beta   90.00000000
_cell_angle_gamma   119.97507010
_symmetry_Int_Tables_number   1
_chemical_formula_structural   ThZn2GaPd2
_chemical_formula_sum   'Th1 Zn2 Ga1 Pd2'
_cell_volume   109.40121902
_cell_formula_units_Z   1
loop_
 _symmetry_equiv_pos_site_id
 _symmetry_equiv_pos_as_xyz
  1  'x, y, z'
loop_
 _atom_site_type_symbol
 _atom_site_label
 _atom_site_symmetry_multiplicity
 _atom_site_fract_x
 _atom_site_fract_y
 _atom_site_fract_z
 _atom_site_occupancy
  Th  Th0  1  0.000000  0.000000  0.000000  1
  Zn  Zn1  1  0.000000  0.500000  0.500000  1
  Zn  Zn2  1  0.500000  0.500000  0.500000  1
  Ga  Ga3  1  0.500000  0.000000  0.500000  1
  Pd  Pd4  1  0.333358  0.666717  0.000000  1
  Pd  Pd5  1  0.666642  0.333283  0.000000  1
