# generated using pymatgen
data_PrEuHo2(ZnSn)4
_symmetry_space_group_name_H-M   'P 1'
_cell_length_a   4.54519700
_cell_length_b   4.54519806
_cell_length_c   16.29903800
_cell_angle_alpha   90.00000000
_cell_angle_beta   90.00000000
_cell_angle_gamma   119.99999958
_symmetry_Int_Tables_number   1
_chemical_formula_structural   PrEuHo2(ZnSn)4
_chemical_formula_sum   'Pr1 Eu1 Ho2 Zn4 Sn4'
_cell_volume   291.60712397
_cell_formula_units_Z   1
loop_
 _symmetry_equiv_pos_site_id
 _symmetry_equiv_pos_as_xyz
  1  'x, y, z'
loop_
 _atom_site_type_symbol
 _atom_site_label
 _atom_site_symmetry_multiplicity
 _atom_site_fract_x
 _atom_site_fract_y
 _atom_site_fract_z
 _atom_site_occupancy
  Pr  Pr0  1  0.000000  0.000000  0.000000  1
  Eu  Eu1  1  0.000000  0.000000  0.500000  1
  Ho  Ho2  1  0.000000  0.000000  0.249206  1
  Ho  Ho3  1  0.000000  0.000000  0.750794  1
  Zn  Zn4  1  0.333333  0.666667  0.334071  1
  Zn  Zn5  1  0.666667  0.333333  0.665929  1
  Zn  Zn6  1  0.666667  0.333333  0.836049  1
  Zn  Zn7  1  0.333333  0.666667  0.163951  1
  Sn  Sn8  1  0.333333  0.666667  0.882669  1
  Sn  Sn9  1  0.666667  0.333333  0.117331  1
  Sn  Sn10  1  0.666667  0.333333  0.378201  1
  Sn  Sn11  1  0.333333  0.666667  0.621799  1
