# generated using pymatgen
data_Ca6YbPaSb6
_symmetry_space_group_name_H-M   'P 1'
_cell_length_a   8.23630485
_cell_length_b   8.23802702
_cell_length_c   8.15385303
_cell_angle_alpha   109.25592353
_cell_angle_beta   109.26770841
_cell_angle_gamma   109.66601655
_symmetry_Int_Tables_number   1
_chemical_formula_structural   Ca6YbPaSb6
_chemical_formula_sum   'Ca6 Yb1 Pa1 Sb6'
_cell_volume   427.05722520
_cell_formula_units_Z   1
loop_
 _symmetry_equiv_pos_site_id
 _symmetry_equiv_pos_as_xyz
  1  'x, y, z'
loop_
 _atom_site_type_symbol
 _atom_site_label
 _atom_site_symmetry_multiplicity
 _atom_site_fract_x
 _atom_site_fract_y
 _atom_site_fract_z
 _atom_site_occupancy
  Ca  Ca0  1  0.648974  0.649242  0.649947  1
  Ca  Ca1  1  0.008116  0.361986  0.504463  1
  Ca  Ca2  1  0.353993  0.491798  0.996688  1
  Ca  Ca3  1  0.000305  0.851048  0.500960  1
  Ca  Ca4  1  0.850793  0.499702  0.000759  1
  Ca  Ca5  1  0.500002  0.000048  0.852870  1
  Yb  Yb6  1  0.138134  0.145904  0.142704  1
  Pa  Pa7  1  0.499656  0.000157  0.347747  1
  Sb  Sb8  1  0.868921  0.123856  0.741594  1
  Sb  Sb9  1  0.376052  0.244973  0.617361  1
  Sb  Sb10  1  0.132407  0.756541  0.887138  1
  Sb  Sb11  1  0.744033  0.876332  0.130768  1
  Sb  Sb12  1  0.255047  0.631004  0.372451  1
  Sb  Sb13  1  0.623567  0.367409  0.254546  1
