# generated using pymatgen
data_LiLa6Cd22As
_symmetry_space_group_name_H-M   'P 1'
_cell_length_a   10.17518724
_cell_length_b   10.17518629
_cell_length_c   10.17518700
_cell_angle_alpha   60.00000094
_cell_angle_beta   60.00000404
_cell_angle_gamma   60.00000335
_symmetry_Int_Tables_number   1
_chemical_formula_structural   LiLa6Cd22As
_chemical_formula_sum   'Li1 La6 Cd22 As1'
_cell_volume   744.92441388
_cell_formula_units_Z   1
loop_
 _symmetry_equiv_pos_site_id
 _symmetry_equiv_pos_as_xyz
  1  'x, y, z'
loop_
 _atom_site_type_symbol
 _atom_site_label
 _atom_site_symmetry_multiplicity
 _atom_site_fract_x
 _atom_site_fract_y
 _atom_site_fract_z
 _atom_site_occupancy
  Li  Li0  1  0.500000  0.500000  0.500000  1
  La  La1  1  0.790875  0.790875  0.209125  1
  La  La2  1  0.209125  0.790875  0.209125  1
  La  La3  1  0.790875  0.209125  0.209125  1
  La  La4  1  0.209125  0.209125  0.790875  1
  La  La5  1  0.790875  0.209125  0.790875  1
  La  La6  1  0.209125  0.790875  0.790875  1
  Cd  Cd7  1  0.830490  0.830490  0.508531  1
  Cd  Cd8  1  0.830490  0.508531  0.830490  1
  Cd  Cd9  1  0.508531  0.830490  0.830490  1
  Cd  Cd10  1  0.830490  0.830490  0.830490  1
  Cd  Cd11  1  0.169510  0.169510  0.491469  1
  Cd  Cd12  1  0.169510  0.491469  0.169510  1
  Cd  Cd13  1  0.491469  0.169510  0.169510  1
  Cd  Cd14  1  0.169510  0.169510  0.169510  1
  Cd  Cd15  1  0.619940  0.619940  0.140180  1
  Cd  Cd16  1  0.619940  0.140180  0.619940  1
  Cd  Cd17  1  0.140180  0.619940  0.619940  1
  Cd  Cd18  1  0.619940  0.619940  0.619940  1
  Cd  Cd19  1  0.380060  0.380060  0.859820  1
  Cd  Cd20  1  0.380060  0.859820  0.380060  1
  Cd  Cd21  1  0.859820  0.380060  0.380060  1
  Cd  Cd22  1  0.380060  0.380060  0.380060  1
  Cd  Cd23  1  0.000000  0.000000  0.500000  1
  Cd  Cd24  1  0.500000  0.000000  0.500000  1
  Cd  Cd25  1  0.000000  0.500000  0.500000  1
  Cd  Cd26  1  0.500000  0.500000  0.000000  1
  Cd  Cd27  1  0.000000  0.500000  0.000000  1
  Cd  Cd28  1  0.500000  0.000000  0.000000  1
  As  As29  1  0.000000  0.000000  0.000000  1
