# generated using pymatgen
data_KGaSiTe4
_symmetry_space_group_name_H-M   'P 1'
_cell_length_a   18.31116500
_cell_length_b   7.88166245
_cell_length_c   8.15855304
_cell_angle_alpha   68.86180370
_cell_angle_beta   90.00000000
_cell_angle_gamma   90.00000000
_symmetry_Int_Tables_number   1
_chemical_formula_structural   KGaSiTe4
_chemical_formula_sum   'K4 Ga4 Si4 Te16'
_cell_volume   1098.23463155
_cell_formula_units_Z   4
loop_
 _symmetry_equiv_pos_site_id
 _symmetry_equiv_pos_as_xyz
  1  'x, y, z'
loop_
 _atom_site_type_symbol
 _atom_site_label
 _atom_site_symmetry_multiplicity
 _atom_site_fract_x
 _atom_site_fract_y
 _atom_site_fract_z
 _atom_site_occupancy
  K  K0  1  0.393993  0.969211  0.187916  1
  K  K1  1  0.893993  0.030789  0.812084  1
  K  K2  1  0.601921  0.508304  0.821257  1
  K  K3  1  0.101921  0.491696  0.178743  1
  Ga  Ga4  1  0.583543  0.154620  0.480678  1
  Ga  Ga5  1  0.083543  0.845380  0.519322  1
  Ga  Ga6  1  0.273925  0.592860  0.710509  1
  Ga  Ga7  1  0.773925  0.407140  0.289491  1
  Si  Si8  1  0.422110  0.326132  0.537384  1
  Si  Si9  1  0.922110  0.673868  0.462616  1
  Si  Si10  1  0.724758  0.908755  0.269526  1
  Si  Si11  1  0.224758  0.091245  0.730474  1
  Te  Te12  1  0.594632  0.868584  0.384067  1
  Te  Te13  1  0.094632  0.131416  0.615933  1
  Te  Te14  1  0.414862  0.607682  0.619725  1
  Te  Te15  1  0.914862  0.392318  0.380275  1
  Te  Te16  1  0.801036  0.777015  0.550298  1
  Te  Te17  1  0.301036  0.222985  0.449702  1
  Te  Te18  1  0.201155  0.726639  0.417617  1
  Te  Te19  1  0.701155  0.273361  0.582383  1
  Te  Te20  1  0.760434  0.227524  0.069682  1
  Te  Te21  1  0.260434  0.772476  0.930318  1
  Te  Te22  1  0.239367  0.262488  0.938195  1
  Te  Te23  1  0.739367  0.737512  0.061805  1
  Te  Te24  1  0.995180  0.922126  0.236756  1
  Te  Te25  1  0.495180  0.077874  0.763244  1
  Te  Te26  1  0.993082  0.605418  0.745892  1
  Te  Te27  1  0.493082  0.394582  0.254108  1
