# generated using pymatgen
data_Y2Nb3Si4
_symmetry_space_group_name_H-M   'P 1'
_cell_length_a   6.88261400
_cell_length_b   7.08710900
_cell_length_c   13.43655100
_cell_angle_alpha   90.00000000
_cell_angle_beta   90.00000000
_cell_angle_gamma   90.00000000
_symmetry_Int_Tables_number   1
_chemical_formula_structural   Y2Nb3Si4
_chemical_formula_sum   'Y8 Nb12 Si16'
_cell_volume   655.40587602
_cell_formula_units_Z   4
loop_
 _symmetry_equiv_pos_site_id
 _symmetry_equiv_pos_as_xyz
  1  'x, y, z'
loop_
 _atom_site_type_symbol
 _atom_site_label
 _atom_site_symmetry_multiplicity
 _atom_site_fract_x
 _atom_site_fract_y
 _atom_site_fract_z
 _atom_site_occupancy
  Y  Y0  1  0.996552  0.171188  0.404126  1
  Y  Y1  1  0.496552  0.328812  0.095874  1
  Y  Y2  1  0.503448  0.671188  0.595874  1
  Y  Y3  1  0.003448  0.828812  0.904126  1
  Y  Y4  1  0.003448  0.828812  0.595874  1
  Y  Y5  1  0.503448  0.671188  0.904126  1
  Y  Y6  1  0.496552  0.328812  0.404126  1
  Y  Y7  1  0.996552  0.171188  0.095874  1
  Nb  Nb8  1  0.337319  0.824583  0.125466  1
  Nb  Nb9  1  0.837319  0.675417  0.374534  1
  Nb  Nb10  1  0.662681  0.175417  0.625466  1
  Nb  Nb11  1  0.162681  0.324583  0.874534  1
  Nb  Nb12  1  0.162681  0.324583  0.625466  1
  Nb  Nb13  1  0.662681  0.175417  0.874534  1
  Nb  Nb14  1  0.336925  0.009122  0.750000  1
  Nb  Nb15  1  0.837319  0.675417  0.125466  1
  Nb  Nb16  1  0.663075  0.990878  0.250000  1
  Nb  Nb17  1  0.163075  0.509122  0.250000  1
  Nb  Nb18  1  0.836925  0.490878  0.750000  1
  Nb  Nb19  1  0.337319  0.824583  0.374534  1
  Si  Si20  1  0.337604  0.036842  0.540831  1
  Si  Si21  1  0.837604  0.463158  0.959169  1
  Si  Si22  1  0.662396  0.963158  0.040831  1
  Si  Si23  1  0.162396  0.536842  0.459169  1
  Si  Si24  1  0.162396  0.536842  0.040831  1
  Si  Si25  1  0.662396  0.963158  0.459169  1
  Si  Si26  1  0.837604  0.463158  0.540831  1
  Si  Si27  1  0.337604  0.036842  0.959169  1
  Si  Si28  1  0.795844  0.374911  0.250000  1
  Si  Si29  1  0.295844  0.125089  0.250000  1
  Si  Si30  1  0.704156  0.874911  0.750000  1
  Si  Si31  1  0.204156  0.625089  0.750000  1
  Si  Si32  1  0.041816  0.875493  0.250000  1
  Si  Si33  1  0.541816  0.624507  0.250000  1
  Si  Si34  1  0.458184  0.375493  0.750000  1
  Si  Si35  1  0.958184  0.124507  0.750000  1
