# generated using pymatgen
data_LiY19(Cd3Re)2
_symmetry_space_group_name_H-M   'P 1'
_cell_length_a   9.51809000
_cell_length_b   9.51808936
_cell_length_c   9.95340900
_cell_angle_alpha   90.00000000
_cell_angle_beta   90.00000000
_cell_angle_gamma   120.00000221
_symmetry_Int_Tables_number   1
_chemical_formula_structural   LiY19(Cd3Re)2
_chemical_formula_sum   'Li1 Y19 Cd6 Re2'
_cell_volume   780.91192934
_cell_formula_units_Z   1
loop_
 _symmetry_equiv_pos_site_id
 _symmetry_equiv_pos_as_xyz
  1  'x, y, z'
loop_
 _atom_site_type_symbol
 _atom_site_label
 _atom_site_symmetry_multiplicity
 _atom_site_fract_x
 _atom_site_fract_y
 _atom_site_fract_z
 _atom_site_occupancy
  Li  Li0  1  0.000000  0.000000  0.500000  1
  Y  Y1  1  0.000000  0.000000  0.000000  1
  Y  Y2  1  0.208130  0.791870  0.441577  1
  Y  Y3  1  0.208130  0.416260  0.441577  1
  Y  Y4  1  0.583740  0.791870  0.441577  1
  Y  Y5  1  0.791870  0.208130  0.558423  1
  Y  Y6  1  0.791870  0.583740  0.558423  1
  Y  Y7  1  0.416260  0.208130  0.558423  1
  Y  Y8  1  0.789793  0.210207  0.942599  1
  Y  Y9  1  0.789793  0.579585  0.942599  1
  Y  Y10  1  0.420415  0.210207  0.942599  1
  Y  Y11  1  0.210207  0.789793  0.057401  1
  Y  Y12  1  0.210207  0.420415  0.057401  1
  Y  Y13  1  0.579585  0.789793  0.057401  1
  Y  Y14  1  0.539561  0.460439  0.251840  1
  Y  Y15  1  0.539561  0.079120  0.251840  1
  Y  Y16  1  0.920880  0.460439  0.251840  1
  Y  Y17  1  0.460439  0.539561  0.748160  1
  Y  Y18  1  0.460439  0.920880  0.748160  1
  Y  Y19  1  0.079120  0.539561  0.748160  1
  Cd  Cd20  1  0.889164  0.110836  0.258263  1
  Cd  Cd21  1  0.889164  0.778331  0.258263  1
  Cd  Cd22  1  0.221669  0.110836  0.258263  1
  Cd  Cd23  1  0.110836  0.889164  0.741737  1
  Cd  Cd24  1  0.110836  0.221669  0.741737  1
  Cd  Cd25  1  0.778331  0.889164  0.741737  1
  Re  Re26  1  0.333333  0.666667  0.249002  1
  Re  Re27  1  0.666667  0.333333  0.750998  1
