# generated using pymatgen
data_TbDy7(TcC2)4
_symmetry_space_group_name_H-M   'P 1'
_cell_length_a   5.10175100
_cell_length_b   6.57344010
_cell_length_c   9.88957907
_cell_angle_alpha   90.06269825
_cell_angle_beta   90.00000000
_cell_angle_gamma   90.00000000
_symmetry_Int_Tables_number   1
_chemical_formula_structural   TbDy7(TcC2)4
_chemical_formula_sum   'Tb1 Dy7 Tc4 C8'
_cell_volume   331.65726533
_cell_formula_units_Z   1
loop_
 _symmetry_equiv_pos_site_id
 _symmetry_equiv_pos_as_xyz
  1  'x, y, z'
loop_
 _atom_site_type_symbol
 _atom_site_label
 _atom_site_symmetry_multiplicity
 _atom_site_fract_x
 _atom_site_fract_y
 _atom_site_fract_z
 _atom_site_occupancy
  Tb  Tb0  1  0.250000  0.531217  0.215575  1
  Dy  Dy1  1  0.750000  0.821519  0.057219  1
  Dy  Dy2  1  0.250000  0.678562  0.557423  1
  Dy  Dy3  1  0.750000  0.321137  0.442726  1
  Dy  Dy4  1  0.250000  0.178890  0.942616  1
  Dy  Dy5  1  0.750000  0.468497  0.784102  1
  Dy  Dy6  1  0.250000  0.031472  0.283906  1
  Dy  Dy7  1  0.750000  0.968446  0.716163  1
  Tc  Tc8  1  0.750000  0.278959  0.134424  1
  Tc  Tc9  1  0.250000  0.220607  0.634596  1
  Tc  Tc10  1  0.750000  0.779267  0.365708  1
  Tc  Tc11  1  0.250000  0.721053  0.865418  1
  C  C12  1  0.750000  0.178351  0.951698  1
  C  C13  1  0.250000  0.822702  0.047791  1
  C  C14  1  0.750000  0.678454  0.548281  1
  C  C15  1  0.250000  0.321039  0.452130  1
  C  C16  1  0.750000  0.045588  0.258418  1
  C  C17  1  0.250000  0.454302  0.758476  1
  C  C18  1  0.750000  0.545647  0.241771  1
  C  C19  1  0.250000  0.954294  0.741558  1
