# generated using pymatgen
data_Hf6Ga6Pd3Ru2Pt
_symmetry_space_group_name_H-M   'P 1'
_cell_length_a   7.36025800
_cell_length_b   7.36025851
_cell_length_c   6.61895900
_cell_angle_alpha   90.00000000
_cell_angle_beta   90.00000000
_cell_angle_gamma   119.99999769
_symmetry_Int_Tables_number   1
_chemical_formula_structural   Hf6Ga6Pd3Ru2Pt
_chemical_formula_sum   'Hf6 Ga6 Pd3 Ru2 Pt1'
_cell_volume   310.53205622
_cell_formula_units_Z   1
loop_
 _symmetry_equiv_pos_site_id
 _symmetry_equiv_pos_as_xyz
  1  'x, y, z'
loop_
 _atom_site_type_symbol
 _atom_site_label
 _atom_site_symmetry_multiplicity
 _atom_site_fract_x
 _atom_site_fract_y
 _atom_site_fract_z
 _atom_site_occupancy
  Hf  Hf0  1  0.734074  0.053746  0.999322  1
  Hf  Hf1  1  0.319672  0.265926  0.999322  1
  Hf  Hf2  1  0.946254  0.680328  0.999322  1
  Hf  Hf3  1  0.321729  0.266092  0.500853  1
  Hf  Hf4  1  0.733908  0.055637  0.500853  1
  Hf  Hf5  1  0.944363  0.678271  0.500853  1
  Ga  Ga6  1  0.606739  0.665466  0.749928  1
  Ga  Ga7  1  0.058726  0.393261  0.749928  1
  Ga  Ga8  1  0.334534  0.941274  0.749928  1
  Ga  Ga9  1  0.606332  0.663112  0.250091  1
  Ga  Ga10  1  0.056779  0.393668  0.250091  1
  Ga  Ga11  1  0.336888  0.943221  0.250091  1
  Pd  Pd12  1  0.333333  0.666667  0.999762  1
  Pd  Pd13  1  0.333333  0.666667  0.500180  1
  Pd  Pd14  1  0.666667  0.333333  0.247409  1
  Ru  Ru15  1  0.000000  0.000000  0.250529  1
  Ru  Ru16  1  0.000000  0.000000  0.749326  1
  Pt  Pt17  1  0.666667  0.333333  0.752212  1
