# generated using pymatgen
data_Er3In3CuNiHg
_symmetry_space_group_name_H-M   'P 1'
_cell_length_a   7.71308800
_cell_length_b   7.71308787
_cell_length_c   3.79231800
_cell_angle_alpha   90.00000000
_cell_angle_beta   90.00000000
_cell_angle_gamma   120.00000056
_symmetry_Int_Tables_number   1
_chemical_formula_structural   Er3In3CuNiHg
_chemical_formula_sum   'Er3 In3 Cu1 Ni1 Hg1'
_cell_volume   195.38532519
_cell_formula_units_Z   1
loop_
 _symmetry_equiv_pos_site_id
 _symmetry_equiv_pos_as_xyz
  1  'x, y, z'
loop_
 _atom_site_type_symbol
 _atom_site_label
 _atom_site_symmetry_multiplicity
 _atom_site_fract_x
 _atom_site_fract_y
 _atom_site_fract_z
 _atom_site_occupancy
  Er  Er0  1  0.969865  0.579470  0.500000  1
  Er  Er1  1  0.420530  0.390395  0.500000  1
  Er  Er2  1  0.609605  0.030135  0.500000  1
  In  In3  1  0.255005  0.002717  0.000000  1
  In  In4  1  0.747712  0.744995  0.000000  1
  In  In5  1  0.997283  0.252288  0.000000  1
  Cu  Cu6  1  0.000000  0.000000  0.500000  1
  Ni  Ni7  1  0.666667  0.333333  0.000000  1
  Hg  Hg8  1  0.333333  0.666667  0.000000  1
