# generated using pymatgen
data_PrTh3(ReB2)6
_symmetry_space_group_name_H-M   'P 1'
_cell_length_a   6.35960568
_cell_length_b   6.35954163
_cell_length_c   7.64015381
_cell_angle_alpha   90.67436782
_cell_angle_beta   90.92443792
_cell_angle_gamma   115.09371452
_symmetry_Int_Tables_number   1
_chemical_formula_structural   PrTh3(ReB2)6
_chemical_formula_sum   'Pr1 Th3 Re6 B12'
_cell_volume   279.73936117
_cell_formula_units_Z   1
loop_
 _symmetry_equiv_pos_site_id
 _symmetry_equiv_pos_as_xyz
  1  'x, y, z'
loop_
 _atom_site_type_symbol
 _atom_site_label
 _atom_site_symmetry_multiplicity
 _atom_site_fract_x
 _atom_site_fract_y
 _atom_site_fract_z
 _atom_site_occupancy
  Pr  Pr0  1  0.440460  0.095869  0.825057  1
  Th  Th1  1  0.095470  0.440664  0.326406  1
  Th  Th2  1  0.559887  0.905955  0.172726  1
  Th  Th3  1  0.905188  0.559863  0.674576  1
  Re  Re4  1  0.588092  0.412225  0.250601  1
  Re  Re5  1  0.411717  0.586663  0.749127  1
  Re  Re6  1  0.990643  0.804702  0.086626  1
  Re  Re7  1  0.194028  0.008284  0.412731  1
  Re  Re8  1  0.008179  0.194868  0.914445  1
  Re  Re9  1  0.806880  0.992632  0.586613  1
  B  B10  1  0.246606  0.152696  0.132441  1
  B  B11  1  0.846420  0.752906  0.366363  1
  B  B12  1  0.754492  0.846844  0.865834  1
  B  B13  1  0.154353  0.247700  0.634391  1
  B  B14  1  0.582596  0.160080  0.481451  1
  B  B15  1  0.839252  0.414776  0.019682  1
  B  B16  1  0.416466  0.838782  0.519113  1
  B  B17  1  0.161205  0.583845  0.981578  1
  B  B18  1  0.442959  0.349522  0.534463  1
  B  B19  1  0.649746  0.556319  0.966150  1
  B  B20  1  0.555619  0.650870  0.465643  1
  B  B21  1  0.349742  0.443936  0.033984  1
