# generated using pymatgen
data_Al19Cr6Ge
_symmetry_space_group_name_H-M   'P 1'
_cell_length_a   7.48469300
_cell_length_b   7.52937548
_cell_length_c   8.00937100
_cell_angle_alpha   90.00000000
_cell_angle_beta   90.00000000
_cell_angle_gamma   119.80105525
_symmetry_Int_Tables_number   1
_chemical_formula_structural   Al19Cr6Ge
_chemical_formula_sum   'Al19 Cr6 Ge1'
_cell_volume   391.67795939
_cell_formula_units_Z   1
loop_
 _symmetry_equiv_pos_site_id
 _symmetry_equiv_pos_as_xyz
  1  'x, y, z'
loop_
 _atom_site_type_symbol
 _atom_site_label
 _atom_site_symmetry_multiplicity
 _atom_site_fract_x
 _atom_site_fract_y
 _atom_site_fract_z
 _atom_site_occupancy
  Al  Al0  1  0.543398  0.086821  0.750000  1
  Al  Al1  1  0.083430  0.539461  0.250000  1
  Al  Al2  1  0.912350  0.455926  0.750000  1
  Al  Al3  1  0.456018  0.539467  0.250000  1
  Al  Al4  1  0.543583  0.455919  0.750000  1
  Al  Al5  1  0.201872  0.403766  0.560964  1
  Al  Al6  1  0.799263  0.598533  0.436996  1
  Al  Al7  1  0.595627  0.796612  0.565168  1
  Al  Al8  1  0.799263  0.598533  0.063004  1
  Al  Al9  1  0.404620  0.204271  0.440175  1
  Al  Al10  1  0.201872  0.403766  0.939036  1
  Al  Al11  1  0.200965  0.796623  0.565192  1
  Al  Al12  1  0.404620  0.204271  0.059825  1
  Al  Al13  1  0.799655  0.204211  0.440116  1
  Al  Al14  1  0.595627  0.796612  0.934832  1
  Al  Al15  1  0.799655  0.204211  0.059884  1
  Al  Al16  1  0.200965  0.796623  0.934808  1
  Al  Al17  1  0.999282  0.998572  0.002781  1
  Al  Al18  1  0.999282  0.998572  0.497219  1
  Cr  Cr19  1  0.115791  0.231404  0.250000  1
  Cr  Cr20  1  0.884295  0.768693  0.750000  1
  Cr  Cr21  1  0.758803  0.883419  0.250000  1
  Cr  Cr22  1  0.229397  0.115774  0.750000  1
  Cr  Cr23  1  0.124741  0.883468  0.250000  1
  Cr  Cr24  1  0.886331  0.115722  0.750000  1
  Ge  Ge25  1  0.459294  0.918750  0.250000  1
