# generated using pymatgen
data_Ta2NbCo4B4Mo
_symmetry_space_group_name_H-M   'P 1'
_cell_length_a   3.29785500
_cell_length_b   5.82471569
_cell_length_c   6.75108902
_cell_angle_alpha   89.69160142
_cell_angle_beta   90.00000000
_cell_angle_gamma   90.00000000
_symmetry_Int_Tables_number   1
_chemical_formula_structural   Ta2NbCo4B4Mo
_chemical_formula_sum   'Ta2 Nb1 Co4 B4 Mo1'
_cell_volume   129.68024776
_cell_formula_units_Z   1
loop_
 _symmetry_equiv_pos_site_id
 _symmetry_equiv_pos_as_xyz
  1  'x, y, z'
loop_
 _atom_site_type_symbol
 _atom_site_label
 _atom_site_symmetry_multiplicity
 _atom_site_fract_x
 _atom_site_fract_y
 _atom_site_fract_z
 _atom_site_occupancy
  Ta  Ta0  1  0.250000  0.525981  0.679719  1
  Ta  Ta1  1  0.250000  0.024996  0.823986  1
  Nb  Nb2  1  0.750000  0.475026  0.317648  1
  Co  Co3  1  0.750000  0.857600  0.559361  1
  Co  Co4  1  0.250000  0.143520  0.441711  1
  Co  Co5  1  0.750000  0.354529  0.939850  1
  Co  Co6  1  0.250000  0.643301  0.057759  1
  B  B7  1  0.250000  0.778469  0.373591  1
  B  B8  1  0.750000  0.228148  0.620295  1
  B  B9  1  0.250000  0.265712  0.122981  1
  B  B10  1  0.750000  0.726740  0.884460  1
  Mo  Mo11  1  0.750000  0.975980  0.178638  1
