# generated using pymatgen
data_KLi6EuO6
_symmetry_space_group_name_H-M   'P 1'
_cell_length_a   5.57485433
_cell_length_b   5.57480250
_cell_length_c   5.57481634
_cell_angle_alpha   101.79637949
_cell_angle_beta   101.79445616
_cell_angle_gamma   101.79586749
_symmetry_Int_Tables_number   1
_chemical_formula_structural   KLi6EuO6
_chemical_formula_sum   'K1 Li6 Eu1 O6'
_cell_volume   160.44416606
_cell_formula_units_Z   1
loop_
 _symmetry_equiv_pos_site_id
 _symmetry_equiv_pos_as_xyz
  1  'x, y, z'
loop_
 _atom_site_type_symbol
 _atom_site_label
 _atom_site_symmetry_multiplicity
 _atom_site_fract_x
 _atom_site_fract_y
 _atom_site_fract_z
 _atom_site_occupancy
  K  K0  1  0.500000  0.500000  0.500000  1
  Li  Li1  1  0.000002  0.344205  0.655791  1
  Li  Li2  1  0.655792  0.000002  0.344208  1
  Li  Li3  1  0.655792  0.344204  0.000004  1
  Li  Li4  1  0.344208  0.999998  0.655792  1
  Li  Li5  1  0.999998  0.655795  0.344209  1
  Li  Li6  1  0.344208  0.655796  0.999996  1
  Eu  Eu7  1  0.000000  0.000000  0.000000  1
  O  O8  1  0.282777  0.894671  0.282777  1
  O  O9  1  0.894646  0.282782  0.282781  1
  O  O10  1  0.717222  0.717221  0.105350  1
  O  O11  1  0.717223  0.105329  0.717223  1
  O  O12  1  0.105354  0.717218  0.717219  1
  O  O13  1  0.282778  0.282779  0.894650  1
