# generated using pymatgen
data_Zr5ScFeTe2
_symmetry_space_group_name_H-M   'P 1'
_cell_length_a   7.88428855
_cell_length_b   7.81590997
_cell_length_c   3.60207100
_cell_angle_alpha   90.00000000
_cell_angle_beta   90.00000000
_cell_angle_gamma   119.71353172
_symmetry_Int_Tables_number   1
_chemical_formula_structural   Zr5ScFeTe2
_chemical_formula_sum   'Zr5 Sc1 Fe1 Te2'
_cell_volume   192.78417840
_cell_formula_units_Z   1
loop_
 _symmetry_equiv_pos_site_id
 _symmetry_equiv_pos_as_xyz
  1  'x, y, z'
loop_
 _atom_site_type_symbol
 _atom_site_label
 _atom_site_symmetry_multiplicity
 _atom_site_fract_x
 _atom_site_fract_y
 _atom_site_fract_z
 _atom_site_occupancy
  Zr  Zr0  1  0.759196  0.760154  0.500000  1
  Zr  Zr1  1  0.240804  0.000958  0.500000  1
  Zr  Zr2  1  0.000000  0.239882  0.500000  1
  Zr  Zr3  1  0.599198  0.000088  0.000000  1
  Zr  Zr4  1  0.400802  0.400890  0.000000  1
  Sc  Sc5  1  0.000000  0.600613  0.000000  1
  Fe  Fe6  1  0.000000  0.996782  0.000000  1
  Te  Te7  1  0.667751  0.334191  0.500000  1
  Te  Te8  1  0.332249  0.666441  0.500000  1
