# generated using pymatgen
data_KRb2LuBr6
_symmetry_space_group_name_H-M   'P 1'
_cell_length_a   8.13226662
_cell_length_b   8.13226659
_cell_length_c   8.34909146
_cell_angle_alpha   118.92961131
_cell_angle_beta   118.92961472
_cell_angle_gamma   60.58874451
_symmetry_Int_Tables_number   1
_chemical_formula_structural   KRb2LuBr6
_chemical_formula_sum   'K1 Rb2 Lu1 Br6'
_cell_volume   398.42204560
_cell_formula_units_Z   1
loop_
 _symmetry_equiv_pos_site_id
 _symmetry_equiv_pos_as_xyz
  1  'x, y, z'
loop_
 _atom_site_type_symbol
 _atom_site_label
 _atom_site_symmetry_multiplicity
 _atom_site_fract_x
 _atom_site_fract_y
 _atom_site_fract_z
 _atom_site_occupancy
  K  K0  1  0.500000  0.500000  0.500001  1
  Rb  Rb1  1  0.747906  0.747906  0.229404  1
  Rb  Rb2  1  0.252094  0.252094  0.770598  1
  Lu  Lu3  1  0.000000  0.000000  0.000000  1
  Br  Br4  1  0.705346  0.178118  0.165585  1
  Br  Br5  1  0.178118  0.705346  0.165585  1
  Br  Br6  1  0.223673  0.223673  0.324613  1
  Br  Br7  1  0.776327  0.776327  0.675387  1
  Br  Br8  1  0.821882  0.294655  0.834414  1
  Br  Br9  1  0.294655  0.821882  0.834414  1
