# generated using pymatgen
data_ZrCd3P6N13
_symmetry_space_group_name_H-M   'P 1'
_cell_length_a   7.26233513
_cell_length_b   7.31935278
_cell_length_c   7.31935373
_cell_angle_alpha   109.62848247
_cell_angle_beta   109.31349962
_cell_angle_gamma   109.31349990
_symmetry_Int_Tables_number   1
_chemical_formula_structural   ZrCd3P6N13
_chemical_formula_sum   'Zr1 Cd3 P6 N13'
_cell_volume   300.08303713
_cell_formula_units_Z   1
loop_
 _symmetry_equiv_pos_site_id
 _symmetry_equiv_pos_as_xyz
  1  'x, y, z'
loop_
 _atom_site_type_symbol
 _atom_site_label
 _atom_site_symmetry_multiplicity
 _atom_site_fract_x
 _atom_site_fract_y
 _atom_site_fract_z
 _atom_site_occupancy
  Zr  Zr0  1  0.651449  0.000000  0.000000  1
  Cd  Cd1  1  0.004079  0.000000  0.721911  1
  Cd  Cd2  1  0.004079  0.721911  0.000000  1
  Cd  Cd3  1  0.282168  0.278089  0.278089  1
  P  P4  1  0.252698  0.746624  0.494983  1
  P  P5  1  0.757714  0.251641  0.505017  1
  P  P6  1  0.757714  0.505017  0.251641  1
  P  P7  1  0.252698  0.494983  0.746624  1
  P  P8  1  0.506073  0.748359  0.253376  1
  P  P9  1  0.506073  0.253376  0.748359  1
  N  N10  1  0.928469  0.000000  0.000000  1
  N  N11  1  0.726219  0.286544  0.286544  1
  N  N12  1  0.284398  0.714358  0.278648  1
  N  N13  1  0.311909  0.582443  0.582443  1
  N  N14  1  0.570040  0.564289  0.285642  1
  N  N15  1  0.439675  0.713456  0.000000  1
  N  N16  1  0.005750  0.721352  0.435711  1
  N  N17  1  0.570040  0.285642  0.564289  1
  N  N18  1  0.729466  0.000000  0.417557  1
  N  N19  1  0.439675  0.000000  0.713456  1
  N  N20  1  0.729466  0.417557  0.000000  1
  N  N21  1  0.284398  0.278648  0.714358  1
  N  N22  1  0.005750  0.435711  0.721352  1
