# generated using pymatgen
data_ZrPaCrB6
_symmetry_space_group_name_H-M   'P 1'
_cell_length_a   3.57111500
_cell_length_b   8.99295900
_cell_length_c   11.35799200
_cell_angle_alpha   90.00000000
_cell_angle_beta   90.00000000
_cell_angle_gamma   90.00000000
_symmetry_Int_Tables_number   1
_chemical_formula_structural   ZrPaCrB6
_chemical_formula_sum   'Zr4 Pa4 Cr4 B24'
_cell_volume   364.76067255
_cell_formula_units_Z   4
loop_
 _symmetry_equiv_pos_site_id
 _symmetry_equiv_pos_as_xyz
  1  'x, y, z'
loop_
 _atom_site_type_symbol
 _atom_site_label
 _atom_site_symmetry_multiplicity
 _atom_site_fract_x
 _atom_site_fract_y
 _atom_site_fract_z
 _atom_site_occupancy
  Zr  Zr0  1  0.000000  0.443916  0.128534  1
  Zr  Zr1  1  0.000000  0.556084  0.871466  1
  Zr  Zr2  1  0.000000  0.943916  0.371466  1
  Zr  Zr3  1  0.000000  0.056084  0.628534  1
  Pa  Pa4  1  0.000000  0.822997  0.085807  1
  Pa  Pa5  1  0.000000  0.177003  0.914193  1
  Pa  Pa6  1  0.000000  0.322997  0.414193  1
  Pa  Pa7  1  0.000000  0.677003  0.585807  1
  Cr  Cr8  1  0.000000  0.140646  0.181109  1
  Cr  Cr9  1  0.000000  0.859354  0.818891  1
  Cr  Cr10  1  0.000000  0.640646  0.318891  1
  Cr  Cr11  1  0.000000  0.359354  0.681109  1
  B  B12  1  0.500000  0.054999  0.067990  1
  B  B13  1  0.500000  0.945001  0.932010  1
  B  B14  1  0.500000  0.554999  0.432010  1
  B  B15  1  0.500000  0.445001  0.567990  1
  B  B16  1  0.500000  0.250797  0.082590  1
  B  B17  1  0.500000  0.749203  0.917410  1
  B  B18  1  0.500000  0.750797  0.417410  1
  B  B19  1  0.500000  0.249203  0.582590  1
  B  B20  1  0.500000  0.293683  0.235570  1
  B  B21  1  0.500000  0.706317  0.764430  1
  B  B22  1  0.500000  0.793683  0.264430  1
  B  B23  1  0.500000  0.206317  0.735570  1
  B  B24  1  0.500000  0.130810  0.315761  1
  B  B25  1  0.500000  0.869190  0.684239  1
  B  B26  1  0.500000  0.630810  0.184239  1
  B  B27  1  0.500000  0.369190  0.815761  1
  B  B28  1  0.500000  0.483467  0.286840  1
  B  B29  1  0.500000  0.516533  0.713160  1
  B  B30  1  0.500000  0.983467  0.213160  1
  B  B31  1  0.500000  0.016533  0.786840  1
  B  B32  1  0.500000  0.101800  0.472545  1
  B  B33  1  0.500000  0.898200  0.527455  1
  B  B34  1  0.500000  0.601800  0.027455  1
  B  B35  1  0.500000  0.398200  0.972545  1
