# generated using pymatgen
data_Cu2Ni(PO4)2
_symmetry_space_group_name_H-M   'P 1'
_cell_length_a   7.73076743
_cell_length_b   8.02083416
_cell_length_c   5.18613461
_cell_angle_alpha   89.99512752
_cell_angle_beta   92.23259962
_cell_angle_gamma   89.97813523
_symmetry_Int_Tables_number   1
_chemical_formula_structural   Cu2Ni(PO4)2
_chemical_formula_sum   'Cu4 Ni2 P4 O16'
_cell_volume   321.33357354
_cell_formula_units_Z   2
loop_
 _symmetry_equiv_pos_site_id
 _symmetry_equiv_pos_as_xyz
  1  'x, y, z'
loop_
 _atom_site_type_symbol
 _atom_site_label
 _atom_site_symmetry_multiplicity
 _atom_site_fract_x
 _atom_site_fract_y
 _atom_site_fract_z
 _atom_site_occupancy
  Cu  Cu0  1  0.617826  0.141994  0.118068  1
  Cu  Cu1  1  0.882265  0.641928  0.381861  1
  Cu  Cu2  1  0.117734  0.358072  0.618140  1
  Cu  Cu3  1  0.382174  0.858006  0.881933  1
  Ni  Ni4  1  0.500000  0.500000  0.000000  1
  Ni  Ni5  1  0.000000  0.000000  0.500000  1
  P  P6  1  0.195215  0.194394  0.039014  1
  P  P7  1  0.304804  0.694393  0.461042  1
  P  P8  1  0.695195  0.305607  0.538958  1
  P  P9  1  0.804785  0.805606  0.960987  1
  O  O10  1  0.741104  0.628259  0.042823  1
  O  O11  1  0.345998  0.068068  0.044369  1
  O  O12  1  0.941726  0.845455  0.184914  1
  O  O13  1  0.390951  0.696422  0.198676  1
  O  O14  1  0.108981  0.196397  0.301441  1
  O  O15  1  0.558230  0.345530  0.315067  1
  O  O16  1  0.154058  0.568019  0.455663  1
  O  O17  1  0.758931  0.128305  0.457122  1
  O  O18  1  0.241068  0.871695  0.542879  1
  O  O19  1  0.845942  0.431981  0.544338  1
  O  O20  1  0.441770  0.654470  0.684934  1
  O  O21  1  0.891020  0.803602  0.698559  1
  O  O22  1  0.609049  0.303578  0.801325  1
  O  O23  1  0.058273  0.154545  0.815087  1
  O  O24  1  0.654002  0.931933  0.955630  1
  O  O25  1  0.258896  0.371740  0.957177  1
