# generated using pymatgen
data_Pr5Sm3Sc11Si16Mo
_symmetry_space_group_name_H-M   'P 1'
_cell_length_a   7.20914033
_cell_length_b   7.45499174
_cell_length_c   14.08898868
_cell_angle_alpha   90.14156600
_cell_angle_beta   89.80643351
_cell_angle_gamma   89.65315392
_symmetry_Int_Tables_number   1
_chemical_formula_structural   Pr5Sm3Sc11Si16Mo
_chemical_formula_sum   'Pr5 Sm3 Sc11 Si16 Mo1'
_cell_volume   757.17921240
_cell_formula_units_Z   1
loop_
 _symmetry_equiv_pos_site_id
 _symmetry_equiv_pos_as_xyz
  1  'x, y, z'
loop_
 _atom_site_type_symbol
 _atom_site_label
 _atom_site_symmetry_multiplicity
 _atom_site_fract_x
 _atom_site_fract_y
 _atom_site_fract_z
 _atom_site_occupancy
  Pr  Pr0  1  0.011752  0.170736  0.097623  1
  Pr  Pr1  1  0.989370  0.828810  0.898204  1
  Pr  Pr2  1  0.486790  0.673126  0.898541  1
  Pr  Pr3  1  0.991948  0.831394  0.594735  1
  Pr  Pr4  1  0.513420  0.327315  0.097317  1
  Sm  Sm5  1  0.012404  0.174208  0.402791  1
  Sm  Sm6  1  0.507754  0.326035  0.408857  1
  Sm  Sm7  1  0.486096  0.674740  0.597150  1
  Sc  Sc8  1  0.163472  0.489311  0.743835  1
  Sc  Sc9  1  0.838340  0.500028  0.252862  1
  Sc  Sc10  1  0.338424  0.000418  0.252792  1
  Sc  Sc11  1  0.656156  0.004813  0.746702  1
  Sc  Sc12  1  0.665626  0.826242  0.379224  1
  Sc  Sc13  1  0.169805  0.676255  0.378237  1
  Sc  Sc14  1  0.670014  0.824669  0.125567  1
  Sc  Sc15  1  0.831627  0.325000  0.623328  1
  Sc  Sc16  1  0.332366  0.177208  0.874857  1
  Sc  Sc17  1  0.829024  0.323482  0.870500  1
  Sc  Sc18  1  0.170722  0.675553  0.126715  1
  Si  Si19  1  0.044517  0.126812  0.744438  1
  Si  Si20  1  0.963575  0.878185  0.252874  1
  Si  Si21  1  0.466477  0.624503  0.252278  1
  Si  Si22  1  0.529769  0.368111  0.744215  1
  Si  Si23  1  0.289709  0.891435  0.745371  1
  Si  Si24  1  0.710472  0.119562  0.253025  1
  Si  Si25  1  0.213682  0.379863  0.252821  1
  Si  Si26  1  0.784508  0.616524  0.745624  1
  Si  Si27  1  0.172200  0.448548  0.541995  1
  Si  Si28  1  0.846096  0.531280  0.459277  1
  Si  Si29  1  0.340024  0.970534  0.469535  1
  Si  Si30  1  0.849754  0.537667  0.039022  1
  Si  Si31  1  0.640477  0.038455  0.545618  1
  Si  Si32  1  0.148483  0.463931  0.958902  1
  Si  Si33  1  0.654890  0.037870  0.958092  1
  Si  Si34  1  0.347762  0.961121  0.039193  1
  Mo  Mo35  1  0.332498  0.176255  0.627880  1
