# generated using pymatgen
data_BPH6
_symmetry_space_group_name_H-M   'P 1'
_cell_length_a   3.24883965
_cell_length_b   3.23117637
_cell_length_c   10.57718429
_cell_angle_alpha   82.92889290
_cell_angle_beta   83.00803187
_cell_angle_gamma   59.77848257
_symmetry_Int_Tables_number   1
_chemical_formula_structural   BPH6
_chemical_formula_sum   'B1 P1 H6'
_cell_volume   94.98228724
_cell_formula_units_Z   1
loop_
 _symmetry_equiv_pos_site_id
 _symmetry_equiv_pos_as_xyz
  1  'x, y, z'
loop_
 _atom_site_type_symbol
 _atom_site_label
 _atom_site_symmetry_multiplicity
 _atom_site_fract_x
 _atom_site_fract_y
 _atom_site_fract_z
 _atom_site_occupancy
  B  B0  1  0.963313  0.030482  0.737853  1
  P  P1  1  0.615576  0.684108  0.791301  1
  H  H2  1  0.744352  0.897690  0.157005  1
  H  H3  1  0.992353  0.059822  0.622198  1
  H  H4  1  0.357167  0.564158  0.424356  1
  H  H5  1  0.892298  0.008538  0.166518  1
  H  H6  1  0.580409  0.650200  0.927316  1
  H  H7  1  0.376670  0.427958  0.369424  1
