# generated using pymatgen
data_Y12ErTh3(CdNi)4
_symmetry_space_group_name_H-M   'P 1'
_cell_length_a   9.65068117
_cell_length_b   9.67910522
_cell_length_c   9.67910400
_cell_angle_alpha   59.99999735
_cell_angle_beta   59.90252001
_cell_angle_gamma   59.90252618
_symmetry_Int_Tables_number   1
_chemical_formula_structural   Y12ErTh3(CdNi)4
_chemical_formula_sum   'Y12 Er1 Th3 Cd4 Ni4'
_cell_volume   638.36913660
_cell_formula_units_Z   1
loop_
 _symmetry_equiv_pos_site_id
 _symmetry_equiv_pos_as_xyz
  1  'x, y, z'
loop_
 _atom_site_type_symbol
 _atom_site_label
 _atom_site_symmetry_multiplicity
 _atom_site_fract_x
 _atom_site_fract_y
 _atom_site_fract_z
 _atom_site_occupancy
  Y  Y0  1  0.062293  0.438507  0.438507  1
  Y  Y1  1  0.439564  0.062156  0.062156  1
  Y  Y2  1  0.439564  0.062156  0.436124  1
  Y  Y3  1  0.062293  0.438507  0.060693  1
  Y  Y4  1  0.439564  0.436124  0.062156  1
  Y  Y5  1  0.062293  0.060693  0.438507  1
  Y  Y6  1  0.186922  0.815374  0.815374  1
  Y  Y7  1  0.813963  0.185418  0.185418  1
  Y  Y8  1  0.813963  0.185418  0.815202  1
  Y  Y9  1  0.186922  0.815374  0.182330  1
  Y  Y10  1  0.813963  0.815202  0.185418  1
  Y  Y11  1  0.186922  0.182330  0.815374  1
  Er  Er12  1  0.197311  0.600897  0.600897  1
  Th  Th13  1  0.593092  0.599094  0.599094  1
  Th  Th14  1  0.593092  0.599094  0.208719  1
  Th  Th15  1  0.593092  0.208719  0.599094  1
  Cd  Cd16  1  0.833642  0.831462  0.831462  1
  Cd  Cd17  1  0.833642  0.831462  0.503432  1
  Cd  Cd18  1  0.833642  0.503432  0.831462  1
  Cd  Cd19  1  0.504290  0.831903  0.831903  1
  Ni  Ni20  1  0.398106  0.391761  0.391761  1
  Ni  Ni21  1  0.398106  0.391761  0.818373  1
  Ni  Ni22  1  0.398106  0.818373  0.391761  1
  Ni  Ni23  1  0.815652  0.394783  0.394783  1
