# generated using pymatgen
data_Dy5GaBi3
_symmetry_space_group_name_H-M   'P 1'
_cell_length_a   8.12636900
_cell_length_b   15.57365600
_cell_length_c   8.19012400
_cell_angle_alpha   90.00000000
_cell_angle_beta   90.00000000
_cell_angle_gamma   90.00000000
_symmetry_Int_Tables_number   1
_chemical_formula_structural   Dy5GaBi3
_chemical_formula_sum   'Dy20 Ga4 Bi12'
_cell_volume   1036.51977810
_cell_formula_units_Z   4
loop_
 _symmetry_equiv_pos_site_id
 _symmetry_equiv_pos_as_xyz
  1  'x, y, z'
loop_
 _atom_site_type_symbol
 _atom_site_label
 _atom_site_symmetry_multiplicity
 _atom_site_fract_x
 _atom_site_fract_y
 _atom_site_fract_z
 _atom_site_occupancy
  Dy  Dy0  1  0.220397  0.250000  0.013912  1
  Dy  Dy1  1  0.106251  0.622007  0.148439  1
  Dy  Dy2  1  0.106251  0.877993  0.148439  1
  Dy  Dy3  1  0.557638  0.114659  0.185224  1
  Dy  Dy4  1  0.557638  0.385341  0.185224  1
  Dy  Dy5  1  0.057638  0.114659  0.314776  1
  Dy  Dy6  1  0.057638  0.385341  0.314776  1
  Dy  Dy7  1  0.606250  0.622007  0.351561  1
  Dy  Dy8  1  0.606250  0.877993  0.351561  1
  Dy  Dy9  1  0.720397  0.250000  0.486088  1
  Dy  Dy10  1  0.279603  0.750000  0.513912  1
  Dy  Dy11  1  0.393749  0.122007  0.648439  1
  Dy  Dy12  1  0.393749  0.377993  0.648439  1
  Dy  Dy13  1  0.942362  0.614659  0.685225  1
  Dy  Dy14  1  0.942362  0.885341  0.685225  1
  Dy  Dy15  1  0.442362  0.614659  0.814776  1
  Dy  Dy16  1  0.442362  0.885341  0.814776  1
  Dy  Dy17  1  0.893749  0.122007  0.851561  1
  Dy  Dy18  1  0.893749  0.377993  0.851561  1
  Dy  Dy19  1  0.779603  0.750000  0.986088  1
  Ga  Ga20  1  0.868623  0.250000  0.146933  1
  Ga  Ga21  1  0.368623  0.250000  0.353067  1
  Ga  Ga22  1  0.631376  0.750000  0.646933  1
  Ga  Ga23  1  0.131376  0.750000  0.853067  1
  Bi  Bi24  1  0.758856  0.544707  0.025714  1
  Bi  Bi25  1  0.758856  0.955293  0.025714  1
  Bi  Bi26  1  0.408718  0.750000  0.123536  1
  Bi  Bi27  1  0.908718  0.750000  0.376464  1
  Bi  Bi28  1  0.258856  0.544707  0.474286  1
  Bi  Bi29  1  0.258856  0.955293  0.474286  1
  Bi  Bi30  1  0.741144  0.044707  0.525714  1
  Bi  Bi31  1  0.741144  0.455293  0.525714  1
  Bi  Bi32  1  0.091282  0.250000  0.623536  1
  Bi  Bi33  1  0.591282  0.250000  0.876464  1
  Bi  Bi34  1  0.241143  0.044707  0.974286  1
  Bi  Bi35  1  0.241143  0.455293  0.974286  1
