# generated using pymatgen
data_CeNd2Th(AgAs2)4
_symmetry_space_group_name_H-M   'P 1'
_cell_length_a   4.09492500
_cell_length_b   4.09883971
_cell_length_c   20.77925393
_cell_angle_alpha   89.90162198
_cell_angle_beta   90.00000000
_cell_angle_gamma   90.00000000
_symmetry_Int_Tables_number   1
_chemical_formula_structural   CeNd2Th(AgAs2)4
_chemical_formula_sum   'Ce1 Nd2 Th1 Ag4 As8'
_cell_volume   348.76765201
_cell_formula_units_Z   1
loop_
 _symmetry_equiv_pos_site_id
 _symmetry_equiv_pos_as_xyz
  1  'x, y, z'
loop_
 _atom_site_type_symbol
 _atom_site_label
 _atom_site_symmetry_multiplicity
 _atom_site_fract_x
 _atom_site_fract_y
 _atom_site_fract_z
 _atom_site_occupancy
  Ce  Ce0  1  0.250000  0.760989  0.613702  1
  Nd  Nd1  1  0.750000  0.237870  0.388905  1
  Nd  Nd2  1  0.750000  0.257158  0.887135  1
  Th  Th3  1  0.250000  0.743853  0.111217  1
  Ag  Ag4  1  0.750000  0.736091  0.250339  1
  Ag  Ag5  1  0.250000  0.235622  0.250364  1
  Ag  Ag6  1  0.750000  0.763572  0.749551  1
  Ag  Ag7  1  0.250000  0.263434  0.749575  1
  As  As8  1  0.750000  0.242870  0.156071  1
  As  As9  1  0.250000  0.736881  0.339751  1
  As  As10  1  0.750000  0.260748  0.656456  1
  As  As11  1  0.250000  0.759148  0.838794  1
  As  As12  1  0.250000  0.247478  0.000697  1
  As  As13  1  0.750000  0.739210  0.503274  1
  As  As14  1  0.250000  0.263268  0.503507  1
  As  As15  1  0.750000  0.751806  0.000660  1
