# generated using pymatgen
data_Yb3Pr13(HoIr3)4
_symmetry_space_group_name_H-M   'P 1'
_cell_length_a   11.18968390
_cell_length_b   11.27980100
_cell_length_c   6.50758467
_cell_angle_alpha   89.92632342
_cell_angle_beta   90.22315587
_cell_angle_gamma   90.11520631
_symmetry_Int_Tables_number   1
_chemical_formula_structural   Yb3Pr13(HoIr3)4
_chemical_formula_sum   'Yb3 Pr13 Ho4 Ir12'
_cell_volume   821.36190505
_cell_formula_units_Z   1
loop_
 _symmetry_equiv_pos_site_id
 _symmetry_equiv_pos_as_xyz
  1  'x, y, z'
loop_
 _atom_site_type_symbol
 _atom_site_label
 _atom_site_symmetry_multiplicity
 _atom_site_fract_x
 _atom_site_fract_y
 _atom_site_fract_z
 _atom_site_occupancy
  Yb  Yb0  1  0.292172  0.085047  0.383235  1
  Yb  Yb1  1  0.289559  0.916269  0.884232  1
  Yb  Yb2  1  0.708411  0.085349  0.884536  1
  Pr  Pr3  1  0.711343  0.915270  0.387511  1
  Pr  Pr4  1  0.584408  0.793745  0.883310  1
  Pr  Pr5  1  0.585469  0.208709  0.381624  1
  Pr  Pr6  1  0.408797  0.795203  0.383337  1
  Pr  Pr7  1  0.412923  0.205515  0.883447  1
  Pr  Pr8  1  0.212115  0.410458  0.620382  1
  Pr  Pr9  1  0.212293  0.587758  0.120494  1
  Pr  Pr10  1  0.788983  0.410936  0.119629  1
  Pr  Pr11  1  0.787530  0.588236  0.617929  1
  Pr  Pr12  1  0.911695  0.712103  0.121400  1
  Pr  Pr13  1  0.908453  0.286121  0.625747  1
  Pr  Pr14  1  0.089990  0.713079  0.621728  1
  Pr  Pr15  1  0.090993  0.285706  0.125251  1
  Ho  Ho16  1  0.005368  0.001343  0.493041  1
  Ho  Ho17  1  0.998834  0.000493  0.992761  1
  Ho  Ho18  1  0.500372  0.499870  0.990277  1
  Ho  Ho19  1  0.498910  0.501090  0.490746  1
  Ir  Ir20  1  0.855294  0.147756  0.252576  1
  Ir  Ir21  1  0.857982  0.848872  0.744364  1
  Ir  Ir22  1  0.144226  0.151258  0.750553  1
  Ir  Ir23  1  0.144478  0.848491  0.246039  1
  Ir  Ir24  1  0.646583  0.353903  0.744715  1
  Ir  Ir25  1  0.646706  0.649602  0.245801  1
  Ir  Ir26  1  0.353630  0.353962  0.243460  1
  Ir  Ir27  1  0.351079  0.645796  0.744512  1
  Ir  Ir28  1  0.500216  0.000328  0.124369  1
  Ir  Ir29  1  0.500563  0.999846  0.624966  1
  Ir  Ir30  1  0.000305  0.499148  0.884090  1
  Ir  Ir31  1  0.000321  0.498740  0.383937  1
