# generated using pymatgen
data_Tb12Dy7Er(CoBi2)4
_symmetry_space_group_name_H-M   'P 1'
_cell_length_a   8.02904326
_cell_length_b   8.88731518
_cell_length_c   12.43978040
_cell_angle_alpha   89.98350059
_cell_angle_beta   90.02415004
_cell_angle_gamma   89.98362840
_symmetry_Int_Tables_number   1
_chemical_formula_structural   Tb12Dy7Er(CoBi2)4
_chemical_formula_sum   'Tb12 Dy7 Er1 Co4 Bi8'
_cell_volume   887.66075614
_cell_formula_units_Z   1
loop_
 _symmetry_equiv_pos_site_id
 _symmetry_equiv_pos_as_xyz
  1  'x, y, z'
loop_
 _atom_site_type_symbol
 _atom_site_label
 _atom_site_symmetry_multiplicity
 _atom_site_fract_x
 _atom_site_fract_y
 _atom_site_fract_z
 _atom_site_occupancy
  Tb  Tb0  1  0.848329  0.750046  0.801467  1
  Tb  Tb1  1  0.151654  0.249976  0.198499  1
  Tb  Tb2  1  0.348677  0.249846  0.698396  1
  Tb  Tb3  1  0.651572  0.750089  0.301692  1
  Tb  Tb4  1  0.379814  0.750167  0.689687  1
  Tb  Tb5  1  0.620737  0.249703  0.310329  1
  Tb  Tb6  1  0.879415  0.250037  0.810046  1
  Tb  Tb7  1  0.120540  0.750000  0.189885  1
  Tb  Tb8  1  0.953751  0.750237  0.502482  1
  Tb  Tb9  1  0.045436  0.249829  0.497543  1
  Tb  Tb10  1  0.454314  0.249974  0.997545  1
  Tb  Tb11  1  0.545718  0.750002  0.002436  1
  Dy  Dy12  1  0.324089  0.966175  0.437376  1
  Dy  Dy13  1  0.176268  0.966039  0.937239  1
  Dy  Dy14  1  0.323770  0.533778  0.437318  1
  Dy  Dy15  1  0.823737  0.033911  0.062773  1
  Dy  Dy16  1  0.676229  0.465985  0.562785  1
  Dy  Dy17  1  0.823749  0.466067  0.062739  1
  Dy  Dy18  1  0.176290  0.533942  0.937248  1
  Er  Er19  1  0.674748  0.034113  0.562626  1
  Co  Co20  1  0.559504  0.750375  0.508072  1
  Co  Co21  1  0.441650  0.249565  0.492150  1
  Co  Co22  1  0.059117  0.249997  0.991933  1
  Co  Co23  1  0.940876  0.750003  0.008040  1
  Bi  Bi24  1  0.570478  0.492292  0.825593  1
  Bi  Bi25  1  0.429586  0.507694  0.174486  1
  Bi  Bi26  1  0.070530  0.507709  0.674383  1
  Bi  Bi27  1  0.429547  0.992310  0.174423  1
  Bi  Bi28  1  0.929574  0.492291  0.325578  1
  Bi  Bi29  1  0.570615  0.007743  0.825410  1
  Bi  Bi30  1  0.929720  0.007704  0.325566  1
  Bi  Bi31  1  0.069968  0.992403  0.674256  1
