# generated using pymatgen
data_TmTcF7
_symmetry_space_group_name_H-M   'P 1'
_cell_length_a   5.57627100
_cell_length_b   5.94215093
_cell_length_c   8.09964880
_cell_angle_alpha   102.44442033
_cell_angle_beta   90.00000000
_cell_angle_gamma   90.00000000
_symmetry_Int_Tables_number   1
_chemical_formula_structural   TmTcF7
_chemical_formula_sum   'Tm2 Tc2 F14'
_cell_volume   262.07671407
_cell_formula_units_Z   2
loop_
 _symmetry_equiv_pos_site_id
 _symmetry_equiv_pos_as_xyz
  1  'x, y, z'
loop_
 _atom_site_type_symbol
 _atom_site_label
 _atom_site_symmetry_multiplicity
 _atom_site_fract_x
 _atom_site_fract_y
 _atom_site_fract_z
 _atom_site_occupancy
  Tm  Tm0  1  0.697779  0.655447  0.685211  1
  Tm  Tm1  1  0.197779  0.344553  0.314789  1
  Tc  Tc2  1  0.709456  0.812694  0.225129  1
  Tc  Tc3  1  0.209456  0.187306  0.774871  1
  F  F4  1  0.890451  0.453602  0.477869  1
  F  F5  1  0.390451  0.546398  0.522131  1
  F  F6  1  0.426148  0.925947  0.769051  1
  F  F7  1  0.926148  0.074053  0.230949  1
  F  F8  1  0.944000  0.964090  0.761365  1
  F  F9  1  0.444000  0.035910  0.238635  1
  F  F10  1  0.997040  0.454067  0.789208  1
  F  F11  1  0.497040  0.545933  0.210792  1
  F  F12  1  0.702850  0.758061  0.978168  1
  F  F13  1  0.202850  0.241939  0.021832  1
  F  F14  1  0.710614  0.867575  0.472516  1
  F  F15  1  0.210614  0.132425  0.527484  1
  F  F16  1  0.498022  0.381672  0.784758  1
  F  F17  1  0.998022  0.618328  0.215242  1
