# generated using pymatgen
data_Hf18Re5Ni2W3
_symmetry_space_group_name_H-M   'P 1'
_cell_length_a   8.66537846
_cell_length_b   8.66537865
_cell_length_c   8.44261800
_cell_angle_alpha   90.00000000
_cell_angle_beta   90.00000000
_cell_angle_gamma   120.10233520
_symmetry_Int_Tables_number   1
_chemical_formula_structural   Hf18Re5Ni2W3
_chemical_formula_sum   'Hf18 Re5 Ni2 W3'
_cell_volume   548.44626534
_cell_formula_units_Z   1
loop_
 _symmetry_equiv_pos_site_id
 _symmetry_equiv_pos_as_xyz
  1  'x, y, z'
loop_
 _atom_site_type_symbol
 _atom_site_label
 _atom_site_symmetry_multiplicity
 _atom_site_fract_x
 _atom_site_fract_y
 _atom_site_fract_z
 _atom_site_occupancy
  Hf  Hf0  1  0.198687  0.801313  0.443098  1
  Hf  Hf1  1  0.198766  0.397592  0.443726  1
  Hf  Hf2  1  0.602408  0.801234  0.443726  1
  Hf  Hf3  1  0.801183  0.198817  0.557420  1
  Hf  Hf4  1  0.801390  0.602844  0.557097  1
  Hf  Hf5  1  0.397156  0.198610  0.557097  1
  Hf  Hf6  1  0.801183  0.198817  0.942580  1
  Hf  Hf7  1  0.801390  0.602844  0.942903  1
  Hf  Hf8  1  0.397156  0.198610  0.942903  1
  Hf  Hf9  1  0.198687  0.801313  0.056902  1
  Hf  Hf10  1  0.198766  0.397592  0.056274  1
  Hf  Hf11  1  0.602408  0.801234  0.056274  1
  Hf  Hf12  1  0.541276  0.458724  0.250000  1
  Hf  Hf13  1  0.540433  0.082003  0.250000  1
  Hf  Hf14  1  0.917997  0.459567  0.250000  1
  Hf  Hf15  1  0.458778  0.541222  0.750000  1
  Hf  Hf16  1  0.458237  0.917251  0.750000  1
  Hf  Hf17  1  0.082749  0.541763  0.750000  1
  Re  Re18  1  0.888191  0.776263  0.250000  1
  Re  Re19  1  0.223737  0.111809  0.250000  1
  Re  Re20  1  0.111511  0.888489  0.750000  1
  Re  Re21  1  0.112203  0.223474  0.750000  1
  Re  Re22  1  0.776526  0.887797  0.750000  1
  Ni  Ni23  1  0.333207  0.666793  0.250000  1
  Ni  Ni24  1  0.666345  0.333655  0.750000  1
  W  W25  1  0.888867  0.111133  0.250000  1
  W  W26  1  0.000381  0.999619  0.500337  1
  W  W27  1  0.000381  0.999619  0.999663  1
