# generated using pymatgen
data_Tb8CdAgPt2
_symmetry_space_group_name_H-M   'P 1'
_cell_length_a   9.68277528
_cell_length_b   9.68277479
_cell_length_c   9.66932600
_cell_angle_alpha   60.04593513
_cell_angle_beta   60.04593679
_cell_angle_gamma   60.00783042
_symmetry_Int_Tables_number   1
_chemical_formula_structural   Tb8CdAgPt2
_chemical_formula_sum   'Tb16 Cd2 Ag2 Pt4'
_cell_volume   641.51646833
_cell_formula_units_Z   2
loop_
 _symmetry_equiv_pos_site_id
 _symmetry_equiv_pos_as_xyz
  1  'x, y, z'
loop_
 _atom_site_type_symbol
 _atom_site_label
 _atom_site_symmetry_multiplicity
 _atom_site_fract_x
 _atom_site_fract_y
 _atom_site_fract_z
 _atom_site_occupancy
  Tb  Tb0  1  0.352690  0.352690  0.351248  1
  Tb  Tb1  1  0.352690  0.352690  0.943372  1
  Tb  Tb2  1  0.354941  0.938408  0.353326  1
  Tb  Tb3  1  0.938408  0.354941  0.353326  1
  Tb  Tb4  1  0.810015  0.190171  0.191529  1
  Tb  Tb5  1  0.190171  0.810015  0.808284  1
  Tb  Tb6  1  0.190171  0.810015  0.191529  1
  Tb  Tb7  1  0.810015  0.190171  0.808284  1
  Tb  Tb8  1  0.191237  0.191237  0.808763  1
  Tb  Tb9  1  0.809665  0.809665  0.190335  1
  Tb  Tb10  1  0.932301  0.564488  0.565783  1
  Tb  Tb11  1  0.564488  0.932301  0.937428  1
  Tb  Tb12  1  0.564488  0.932301  0.565783  1
  Tb  Tb13  1  0.932301  0.564488  0.937428  1
  Tb  Tb14  1  0.564725  0.564725  0.935275  1
  Tb  Tb15  1  0.935153  0.935153  0.564847  1
  Cd  Cd16  1  0.581901  0.256787  0.580656  1
  Cd  Cd17  1  0.256787  0.581901  0.580656  1
  Ag  Ag18  1  0.583865  0.583865  0.582938  1
  Ag  Ag19  1  0.583865  0.583865  0.249332  1
  Pt  Pt20  1  0.143846  0.143846  0.144457  1
  Pt  Pt21  1  0.143846  0.143846  0.567851  1
  Pt  Pt22  1  0.142635  0.569798  0.143784  1
  Pt  Pt23  1  0.569798  0.142635  0.143784  1
