# generated using pymatgen
data_Ho2Tm3Ru2
_symmetry_space_group_name_H-M   'P 1'
_cell_length_a   6.26219182
_cell_length_b   7.24683727
_cell_length_c   8.36801420
_cell_angle_alpha   96.81018384
_cell_angle_beta   111.97330192
_cell_angle_gamma   90.00000003
_symmetry_Int_Tables_number   1
_chemical_formula_structural   Ho2Tm3Ru2
_chemical_formula_sum   'Ho4 Tm6 Ru4'
_cell_volume   349.27301955
_cell_formula_units_Z   2
loop_
 _symmetry_equiv_pos_site_id
 _symmetry_equiv_pos_as_xyz
  1  'x, y, z'
loop_
 _atom_site_type_symbol
 _atom_site_label
 _atom_site_symmetry_multiplicity
 _atom_site_fract_x
 _atom_site_fract_y
 _atom_site_fract_z
 _atom_site_occupancy
  Ho  Ho0  1  0.790429  0.083930  0.813014  1
  Ho  Ho1  1  0.977414  0.416070  0.186986  1
  Ho  Ho2  1  0.209571  0.916070  0.186986  1
  Ho  Ho3  1  0.022586  0.583930  0.813014  1
  Tm  Tm4  1  0.205646  0.184368  0.565389  1
  Tm  Tm5  1  0.640257  0.315632  0.434611  1
  Tm  Tm6  1  0.794354  0.815632  0.434611  1
  Tm  Tm7  1  0.359743  0.684368  0.565389  1
  Tm  Tm8  1  0.418916  0.250000  0.000000  1
  Tm  Tm9  1  0.581084  0.750000  0.000000  1
  Ru  Ru10  1  0.601744  0.423820  0.779678  1
  Ru  Ru11  1  0.822065  0.076180  0.220322  1
  Ru  Ru12  1  0.398256  0.576180  0.220322  1
  Ru  Ru13  1  0.177935  0.923820  0.779678  1
