# generated using pymatgen
data_Nd9Th(Al2Ru3)2
_symmetry_space_group_name_H-M   'P 1'
_cell_length_a   8.58166186
_cell_length_b   8.54228561
_cell_length_c   8.54228504
_cell_angle_alpha   109.04063409
_cell_angle_beta   109.78097837
_cell_angle_gamma   109.40505859
_symmetry_Int_Tables_number   1
_chemical_formula_structural   Nd9Th(Al2Ru3)2
_chemical_formula_sum   'Nd9 Th1 Al4 Ru6'
_cell_volume   483.15028806
_cell_formula_units_Z   1
loop_
 _symmetry_equiv_pos_site_id
 _symmetry_equiv_pos_as_xyz
  1  'x, y, z'
loop_
 _atom_site_type_symbol
 _atom_site_label
 _atom_site_symmetry_multiplicity
 _atom_site_fract_x
 _atom_site_fract_y
 _atom_site_fract_z
 _atom_site_occupancy
  Nd  Nd0  1  0.750000  0.814400  0.064400  1
  Nd  Nd1  1  0.436052  0.250689  0.685799  1
  Nd  Nd2  1  0.684016  0.436325  0.249357  1
  Nd  Nd3  1  0.063949  0.749748  0.814638  1
  Nd  Nd4  1  0.815984  0.065341  0.752307  1
  Nd  Nd5  1  0.216903  0.214279  0.216472  1
  Nd  Nd6  1  0.503371  0.000336  0.286457  1
  Nd  Nd7  1  0.283097  0.499572  0.997376  1
  Nd  Nd8  1  0.996630  0.283087  0.496967  1
  Th  Th9  1  0.250000  0.690539  0.440540  1
  Al  Al10  1  0.502522  0.005379  0.913231  1
  Al  Al11  1  0.592600  0.590920  0.589651  1
  Al  Al12  1  0.907400  0.497052  0.998320  1
  Al  Al13  1  0.997479  0.910711  0.502859  1
  Ru  Ru14  1  0.250001  0.121091  0.871091  1
  Ru  Ru15  1  0.750000  0.380164  0.630164  1
  Ru  Ru16  1  0.874008  0.251139  0.123503  1
  Ru  Ru17  1  0.126418  0.855949  0.260212  1
  Ru  Ru18  1  0.625991  0.749494  0.377128  1
  Ru  Ru19  1  0.373581  0.633793  0.729531  1
