# generated using pymatgen
data_Mn2Ag(PO4)2
_symmetry_space_group_name_H-M   'P 1'
_cell_length_a   5.18515943
_cell_length_b   5.60640382
_cell_length_c   6.61848664
_cell_angle_alpha   74.00058831
_cell_angle_beta   86.17165468
_cell_angle_gamma   66.98348124
_symmetry_Int_Tables_number   1
_chemical_formula_structural   Mn2Ag(PO4)2
_chemical_formula_sum   'Mn2 Ag1 P2 O8'
_cell_volume   170.04119332
_cell_formula_units_Z   1
loop_
 _symmetry_equiv_pos_site_id
 _symmetry_equiv_pos_as_xyz
  1  'x, y, z'
loop_
 _atom_site_type_symbol
 _atom_site_label
 _atom_site_symmetry_multiplicity
 _atom_site_fract_x
 _atom_site_fract_y
 _atom_site_fract_z
 _atom_site_occupancy
  Mn  Mn0  1  0.203530  0.243636  0.195423  1
  Mn  Mn1  1  0.796464  0.756340  0.804582  1
  Ag  Ag2  1  0.500000  0.500008  0.499997  1
  P  P3  1  0.854401  0.857578  0.272220  1
  P  P4  1  0.145599  0.142423  0.727776  1
  O  O5  1  0.904500  0.658407  0.134342  1
  O  O6  1  0.636926  0.137312  0.164573  1
  O  O7  1  0.137602  0.880361  0.311125  1
  O  O8  1  0.753634  0.735371  0.490812  1
  O  O9  1  0.246372  0.264647  0.509184  1
  O  O10  1  0.862395  0.119638  0.688878  1
  O  O11  1  0.363075  0.862688  0.835430  1
  O  O12  1  0.095502  0.341593  0.865657  1
