# generated using pymatgen
data_Lu4HfSc3Ir4
_symmetry_space_group_name_H-M   'P 1'
_cell_length_a   4.41084100
_cell_length_b   7.00186390
_cell_length_c   8.33623200
_cell_angle_alpha   91.09895338
_cell_angle_beta   90.00000000
_cell_angle_gamma   90.00000000
_symmetry_Int_Tables_number   1
_chemical_formula_structural   Lu4HfSc3Ir4
_chemical_formula_sum   'Lu4 Hf1 Sc3 Ir4'
_cell_volume   257.40973664
_cell_formula_units_Z   1
loop_
 _symmetry_equiv_pos_site_id
 _symmetry_equiv_pos_as_xyz
  1  'x, y, z'
loop_
 _atom_site_type_symbol
 _atom_site_label
 _atom_site_symmetry_multiplicity
 _atom_site_fract_x
 _atom_site_fract_y
 _atom_site_fract_z
 _atom_site_occupancy
  Lu  Lu0  1  0.250000  0.018699  0.673030  1
  Lu  Lu1  1  0.250000  0.515562  0.829955  1
  Lu  Lu2  1  0.750000  0.980813  0.327361  1
  Lu  Lu3  1  0.750000  0.483786  0.170105  1
  Hf  Hf4  1  0.750000  0.359934  0.570150  1
  Sc  Sc5  1  0.250000  0.145742  0.072242  1
  Sc  Sc6  1  0.250000  0.641861  0.428457  1
  Sc  Sc7  1  0.750000  0.856550  0.928992  1
  Ir  Ir8  1  0.250000  0.256120  0.404638  1
  Ir  Ir9  1  0.250000  0.756461  0.104788  1
  Ir  Ir10  1  0.750000  0.741470  0.600222  1
  Ir  Ir11  1  0.750000  0.243001  0.890061  1
