# generated using pymatgen
data_Tm8Si16(TcRu3)3
_symmetry_space_group_name_H-M   'P 1'
_cell_length_a   10.17640348
_cell_length_b   10.17927857
_cell_length_c   13.77251992
_cell_angle_alpha   53.30715868
_cell_angle_beta   53.32507314
_cell_angle_gamma   30.81256238
_symmetry_Int_Tables_number   1
_chemical_formula_structural   Tm8Si16(TcRu3)3
_chemical_formula_sum   'Tm8 Si16 Tc3 Ru9'
_cell_volume   573.56909857
_cell_formula_units_Z   1
loop_
 _symmetry_equiv_pos_site_id
 _symmetry_equiv_pos_as_xyz
  1  'x, y, z'
loop_
 _atom_site_type_symbol
 _atom_site_label
 _atom_site_symmetry_multiplicity
 _atom_site_fract_x
 _atom_site_fract_y
 _atom_site_fract_z
 _atom_site_occupancy
  Tm  Tm0  1  0.036728  0.288160  0.641748  1
  Tm  Tm1  1  0.711688  0.963013  0.858323  1
  Tm  Tm2  1  0.963920  0.710312  0.358856  1
  Tm  Tm3  1  0.288720  0.036746  0.141959  1
  Tm  Tm4  1  0.299059  0.559313  0.644187  1
  Tm  Tm5  1  0.441349  0.701848  0.854593  1
  Tm  Tm6  1  0.700599  0.441533  0.355814  1
  Tm  Tm7  1  0.559169  0.300557  0.143106  1
  Si  Si8  1  0.975728  0.249750  0.896484  1
  Si  Si9  1  0.749486  0.023466  0.604439  1
  Si  Si10  1  0.021590  0.750982  0.104857  1
  Si  Si11  1  0.250200  0.976269  0.395029  1
  Si  Si12  1  0.135162  0.385598  0.902628  1
  Si  Si13  1  0.612930  0.866958  0.596732  1
  Si  Si14  1  0.866603  0.612393  0.098239  1
  Si  Si15  1  0.387261  0.134443  0.401495  1
  Si  Si16  1  0.082387  0.573212  0.570965  1
  Si  Si17  1  0.426234  0.916768  0.930924  1
  Si  Si18  1  0.918009  0.425828  0.429682  1
  Si  Si19  1  0.573394  0.083279  0.070395  1
  Si  Si20  1  0.616843  0.382609  0.750145  1
  Si  Si21  1  0.382168  0.618936  0.249005  1
  Si  Si22  1  0.124450  0.875690  0.749946  1
  Si  Si23  1  0.874369  0.125885  0.249839  1
  Tc  Tc24  1  0.895443  0.143300  0.586290  1
  Tc  Tc25  1  0.857037  0.104424  0.913644  1
  Tc  Tc26  1  0.103498  0.857503  0.412392  1
  Ru  Ru27  1  0.143418  0.894595  0.086477  1
  Ru  Ru28  1  0.839389  0.638526  0.782708  1
  Ru  Ru29  1  0.360288  0.159012  0.719358  1
  Ru  Ru30  1  0.162921  0.360362  0.218050  1
  Ru  Ru31  1  0.640859  0.838410  0.281776  1
  Ru  Ru32  1  0.251242  0.500424  0.934831  1
  Ru  Ru33  1  0.500037  0.747854  0.566013  1
  Ru  Ru34  1  0.747834  0.499403  0.065653  1
  Ru  Ru35  1  0.499992  0.252641  0.433418  1
