# generated using pymatgen
data_Dy16Ni3Ag4Ru
_symmetry_space_group_name_H-M   'P 1'
_cell_length_a   9.46812701
_cell_length_b   9.46812840
_cell_length_c   9.46812713
_cell_angle_alpha   59.88721174
_cell_angle_beta   59.88720583
_cell_angle_gamma   59.88720624
_symmetry_Int_Tables_number   1
_chemical_formula_structural   Dy16Ni3Ag4Ru
_chemical_formula_sum   'Dy16 Ni3 Ag4 Ru1'
_cell_volume   598.63826682
_cell_formula_units_Z   1
loop_
 _symmetry_equiv_pos_site_id
 _symmetry_equiv_pos_as_xyz
  1  'x, y, z'
loop_
 _atom_site_type_symbol
 _atom_site_label
 _atom_site_symmetry_multiplicity
 _atom_site_fract_x
 _atom_site_fract_y
 _atom_site_fract_z
 _atom_site_occupancy
  Dy  Dy0  1  0.598865  0.598865  0.598865  1
  Dy  Dy1  1  0.602957  0.602957  0.199920  1
  Dy  Dy2  1  0.602957  0.199920  0.602957  1
  Dy  Dy3  1  0.199920  0.602957  0.602957  1
  Dy  Dy4  1  0.061143  0.437571  0.437571  1
  Dy  Dy5  1  0.437470  0.060673  0.060673  1
  Dy  Dy6  1  0.437571  0.061143  0.437571  1
  Dy  Dy7  1  0.060673  0.437470  0.060673  1
  Dy  Dy8  1  0.437571  0.437571  0.061143  1
  Dy  Dy9  1  0.060673  0.060673  0.437470  1
  Dy  Dy10  1  0.184590  0.814814  0.814814  1
  Dy  Dy11  1  0.810281  0.187189  0.187189  1
  Dy  Dy12  1  0.814814  0.184590  0.814814  1
  Dy  Dy13  1  0.187189  0.810281  0.187189  1
  Dy  Dy14  1  0.814814  0.814814  0.184590  1
  Dy  Dy15  1  0.187189  0.187189  0.810281  1
  Ni  Ni16  1  0.392389  0.392389  0.823455  1
  Ni  Ni17  1  0.392389  0.823455  0.392389  1
  Ni  Ni18  1  0.823455  0.392389  0.392389  1
  Ag  Ag19  1  0.832331  0.832331  0.832331  1
  Ag  Ag20  1  0.831514  0.831514  0.504526  1
  Ag  Ag21  1  0.831514  0.504526  0.831514  1
  Ag  Ag22  1  0.504526  0.831514  0.831514  1
  Ru  Ru23  1  0.393208  0.393208  0.393208  1
