# generated using pymatgen
data_Zr9VRe3Ni
_symmetry_space_group_name_H-M   'P 1'
_cell_length_a   8.70631700
_cell_length_b   8.70632200
_cell_length_c   8.43285000
_cell_angle_alpha   90.00000000
_cell_angle_beta   90.00000000
_cell_angle_gamma   119.99824982
_symmetry_Int_Tables_number   1
_chemical_formula_structural   Zr9VRe3Ni
_chemical_formula_sum   'Zr18 V2 Re6 Ni2'
_cell_volume   553.58188149
_cell_formula_units_Z   2
loop_
 _symmetry_equiv_pos_site_id
 _symmetry_equiv_pos_as_xyz
  1  'x, y, z'
loop_
 _atom_site_type_symbol
 _atom_site_label
 _atom_site_symmetry_multiplicity
 _atom_site_fract_x
 _atom_site_fract_y
 _atom_site_fract_z
 _atom_site_occupancy
  Zr  Zr0  1  0.196879  0.803120  0.443378  1
  Zr  Zr1  1  0.196880  0.393762  0.443381  1
  Zr  Zr2  1  0.606236  0.803114  0.443391  1
  Zr  Zr3  1  0.803121  0.196880  0.556622  1
  Zr  Zr4  1  0.803120  0.606238  0.556619  1
  Zr  Zr5  1  0.393764  0.196886  0.556609  1
  Zr  Zr6  1  0.803121  0.196880  0.943378  1
  Zr  Zr7  1  0.803120  0.606238  0.943381  1
  Zr  Zr8  1  0.393764  0.196886  0.943391  1
  Zr  Zr9  1  0.196879  0.803120  0.056622  1
  Zr  Zr10  1  0.196880  0.393762  0.056619  1
  Zr  Zr11  1  0.606236  0.803114  0.056609  1
  Zr  Zr12  1  0.542591  0.457413  0.250000  1
  Zr  Zr13  1  0.542584  0.085180  0.250000  1
  Zr  Zr14  1  0.914825  0.457419  0.250000  1
  Zr  Zr15  1  0.457409  0.542587  0.750000  1
  Zr  Zr16  1  0.457416  0.914820  0.750000  1
  Zr  Zr17  1  0.085175  0.542581  0.750000  1
  V  V18  1  0.000000  0.000000  0.500000  1
  V  V19  1  0.000000  0.000000  0.000000  1
  Re  Re20  1  0.892684  0.107317  0.250000  1
  Re  Re21  1  0.892684  0.785364  0.250000  1
  Re  Re22  1  0.214632  0.107315  0.250000  1
  Re  Re23  1  0.107316  0.892683  0.750000  1
  Re  Re24  1  0.107316  0.214636  0.750000  1
  Re  Re25  1  0.785368  0.892685  0.750000  1
  Ni  Ni26  1  0.333327  0.666664  0.250000  1
  Ni  Ni27  1  0.666673  0.333336  0.750000  1
