# generated using pymatgen
data_Nd4LuUSe10
_symmetry_space_group_name_H-M   'P 1'
_cell_length_a   7.87380800
_cell_length_b   8.36617400
_cell_length_c   12.46170500
_cell_angle_alpha   90.00000000
_cell_angle_beta   90.00000000
_cell_angle_gamma   90.00000000
_symmetry_Int_Tables_number   1
_chemical_formula_structural   Nd4LuUSe10
_chemical_formula_sum   'Nd8 Lu2 U2 Se20'
_cell_volume   820.89796579
_cell_formula_units_Z   2
loop_
 _symmetry_equiv_pos_site_id
 _symmetry_equiv_pos_as_xyz
  1  'x, y, z'
loop_
 _atom_site_type_symbol
 _atom_site_label
 _atom_site_symmetry_multiplicity
 _atom_site_fract_x
 _atom_site_fract_y
 _atom_site_fract_z
 _atom_site_occupancy
  Nd  Nd0  1  0.528477  0.501233  0.322112  1
  Nd  Nd1  1  0.971523  0.998767  0.822112  1
  Nd  Nd2  1  0.475638  0.996005  0.677985  1
  Nd  Nd3  1  0.024362  0.503995  0.177985  1
  Nd  Nd4  1  0.475638  0.503995  0.677985  1
  Nd  Nd5  1  0.024362  0.996005  0.177985  1
  Nd  Nd6  1  0.528477  0.998767  0.322112  1
  Nd  Nd7  1  0.971523  0.501233  0.822112  1
  Lu  Lu8  1  0.072380  0.750000  0.494622  1
  Lu  Lu9  1  0.427620  0.750000  0.994622  1
  U  U10  1  0.937413  0.250000  0.506993  1
  U  U11  1  0.562587  0.250000  0.006993  1
  Se  Se12  1  0.833768  0.962037  0.594363  1
  Se  Se13  1  0.666232  0.537963  0.094363  1
  Se  Se14  1  0.163717  0.457377  0.406506  1
  Se  Se15  1  0.336283  0.042623  0.906506  1
  Se  Se16  1  0.163717  0.042623  0.406506  1
  Se  Se17  1  0.336283  0.457377  0.906506  1
  Se  Se18  1  0.833768  0.537963  0.594363  1
  Se  Se19  1  0.666232  0.962037  0.094363  1
  Se  Se20  1  0.833318  0.750000  0.315930  1
  Se  Se21  1  0.666682  0.750000  0.815930  1
  Se  Se22  1  0.167828  0.250000  0.684656  1
  Se  Se23  1  0.332172  0.250000  0.184656  1
  Se  Se24  1  0.452308  0.750000  0.497023  1
  Se  Se25  1  0.047692  0.750000  0.997023  1
  Se  Se26  1  0.547743  0.250000  0.499471  1
  Se  Se27  1  0.952257  0.250000  0.999471  1
  Se  Se28  1  0.189202  0.750000  0.710793  1
  Se  Se29  1  0.310798  0.750000  0.210793  1
  Se  Se30  1  0.809009  0.250000  0.288583  1
  Se  Se31  1  0.690991  0.250000  0.788583  1
