# generated using pymatgen
data_Ho5Ta3Co16SiP11
_symmetry_space_group_name_H-M   'P 1'
_cell_length_a   12.20651458
_cell_length_b   12.21180353
_cell_length_c   3.70421000
_cell_angle_alpha   90.00000000
_cell_angle_beta   90.00000000
_cell_angle_gamma   119.95030515
_symmetry_Int_Tables_number   1
_chemical_formula_structural   Ho5Ta3Co16SiP11
_chemical_formula_sum   'Ho5 Ta3 Co16 Si1 P11'
_cell_volume   478.42622007
_cell_formula_units_Z   1
loop_
 _symmetry_equiv_pos_site_id
 _symmetry_equiv_pos_as_xyz
  1  'x, y, z'
loop_
 _atom_site_type_symbol
 _atom_site_label
 _atom_site_symmetry_multiplicity
 _atom_site_fract_x
 _atom_site_fract_y
 _atom_site_fract_z
 _atom_site_occupancy
  Ho  Ho0  1  0.666247  0.335159  0.000000  1
  Ho  Ho1  1  0.333697  0.666704  0.000000  1
  Ho  Ho2  1  0.816361  0.816301  0.500000  1
  Ho  Ho3  1  0.183121  0.999978  0.500000  1
  Ho  Ho4  1  0.999480  0.183456  0.500000  1
  Ta  Ta5  1  0.443264  0.443014  0.000000  1
  Ta  Ta6  1  0.556590  0.998427  0.000000  1
  Ta  Ta7  1  0.000558  0.558104  0.000000  1
  Co  Co8  1  0.878494  0.358900  0.500000  1
  Co  Co9  1  0.644888  0.518925  0.500000  1
  Co  Co10  1  0.476504  0.123976  0.500000  1
  Co  Co11  1  0.354388  0.873040  0.500000  1
  Co  Co12  1  0.518430  0.644476  0.500000  1
  Co  Co13  1  0.127393  0.482538  0.500000  1
  Co  Co14  1  0.804533  0.176589  0.000000  1
  Co  Co15  1  0.823532  0.625716  0.000000  1
  Co  Co16  1  0.372977  0.197704  0.000000  1
  Co  Co17  1  0.176672  0.802595  0.000000  1
  Co  Co18  1  0.625290  0.821952  0.000000  1
  Co  Co19  1  0.197829  0.374622  0.000000  1
  Co  Co20  1  0.280090  0.280449  0.500000  1
  Co  Co21  1  0.719760  0.996864  0.500000  1
  Co  Co22  1  0.000052  0.719843  0.500000  1
  Co  Co23  1  0.000178  0.999892  0.000000  1
  Si  Si24  1  0.689247  0.169389  0.500000  1
  P  P25  1  0.831829  0.520038  0.500000  1
  P  P26  1  0.479346  0.310686  0.500000  1
  P  P27  1  0.168820  0.688960  0.500000  1
  P  P28  1  0.520557  0.831458  0.500000  1
  P  P29  1  0.311466  0.479859  0.500000  1
  P  P30  1  0.177526  0.178194  0.000000  1
  P  P31  1  0.821824  0.000108  0.000000  1
  P  P32  1  0.999819  0.822041  0.000000  1
  P  P33  1  0.644495  0.644431  0.000000  1
  P  P34  1  0.355244  0.000616  0.000000  1
  P  P35  1  0.999500  0.354994  0.000000  1
