# generated using pymatgen
data_Er12Fe2Co2CuBi
_symmetry_space_group_name_H-M   'P 1'
_cell_length_a   8.29622028
_cell_length_b   8.29622033
_cell_length_c   8.29622115
_cell_angle_alpha   110.99398816
_cell_angle_beta   111.65697844
_cell_angle_gamma   105.82386109
_symmetry_Int_Tables_number   1
_chemical_formula_structural   Er12Fe2Co2CuBi
_chemical_formula_sum   'Er12 Fe2 Co2 Cu1 Bi1'
_cell_volume   438.22015262
_cell_formula_units_Z   1
loop_
 _symmetry_equiv_pos_site_id
 _symmetry_equiv_pos_as_xyz
  1  'x, y, z'
loop_
 _atom_site_type_symbol
 _atom_site_label
 _atom_site_symmetry_multiplicity
 _atom_site_fract_x
 _atom_site_fract_y
 _atom_site_fract_z
 _atom_site_occupancy
  Er  Er0  1  0.287919  0.185838  0.473756  1
  Er  Er1  1  0.712081  0.814162  0.526244  1
  Er  Er2  1  0.287919  0.814162  0.102081  1
  Er  Er3  1  0.712081  0.185838  0.897919  1
  Er  Er4  1  0.618859  0.310384  0.308475  1
  Er  Er5  1  0.381141  0.689616  0.691525  1
  Er  Er6  1  0.001912  0.310384  0.691525  1
  Er  Er7  1  0.998088  0.689616  0.308475  1
  Er  Er8  1  0.212530  0.414276  0.201746  1
  Er  Er9  1  0.787470  0.585724  0.798254  1
  Er  Er10  1  0.212530  0.010783  0.798254  1
  Er  Er11  1  0.787470  0.989217  0.201746  1
  Fe  Fe12  1  0.000000  0.383571  0.383571  1
  Fe  Fe13  1  0.000000  0.616429  0.616429  1
  Co  Co14  1  0.389041  0.889041  0.500000  1
  Co  Co15  1  0.610959  0.110959  0.500000  1
  Cu  Cu16  1  0.000000  0.000000  0.000000  1
  Bi  Bi17  1  0.500000  0.500000  0.000000  1
