# generated using pymatgen
data_Dy17Ho3Pb16
_symmetry_space_group_name_H-M   'P 1'
_cell_length_a   8.20536204
_cell_length_b   15.65324600
_cell_length_c   8.28891304
_cell_angle_alpha   90.00000000
_cell_angle_beta   90.01135897
_cell_angle_gamma   90.00000000
_symmetry_Int_Tables_number   1
_chemical_formula_structural   Dy17Ho3Pb16
_chemical_formula_sum   'Dy17 Ho3 Pb16'
_cell_volume   1064.63253337
_cell_formula_units_Z   1
loop_
 _symmetry_equiv_pos_site_id
 _symmetry_equiv_pos_as_xyz
  1  'x, y, z'
loop_
 _atom_site_type_symbol
 _atom_site_label
 _atom_site_symmetry_multiplicity
 _atom_site_fract_x
 _atom_site_fract_y
 _atom_site_fract_z
 _atom_site_occupancy
  Dy  Dy0  1  0.622796  0.620427  0.159353  1
  Dy  Dy1  1  0.123010  0.879588  0.340507  1
  Dy  Dy2  1  0.377107  0.120437  0.840598  1
  Dy  Dy3  1  0.877113  0.379531  0.659390  1
  Dy  Dy4  1  0.377107  0.379563  0.840598  1
  Dy  Dy5  1  0.877113  0.120469  0.659390  1
  Dy  Dy6  1  0.622796  0.879573  0.159353  1
  Dy  Dy7  1  0.123010  0.620412  0.340507  1
  Dy  Dy8  1  0.465897  0.600153  0.676830  1
  Dy  Dy9  1  0.966016  0.899833  0.823313  1
  Dy  Dy10  1  0.534044  0.100190  0.323228  1
  Dy  Dy11  1  0.034020  0.399839  0.176767  1
  Dy  Dy12  1  0.534044  0.399810  0.323228  1
  Dy  Dy13  1  0.034020  0.100161  0.176767  1
  Dy  Dy14  1  0.465897  0.899847  0.676830  1
  Dy  Dy15  1  0.966016  0.600167  0.823313  1
  Dy  Dy16  1  0.791272  0.750000  0.496624  1
  Ho  Ho17  1  0.291106  0.750000  0.003451  1
  Ho  Ho18  1  0.208871  0.250000  0.503440  1
  Ho  Ho19  1  0.708864  0.250000  0.996588  1
  Pb  Pb20  1  0.718971  0.457399  0.967322  1
  Pb  Pb21  1  0.218958  0.042608  0.532641  1
  Pb  Pb22  1  0.281038  0.957420  0.032632  1
  Pb  Pb23  1  0.781036  0.542482  0.467348  1
  Pb  Pb24  1  0.281038  0.542580  0.032632  1
  Pb  Pb25  1  0.781036  0.957518  0.467348  1
  Pb  Pb26  1  0.718971  0.042601  0.967322  1
  Pb  Pb27  1  0.218958  0.457392  0.532641  1
  Pb  Pb28  1  0.427856  0.750000  0.372762  1
  Pb  Pb29  1  0.928145  0.750000  0.127012  1
  Pb  Pb30  1  0.571876  0.250000  0.627158  1
  Pb  Pb31  1  0.071886  0.250000  0.872857  1
  Pb  Pb32  1  0.654568  0.750000  0.848576  1
  Pb  Pb33  1  0.154712  0.750000  0.651754  1
  Pb  Pb34  1  0.345409  0.250000  0.151686  1
  Pb  Pb35  1  0.845426  0.250000  0.348233  1
