# generated using pymatgen
data_Cs6Rb2HfSb4
_symmetry_space_group_name_H-M   'P 1'
_cell_length_a   12.44655244
_cell_length_b   12.44654034
_cell_length_c   12.44655700
_cell_angle_alpha   59.99995306
_cell_angle_beta   59.99998523
_cell_angle_gamma   59.99994264
_symmetry_Int_Tables_number   1
_chemical_formula_structural   Cs6Rb2HfSb4
_chemical_formula_sum   'Cs12 Rb4 Hf2 Sb8'
_cell_volume   1363.42598894
_cell_formula_units_Z   2
loop_
 _symmetry_equiv_pos_site_id
 _symmetry_equiv_pos_as_xyz
  1  'x, y, z'
loop_
 _atom_site_type_symbol
 _atom_site_label
 _atom_site_symmetry_multiplicity
 _atom_site_fract_x
 _atom_site_fract_y
 _atom_site_fract_z
 _atom_site_occupancy
  Cs  Cs0  1  0.025154  0.025154  0.474846  1
  Cs  Cs1  1  0.775155  0.224846  0.224845  1
  Cs  Cs2  1  0.224846  0.775154  0.775154  1
  Cs  Cs3  1  0.775155  0.775154  0.224846  1
  Cs  Cs4  1  0.775155  0.224846  0.775154  1
  Cs  Cs5  1  0.224846  0.775154  0.224846  1
  Cs  Cs6  1  0.474845  0.025154  0.474846  1
  Cs  Cs7  1  0.474845  0.025154  0.025155  1
  Cs  Cs8  1  0.025154  0.474846  0.474846  1
  Cs  Cs9  1  0.025154  0.474846  0.025154  1
  Cs  Cs10  1  0.224846  0.224846  0.775154  1
  Cs  Cs11  1  0.474845  0.474846  0.025154  1
  Rb  Rb12  1  0.625000  0.125000  0.625000  1
  Rb  Rb13  1  0.625000  0.625000  0.125000  1
  Rb  Rb14  1  0.125000  0.625000  0.625000  1
  Rb  Rb15  1  0.625000  0.625000  0.625000  1
  Hf  Hf16  1  0.750000  0.750000  0.750000  1
  Hf  Hf17  1  0.500000  0.500000  0.500000  1
  Sb  Sb18  1  0.405308  0.784077  0.405308  1
  Sb  Sb19  1  0.844692  0.844692  0.465924  1
  Sb  Sb20  1  0.465924  0.844692  0.844692  1
  Sb  Sb21  1  0.844692  0.844692  0.844692  1
  Sb  Sb22  1  0.784076  0.405308  0.405308  1
  Sb  Sb23  1  0.405308  0.405308  0.405308  1
  Sb  Sb24  1  0.405308  0.405308  0.784076  1
  Sb  Sb25  1  0.844692  0.465923  0.844692  1
