# generated using pymatgen
data_La16Hg4OsRh3
_symmetry_space_group_name_H-M   'P 1'
_cell_length_a   10.13204465
_cell_length_b   10.13204659
_cell_length_c   10.13554627
_cell_angle_alpha   59.44290292
_cell_angle_beta   59.44289740
_cell_angle_gamma   59.45715488
_symmetry_Int_Tables_number   1
_chemical_formula_structural   La16Hg4OsRh3
_chemical_formula_sum   'La16 Hg4 Os1 Rh3'
_cell_volume   726.49821985
_cell_formula_units_Z   1
loop_
 _symmetry_equiv_pos_site_id
 _symmetry_equiv_pos_as_xyz
  1  'x, y, z'
loop_
 _atom_site_type_symbol
 _atom_site_label
 _atom_site_symmetry_multiplicity
 _atom_site_fract_x
 _atom_site_fract_y
 _atom_site_fract_z
 _atom_site_occupancy
  La  La0  1  0.350297  0.350297  0.350232  1
  La  La1  1  0.347426  0.347426  0.955095  1
  La  La2  1  0.347439  0.955181  0.347421  1
  La  La3  1  0.955181  0.347439  0.347421  1
  La  La4  1  0.812852  0.189121  0.189046  1
  La  La5  1  0.190451  0.807887  0.807880  1
  La  La6  1  0.189121  0.812852  0.189046  1
  La  La7  1  0.807887  0.190451  0.807880  1
  La  La8  1  0.189092  0.189092  0.812778  1
  La  La9  1  0.807861  0.807861  0.190538  1
  La  La10  1  0.938964  0.561032  0.561041  1
  La  La11  1  0.555531  0.940649  0.940712  1
  La  La12  1  0.561032  0.938964  0.561041  1
  La  La13  1  0.940649  0.555531  0.940712  1
  La  La14  1  0.560936  0.560936  0.939115  1
  La  La15  1  0.940681  0.940681  0.555515  1
  Hg  Hg16  1  0.582685  0.582685  0.582675  1
  Hg  Hg17  1  0.583817  0.583817  0.249163  1
  Hg  Hg18  1  0.583833  0.249131  0.583820  1
  Hg  Hg19  1  0.249131  0.583833  0.583820  1
  Os  Os20  1  0.140991  0.140991  0.140983  1
  Rh  Rh21  1  0.142706  0.142706  0.578706  1
  Rh  Rh22  1  0.142755  0.578682  0.142681  1
  Rh  Rh23  1  0.578682  0.142755  0.142681  1
