# generated using pymatgen
data_Ho3NbCo7P6Ru
_symmetry_space_group_name_H-M   'P 1'
_cell_length_a   3.73835900
_cell_length_b   10.65531600
_cell_length_c   12.37941600
_cell_angle_alpha   90.00000000
_cell_angle_beta   90.00000000
_cell_angle_gamma   90.00000000
_symmetry_Int_Tables_number   1
_chemical_formula_structural   Ho3NbCo7P6Ru
_chemical_formula_sum   'Ho6 Nb2 Co14 P12 Ru2'
_cell_volume   493.11418555
_cell_formula_units_Z   2
loop_
 _symmetry_equiv_pos_site_id
 _symmetry_equiv_pos_as_xyz
  1  'x, y, z'
loop_
 _atom_site_type_symbol
 _atom_site_label
 _atom_site_symmetry_multiplicity
 _atom_site_fract_x
 _atom_site_fract_y
 _atom_site_fract_z
 _atom_site_occupancy
  Ho  Ho0  1  0.000000  0.500000  0.529554  1
  Ho  Ho1  1  0.500000  0.000000  0.476602  1
  Ho  Ho2  1  0.500000  0.821578  0.201677  1
  Ho  Ho3  1  0.500000  0.178422  0.201677  1
  Ho  Ho4  1  0.000000  0.679741  0.797312  1
  Ho  Ho5  1  0.000000  0.320259  0.797312  1
  Nb  Nb6  1  0.500000  0.500000  0.152297  1
  Nb  Nb7  1  0.000000  0.000000  0.844833  1
  Co  Co8  1  0.000000  0.500000  0.984564  1
  Co  Co9  1  0.500000  0.000000  0.014196  1
  Co  Co10  1  0.000000  0.202001  0.572853  1
  Co  Co11  1  0.000000  0.797999  0.572853  1
  Co  Co12  1  0.500000  0.878084  0.708099  1
  Co  Co13  1  0.500000  0.121916  0.708099  1
  Co  Co14  1  0.000000  0.622969  0.289793  1
  Co  Co15  1  0.000000  0.377031  0.289793  1
  Co  Co16  1  0.500000  0.332280  0.990657  1
  Co  Co17  1  0.500000  0.667720  0.990657  1
  Co  Co18  1  0.000000  0.167354  0.007967  1
  Co  Co19  1  0.000000  0.832646  0.007967  1
  Co  Co20  1  0.500000  0.500000  0.702126  1
  Co  Co21  1  0.000000  0.000000  0.297337  1
  P  P22  1  0.500000  0.308558  0.620333  1
  P  P23  1  0.500000  0.691442  0.620333  1
  P  P24  1  0.000000  0.184567  0.382655  1
  P  P25  1  0.000000  0.815433  0.382655  1
  P  P26  1  0.500000  0.500000  0.881440  1
  P  P27  1  0.000000  0.000000  0.117395  1
  P  P28  1  0.500000  0.841435  0.893208  1
  P  P29  1  0.500000  0.158565  0.893208  1
  P  P30  1  0.000000  0.659171  0.105695  1
  P  P31  1  0.000000  0.340829  0.105695  1
  P  P32  1  0.500000  0.500000  0.350941  1
  P  P33  1  0.000000  0.000000  0.645604  1
  Ru  Ru34  1  0.500000  0.294773  0.431309  1
  Ru  Ru35  1  0.500000  0.705227  0.431309  1
