# generated using pymatgen
data_Ac8CdNi6
_symmetry_space_group_name_H-M   'P 1'
_cell_length_a   7.81301871
_cell_length_b   7.81301834
_cell_length_c   7.81301871
_cell_angle_alpha   74.25744266
_cell_angle_beta   74.25743009
_cell_angle_gamma   74.25744237
_symmetry_Int_Tables_number   1
_chemical_formula_structural   Ac8CdNi6
_chemical_formula_sum   'Ac8 Cd1 Ni6'
_cell_volume   431.64541504
_cell_formula_units_Z   1
loop_
 _symmetry_equiv_pos_site_id
 _symmetry_equiv_pos_as_xyz
  1  'x, y, z'
loop_
 _atom_site_type_symbol
 _atom_site_label
 _atom_site_symmetry_multiplicity
 _atom_site_fract_x
 _atom_site_fract_y
 _atom_site_fract_z
 _atom_site_occupancy
  Ac  Ac0  1  0.297201  0.297201  0.297201  1
  Ac  Ac1  1  0.702799  0.702799  0.702799  1
  Ac  Ac2  1  0.811697  0.335170  0.138469  1
  Ac  Ac3  1  0.335170  0.138469  0.811697  1
  Ac  Ac4  1  0.138469  0.811697  0.335170  1
  Ac  Ac5  1  0.188303  0.664830  0.861531  1
  Ac  Ac6  1  0.664830  0.861531  0.188303  1
  Ac  Ac7  1  0.861531  0.188303  0.664830  1
  Cd  Cd8  1  0.500000  0.500000  0.500000  1
  Ni  Ni9  1  0.466715  0.630293  0.087723  1
  Ni  Ni10  1  0.630293  0.087723  0.466715  1
  Ni  Ni11  1  0.087723  0.466715  0.630293  1
  Ni  Ni12  1  0.533285  0.369707  0.912277  1
  Ni  Ni13  1  0.369707  0.912277  0.533285  1
  Ni  Ni14  1  0.912277  0.533285  0.369707  1
