# generated using pymatgen
data_Tb3DySiSe3
_symmetry_space_group_name_H-M   'P 1'
_cell_length_a   7.13623402
_cell_length_b   7.13623380
_cell_length_c   7.13623415
_cell_angle_alpha   132.03378537
_cell_angle_beta   132.03525408
_cell_angle_gamma   70.17450789
_symmetry_Int_Tables_number   1
_chemical_formula_structural   Tb3DySiSe3
_chemical_formula_sum   'Tb3 Dy1 Si1 Se3'
_cell_volume   196.51992102
_cell_formula_units_Z   1
loop_
 _symmetry_equiv_pos_site_id
 _symmetry_equiv_pos_as_xyz
  1  'x, y, z'
loop_
 _atom_site_type_symbol
 _atom_site_label
 _atom_site_symmetry_multiplicity
 _atom_site_fract_x
 _atom_site_fract_y
 _atom_site_fract_z
 _atom_site_occupancy
  Tb  Tb0  1  0.240757  0.240757  0.000000  1
  Tb  Tb1  1  0.759243  0.759243  0.000000  1
  Tb  Tb2  1  0.500000  0.000000  0.500000  1
  Dy  Dy3  1  0.000000  0.500000  0.500000  1
  Si  Si4  1  0.000000  0.000000  0.000000  1
  Se  Se5  1  0.500000  0.500000  0.000000  1
  Se  Se6  1  0.750118  0.250118  0.500000  1
  Se  Se7  1  0.249882  0.749882  0.500000  1
