# generated using pymatgen
data_Tb14Lu6Bi3Pb13
_symmetry_space_group_name_H-M   'P 1'
_cell_length_a   8.23486032
_cell_length_b   8.27364778
_cell_length_c   15.58470632
_cell_angle_alpha   90.06453742
_cell_angle_beta   89.81742148
_cell_angle_gamma   89.94653785
_symmetry_Int_Tables_number   1
_chemical_formula_structural   Tb14Lu6Bi3Pb13
_chemical_formula_sum   'Tb14 Lu6 Bi3 Pb13'
_cell_volume   1061.81588202
_cell_formula_units_Z   1
loop_
 _symmetry_equiv_pos_site_id
 _symmetry_equiv_pos_as_xyz
  1  'x, y, z'
loop_
 _atom_site_type_symbol
 _atom_site_label
 _atom_site_symmetry_multiplicity
 _atom_site_fract_x
 _atom_site_fract_y
 _atom_site_fract_z
 _atom_site_occupancy
  Tb  Tb0  1  0.623033  0.156499  0.378519  1
  Tb  Tb1  1  0.125166  0.344386  0.120621  1
  Tb  Tb2  1  0.627568  0.158857  0.121839  1
  Tb  Tb3  1  0.126499  0.339851  0.377879  1
  Tb  Tb4  1  0.374117  0.841448  0.621326  1
  Tb  Tb5  1  0.875259  0.657764  0.878006  1
  Tb  Tb6  1  0.541758  0.330269  0.897935  1
  Tb  Tb7  1  0.047883  0.172244  0.604010  1
  Tb  Tb8  1  0.452208  0.671459  0.396317  1
  Tb  Tb9  1  0.956137  0.824491  0.101529  1
  Tb  Tb10  1  0.465169  0.673130  0.098432  1
  Tb  Tb11  1  0.967368  0.825792  0.399969  1
  Tb  Tb12  1  0.533121  0.329156  0.602734  1
  Tb  Tb13  1  0.033333  0.175732  0.898031  1
  Lu  Lu14  1  0.374398  0.841625  0.875137  1
  Lu  Lu15  1  0.877054  0.655366  0.625293  1
  Lu  Lu16  1  0.206283  0.503751  0.750051  1
  Lu  Lu17  1  0.706012  0.997242  0.753540  1
  Lu  Lu18  1  0.793930  0.497657  0.248236  1
  Lu  Lu19  1  0.293843  0.002128  0.250938  1
  Bi  Bi20  1  0.280101  0.026860  0.043553  1
  Bi  Bi21  1  0.778362  0.474097  0.456438  1
  Bi  Bi22  1  0.724940  0.968781  0.547243  1
  Pb  Pb23  1  0.221713  0.534940  0.954405  1
  Pb  Pb24  1  0.714114  0.966408  0.955310  1
  Pb  Pb25  1  0.213519  0.532922  0.544687  1
  Pb  Pb26  1  0.282697  0.030983  0.455498  1
  Pb  Pb27  1  0.783959  0.467191  0.044434  1
  Pb  Pb28  1  0.568468  0.628327  0.748933  1
  Pb  Pb29  1  0.068237  0.872650  0.749882  1
  Pb  Pb30  1  0.432561  0.373142  0.249527  1
  Pb  Pb31  1  0.931985  0.126069  0.250277  1
  Pb  Pb32  1  0.350398  0.155014  0.751378  1
  Pb  Pb33  1  0.849012  0.344729  0.748397  1
  Pb  Pb34  1  0.650050  0.844142  0.250391  1
  Pb  Pb35  1  0.149741  0.654897  0.249304  1
