# generated using pymatgen
data_Nd2Re14(TcC)3
_symmetry_space_group_name_H-M   'P 1'
_cell_length_a   7.05374315
_cell_length_b   7.05738078
_cell_length_c   7.06224646
_cell_angle_alpha   82.82174207
_cell_angle_beta   82.78330420
_cell_angle_gamma   82.77825183
_symmetry_Int_Tables_number   1
_chemical_formula_structural   Nd2Re14(TcC)3
_chemical_formula_sum   'Nd2 Re14 Tc3 C3'
_cell_volume   343.87844849
_cell_formula_units_Z   1
loop_
 _symmetry_equiv_pos_site_id
 _symmetry_equiv_pos_as_xyz
  1  'x, y, z'
loop_
 _atom_site_type_symbol
 _atom_site_label
 _atom_site_symmetry_multiplicity
 _atom_site_fract_x
 _atom_site_fract_y
 _atom_site_fract_z
 _atom_site_occupancy
  Nd  Nd0  1  0.650444  0.650753  0.650247  1
  Nd  Nd1  1  0.349582  0.350068  0.349837  1
  Re  Re2  1  0.998707  0.000152  0.501156  1
  Re  Re3  1  0.501108  0.000194  0.998699  1
  Re  Re4  1  0.000021  0.500270  0.000071  1
  Re  Re5  1  0.721478  0.279291  0.000169  1
  Re  Re6  1  0.000221  0.720295  0.280487  1
  Re  Re7  1  0.279057  0.999635  0.719990  1
  Re  Re8  1  0.999897  0.279873  0.720125  1
  Re  Re9  1  0.720836  0.000322  0.279757  1
  Re  Re10  1  0.279103  0.720884  0.999790  1
  Re  Re11  1  0.347613  0.865241  0.346901  1
  Re  Re12  1  0.346374  0.346462  0.866825  1
  Re  Re13  1  0.652319  0.653204  0.135021  1
  Re  Re14  1  0.903129  0.902887  0.903590  1
  Re  Re15  1  0.097348  0.096534  0.096824  1
  Tc  Tc16  1  0.865943  0.348373  0.347488  1
  Tc  Tc17  1  0.651617  0.134308  0.652330  1
  Tc  Tc18  1  0.135815  0.651436  0.651242  1
  C  C19  1  0.500271  0.499944  0.999495  1
  C  C20  1  0.999428  0.499947  0.500321  1
  C  C21  1  0.499689  0.999925  0.499636  1
