# generated using pymatgen
data_Nd2Ho2Si4Ag
_symmetry_space_group_name_H-M   'P 1'
_cell_length_a   7.08859300
_cell_length_b   7.76930800
_cell_length_c   14.84441100
_cell_angle_alpha   90.00000000
_cell_angle_beta   90.00000000
_cell_angle_gamma   90.00000000
_symmetry_Int_Tables_number   1
_chemical_formula_structural   Nd2Ho2Si4Ag
_chemical_formula_sum   'Nd8 Ho8 Si16 Ag4'
_cell_volume   817.53310963
_cell_formula_units_Z   4
loop_
 _symmetry_equiv_pos_site_id
 _symmetry_equiv_pos_as_xyz
  1  'x, y, z'
loop_
 _atom_site_type_symbol
 _atom_site_label
 _atom_site_symmetry_multiplicity
 _atom_site_fract_x
 _atom_site_fract_y
 _atom_site_fract_z
 _atom_site_occupancy
  Nd  Nd0  1  0.979535  0.814952  0.101599  1
  Nd  Nd1  1  0.479535  0.685048  0.398401  1
  Nd  Nd2  1  0.520465  0.314952  0.898401  1
  Nd  Nd3  1  0.020465  0.185048  0.601599  1
  Nd  Nd4  1  0.020465  0.185048  0.898401  1
  Nd  Nd5  1  0.520465  0.314952  0.601599  1
  Nd  Nd6  1  0.479535  0.685048  0.101599  1
  Nd  Nd7  1  0.979535  0.814952  0.398401  1
  Ho  Ho8  1  0.675743  0.818342  0.872564  1
  Ho  Ho9  1  0.175743  0.681658  0.627436  1
  Ho  Ho10  1  0.824257  0.318342  0.127436  1
  Ho  Ho11  1  0.324257  0.181658  0.372564  1
  Ho  Ho12  1  0.324257  0.181658  0.127436  1
  Ho  Ho13  1  0.824257  0.318342  0.372564  1
  Ho  Ho14  1  0.175743  0.681658  0.872564  1
  Ho  Ho15  1  0.675743  0.818342  0.627436  1
  Si  Si16  1  0.773095  0.615584  0.250000  1
  Si  Si17  1  0.273095  0.884416  0.250000  1
  Si  Si18  1  0.726905  0.115584  0.750000  1
  Si  Si19  1  0.226905  0.384416  0.750000  1
  Si  Si20  1  0.020043  0.089045  0.250000  1
  Si  Si21  1  0.520043  0.410955  0.250000  1
  Si  Si22  1  0.479957  0.589045  0.750000  1
  Si  Si23  1  0.979957  0.910955  0.750000  1
  Si  Si24  1  0.846468  0.535878  0.967895  1
  Si  Si25  1  0.346468  0.964122  0.532105  1
  Si  Si26  1  0.653532  0.035878  0.032105  1
  Si  Si27  1  0.153532  0.464122  0.467895  1
  Si  Si28  1  0.153532  0.464122  0.032105  1
  Si  Si29  1  0.653532  0.035878  0.467895  1
  Si  Si30  1  0.346468  0.964122  0.967895  1
  Si  Si31  1  0.846468  0.535878  0.532105  1
  Ag  Ag32  1  0.651141  0.977638  0.250000  1
  Ag  Ag33  1  0.151141  0.522362  0.250000  1
  Ag  Ag34  1  0.848859  0.477638  0.750000  1
  Ag  Ag35  1  0.348859  0.022362  0.750000  1
