# generated using pymatgen
data_HfCu6MoS8
_symmetry_space_group_name_H-M   'P 1'
_cell_length_a   7.67463800
_cell_length_b   7.67463846
_cell_length_c   12.52291400
_cell_angle_alpha   90.00000000
_cell_angle_beta   90.00000000
_cell_angle_gamma   119.99999803
_symmetry_Int_Tables_number   1
_chemical_formula_structural   HfCu6MoS8
_chemical_formula_sum   'Hf2 Cu12 Mo2 S16'
_cell_volume   638.78081420
_cell_formula_units_Z   2
loop_
 _symmetry_equiv_pos_site_id
 _symmetry_equiv_pos_as_xyz
  1  'x, y, z'
loop_
 _atom_site_type_symbol
 _atom_site_label
 _atom_site_symmetry_multiplicity
 _atom_site_fract_x
 _atom_site_fract_y
 _atom_site_fract_z
 _atom_site_occupancy
  Hf  Hf0  1  0.000000  0.000000  0.849243  1
  Hf  Hf1  1  0.000000  0.000000  0.349243  1
  Cu  Cu2  1  0.835642  0.671284  0.104148  1
  Cu  Cu3  1  0.501032  0.498968  0.354776  1
  Cu  Cu4  1  0.002065  0.501032  0.854776  1
  Cu  Cu5  1  0.835642  0.164358  0.104148  1
  Cu  Cu6  1  0.498968  0.501032  0.854776  1
  Cu  Cu7  1  0.164358  0.328716  0.604148  1
  Cu  Cu8  1  0.501032  0.002065  0.354776  1
  Cu  Cu9  1  0.997935  0.498968  0.354776  1
  Cu  Cu10  1  0.164358  0.835642  0.604148  1
  Cu  Cu11  1  0.498968  0.997935  0.854776  1
  Cu  Cu12  1  0.671284  0.835642  0.604148  1
  Cu  Cu13  1  0.328716  0.164358  0.104148  1
  Mo  Mo14  1  0.333333  0.666667  0.480146  1
  Mo  Mo15  1  0.666667  0.333333  0.980146  1
  S  S16  1  0.000000  0.000000  0.042634  1
  S  S17  1  0.345451  0.172726  0.289245  1
  S  S18  1  0.827274  0.172726  0.289245  1
  S  S19  1  0.010820  0.505411  0.540209  1
  S  S20  1  0.827274  0.654549  0.289245  1
  S  S21  1  0.666667  0.333333  0.798848  1
  S  S22  1  0.172726  0.345451  0.789245  1
  S  S23  1  0.494589  0.505411  0.540209  1
  S  S24  1  0.000000  0.000000  0.542634  1
  S  S25  1  0.333333  0.666667  0.298848  1
  S  S26  1  0.989180  0.494589  0.040209  1
  S  S27  1  0.494589  0.989180  0.540209  1
  S  S28  1  0.172726  0.827274  0.789245  1
  S  S29  1  0.654549  0.827274  0.789245  1
  S  S30  1  0.505411  0.010820  0.040209  1
  S  S31  1  0.505411  0.494589  0.040209  1
