# generated using pymatgen
data_La2PaSn7
_symmetry_space_group_name_H-M   'P 1'
_cell_length_a   12.93832398
_cell_length_b   12.93832322
_cell_length_c   4.59263800
_cell_angle_alpha   90.00000000
_cell_angle_beta   90.00000000
_cell_angle_gamma   158.80472347
_symmetry_Int_Tables_number   1
_chemical_formula_structural   La2PaSn7
_chemical_formula_sum   'La2 Pa1 Sn7'
_cell_volume   277.96098749
_cell_formula_units_Z   1
loop_
 _symmetry_equiv_pos_site_id
 _symmetry_equiv_pos_as_xyz
  1  'x, y, z'
loop_
 _atom_site_type_symbol
 _atom_site_label
 _atom_site_symmetry_multiplicity
 _atom_site_fract_x
 _atom_site_fract_y
 _atom_site_fract_z
 _atom_site_occupancy
  La  La0  1  0.182710  0.817290  0.000000  1
  La  La1  1  0.817290  0.182710  0.000000  1
  Pa  Pa2  1  0.000000  0.000000  0.000000  1
  Sn  Sn3  1  0.289594  0.710406  0.500000  1
  Sn  Sn4  1  0.710406  0.289594  0.500000  1
  Sn  Sn5  1  0.407519  0.592481  0.000000  1
  Sn  Sn6  1  0.592481  0.407519  0.000000  1
  Sn  Sn7  1  0.091847  0.908153  0.500000  1
  Sn  Sn8  1  0.908153  0.091847  0.500000  1
  Sn  Sn9  1  0.500000  0.500000  0.500000  1
