# generated using pymatgen
data_Nd12FeCoBr17
_symmetry_space_group_name_H-M   'P 1'
_cell_length_a   9.54139477
_cell_length_b   11.42222268
_cell_length_c   11.48727354
_cell_angle_alpha   93.42744290
_cell_angle_beta   104.80451712
_cell_angle_gamma   114.54741405
_symmetry_Int_Tables_number   1
_chemical_formula_structural   Nd12FeCoBr17
_chemical_formula_sum   'Nd12 Fe1 Co1 Br17'
_cell_volume   1081.19496165
_cell_formula_units_Z   1
loop_
 _symmetry_equiv_pos_site_id
 _symmetry_equiv_pos_as_xyz
  1  'x, y, z'
loop_
 _atom_site_type_symbol
 _atom_site_label
 _atom_site_symmetry_multiplicity
 _atom_site_fract_x
 _atom_site_fract_y
 _atom_site_fract_z
 _atom_site_occupancy
  Nd  Nd0  1  0.060613  0.516527  0.322106  1
  Nd  Nd1  1  0.982848  0.810099  0.574698  1
  Nd  Nd2  1  0.639566  0.238781  0.287244  1
  Nd  Nd3  1  0.016611  0.190859  0.423197  1
  Nd  Nd4  1  0.230543  0.671268  0.995456  1
  Nd  Nd5  1  0.260489  0.993593  0.892969  1
  Nd  Nd6  1  0.361801  0.761232  0.711974  1
  Nd  Nd7  1  0.938037  0.481627  0.676874  1
  Nd  Nd8  1  0.740657  0.007650  0.108529  1
  Nd  Nd9  1  0.157213  0.287325  0.149048  1
  Nd  Nd10  1  0.770937  0.328194  0.005677  1
  Nd  Nd11  1  0.842014  0.712193  0.852516  1
  Fe  Fe12  1  0.895778  0.261275  0.214102  1
  Co  Co13  1  0.104183  0.738647  0.785614  1
  Br  Br14  1  0.791642  0.526562  0.422573  1
  Br  Br15  1  0.646796  0.424753  0.757813  1
  Br  Br16  1  0.847005  0.900120  0.327593  1
  Br  Br17  1  0.320903  0.213271  0.366807  1
  Br  Br18  1  0.152915  0.097968  0.674556  1
  Br  Br19  1  0.582891  0.049168  0.848159  1
  Br  Br20  1  0.759374  0.185082  0.535981  1
  Br  Br21  1  0.541977  0.704288  0.947771  1
  Br  Br22  1  0.354045  0.577575  0.240032  1
  Br  Br23  1  0.208664  0.474785  0.580133  1
  Br  Br24  1  0.054916  0.373147  0.900329  1
  Br  Br25  1  0.455663  0.291740  0.049022  1
  Br  Br26  1  0.999825  0.999271  0.998679  1
  Br  Br27  1  0.241888  0.817500  0.466624  1
  Br  Br28  1  0.412788  0.948708  0.149999  1
  Br  Br29  1  0.679674  0.787591  0.635092  1
  Br  Br30  1  0.947742  0.629203  0.098834  1
