# generated using pymatgen
data_Cs6InSb2As
_symmetry_space_group_name_H-M   'P 1'
_cell_length_a   6.57901600
_cell_length_b   11.18569883
_cell_length_c   13.25441906
_cell_angle_alpha   78.24434649
_cell_angle_beta   90.00000000
_cell_angle_gamma   90.00000000
_symmetry_Int_Tables_number   1
_chemical_formula_structural   Cs6InSb2As
_chemical_formula_sum   'Cs12 In2 Sb4 As2'
_cell_volume   954.94577068
_cell_formula_units_Z   2
loop_
 _symmetry_equiv_pos_site_id
 _symmetry_equiv_pos_as_xyz
  1  'x, y, z'
loop_
 _atom_site_type_symbol
 _atom_site_label
 _atom_site_symmetry_multiplicity
 _atom_site_fract_x
 _atom_site_fract_y
 _atom_site_fract_z
 _atom_site_occupancy
  Cs  Cs0  1  0.750000  0.460377  0.074173  1
  Cs  Cs1  1  0.250000  0.539623  0.925827  1
  Cs  Cs2  1  0.750000  0.729281  0.226215  1
  Cs  Cs3  1  0.250000  0.270719  0.773785  1
  Cs  Cs4  1  0.250000  0.567770  0.530110  1
  Cs  Cs5  1  0.750000  0.432230  0.469890  1
  Cs  Cs6  1  0.250000  0.861722  0.024578  1
  Cs  Cs7  1  0.750000  0.138278  0.975422  1
  Cs  Cs8  1  0.250000  0.876340  0.675508  1
  Cs  Cs9  1  0.750000  0.123660  0.324492  1
  Cs  Cs10  1  0.250000  0.918569  0.365423  1
  Cs  Cs11  1  0.750000  0.081431  0.634577  1
  In  In12  1  0.250000  0.339049  0.276607  1
  In  In13  1  0.750000  0.660951  0.723393  1
  Sb  Sb14  1  0.250000  0.185438  0.122897  1
  Sb  Sb15  1  0.750000  0.814562  0.877103  1
  Sb  Sb16  1  0.250000  0.213428  0.488599  1
  Sb  Sb17  1  0.750000  0.786572  0.511401  1
  As  As18  1  0.250000  0.577192  0.222412  1
  As  As19  1  0.750000  0.422808  0.777588  1
