# generated using pymatgen
data_Tb5Er5(In2Bi)2
_symmetry_space_group_name_H-M   'P 1'
_cell_length_a   9.03432778
_cell_length_b   9.03756323
_cell_length_c   6.59907200
_cell_angle_alpha   90.00000000
_cell_angle_beta   90.00000000
_cell_angle_gamma   120.01184726
_symmetry_Int_Tables_number   1
_chemical_formula_structural   Tb5Er5(In2Bi)2
_chemical_formula_sum   'Tb5 Er5 In4 Bi2'
_cell_volume   466.56142852
_cell_formula_units_Z   1
loop_
 _symmetry_equiv_pos_site_id
 _symmetry_equiv_pos_as_xyz
  1  'x, y, z'
loop_
 _atom_site_type_symbol
 _atom_site_label
 _atom_site_symmetry_multiplicity
 _atom_site_fract_x
 _atom_site_fract_y
 _atom_site_fract_z
 _atom_site_occupancy
  Tb  Tb0  1  0.769494  0.760492  0.750000  1
  Tb  Tb1  1  0.230506  0.990998  0.750000  1
  Tb  Tb2  1  0.000000  0.241990  0.750000  1
  Tb  Tb3  1  0.237478  0.237856  0.250000  1
  Tb  Tb4  1  0.762522  0.000379  0.250000  1
  Er  Er5  1  0.670942  0.338415  0.006759  1
  Er  Er6  1  0.329058  0.667474  0.006759  1
  Er  Er7  1  0.329058  0.667474  0.493241  1
  Er  Er8  1  0.670942  0.338415  0.493241  1
  Er  Er9  1  0.000000  0.760857  0.250000  1
  In  In10  1  0.000000  0.596718  0.750000  1
  In  In11  1  0.604512  0.605739  0.250000  1
  In  In12  1  0.395488  0.001227  0.250000  1
  In  In13  1  0.000000  0.397801  0.250000  1
  Bi  Bi14  1  0.395956  0.395061  0.750000  1
  Bi  Bi15  1  0.604044  0.999105  0.750000  1
