# generated using pymatgen
data_Ho15Tm(HfIr3)4
_symmetry_space_group_name_H-M   'P 1'
_cell_length_a   10.80025402
_cell_length_b   10.80398500
_cell_length_c   6.23789701
_cell_angle_alpha   90.00125028
_cell_angle_beta   89.99270366
_cell_angle_gamma   89.99744345
_symmetry_Int_Tables_number   1
_chemical_formula_structural   Ho15Tm(HfIr3)4
_chemical_formula_sum   'Ho15 Tm1 Hf4 Ir12'
_cell_volume   727.87388740
_cell_formula_units_Z   1
loop_
 _symmetry_equiv_pos_site_id
 _symmetry_equiv_pos_as_xyz
  1  'x, y, z'
loop_
 _atom_site_type_symbol
 _atom_site_label
 _atom_site_symmetry_multiplicity
 _atom_site_fract_x
 _atom_site_fract_y
 _atom_site_fract_z
 _atom_site_occupancy
  Ho  Ho0  1  0.289329  0.914180  0.874814  1
  Ho  Ho1  1  0.710665  0.085987  0.874701  1
  Ho  Ho2  1  0.710621  0.914013  0.374792  1
  Ho  Ho3  1  0.585995  0.789390  0.874757  1
  Ho  Ho4  1  0.585726  0.210579  0.374781  1
  Ho  Ho5  1  0.413894  0.789575  0.374741  1
  Ho  Ho6  1  0.413816  0.210525  0.874773  1
  Ho  Ho7  1  0.210671  0.413917  0.625130  1
  Ho  Ho8  1  0.210632  0.586016  0.125285  1
  Ho  Ho9  1  0.789337  0.413968  0.125270  1
  Ho  Ho10  1  0.789334  0.586011  0.625285  1
  Ho  Ho11  1  0.913975  0.710658  0.125230  1
  Ho  Ho12  1  0.914005  0.289335  0.625276  1
  Ho  Ho13  1  0.086032  0.710665  0.625202  1
  Ho  Ho14  1  0.086242  0.289179  0.125450  1
  Tm  Tm15  1  0.289683  0.085692  0.375250  1
  Hf  Hf16  1  0.000383  0.000168  0.499786  1
  Hf  Hf17  1  0.000070  0.000047  0.999963  1
  Hf  Hf18  1  0.499932  0.499979  0.000002  1
  Hf  Hf19  1  0.499981  0.499984  0.499908  1
  Ir  Ir20  1  0.856403  0.143557  0.249981  1
  Ir  Ir21  1  0.856480  0.856434  0.750037  1
  Ir  Ir22  1  0.143929  0.143388  0.749226  1
  Ir  Ir23  1  0.143867  0.856852  0.250230  1
  Ir  Ir24  1  0.643545  0.356398  0.750004  1
  Ir  Ir25  1  0.643563  0.643558  0.249987  1
  Ir  Ir26  1  0.356324  0.355997  0.250195  1
  Ir  Ir27  1  0.356421  0.643564  0.750010  1
  Ir  Ir28  1  0.499580  0.000196  0.122760  1
  Ir  Ir29  1  0.499562  0.000210  0.621940  1
  Ir  Ir30  1  0.999999  0.500013  0.877617  1
  Ir  Ir31  1  0.000005  0.499964  0.377616  1
