# generated using pymatgen
data_YbTh2In3CuPd2
_symmetry_space_group_name_H-M   'P 1'
_cell_length_a   7.71427752
_cell_length_b   7.71427807
_cell_length_c   4.05202600
_cell_angle_alpha   90.00000000
_cell_angle_beta   90.00000000
_cell_angle_gamma   120.61889393
_symmetry_Int_Tables_number   1
_chemical_formula_structural   YbTh2In3CuPd2
_chemical_formula_sum   'Yb1 Th2 In3 Cu1 Pd2'
_cell_volume   207.51574417
_cell_formula_units_Z   1
loop_
 _symmetry_equiv_pos_site_id
 _symmetry_equiv_pos_as_xyz
  1  'x, y, z'
loop_
 _atom_site_type_symbol
 _atom_site_label
 _atom_site_symmetry_multiplicity
 _atom_site_fract_x
 _atom_site_fract_y
 _atom_site_fract_z
 _atom_site_occupancy
  Yb  Yb0  1  0.412334  0.412334  0.500000  1
  Th  Th1  1  0.583909  0.000441  0.500000  1
  Th  Th2  1  0.000441  0.583909  0.500000  1
  In  In3  1  0.246549  0.009893  0.000000  1
  In  In4  1  0.009893  0.246549  0.000000  1
  In  In5  1  0.746597  0.746597  0.000000  1
  Cu  Cu6  1  0.994164  0.994164  0.500000  1
  Pd  Pd7  1  0.331207  0.674905  0.000000  1
  Pd  Pd8  1  0.674905  0.331207  0.000000  1
