# generated using pymatgen
data_Dy6Tm4Tl7Cd
_symmetry_space_group_name_H-M   'P 1'
_cell_length_a   9.23612400
_cell_length_b   9.23612485
_cell_length_c   6.65728400
_cell_angle_alpha   90.00000000
_cell_angle_beta   90.00000000
_cell_angle_gamma   119.99999695
_symmetry_Int_Tables_number   1
_chemical_formula_structural   Dy6Tm4Tl7Cd
_chemical_formula_sum   'Dy6 Tm4 Tl7 Cd1'
_cell_volume   491.82123873
_cell_formula_units_Z   1
loop_
 _symmetry_equiv_pos_site_id
 _symmetry_equiv_pos_as_xyz
  1  'x, y, z'
loop_
 _atom_site_type_symbol
 _atom_site_label
 _atom_site_symmetry_multiplicity
 _atom_site_fract_x
 _atom_site_fract_y
 _atom_site_fract_z
 _atom_site_occupancy
  Dy  Dy0  1  0.289369  0.000000  0.749984  1
  Dy  Dy1  1  0.710631  0.000000  0.250016  1
  Dy  Dy2  1  0.000000  0.289369  0.749984  1
  Dy  Dy3  1  0.000000  0.710631  0.250016  1
  Dy  Dy4  1  0.710631  0.710631  0.749984  1
  Dy  Dy5  1  0.289369  0.289369  0.250016  1
  Tm  Tm6  1  0.333333  0.666667  0.500000  1
  Tm  Tm7  1  0.666667  0.333333  0.500000  1
  Tm  Tm8  1  0.666667  0.333333  0.000000  1
  Tm  Tm9  1  0.333333  0.666667  0.000000  1
  Tl  Tl10  1  0.000000  0.000000  0.000000  1
  Tl  Tl11  1  0.627324  0.000000  0.749879  1
  Tl  Tl12  1  0.372676  0.000000  0.250121  1
  Tl  Tl13  1  0.000000  0.627324  0.749879  1
  Tl  Tl14  1  0.000000  0.372676  0.250121  1
  Tl  Tl15  1  0.372676  0.372676  0.749879  1
  Tl  Tl16  1  0.627324  0.627324  0.250121  1
  Cd  Cd17  1  0.000000  0.000000  0.500000  1
