# generated using pymatgen
data_TbDy2In3CoPt2
_symmetry_space_group_name_H-M   'P 1'
_cell_length_a   7.66667700
_cell_length_b   7.67540580
_cell_length_c   3.76862800
_cell_angle_alpha   90.00000000
_cell_angle_beta   90.00000000
_cell_angle_gamma   119.96239173
_symmetry_Int_Tables_number   1
_chemical_formula_structural   TbDy2In3CoPt2
_chemical_formula_sum   'Tb1 Dy2 In3 Co1 Pt2'
_cell_volume   192.12632386
_cell_formula_units_Z   1
loop_
 _symmetry_equiv_pos_site_id
 _symmetry_equiv_pos_as_xyz
  1  'x, y, z'
loop_
 _atom_site_type_symbol
 _atom_site_label
 _atom_site_symmetry_multiplicity
 _atom_site_fract_x
 _atom_site_fract_y
 _atom_site_fract_z
 _atom_site_occupancy
  Tb  Tb0  1  0.593605  0.000000  0.500000  1
  Dy  Dy1  1  0.406385  0.406259  0.500000  1
  Dy  Dy2  1  0.000126  0.593741  0.500000  1
  In  In3  1  0.752323  0.752163  0.000000  1
  In  In4  1  0.000160  0.247837  0.000000  1
  In  In5  1  0.247623  0.000000  0.000000  1
  Co  Co6  1  0.000326  0.000000  0.500000  1
  Pt  Pt7  1  0.332500  0.665549  0.000000  1
  Pt  Pt8  1  0.666952  0.334451  0.000000  1
