# generated using pymatgen
data_DyU5(Ni3As4)2
_symmetry_space_group_name_H-M   'P 1'
_cell_length_a   7.76420741
_cell_length_b   7.76420695
_cell_length_c   7.76420738
_cell_angle_alpha   109.59060553
_cell_angle_beta   109.23268846
_cell_angle_gamma   109.59062634
_symmetry_Int_Tables_number   1
_chemical_formula_structural   DyU5(Ni3As4)2
_chemical_formula_sum   'Dy1 U5 Ni6 As8'
_cell_volume   360.29965735
_cell_formula_units_Z   1
loop_
 _symmetry_equiv_pos_site_id
 _symmetry_equiv_pos_as_xyz
  1  'x, y, z'
loop_
 _atom_site_type_symbol
 _atom_site_label
 _atom_site_symmetry_multiplicity
 _atom_site_fract_x
 _atom_site_fract_y
 _atom_site_fract_z
 _atom_site_occupancy
  Dy  Dy0  1  0.875000  0.250000  0.125000  1
  U  U1  1  0.625000  0.750000  0.375000  1
  U  U2  1  0.249652  0.124010  0.877288  1
  U  U3  1  0.753278  0.375990  0.625642  1
  U  U4  1  0.122712  0.872364  0.246722  1
  U  U5  1  0.374358  0.627636  0.750348  1
  Ni  Ni6  1  0.375000  0.250000  0.625000  1
  Ni  Ni7  1  0.125000  0.750000  0.875000  1
  Ni  Ni8  1  0.257144  0.630487  0.378958  1
  Ni  Ni9  1  0.748471  0.869513  0.126657  1
  Ni  Ni10  1  0.621042  0.378186  0.251529  1
  Ni  Ni11  1  0.873343  0.121814  0.742856  1
  As  As12  1  0.661782  0.498994  0.998372  1
  As  As13  1  0.499378  0.001006  0.662789  1
  As  As14  1  0.998134  0.661049  0.496707  1
  As  As15  1  0.835658  0.838951  0.837085  1
  As  As16  1  0.503293  0.001426  0.164342  1
  As  As17  1  0.162915  0.498574  0.001866  1
  As  As18  1  0.001628  0.163410  0.500622  1
  As  As19  1  0.337211  0.336590  0.338218  1
