# generated using pymatgen
data_Sc12Co5Pb
_symmetry_space_group_name_H-M   'P 1'
_cell_length_a   7.71799070
_cell_length_b   7.71799088
_cell_length_c   7.71798921
_cell_angle_alpha   106.19965851
_cell_angle_beta   111.31104701
_cell_angle_gamma   110.95188014
_symmetry_Int_Tables_number   1
_chemical_formula_structural   Sc12Co5Pb
_chemical_formula_sum   'Sc12 Co5 Pb1'
_cell_volume   353.04556362
_cell_formula_units_Z   1
loop_
 _symmetry_equiv_pos_site_id
 _symmetry_equiv_pos_as_xyz
  1  'x, y, z'
loop_
 _atom_site_type_symbol
 _atom_site_label
 _atom_site_symmetry_multiplicity
 _atom_site_fract_x
 _atom_site_fract_y
 _atom_site_fract_z
 _atom_site_occupancy
  Sc  Sc0  1  0.465855  0.281126  0.184729  1
  Sc  Sc1  1  0.096398  0.281126  0.815271  1
  Sc  Sc2  1  0.903602  0.718874  0.184729  1
  Sc  Sc3  1  0.534145  0.718874  0.815271  1
  Sc  Sc4  1  0.303689  0.616459  0.312770  1
  Sc  Sc5  1  0.303689  0.990920  0.687230  1
  Sc  Sc6  1  0.696311  0.383541  0.687230  1
  Sc  Sc7  1  0.696311  0.009080  0.312770  1
  Sc  Sc8  1  0.196670  0.216363  0.413032  1
  Sc  Sc9  1  0.803330  0.783637  0.586968  1
  Sc  Sc10  1  0.196670  0.783637  0.980306  1
  Sc  Sc11  1  0.803330  0.216363  0.019694  1
  Co  Co12  1  0.500000  0.618243  0.118243  1
  Co  Co13  1  0.500000  0.381757  0.881757  1
  Co  Co14  1  0.365251  0.000000  0.365251  1
  Co  Co15  1  0.634749  0.000000  0.634749  1
  Co  Co16  1  0.000000  0.000000  0.000000  1
  Pb  Pb17  1  0.000000  0.500000  0.500000  1
