# generated using pymatgen
data_Sm4B16Ru13Rh3
_symmetry_space_group_name_H-M   'P 1'
_cell_length_a   9.26245650
_cell_length_b   7.52919265
_cell_length_c   7.53992524
_cell_angle_alpha   90.02903146
_cell_angle_beta   114.07908063
_cell_angle_gamma   114.17019247
_symmetry_Int_Tables_number   1
_chemical_formula_structural   Sm4B16Ru13Rh3
_chemical_formula_sum   'Sm4 B16 Ru13 Rh3'
_cell_volume   429.03001310
_cell_formula_units_Z   1
loop_
 _symmetry_equiv_pos_site_id
 _symmetry_equiv_pos_as_xyz
  1  'x, y, z'
loop_
 _atom_site_type_symbol
 _atom_site_label
 _atom_site_symmetry_multiplicity
 _atom_site_fract_x
 _atom_site_fract_y
 _atom_site_fract_z
 _atom_site_occupancy
  Sm  Sm0  1  0.749970  0.874370  0.123938  1
  Sm  Sm1  1  0.250276  0.626209  0.373107  1
  Sm  Sm2  1  0.749494  0.375601  0.625666  1
  Sm  Sm3  1  0.248287  0.123152  0.874824  1
  B  B4  1  0.911874  0.284233  0.067458  1
  B  B5  1  0.414985  0.558193  0.124427  1
  B  B6  1  0.087756  0.215808  0.153920  1
  B  B7  1  0.588653  0.153906  0.210818  1
  B  B8  1  0.418572  0.068946  0.295175  1
  B  B9  1  0.913645  0.623971  0.358508  1
  B  B10  1  0.585665  0.649322  0.375313  1
  B  B11  1  0.085792  0.876303  0.444362  1
  B  B12  1  0.913361  0.124501  0.562366  1
  B  B13  1  0.413048  0.349659  0.622570  1
  B  B14  1  0.087062  0.375584  0.651618  1
  B  B15  1  0.587428  0.936005  0.709562  1
  B  B16  1  0.414521  0.847001  0.784618  1
  B  B17  1  0.911333  0.790279  0.845684  1
  B  B18  1  0.581901  0.433270  0.875191  1
  B  B19  1  0.082593  0.706857  0.928146  1
  Ru  Ru20  1  0.627591  0.459389  0.176833  1
  Ru  Ru21  1  0.372011  0.330869  0.320324  1
  Ru  Ru22  1  0.873853  0.323064  0.333619  1
  Ru  Ru23  1  0.625833  0.959651  0.446740  1
  Ru  Ru24  1  0.126647  0.176950  0.459127  1
  Ru  Ru25  1  0.872920  0.822822  0.540891  1
  Ru  Ru26  1  0.371459  0.038615  0.550328  1
  Ru  Ru27  1  0.129169  0.678291  0.668696  1
  Ru  Ru28  1  0.624200  0.666996  0.675831  1
  Ru  Ru29  1  0.373897  0.540063  0.824050  1
  Ru  Ru30  1  0.872893  0.054426  0.831981  1
  Ru  Ru31  1  0.627947  0.168875  0.947474  1
  Ru  Ru32  1  0.129650  0.449653  0.961862  1
  Rh  Rh33  1  0.876241  0.553634  0.039952  1
  Rh  Rh34  1  0.376949  0.837219  0.051665  1
  Rh  Rh35  1  0.122525  0.946312  0.163358  1
