# generated using pymatgen
data_Sr2Be3(Ni3P2)5
_symmetry_space_group_name_H-M   'P 1'
_cell_length_a   6.54067400
_cell_length_b   6.53845281
_cell_length_c   10.49234269
_cell_angle_alpha   90.12705890
_cell_angle_beta   89.99973522
_cell_angle_gamma   120.01042403
_symmetry_Int_Tables_number   1
_chemical_formula_structural   Sr2Be3(Ni3P2)5
_chemical_formula_sum   'Sr2 Be3 Ni15 P10'
_cell_volume   388.55593461
_cell_formula_units_Z   1
loop_
 _symmetry_equiv_pos_site_id
 _symmetry_equiv_pos_as_xyz
  1  'x, y, z'
loop_
 _atom_site_type_symbol
 _atom_site_label
 _atom_site_symmetry_multiplicity
 _atom_site_fract_x
 _atom_site_fract_y
 _atom_site_fract_z
 _atom_site_occupancy
  Sr  Sr0  1  0.999664  0.999322  0.999267  1
  Sr  Sr1  1  0.002077  0.004152  0.499491  1
  Be  Be2  1  0.538608  0.077233  0.109478  1
  Be  Be3  1  0.462069  0.539728  0.611535  1
  Be  Be4  1  0.077688  0.539744  0.611536  1
  Ni  Ni5  1  0.915700  0.448086  0.107743  1
  Ni  Ni6  1  0.532369  0.448096  0.107737  1
  Ni  Ni7  1  0.469755  0.939497  0.905210  1
  Ni  Ni8  1  0.467312  0.539708  0.890661  1
  Ni  Ni9  1  0.449420  0.898819  0.606878  1
  Ni  Ni10  1  0.072405  0.539717  0.890654  1
  Ni  Ni11  1  0.937886  0.473508  0.406092  1
  Ni  Ni12  1  0.538485  0.076995  0.393427  1
  Ni  Ni13  1  0.535617  0.473506  0.406092  1
  Ni  Ni14  1  0.203702  0.407440  0.251039  1
  Ni  Ni15  1  0.797228  0.206343  0.741960  1
  Ni  Ni16  1  0.409134  0.206351  0.741967  1
  Ni  Ni17  1  0.593791  0.799423  0.243296  1
  Ni  Ni18  1  0.205618  0.799423  0.243287  1
  Ni  Ni19  1  0.796891  0.593733  0.733305  1
  P  P20  1  0.826741  0.653487  0.251429  1
  P  P21  1  0.171377  0.832986  0.751741  1
  P  P22  1  0.661623  0.832994  0.751738  1
  P  P23  1  0.338828  0.171116  0.253546  1
  P  P24  1  0.832279  0.171125  0.253547  1
  P  P25  1  0.169805  0.339595  0.747155  1
  P  P26  1  0.327244  0.654503  0.061072  1
  P  P27  1  0.661419  0.322835  0.562390  1
  P  P28  1  0.669120  0.338238  0.933952  1
  P  P29  1  0.336145  0.672294  0.432773  1
