# generated using pymatgen
data_Ce8ScAl7Tc5Rh3
_symmetry_space_group_name_H-M   'P 1'
_cell_length_a   4.03290600
_cell_length_b   7.52875850
_cell_length_c   16.07862839
_cell_angle_alpha   90.55502085
_cell_angle_beta   90.00000000
_cell_angle_gamma   90.00000000
_symmetry_Int_Tables_number   1
_chemical_formula_structural   Ce8ScAl7Tc5Rh3
_chemical_formula_sum   'Ce8 Sc1 Al7 Tc5 Rh3'
_cell_volume   488.16887618
_cell_formula_units_Z   1
loop_
 _symmetry_equiv_pos_site_id
 _symmetry_equiv_pos_as_xyz
  1  'x, y, z'
loop_
 _atom_site_type_symbol
 _atom_site_label
 _atom_site_symmetry_multiplicity
 _atom_site_fract_x
 _atom_site_fract_y
 _atom_site_fract_z
 _atom_site_occupancy
  Ce  Ce0  1  0.250000  0.171233  0.562139  1
  Ce  Ce1  1  0.750000  0.816126  0.446728  1
  Ce  Ce2  1  0.250000  0.682162  0.933283  1
  Ce  Ce3  1  0.750000  0.333763  0.053418  1
  Ce  Ce4  1  0.250000  0.058174  0.786461  1
  Ce  Ce5  1  0.750000  0.930431  0.207090  1
  Ce  Ce6  1  0.250000  0.565513  0.715939  1
  Ce  Ce7  1  0.750000  0.459754  0.279785  1
  Sc  Sc8  1  0.250000  0.126289  0.343712  1
  Al  Al9  1  0.750000  0.880714  0.657601  1
  Al  Al10  1  0.250000  0.619509  0.148601  1
  Al  Al11  1  0.750000  0.381193  0.843420  1
  Al  Al12  1  0.250000  0.010807  0.059922  1
  Al  Al13  1  0.750000  0.005685  0.937494  1
  Al  Al14  1  0.250000  0.490207  0.438897  1
  Al  Al15  1  0.750000  0.495542  0.563978  1
  Tc  Tc16  1  0.750000  0.247925  0.440497  1
  Tc  Tc17  1  0.250000  0.726249  0.574203  1
  Tc  Tc18  1  0.750000  0.780696  0.073562  1
  Tc  Tc19  1  0.250000  0.235257  0.929023  1
  Tc  Tc20  1  0.750000  0.739863  0.826304  1
  Rh  Rh21  1  0.250000  0.269429  0.178840  1
  Rh  Rh22  1  0.750000  0.242349  0.681742  1
  Rh  Rh23  1  0.250000  0.731130  0.317362  1
