# generated using pymatgen
data_DyTmZn2IrRh
_symmetry_space_group_name_H-M   'P 1'
_cell_length_a   4.04509200
_cell_length_b   6.95391846
_cell_length_c   8.07309356
_cell_angle_alpha   89.68981149
_cell_angle_beta   90.00000000
_cell_angle_gamma   90.00000000
_symmetry_Int_Tables_number   1
_chemical_formula_structural   DyTmZn2IrRh
_chemical_formula_sum   'Dy2 Tm2 Zn4 Ir2 Rh2'
_cell_volume   227.08665768
_cell_formula_units_Z   2
loop_
 _symmetry_equiv_pos_site_id
 _symmetry_equiv_pos_as_xyz
  1  'x, y, z'
loop_
 _atom_site_type_symbol
 _atom_site_label
 _atom_site_symmetry_multiplicity
 _atom_site_fract_x
 _atom_site_fract_y
 _atom_site_fract_z
 _atom_site_occupancy
  Dy  Dy0  1  0.250000  0.534897  0.183401  1
  Dy  Dy1  1  0.750000  0.465103  0.816599  1
  Tm  Tm2  1  0.750000  0.962330  0.683720  1
  Tm  Tm3  1  0.250000  0.037670  0.316280  1
  Zn  Zn4  1  0.250000  0.638637  0.564978  1
  Zn  Zn5  1  0.750000  0.361363  0.435022  1
  Zn  Zn6  1  0.750000  0.862068  0.065687  1
  Zn  Zn7  1  0.250000  0.137932  0.934313  1
  Ir  Ir8  1  0.250000  0.759286  0.875617  1
  Ir  Ir9  1  0.750000  0.240714  0.124383  1
  Rh  Rh10  1  0.750000  0.746511  0.380031  1
  Rh  Rh11  1  0.250000  0.253489  0.619969  1
