# generated using pymatgen
data_Nd2Co(PN2)7
_symmetry_space_group_name_H-M   'P 1'
_cell_length_a   7.84589849
_cell_length_b   7.50068139
_cell_length_c   5.22323700
_cell_angle_alpha   79.80967224
_cell_angle_beta   80.27531058
_cell_angle_gamma   69.71176593
_symmetry_Int_Tables_number   1
_chemical_formula_structural   Nd2Co(PN2)7
_chemical_formula_sum   'Nd2 Co1 P7 N14'
_cell_volume   281.83417472
_cell_formula_units_Z   1
loop_
 _symmetry_equiv_pos_site_id
 _symmetry_equiv_pos_as_xyz
  1  'x, y, z'
loop_
 _atom_site_type_symbol
 _atom_site_label
 _atom_site_symmetry_multiplicity
 _atom_site_fract_x
 _atom_site_fract_y
 _atom_site_fract_z
 _atom_site_occupancy
  Nd  Nd0  1  0.809893  0.214233  0.266499  1
  Nd  Nd1  1  0.210433  0.743133  0.757888  1
  Co  Co2  1  0.298161  0.482242  0.247824  1
  P  P3  1  0.555596  0.685550  0.210502  1
  P  P4  1  0.107292  0.257478  0.712536  1
  P  P5  1  0.730280  0.923396  0.796984  1
  P  P6  1  0.887669  0.765629  0.293570  1
  P  P7  1  0.270767  0.085228  0.203950  1
  P  P8  1  0.442471  0.300303  0.802924  1
  P  P9  1  0.701352  0.540592  0.715136  1
  N  N10  1  0.247654  0.385013  0.666162  1
  N  N11  1  0.642376  0.737083  0.888371  1
  N  N12  1  0.730922  0.647587  0.399647  1
  N  N13  1  0.397229  0.224734  0.112749  1
  N  N14  1  0.887537  0.377342  0.796560  1
  N  N15  1  0.599391  0.122244  0.661964  1
  N  N16  1  0.070914  0.639770  0.159760  1
  N  N17  1  0.385291  0.863308  0.307331  1
  N  N18  1  0.899979  0.853115  0.561319  1
  N  N19  1  0.158190  0.082305  0.960804  1
  N  N20  1  0.543388  0.481900  0.223622  1
  N  N21  1  0.524587  0.479119  0.731488  1
  N  N22  1  0.787493  0.946577  0.073215  1
  N  N23  1  0.111135  0.162118  0.449193  1
