# generated using pymatgen
data_Ba2MgReN4
_symmetry_space_group_name_H-M   'P 1'
_cell_length_a   6.15842400
_cell_length_b   6.67843956
_cell_length_c   7.11934120
_cell_angle_alpha   74.13464643
_cell_angle_beta   90.00000000
_cell_angle_gamma   90.00000000
_symmetry_Int_Tables_number   1
_chemical_formula_structural   Ba2MgReN4
_chemical_formula_sum   'Ba4 Mg2 Re2 N8'
_cell_volume   281.65494875
_cell_formula_units_Z   2
loop_
 _symmetry_equiv_pos_site_id
 _symmetry_equiv_pos_as_xyz
  1  'x, y, z'
loop_
 _atom_site_type_symbol
 _atom_site_label
 _atom_site_symmetry_multiplicity
 _atom_site_fract_x
 _atom_site_fract_y
 _atom_site_fract_z
 _atom_site_occupancy
  Ba  Ba0  1  0.250000  0.224521  0.070981  1
  Ba  Ba1  1  0.750000  0.775479  0.929019  1
  Ba  Ba2  1  0.750000  0.796787  0.421947  1
  Ba  Ba3  1  0.250000  0.203213  0.578053  1
  Mg  Mg4  1  0.750000  0.322943  0.305087  1
  Mg  Mg5  1  0.250000  0.677057  0.694913  1
  Re  Re6  1  0.250000  0.695642  0.203492  1
  Re  Re7  1  0.750000  0.304358  0.796508  1
  N  N8  1  0.505296  0.468871  0.751764  1
  N  N9  1  0.005296  0.531129  0.248236  1
  N  N10  1  0.494704  0.531129  0.248236  1
  N  N11  1  0.994704  0.468871  0.751764  1
  N  N12  1  0.750000  0.143392  0.614182  1
  N  N13  1  0.250000  0.856608  0.385818  1
  N  N14  1  0.750000  0.150455  0.062552  1
  N  N15  1  0.250000  0.849545  0.937448  1
