# generated using pymatgen
data_Th(NbSe2)5
_symmetry_space_group_name_H-M   'P 1'
_cell_length_a   6.10161485
_cell_length_b   8.24853388
_cell_length_c   9.01717247
_cell_angle_alpha   114.91057303
_cell_angle_beta   96.78690728
_cell_angle_gamma   103.95394608
_symmetry_Int_Tables_number   1
_chemical_formula_structural   Th(NbSe2)5
_chemical_formula_sum   'Th1 Nb5 Se10'
_cell_volume   386.81173415
_cell_formula_units_Z   1
loop_
 _symmetry_equiv_pos_site_id
 _symmetry_equiv_pos_as_xyz
  1  'x, y, z'
loop_
 _atom_site_type_symbol
 _atom_site_label
 _atom_site_symmetry_multiplicity
 _atom_site_fract_x
 _atom_site_fract_y
 _atom_site_fract_z
 _atom_site_occupancy
  Th  Th0  1  0.667849  0.510082  0.993326  1
  Nb  Nb1  1  0.003775  0.994694  0.000659  1
  Nb  Nb2  1  0.598794  0.208470  0.203510  1
  Nb  Nb3  1  0.196004  0.399128  0.397912  1
  Nb  Nb4  1  0.796906  0.599240  0.604144  1
  Nb  Nb5  1  0.403797  0.793253  0.797092  1
  Se  Se6  1  0.237241  0.062287  0.293459  1
  Se  Se7  1  0.055153  0.656658  0.893163  1
  Se  Se8  1  0.834248  0.260457  0.490872  1
  Se  Se9  1  0.636636  0.875783  0.105592  1
  Se  Se10  1  0.420747  0.442038  0.677895  1
  Se  Se11  1  0.901052  0.550923  0.316628  1
  Se  Se12  1  0.699199  0.132361  0.904186  1
  Se  Se13  1  0.497186  0.738463  0.508340  1
  Se  Se14  1  0.285357  0.338650  0.104828  1
  Se  Se15  1  0.098856  0.935111  0.709997  1
