# generated using pymatgen
data_TbY7(HgRh)2
_symmetry_space_group_name_H-M   'P 1'
_cell_length_a   9.63224028
_cell_length_b   9.63224016
_cell_length_c   9.64859600
_cell_angle_alpha   59.94382057
_cell_angle_beta   59.94382096
_cell_angle_gamma   59.90614003
_symmetry_Int_Tables_number   1
_chemical_formula_structural   TbY7(HgRh)2
_chemical_formula_sum   'Tb2 Y14 Hg4 Rh4'
_cell_volume   632.01289936
_cell_formula_units_Z   2
loop_
 _symmetry_equiv_pos_site_id
 _symmetry_equiv_pos_as_xyz
  1  'x, y, z'
loop_
 _atom_site_type_symbol
 _atom_site_label
 _atom_site_symmetry_multiplicity
 _atom_site_fract_x
 _atom_site_fract_y
 _atom_site_fract_z
 _atom_site_occupancy
  Tb  Tb0  1  0.601196  0.601196  0.600065  1
  Tb  Tb1  1  0.601196  0.601196  0.197544  1
  Y  Y2  1  0.603005  0.193974  0.601511  1
  Y  Y3  1  0.193974  0.603005  0.601511  1
  Y  Y4  1  0.059851  0.438856  0.440291  1
  Y  Y5  1  0.438856  0.059851  0.061003  1
  Y  Y6  1  0.438856  0.059851  0.440291  1
  Y  Y7  1  0.059851  0.438856  0.061003  1
  Y  Y8  1  0.439599  0.439599  0.060401  1
  Y  Y9  1  0.060355  0.060355  0.439645  1
  Y  Y10  1  0.187862  0.812738  0.813067  1
  Y  Y11  1  0.812738  0.187862  0.186332  1
  Y  Y12  1  0.812738  0.187862  0.813067  1
  Y  Y13  1  0.187862  0.812738  0.186332  1
  Y  Y14  1  0.812676  0.812676  0.187324  1
  Y  Y15  1  0.186903  0.186903  0.813097  1
  Hg  Hg16  1  0.835108  0.835108  0.834411  1
  Hg  Hg17  1  0.835108  0.835108  0.495373  1
  Hg  Hg18  1  0.835571  0.494325  0.835052  1
  Hg  Hg19  1  0.494325  0.835571  0.835052  1
  Rh  Rh20  1  0.393528  0.393528  0.391278  1
  Rh  Rh21  1  0.393528  0.393528  0.821668  1
  Rh  Rh22  1  0.394893  0.820425  0.392342  1
  Rh  Rh23  1  0.820425  0.394893  0.392342  1
