# generated using pymatgen
data_Nd2LuZr(Al3Ir)6
_symmetry_space_group_name_H-M   'P 1'
_cell_length_a   7.56951618
_cell_length_b   7.56448493
_cell_length_c   9.46092700
_cell_angle_alpha   90.00000000
_cell_angle_beta   90.00000000
_cell_angle_gamma   119.55538981
_symmetry_Int_Tables_number   1
_chemical_formula_structural   Nd2LuZr(Al3Ir)6
_chemical_formula_sum   'Nd2 Lu1 Zr1 Al18 Ir6'
_cell_volume   471.23782714
_cell_formula_units_Z   1
loop_
 _symmetry_equiv_pos_site_id
 _symmetry_equiv_pos_as_xyz
  1  'x, y, z'
loop_
 _atom_site_type_symbol
 _atom_site_label
 _atom_site_symmetry_multiplicity
 _atom_site_fract_x
 _atom_site_fract_y
 _atom_site_fract_z
 _atom_site_occupancy
  Nd  Nd0  1  0.005104  0.327915  0.750000  1
  Nd  Nd1  1  0.329595  0.006214  0.750000  1
  Lu  Lu2  1  0.671613  0.995679  0.250000  1
  Zr  Zr3  1  0.996908  0.672717  0.250000  1
  Al  Al4  1  0.124012  0.122151  0.250000  1
  Al  Al5  1  0.867903  0.866962  0.750000  1
  Al  Al6  1  0.999718  0.337637  0.082201  1
  Al  Al7  1  0.997697  0.665075  0.934903  1
  Al  Al8  1  0.997697  0.665075  0.565097  1
  Al  Al9  1  0.333385  0.998125  0.417658  1
  Al  Al10  1  0.999718  0.337637  0.417799  1
  Al  Al11  1  0.664670  0.996562  0.568134  1
  Al  Al12  1  0.664670  0.996562  0.931866  1
  Al  Al13  1  0.333385  0.998125  0.082342  1
  Al  Al14  1  0.334662  0.334791  0.543452  1
  Al  Al15  1  0.668713  0.667355  0.440401  1
  Al  Al16  1  0.668713  0.667355  0.059599  1
  Al  Al17  1  0.334662  0.334791  0.956548  1
  Al  Al18  1  0.337565  0.551550  0.250000  1
  Al  Al19  1  0.661276  0.454775  0.750000  1
  Al  Al20  1  0.556064  0.343886  0.250000  1
  Al  Al21  1  0.453929  0.660410  0.750000  1
  Ir  Ir22  1  0.672556  0.328530  0.003006  1
  Ir  Ir23  1  0.328895  0.672720  0.003719  1
  Ir  Ir24  1  0.328895  0.672720  0.496281  1
  Ir  Ir25  1  0.672556  0.328530  0.496994  1
  Ir  Ir26  1  0.997720  0.998076  0.003583  1
  Ir  Ir27  1  0.997720  0.998076  0.496417  1
