# generated using pymatgen
data_Th3Al3Ir2Pd
_symmetry_space_group_name_H-M   'P 1'
_cell_length_a   7.24406000
_cell_length_b   7.24406001
_cell_length_c   4.18504700
_cell_angle_alpha   90.00000000
_cell_angle_beta   90.00000000
_cell_angle_gamma   119.99999995
_symmetry_Int_Tables_number   1
_chemical_formula_structural   Th3Al3Ir2Pd
_chemical_formula_sum   'Th3 Al3 Ir2 Pd1'
_cell_volume   190.19322818
_cell_formula_units_Z   1
loop_
 _symmetry_equiv_pos_site_id
 _symmetry_equiv_pos_as_xyz
  1  'x, y, z'
loop_
 _atom_site_type_symbol
 _atom_site_label
 _atom_site_symmetry_multiplicity
 _atom_site_fract_x
 _atom_site_fract_y
 _atom_site_fract_z
 _atom_site_occupancy
  Th  Th0  1  0.419300  0.006533  0.500000  1
  Th  Th1  1  0.993467  0.412768  0.500000  1
  Th  Th2  1  0.587232  0.580700  0.500000  1
  Al  Al3  1  0.772492  0.003130  0.000000  1
  Al  Al4  1  0.996870  0.769362  0.000000  1
  Al  Al5  1  0.230638  0.227508  0.000000  1
  Ir  Ir6  1  0.666667  0.333333  0.000000  1
  Ir  Ir7  1  0.000000  0.000000  0.500000  1
  Pd  Pd8  1  0.333333  0.666667  0.000000  1
