# generated using pymatgen
data_Cs6TbTe4Br
_symmetry_space_group_name_H-M   'P 1'
_cell_length_a   12.45265000
_cell_length_b   12.45264942
_cell_length_c   9.15731900
_cell_angle_alpha   90.00000000
_cell_angle_beta   90.00000000
_cell_angle_gamma   120.00000685
_symmetry_Int_Tables_number   1
_chemical_formula_structural   Cs6TbTe4Br
_chemical_formula_sum   'Cs12 Tb2 Te8 Br2'
_cell_volume   1229.76601919
_cell_formula_units_Z   2
loop_
 _symmetry_equiv_pos_site_id
 _symmetry_equiv_pos_as_xyz
  1  'x, y, z'
loop_
 _atom_site_type_symbol
 _atom_site_label
 _atom_site_symmetry_multiplicity
 _atom_site_fract_x
 _atom_site_fract_y
 _atom_site_fract_z
 _atom_site_occupancy
  Cs  Cs0  1  0.129410  0.870590  0.514574  1
  Cs  Cs1  1  0.741178  0.870590  0.514574  1
  Cs  Cs2  1  0.948195  0.474097  0.318552  1
  Cs  Cs3  1  0.525903  0.474097  0.318552  1
  Cs  Cs4  1  0.870590  0.741178  0.014574  1
  Cs  Cs5  1  0.258822  0.129410  0.014574  1
  Cs  Cs6  1  0.525903  0.051805  0.318552  1
  Cs  Cs7  1  0.129410  0.258822  0.514574  1
  Cs  Cs8  1  0.870590  0.129410  0.014574  1
  Cs  Cs9  1  0.051805  0.525903  0.818552  1
  Cs  Cs10  1  0.474097  0.948195  0.818552  1
  Cs  Cs11  1  0.474097  0.525903  0.818552  1
  Tb  Tb12  1  0.666667  0.333333  0.711997  1
  Tb  Tb13  1  0.333333  0.666667  0.211997  1
  Te  Te14  1  0.407264  0.203633  0.606185  1
  Te  Te15  1  0.592736  0.796367  0.106185  1
  Te  Te16  1  0.666667  0.333333  0.036693  1
  Te  Te17  1  0.796367  0.592736  0.606185  1
  Te  Te18  1  0.203633  0.407264  0.106185  1
  Te  Te19  1  0.333333  0.666667  0.536693  1
  Te  Te20  1  0.203633  0.796367  0.106185  1
  Te  Te21  1  0.796367  0.203633  0.606185  1
  Br  Br22  1  0.000000  0.000000  0.273978  1
  Br  Br23  1  0.000000  0.000000  0.773978  1
