# generated using pymatgen
data_TbHo2AuO7
_symmetry_space_group_name_H-M   'P 1'
_cell_length_a   6.48400405
_cell_length_b   6.48400503
_cell_length_c   7.44740400
_cell_angle_alpha   90.00000000
_cell_angle_beta   90.00000000
_cell_angle_gamma   108.79858445
_symmetry_Int_Tables_number   1
_chemical_formula_structural   TbHo2AuO7
_chemical_formula_sum   'Tb2 Ho4 Au2 O14'
_cell_volume   296.40415457
_cell_formula_units_Z   2
loop_
 _symmetry_equiv_pos_site_id
 _symmetry_equiv_pos_as_xyz
  1  'x, y, z'
loop_
 _atom_site_type_symbol
 _atom_site_label
 _atom_site_symmetry_multiplicity
 _atom_site_fract_x
 _atom_site_fract_y
 _atom_site_fract_z
 _atom_site_occupancy
  Tb  Tb0  1  0.500000  0.500000  0.500000  1
  Tb  Tb1  1  0.500000  0.500000  0.000000  1
  Ho  Ho2  1  0.529104  0.997697  0.750000  1
  Ho  Ho3  1  0.997697  0.529104  0.250000  1
  Ho  Ho4  1  0.470896  0.002303  0.250000  1
  Ho  Ho5  1  0.002303  0.470896  0.750000  1
  Au  Au6  1  0.000000  0.000000  0.500000  1
  Au  Au7  1  0.000000  0.000000  0.000000  1
  O  O8  1  0.669493  0.919993  0.475468  1
  O  O9  1  0.919993  0.669493  0.524532  1
  O  O10  1  0.669493  0.919993  0.024532  1
  O  O11  1  0.919993  0.669493  0.975468  1
  O  O12  1  0.330507  0.080007  0.524532  1
  O  O13  1  0.080007  0.330507  0.475468  1
  O  O14  1  0.330507  0.080007  0.975468  1
  O  O15  1  0.080007  0.330507  0.024532  1
  O  O16  1  0.919965  0.080035  0.750000  1
  O  O17  1  0.080035  0.919965  0.250000  1
  O  O18  1  0.367105  0.632895  0.750000  1
  O  O19  1  0.632895  0.367105  0.250000  1
  O  O20  1  0.640299  0.359701  0.750000  1
  O  O21  1  0.359701  0.640299  0.250000  1
