# generated using pymatgen
data_Th4Tl2Rh3Au
_symmetry_space_group_name_H-M   'P 1'
_cell_length_a   7.91741900
_cell_length_b   7.91741954
_cell_length_c   3.78998100
_cell_angle_alpha   90.00000000
_cell_angle_beta   90.00000000
_cell_angle_gamma   89.56371122
_symmetry_Int_Tables_number   1
_chemical_formula_structural   Th4Tl2Rh3Au
_chemical_formula_sum   'Th4 Tl2 Rh3 Au1'
_cell_volume   237.57007193
_cell_formula_units_Z   1
loop_
 _symmetry_equiv_pos_site_id
 _symmetry_equiv_pos_as_xyz
  1  'x, y, z'
loop_
 _atom_site_type_symbol
 _atom_site_label
 _atom_site_symmetry_multiplicity
 _atom_site_fract_x
 _atom_site_fract_y
 _atom_site_fract_z
 _atom_site_occupancy
  Th  Th0  1  0.311553  0.167330  0.500001  1
  Th  Th1  1  0.844275  0.344275  0.500001  1
  Th  Th2  1  0.176564  0.676564  0.500001  1
  Th  Th3  1  0.667330  0.811553  0.500001  1
  Tl  Tl4  1  0.997865  0.996534  0.000000  1
  Tl  Tl5  1  0.496534  0.497865  0.000000  1
  Rh  Rh6  1  0.133542  0.370763  0.000000  1
  Rh  Rh7  1  0.870763  0.633540  0.000000  1
  Rh  Rh8  1  0.372777  0.872777  0.000000  1
  Au  Au9  1  0.628799  0.128801  0.000000  1
