# generated using pymatgen
data_Y5HgRu2
_symmetry_space_group_name_H-M   'P 1'
_cell_length_a   8.72040322
_cell_length_b   8.72040342
_cell_length_c   8.72040259
_cell_angle_alpha   127.25693191
_cell_angle_beta   127.25693358
_cell_angle_gamma   77.83189763
_symmetry_Int_Tables_number   1
_chemical_formula_structural   Y5HgRu2
_chemical_formula_sum   'Y10 Hg2 Ru4'
_cell_volume   407.21630908
_cell_formula_units_Z   2
loop_
 _symmetry_equiv_pos_site_id
 _symmetry_equiv_pos_as_xyz
  1  'x, y, z'
loop_
 _atom_site_type_symbol
 _atom_site_label
 _atom_site_symmetry_multiplicity
 _atom_site_fract_x
 _atom_site_fract_y
 _atom_site_fract_z
 _atom_site_occupancy
  Y  Y0  1  0.000000  0.000000  0.000000  1
  Y  Y1  1  0.500000  0.500000  0.000000  1
  Y  Y2  1  0.204155  0.704155  0.176349  1
  Y  Y3  1  0.472194  0.972194  0.176349  1
  Y  Y4  1  0.027806  0.204155  0.500000  1
  Y  Y5  1  0.295845  0.472194  0.500000  1
  Y  Y6  1  0.704155  0.527806  0.500000  1
  Y  Y7  1  0.972194  0.795845  0.500000  1
  Y  Y8  1  0.527806  0.027806  0.823651  1
  Y  Y9  1  0.795845  0.295845  0.823651  1
  Hg  Hg10  1  0.250000  0.250000  0.000000  1
  Hg  Hg11  1  0.750000  0.750000  0.000000  1
  Ru  Ru12  1  0.861659  0.361659  0.223317  1
  Ru  Ru13  1  0.361658  0.138341  0.500000  1
  Ru  Ru14  1  0.638342  0.861659  0.500000  1
  Ru  Ru15  1  0.138341  0.638341  0.776683  1
