# generated using pymatgen
data_Ti3Cu2SnO
_symmetry_space_group_name_H-M   'P 1'
_cell_length_a   8.21454555
_cell_length_b   8.21454536
_cell_length_c   8.21454500
_cell_angle_alpha   59.99999742
_cell_angle_beta   59.99999820
_cell_angle_gamma   59.99999802
_symmetry_Int_Tables_number   1
_chemical_formula_structural   Ti3Cu2SnO
_chemical_formula_sum   'Ti12 Cu8 Sn4 O4'
_cell_volume   391.95442223
_cell_formula_units_Z   4
loop_
 _symmetry_equiv_pos_site_id
 _symmetry_equiv_pos_as_xyz
  1  'x, y, z'
loop_
 _atom_site_type_symbol
 _atom_site_label
 _atom_site_symmetry_multiplicity
 _atom_site_fract_x
 _atom_site_fract_y
 _atom_site_fract_z
 _atom_site_occupancy
  Ti  Ti0  1  0.821261  0.178740  0.178740  1
  Ti  Ti1  1  0.178741  0.821260  0.821260  1
  Ti  Ti2  1  0.178740  0.821261  0.178740  1
  Ti  Ti3  1  0.178740  0.178740  0.821261  1
  Ti  Ti4  1  0.821260  0.178741  0.821260  1
  Ti  Ti5  1  0.821260  0.821260  0.178741  1
  Ti  Ti6  1  0.071260  0.428740  0.071260  1
  Ti  Ti7  1  0.428740  0.071260  0.428740  1
  Ti  Ti8  1  0.428740  0.071260  0.071260  1
  Ti  Ti9  1  0.071260  0.071260  0.428740  1
  Ti  Ti10  1  0.071260  0.428740  0.428740  1
  Ti  Ti11  1  0.428740  0.428740  0.071260  1
  Cu  Cu12  1  0.839487  0.839487  0.839487  1
  Cu  Cu13  1  0.839487  0.839487  0.481541  1
  Cu  Cu14  1  0.481541  0.839487  0.839487  1
  Cu  Cu15  1  0.839487  0.481541  0.839487  1
  Cu  Cu16  1  0.410514  0.410514  0.410514  1
  Cu  Cu17  1  0.410514  0.410514  0.768460  1
  Cu  Cu18  1  0.410514  0.768460  0.410514  1
  Cu  Cu19  1  0.768460  0.410514  0.410514  1
  Sn  Sn20  1  0.625000  0.625000  0.625000  1
  Sn  Sn21  1  0.625000  0.625000  0.125000  1
  Sn  Sn22  1  0.125000  0.625000  0.625000  1
  Sn  Sn23  1  0.625000  0.125000  0.625000  1
  O  O24  1  0.125000  0.125000  0.125000  1
  O  O25  1  0.125000  0.125000  0.625000  1
  O  O26  1  0.625000  0.125000  0.125000  1
  O  O27  1  0.125000  0.625000  0.125000  1
