# generated using pymatgen
data_Dy3Pa(Al8Pt3)3
_symmetry_space_group_name_H-M   'P 1'
_cell_length_a   7.55729289
_cell_length_b   7.56624330
_cell_length_c   13.14775276
_cell_angle_alpha   84.52543277
_cell_angle_beta   78.97591422
_cell_angle_gamma   59.91971703
_symmetry_Int_Tables_number   1
_chemical_formula_structural   Dy3Pa(Al8Pt3)3
_chemical_formula_sum   'Dy3 Pa1 Al24 Pt9'
_cell_volume   638.53954987
_cell_formula_units_Z   1
loop_
 _symmetry_equiv_pos_site_id
 _symmetry_equiv_pos_as_xyz
  1  'x, y, z'
loop_
 _atom_site_type_symbol
 _atom_site_label
 _atom_site_symmetry_multiplicity
 _atom_site_fract_x
 _atom_site_fract_y
 _atom_site_fract_z
 _atom_site_occupancy
  Dy  Dy0  1  0.606219  0.831674  0.191985  1
  Dy  Dy1  1  0.733616  0.498705  0.807888  1
  Dy  Dy2  1  0.266582  0.501282  0.192058  1
  Pa  Pa3  1  0.395506  0.168182  0.804542  1
  Al  Al4  1  0.684339  0.833216  0.944407  1
  Al  Al5  1  0.315305  0.166254  0.055214  1
  Al  Al6  1  0.146603  0.832809  0.561149  1
  Al  Al7  1  0.854322  0.167220  0.437988  1
  Al  Al8  1  0.480974  0.166688  0.558027  1
  Al  Al9  1  0.519635  0.832109  0.440998  1
  Al  Al10  1  0.217324  0.165479  0.331016  1
  Al  Al11  1  0.785705  0.831852  0.669428  1
  Al  Al12  1  0.437599  0.509409  0.669938  1
  Al  Al13  1  0.561997  0.493709  0.330033  1
  Al  Al14  1  0.107561  0.159718  0.668235  1
  Al  Al15  1  0.889699  0.839728  0.331418  1
  Al  Al16  1  0.352822  0.499871  0.944263  1
  Al  Al17  1  0.647363  0.500369  0.056025  1
  Al  Al18  1  0.014945  0.167935  0.953283  1
  Al  Al19  1  0.984267  0.832797  0.047168  1
  Al  Al20  1  0.185594  0.500596  0.441101  1
  Al  Al21  1  0.813586  0.500307  0.558622  1
  Al  Al22  1  0.734658  0.163719  0.183682  1
  Al  Al23  1  0.263361  0.838377  0.817195  1
  Al  Al24  1  0.063196  0.631056  0.815923  1
  Al  Al25  1  0.938965  0.368784  0.184776  1
  Al  Al26  1  0.855343  0.039732  0.816764  1
  Al  Al27  1  0.144612  0.958359  0.184022  1
  Pt  Pt28  1  0.120692  0.490704  0.640104  1
  Pt  Pt29  1  0.879455  0.508031  0.361540  1
  Pt  Pt30  1  0.656665  0.171899  0.999190  1
  Pt  Pt31  1  0.343517  0.828169  0.999305  1
  Pt  Pt32  1  0.537369  0.166697  0.361940  1
  Pt  Pt33  1  0.462281  0.833942  0.639907  1
  Pt  Pt34  1  0.777827  0.175330  0.638809  1
  Pt  Pt35  1  0.220504  0.825144  0.362895  1
  Pt  Pt36  1  0.999995  0.500147  0.999162  1
