# generated using pymatgen
data_ErTmCo12GeP6
_symmetry_space_group_name_H-M   'P 1'
_cell_length_a   9.05386800
_cell_length_b   9.05386777
_cell_length_c   3.56134700
_cell_angle_alpha   90.00000000
_cell_angle_beta   90.00000000
_cell_angle_gamma   119.99999354
_symmetry_Int_Tables_number   1
_chemical_formula_structural   ErTmCo12GeP6
_chemical_formula_sum   'Er1 Tm1 Co12 Ge1 P6'
_cell_volume   252.82106531
_cell_formula_units_Z   1
loop_
 _symmetry_equiv_pos_site_id
 _symmetry_equiv_pos_as_xyz
  1  'x, y, z'
loop_
 _atom_site_type_symbol
 _atom_site_label
 _atom_site_symmetry_multiplicity
 _atom_site_fract_x
 _atom_site_fract_y
 _atom_site_fract_z
 _atom_site_occupancy
  Er  Er0  1  0.333333  0.666667  0.000000  1
  Tm  Tm1  1  0.666667  0.333333  0.500000  1
  Co  Co2  1  0.125845  0.838336  0.000000  1
  Co  Co3  1  0.386587  0.438767  0.500000  1
  Co  Co4  1  0.712492  0.874155  0.000000  1
  Co  Co5  1  0.561233  0.947819  0.500000  1
  Co  Co6  1  0.248484  0.110138  0.500000  1
  Co  Co7  1  0.861654  0.751516  0.500000  1
  Co  Co8  1  0.889862  0.138346  0.500000  1
  Co  Co9  1  0.938181  0.375482  0.000000  1
  Co  Co10  1  0.624518  0.562699  0.000000  1
  Co  Co11  1  0.437301  0.061819  0.000000  1
  Co  Co12  1  0.052181  0.613413  0.500000  1
  Co  Co13  1  0.161664  0.287508  0.000000  1
  Ge  Ge14  1  0.000000  0.000000  0.000000  1
  P  P15  1  0.596657  0.708914  0.500000  1
  P  P16  1  0.707034  0.113982  0.000000  1
  P  P17  1  0.886018  0.593052  0.000000  1
  P  P18  1  0.406948  0.292966  0.000000  1
  P  P19  1  0.291086  0.887743  0.500000  1
  P  P20  1  0.112257  0.403343  0.500000  1
