# generated using pymatgen
data_Sc4Si7PRh16
_symmetry_space_group_name_H-M   'P 1'
_cell_length_a   4.07024100
_cell_length_b   8.93644601
_cell_length_c   11.10509239
_cell_angle_alpha   89.87787818
_cell_angle_beta   90.00000000
_cell_angle_gamma   90.00000000
_symmetry_Int_Tables_number   1
_chemical_formula_structural   Sc4Si7PRh16
_chemical_formula_sum   'Sc4 Si7 P1 Rh16'
_cell_volume   403.93003765
_cell_formula_units_Z   1
loop_
 _symmetry_equiv_pos_site_id
 _symmetry_equiv_pos_as_xyz
  1  'x, y, z'
loop_
 _atom_site_type_symbol
 _atom_site_label
 _atom_site_symmetry_multiplicity
 _atom_site_fract_x
 _atom_site_fract_y
 _atom_site_fract_z
 _atom_site_occupancy
  Sc  Sc0  1  0.250000  0.143653  0.825704  1
  Sc  Sc1  1  0.250000  0.356921  0.322791  1
  Sc  Sc2  1  0.750000  0.855897  0.175523  1
  Sc  Sc3  1  0.750000  0.642339  0.676128  1
  Si  Si4  1  0.250000  0.086881  0.138363  1
  Si  Si5  1  0.750000  0.587014  0.360676  1
  Si  Si6  1  0.750000  0.911935  0.861721  1
  Si  Si7  1  0.250000  0.618009  0.060079  1
  Si  Si8  1  0.250000  0.881581  0.558815  1
  Si  Si9  1  0.750000  0.380849  0.940797  1
  Si  Si10  1  0.750000  0.117445  0.440607  1
  P  P11  1  0.250000  0.413677  0.639541  1
  Rh  Rh12  1  0.250000  0.611385  0.505608  1
  Rh  Rh13  1  0.250000  0.882937  0.003075  1
  Rh  Rh14  1  0.750000  0.383192  0.494760  1
  Rh  Rh15  1  0.750000  0.114902  0.997443  1
  Rh  Rh16  1  0.250000  0.696491  0.268126  1
  Rh  Rh17  1  0.250000  0.805468  0.766176  1
  Rh  Rh18  1  0.750000  0.307458  0.732368  1
  Rh  Rh19  1  0.750000  0.197070  0.233229  1
  Rh  Rh20  1  0.250000  0.178409  0.562171  1
  Rh  Rh21  1  0.250000  0.329351  0.059593  1
  Rh  Rh22  1  0.750000  0.826744  0.440669  1
  Rh  Rh23  1  0.750000  0.669263  0.938543  1
  Rh  Rh24  1  0.250000  0.009883  0.344407  1
  Rh  Rh25  1  0.250000  0.489934  0.837946  1
  Rh  Rh26  1  0.750000  0.992878  0.657312  1
  Rh  Rh27  1  0.750000  0.508434  0.157827  1
