# generated using pymatgen
data_Tb8Y9Sc3Si15Os
_symmetry_space_group_name_H-M   'P 1'
_cell_length_a   7.30002748
_cell_length_b   7.72966459
_cell_length_c   14.49891500
_cell_angle_alpha   90.00000000
_cell_angle_beta   90.00000000
_cell_angle_gamma   90.15140736
_symmetry_Int_Tables_number   1
_chemical_formula_structural   Tb8Y9Sc3Si15Os
_chemical_formula_sum   'Tb8 Y9 Sc3 Si15 Os1'
_cell_volume   818.12399719
_cell_formula_units_Z   1
loop_
 _symmetry_equiv_pos_site_id
 _symmetry_equiv_pos_as_xyz
  1  'x, y, z'
loop_
 _atom_site_type_symbol
 _atom_site_label
 _atom_site_symmetry_multiplicity
 _atom_site_fract_x
 _atom_site_fract_y
 _atom_site_fract_z
 _atom_site_occupancy
  Tb  Tb0  1  0.017718  0.184547  0.098427  1
  Tb  Tb1  1  0.983669  0.827955  0.903538  1
  Tb  Tb2  1  0.483642  0.683283  0.904517  1
  Tb  Tb3  1  0.983669  0.827955  0.596462  1
  Tb  Tb4  1  0.517215  0.318031  0.098120  1
  Tb  Tb5  1  0.017718  0.184547  0.401573  1
  Tb  Tb6  1  0.517215  0.318031  0.401880  1
  Tb  Tb7  1  0.483642  0.683283  0.595483  1
  Y  Y8  1  0.153456  0.515301  0.750000  1
  Y  Y9  1  0.315524  0.172700  0.626634  1
  Y  Y10  1  0.677022  0.823382  0.373284  1
  Y  Y11  1  0.175455  0.680009  0.373511  1
  Y  Y12  1  0.677022  0.823382  0.126716  1
  Y  Y13  1  0.831583  0.313218  0.626156  1
  Y  Y14  1  0.315524  0.172700  0.873366  1
  Y  Y15  1  0.831583  0.313218  0.873844  1
  Y  Y16  1  0.175455  0.680009  0.126489  1
  Sc  Sc17  1  0.839479  0.483640  0.250000  1
  Sc  Sc18  1  0.341263  0.018208  0.250000  1
  Sc  Sc19  1  0.669239  0.986828  0.750000  1
  Si  Si20  1  0.978364  0.906416  0.250000  1
  Si  Si21  1  0.478808  0.594824  0.250000  1
  Si  Si22  1  0.527443  0.401005  0.750000  1
  Si  Si23  1  0.287024  0.867655  0.750000  1
  Si  Si24  1  0.716559  0.136659  0.250000  1
  Si  Si25  1  0.218622  0.364838  0.250000  1
  Si  Si26  1  0.766819  0.632144  0.750000  1
  Si  Si27  1  0.155607  0.472102  0.536326  1
  Si  Si28  1  0.847098  0.529342  0.459849  1
  Si  Si29  1  0.347552  0.971570  0.458613  1
  Si  Si30  1  0.847098  0.529342  0.040151  1
  Si  Si31  1  0.649675  0.028792  0.538000  1
  Si  Si32  1  0.155607  0.472102  0.963674  1
  Si  Si33  1  0.649675  0.028792  0.962000  1
  Si  Si34  1  0.347552  0.971570  0.041387  1
  Os  Os35  1  0.019402  0.082620  0.750000  1
