# generated using pymatgen
data_Cs3Dy2Br9
_symmetry_space_group_name_H-M   'P 1'
_cell_length_a   10.51453370
_cell_length_b   10.51453288
_cell_length_c   10.51453357
_cell_angle_alpha   83.39404706
_cell_angle_beta   83.39404748
_cell_angle_gamma   83.39405616
_symmetry_Int_Tables_number   1
_chemical_formula_structural   Cs3Dy2Br9
_chemical_formula_sum   'Cs6 Dy4 Br18'
_cell_volume   1140.93338992
_cell_formula_units_Z   2
loop_
 _symmetry_equiv_pos_site_id
 _symmetry_equiv_pos_as_xyz
  1  'x, y, z'
loop_
 _atom_site_type_symbol
 _atom_site_label
 _atom_site_symmetry_multiplicity
 _atom_site_fract_x
 _atom_site_fract_y
 _atom_site_fract_z
 _atom_site_occupancy
  Cs  Cs0  1  0.588286  0.911714  0.250000  1
  Cs  Cs1  1  0.250000  0.588286  0.911714  1
  Cs  Cs2  1  0.911714  0.250000  0.588286  1
  Cs  Cs3  1  0.750000  0.411714  0.088286  1
  Cs  Cs4  1  0.088286  0.750000  0.411714  1
  Cs  Cs5  1  0.411714  0.088286  0.750000  1
  Dy  Dy6  1  0.846851  0.846851  0.846851  1
  Dy  Dy7  1  0.346851  0.346851  0.346851  1
  Dy  Dy8  1  0.153149  0.153149  0.153149  1
  Dy  Dy9  1  0.653149  0.653149  0.653149  1
  Br  Br10  1  0.095298  0.404702  0.250000  1
  Br  Br11  1  0.250000  0.095298  0.404702  1
  Br  Br12  1  0.404702  0.250000  0.095298  1
  Br  Br13  1  0.750000  0.904702  0.595298  1
  Br  Br14  1  0.595298  0.750000  0.904702  1
  Br  Br15  1  0.904702  0.595298  0.750000  1
  Br  Br16  1  0.235600  0.415295  0.578937  1
  Br  Br17  1  0.578937  0.235600  0.415295  1
  Br  Br18  1  0.415295  0.578937  0.235600  1
  Br  Br19  1  0.078937  0.915295  0.735600  1
  Br  Br20  1  0.735600  0.078937  0.915295  1
  Br  Br21  1  0.915295  0.735600  0.078937  1
  Br  Br22  1  0.764400  0.584705  0.421063  1
  Br  Br23  1  0.421063  0.764400  0.584705  1
  Br  Br24  1  0.584705  0.421063  0.764400  1
  Br  Br25  1  0.921063  0.084705  0.264400  1
  Br  Br26  1  0.264400  0.921063  0.084705  1
  Br  Br27  1  0.084705  0.264400  0.921063  1
