# generated using pymatgen
data_La10As9Cl
_symmetry_space_group_name_H-M   'P 1'
_cell_length_a   7.42577912
_cell_length_b   8.60173099
_cell_length_c   9.58981400
_cell_angle_alpha   102.95363147
_cell_angle_beta   97.39226886
_cell_angle_gamma   106.85603258
_symmetry_Int_Tables_number   1
_chemical_formula_structural   La10As9Cl
_chemical_formula_sum   'La10 As9 Cl1'
_cell_volume   558.85801920
_cell_formula_units_Z   1
loop_
 _symmetry_equiv_pos_site_id
 _symmetry_equiv_pos_as_xyz
  1  'x, y, z'
loop_
 _atom_site_type_symbol
 _atom_site_label
 _atom_site_symmetry_multiplicity
 _atom_site_fract_x
 _atom_site_fract_y
 _atom_site_fract_z
 _atom_site_occupancy
  La  La0  1  0.901831  0.549176  0.799859  1
  La  La1  1  0.691275  0.153996  0.398138  1
  La  La2  1  0.500879  0.749474  0.001188  1
  La  La3  1  0.693520  0.640818  0.396657  1
  La  La4  1  0.306480  0.359182  0.603343  1
  La  La5  1  0.101147  0.946671  0.191656  1
  La  La6  1  0.499121  0.250526  0.998812  1
  La  La7  1  0.308725  0.846004  0.601862  1
  La  La8  1  0.098169  0.450824  0.200141  1
  La  La9  1  0.898853  0.053329  0.808344  1
  As  As10  1  0.800249  0.602120  0.102294  1
  As  As11  1  0.598741  0.197660  0.698274  1
  As  As12  1  0.401259  0.802340  0.301726  1
  As  As13  1  0.801431  0.099582  0.102741  1
  As  As14  1  0.199751  0.397880  0.897706  1
  As  As15  1  0.603922  0.702382  0.699165  1
  As  As16  1  0.396078  0.297618  0.300835  1
  As  As17  1  0.198569  0.900418  0.897259  1
  As  As18  1  0.000000  0.500000  0.500000  1
  Cl  Cl19  1  0.000000  0.000000  0.500000  1
