# generated using pymatgen
data_SmHo3(In2Pd3)4
_symmetry_space_group_name_H-M   'P 1'
_cell_length_a   4.63128200
_cell_length_b   9.81152396
_cell_length_c   10.39545814
_cell_angle_alpha   90.11461571
_cell_angle_beta   90.00000000
_cell_angle_gamma   90.00000000
_symmetry_Int_Tables_number   1
_chemical_formula_structural   SmHo3(In2Pd3)4
_chemical_formula_sum   'Sm1 Ho3 In8 Pd12'
_cell_volume   472.36799008
_cell_formula_units_Z   1
loop_
 _symmetry_equiv_pos_site_id
 _symmetry_equiv_pos_as_xyz
  1  'x, y, z'
loop_
 _atom_site_type_symbol
 _atom_site_label
 _atom_site_symmetry_multiplicity
 _atom_site_fract_x
 _atom_site_fract_y
 _atom_site_fract_z
 _atom_site_occupancy
  Sm  Sm0  1  0.750000  0.946475  0.772892  1
  Ho  Ho1  1  0.250000  0.444846  0.722671  1
  Ho  Ho2  1  0.250000  0.054429  0.223663  1
  Ho  Ho3  1  0.750000  0.554770  0.277027  1
  In  In4  1  0.250000  0.886452  0.513836  1
  In  In5  1  0.250000  0.613659  0.013179  1
  In  In6  1  0.750000  0.113773  0.484563  1
  In  In7  1  0.750000  0.386234  0.988257  1
  In  In8  1  0.250000  0.164342  0.894853  1
  In  In9  1  0.250000  0.336727  0.393584  1
  In  In10  1  0.750000  0.836413  0.106691  1
  In  In11  1  0.750000  0.661609  0.604963  1
  Pd  Pd12  1  0.250000  0.147260  0.623008  1
  Pd  Pd13  1  0.250000  0.356452  0.125060  1
  Pd  Pd14  1  0.750000  0.855659  0.376129  1
  Pd  Pd15  1  0.750000  0.640722  0.875009  1
  Pd  Pd16  1  0.250000  0.739804  0.741075  1
  Pd  Pd17  1  0.250000  0.755780  0.240904  1
  Pd  Pd18  1  0.750000  0.256905  0.259569  1
  Pd  Pd19  1  0.750000  0.248066  0.759616  1
  Pd  Pd20  1  0.250000  0.896917  0.975703  1
  Pd  Pd21  1  0.250000  0.602871  0.472652  1
  Pd  Pd22  1  0.750000  0.104020  0.028897  1
  Pd  Pd23  1  0.750000  0.395816  0.526200  1
