# generated using pymatgen
data_Tb16Cd4Ir3Rh
_symmetry_space_group_name_H-M   'P 1'
_cell_length_a   9.65902342
_cell_length_b   9.68830248
_cell_length_c   9.68830300
_cell_angle_alpha   60.00000163
_cell_angle_beta   59.89967744
_cell_angle_gamma   59.89967839
_symmetry_Int_Tables_number   1
_chemical_formula_structural   Tb16Cd4Ir3Rh
_chemical_formula_sum   'Tb16 Cd4 Ir3 Rh1'
_cell_volume   640.10823075
_cell_formula_units_Z   1
loop_
 _symmetry_equiv_pos_site_id
 _symmetry_equiv_pos_as_xyz
  1  'x, y, z'
loop_
 _atom_site_type_symbol
 _atom_site_label
 _atom_site_symmetry_multiplicity
 _atom_site_fract_x
 _atom_site_fract_y
 _atom_site_fract_z
 _atom_site_occupancy
  Tb  Tb0  1  0.297136  0.900955  0.900955  1
  Tb  Tb1  1  0.687134  0.313622  0.685622  1
  Tb  Tb2  1  0.313204  0.686979  0.312838  1
  Tb  Tb3  1  0.061709  0.438565  0.438565  1
  Tb  Tb4  1  0.687134  0.313622  0.313622  1
  Tb  Tb5  1  0.438147  0.061419  0.439014  1
  Tb  Tb6  1  0.438147  0.061419  0.061419  1
  Tb  Tb7  1  0.901063  0.900517  0.900517  1
  Tb  Tb8  1  0.061709  0.438565  0.061161  1
  Tb  Tb9  1  0.901063  0.297902  0.900517  1
  Tb  Tb10  1  0.313204  0.686979  0.686979  1
  Tb  Tb11  1  0.901063  0.900517  0.297902  1
  Tb  Tb12  1  0.438147  0.439014  0.061419  1
  Tb  Tb13  1  0.313204  0.312838  0.686979  1
  Tb  Tb14  1  0.687134  0.685622  0.313622  1
  Tb  Tb15  1  0.061709  0.061161  0.438565  1
  Cd  Cd16  1  0.991302  0.669566  0.669566  1
  Cd  Cd17  1  0.669637  0.991258  0.669552  1
  Cd  Cd18  1  0.669637  0.669552  0.991258  1
  Cd  Cd19  1  0.669637  0.669552  0.669552  1
  Ir  Ir20  1  0.107849  0.107983  0.676185  1
  Ir  Ir21  1  0.107849  0.676185  0.107983  1
  Ir  Ir22  1  0.107849  0.107983  0.107983  1
  Rh  Rh23  1  0.675328  0.108224  0.108224  1
