# generated using pymatgen
data_Tm2UMn2
_symmetry_space_group_name_H-M   'P 1'
_cell_length_a   5.78537868
_cell_length_b   5.78538067
_cell_length_c   5.78538000
_cell_angle_alpha   140.21586652
_cell_angle_beta   124.36552278
_cell_angle_gamma   70.55321971
_symmetry_Int_Tables_number   1
_chemical_formula_structural   Tm2UMn2
_chemical_formula_sum   'Tm2 U1 Mn2'
_cell_volume   100.40044121
_cell_formula_units_Z   1
loop_
 _symmetry_equiv_pos_site_id
 _symmetry_equiv_pos_as_xyz
  1  'x, y, z'
loop_
 _atom_site_type_symbol
 _atom_site_label
 _atom_site_symmetry_multiplicity
 _atom_site_fract_x
 _atom_site_fract_y
 _atom_site_fract_z
 _atom_site_occupancy
  Tm  Tm0  1  0.699226  0.199227  0.500000  1
  Tm  Tm1  1  0.300773  0.800773  0.500000  1
  U  U2  1  0.000000  0.000000  0.000000  1
  Mn  Mn3  1  0.760324  0.500000  0.260324  1
  Mn  Mn4  1  0.239675  0.500000  0.739675  1
