# generated using pymatgen
data_LuSc2(SnRh)3
_symmetry_space_group_name_H-M   'P 1'
_cell_length_a   7.59353280
_cell_length_b   7.56937335
_cell_length_c   3.52655200
_cell_angle_alpha   90.00000000
_cell_angle_beta   90.00000000
_cell_angle_gamma   119.89480448
_symmetry_Int_Tables_number   1
_chemical_formula_structural   LuSc2(SnRh)3
_chemical_formula_sum   'Lu1 Sc2 Sn3 Rh3'
_cell_volume   175.72927164
_cell_formula_units_Z   1
loop_
 _symmetry_equiv_pos_site_id
 _symmetry_equiv_pos_as_xyz
  1  'x, y, z'
loop_
 _atom_site_type_symbol
 _atom_site_label
 _atom_site_symmetry_multiplicity
 _atom_site_fract_x
 _atom_site_fract_y
 _atom_site_fract_z
 _atom_site_occupancy
  Lu  Lu0  1  0.000000  0.602580  0.500000  1
  Sc  Sc1  1  0.396037  0.397785  0.500000  1
  Sc  Sc2  1  0.603963  0.001748  0.500000  1
  Sn  Sn3  1  0.722071  0.726942  0.000000  1
  Sn  Sn4  1  0.277929  0.004870  0.000000  1
  Sn  Sn5  1  0.000000  0.269029  0.000000  1
  Rh  Rh6  1  0.664944  0.331723  0.000000  1
  Rh  Rh7  1  0.335056  0.666779  0.000000  1
  Rh  Rh8  1  0.000000  0.998544  0.500000  1
