# generated using pymatgen
data_TbDy4Tc5(P6Ir7)2
_symmetry_space_group_name_H-M   'P 1'
_cell_length_a   12.63525206
_cell_length_b   12.73232881
_cell_length_c   3.98412100
_cell_angle_alpha   90.00000000
_cell_angle_beta   90.00000000
_cell_angle_gamma   120.15319026
_symmetry_Int_Tables_number   1
_chemical_formula_structural   TbDy4Tc5(P6Ir7)2
_chemical_formula_sum   'Tb1 Dy4 Tc5 P12 Ir14'
_cell_volume   554.22031102
_cell_formula_units_Z   1
loop_
 _symmetry_equiv_pos_site_id
 _symmetry_equiv_pos_as_xyz
  1  'x, y, z'
loop_
 _atom_site_type_symbol
 _atom_site_label
 _atom_site_symmetry_multiplicity
 _atom_site_fract_x
 _atom_site_fract_y
 _atom_site_fract_z
 _atom_site_occupancy
  Tb  Tb0  1  0.999459  0.811052  0.000000  1
  Dy  Dy1  1  0.334286  0.667971  0.500000  1
  Dy  Dy2  1  0.666619  0.333430  0.500000  1
  Dy  Dy3  1  0.186609  0.185083  0.000000  1
  Dy  Dy4  1  0.810723  0.998565  0.000000  1
  Tc  Tc5  1  0.996693  0.450200  0.500000  1
  Tc  Tc6  1  0.548412  0.544842  0.500000  1
  Tc  Tc7  1  0.456917  0.009039  0.500000  1
  Tc  Tc8  1  0.620696  0.799280  0.500000  1
  Tc  Tc9  1  0.201343  0.821989  0.500000  1
  P  P10  1  0.006428  0.639614  0.500000  1
  P  P11  1  0.363641  0.364853  0.500000  1
  P  P12  1  0.633107  0.993604  0.500000  1
  P  P13  1  0.520153  0.693814  0.000000  1
  P  P14  1  0.308220  0.829915  0.000000  1
  P  P15  1  0.169849  0.483231  0.000000  1
  P  P16  1  0.483411  0.169548  0.000000  1
  P  P17  1  0.685981  0.516545  0.000000  1
  P  P18  1  0.832294  0.314754  0.000000  1
  P  P19  1  0.998983  0.176558  0.500000  1
  P  P20  1  0.817041  0.820333  0.500000  1
  P  P21  1  0.177428  0.993972  0.500000  1
  Ir  Ir22  1  0.507906  0.874640  0.000000  1
  Ir  Ir23  1  0.127715  0.635991  0.000000  1
  Ir  Ir24  1  0.361801  0.493923  0.000000  1
  Ir  Ir25  1  0.490833  0.359136  0.000000  1
  Ir  Ir26  1  0.866040  0.506412  0.000000  1
  Ir  Ir27  1  0.643256  0.136447  0.000000  1
  Ir  Ir28  1  0.000312  0.285560  0.000000  1
  Ir  Ir29  1  0.716154  0.710952  0.000000  1
  Ir  Ir30  1  0.287429  0.005234  0.000000  1
  Ir  Ir31  1  0.179978  0.375128  0.500000  1
  Ir  Ir32  1  0.374130  0.183638  0.500000  1
  Ir  Ir33  1  0.807156  0.622509  0.500000  1
  Ir  Ir34  1  0.819354  0.192757  0.500000  1
  Ir  Ir35  1  0.999641  0.999477  0.500000  1
