# generated using pymatgen
data_Sm2DyEr(ReB6)2
_symmetry_space_group_name_H-M   'P 1'
_cell_length_a   3.71004300
_cell_length_b   9.21501706
_cell_length_c   11.64353907
_cell_angle_alpha   90.01264039
_cell_angle_beta   90.00000000
_cell_angle_gamma   90.00000000
_symmetry_Int_Tables_number   1
_chemical_formula_structural   Sm2DyEr(ReB6)2
_chemical_formula_sum   'Sm4 Dy2 Er2 Re4 B24'
_cell_volume   398.07057931
_cell_formula_units_Z   2
loop_
 _symmetry_equiv_pos_site_id
 _symmetry_equiv_pos_as_xyz
  1  'x, y, z'
loop_
 _atom_site_type_symbol
 _atom_site_label
 _atom_site_symmetry_multiplicity
 _atom_site_fract_x
 _atom_site_fract_y
 _atom_site_fract_z
 _atom_site_occupancy
  Sm  Sm0  1  0.000000  0.323193  0.414175  1
  Sm  Sm1  1  0.000000  0.676807  0.585825  1
  Sm  Sm2  1  0.000000  0.822861  0.085673  1
  Sm  Sm3  1  0.000000  0.177139  0.914327  1
  Dy  Dy4  1  0.000000  0.942749  0.369487  1
  Dy  Dy5  1  0.000000  0.057251  0.630513  1
  Er  Er6  1  0.000000  0.442900  0.130176  1
  Er  Er7  1  0.000000  0.557100  0.869824  1
  Re  Re8  1  0.000000  0.638366  0.319393  1
  Re  Re9  1  0.000000  0.361634  0.680607  1
  Re  Re10  1  0.000000  0.139425  0.179983  1
  Re  Re11  1  0.000000  0.860575  0.820017  1
  B  B12  1  0.500000  0.554082  0.431265  1
  B  B13  1  0.500000  0.445918  0.568735  1
  B  B14  1  0.500000  0.054360  0.068572  1
  B  B15  1  0.500000  0.945640  0.931428  1
  B  B16  1  0.500000  0.748966  0.416524  1
  B  B17  1  0.500000  0.251034  0.583476  1
  B  B18  1  0.500000  0.249960  0.083301  1
  B  B19  1  0.500000  0.750040  0.916699  1
  B  B20  1  0.500000  0.790993  0.265512  1
  B  B21  1  0.500000  0.209007  0.734488  1
  B  B22  1  0.500000  0.291980  0.234163  1
  B  B23  1  0.500000  0.708020  0.765837  1
  B  B24  1  0.500000  0.629372  0.185589  1
  B  B25  1  0.500000  0.370628  0.814411  1
  B  B26  1  0.500000  0.130208  0.313812  1
  B  B27  1  0.500000  0.869792  0.686188  1
  B  B28  1  0.500000  0.983415  0.212436  1
  B  B29  1  0.500000  0.016585  0.787564  1
  B  B30  1  0.500000  0.482810  0.286977  1
  B  B31  1  0.500000  0.517190  0.713023  1
  B  B32  1  0.500000  0.596846  0.026909  1
  B  B33  1  0.500000  0.403154  0.973091  1
  B  B34  1  0.500000  0.097813  0.472867  1
  B  B35  1  0.500000  0.902187  0.527133  1
