# generated using pymatgen
data_Pu(TlSe)4
_symmetry_space_group_name_H-M   'P 1'
_cell_length_a   10.04405932
_cell_length_b   10.04690968
_cell_length_c   17.27603800
_cell_angle_alpha   104.48007770
_cell_angle_beta   105.11165333
_cell_angle_gamma   90.02872407
_symmetry_Int_Tables_number   1
_chemical_formula_structural   Pu(TlSe)4
_chemical_formula_sum   'Pu5 Tl20 Se20'
_cell_volume   1625.57744789
_cell_formula_units_Z   5
loop_
 _symmetry_equiv_pos_site_id
 _symmetry_equiv_pos_as_xyz
  1  'x, y, z'
loop_
 _atom_site_type_symbol
 _atom_site_label
 _atom_site_symmetry_multiplicity
 _atom_site_fract_x
 _atom_site_fract_y
 _atom_site_fract_z
 _atom_site_occupancy
  Pu  Pu0  1  0.989440  0.316303  0.400167  1
  Pu  Pu1  1  0.010560  0.683697  0.599833  1
  Pu  Pu2  1  0.823989  0.690823  0.801003  1
  Pu  Pu3  1  0.176011  0.309177  0.198997  1
  Pu  Pu4  1  0.000000  0.500000  0.000000  1
  Tl  Tl5  1  0.976451  0.931351  0.203946  1
  Tl  Tl6  1  0.023549  0.068649  0.796054  1
  Tl  Tl7  1  0.802487  0.295926  0.596418  1
  Tl  Tl8  1  0.197513  0.704074  0.403582  1
  Tl  Tl9  1  0.800656  0.922229  0.412676  1
  Tl  Tl10  1  0.199344  0.077771  0.587324  1
  Tl  Tl11  1  0.792707  0.523288  0.201389  1
  Tl  Tl12  1  0.207293  0.476712  0.798611  1
  Tl  Tl13  1  0.637098  0.895265  0.616349  1
  Tl  Tl14  1  0.362902  0.104735  0.383651  1
  Tl  Tl15  1  0.627529  0.315587  0.815301  1
  Tl  Tl16  1  0.372471  0.684413  0.184699  1
  Tl  Tl17  1  0.597682  0.509779  0.398913  1
  Tl  Tl18  1  0.402318  0.490221  0.601087  1
  Tl  Tl19  1  0.420724  0.880712  0.789766  1
  Tl  Tl20  1  0.579276  0.119288  0.210234  1
  Tl  Tl21  1  0.382147  0.297674  0.009661  1
  Tl  Tl22  1  0.617853  0.702326  0.990339  1
  Tl  Tl23  1  0.203683  0.888630  0.996150  1
  Tl  Tl24  1  0.796317  0.111370  0.003850  1
  Se  Se25  1  0.932230  0.954543  0.599904  1
  Se  Se26  1  0.067770  0.045457  0.400096  1
  Se  Se27  1  0.919697  0.598065  0.420266  1
  Se  Se28  1  0.080303  0.401935  0.579734  1
  Se  Se29  1  0.915551  0.766211  0.980405  1
  Se  Se30  1  0.084449  0.233789  0.019595  1
  Se  Se31  1  0.912031  0.425413  0.820567  1
  Se  Se32  1  0.087969  0.574587  0.179433  1
  Se  Se33  1  0.743529  0.960724  0.804550  1
  Se  Se34  1  0.256471  0.039276  0.195450  1
  Se  Se35  1  0.746521  0.613335  0.620616  1
  Se  Se36  1  0.253479  0.386665  0.379384  1
  Se  Se37  1  0.552219  0.612543  0.799763  1
  Se  Se38  1  0.447781  0.387457  0.200237  1
  Se  Se39  1  0.279123  0.767954  0.600504  1
  Se  Se40  1  0.720877  0.232046  0.399496  1
  Se  Se41  1  0.267878  0.576976  0.996333  1
  Se  Se42  1  0.732122  0.423024  0.003667  1
  Se  Se43  1  0.089468  0.755686  0.779682  1
  Se  Se44  1  0.910532  0.244314  0.220318  1
