# generated using pymatgen
data_Lu3CuNiSn3Ir
_symmetry_space_group_name_H-M   'P 1'
_cell_length_a   7.44553900
_cell_length_b   7.44553745
_cell_length_c   3.74846700
_cell_angle_alpha   90.00000000
_cell_angle_beta   90.00000000
_cell_angle_gamma   119.99999354
_symmetry_Int_Tables_number   1
_chemical_formula_structural   Lu3CuNiSn3Ir
_chemical_formula_sum   'Lu3 Cu1 Ni1 Sn3 Ir1'
_cell_volume   179.96023321
_cell_formula_units_Z   1
loop_
 _symmetry_equiv_pos_site_id
 _symmetry_equiv_pos_as_xyz
  1  'x, y, z'
loop_
 _atom_site_type_symbol
 _atom_site_label
 _atom_site_symmetry_multiplicity
 _atom_site_fract_x
 _atom_site_fract_y
 _atom_site_fract_z
 _atom_site_occupancy
  Lu  Lu0  1  0.988657  0.394357  0.500000  1
  Lu  Lu1  1  0.605643  0.594300  0.500000  1
  Lu  Lu2  1  0.405700  0.011343  0.500000  1
  Cu  Cu3  1  0.333333  0.666667  0.000000  1
  Ni  Ni4  1  0.000000  0.000000  0.500000  1
  Sn  Sn5  1  0.006431  0.746001  0.000000  1
  Sn  Sn6  1  0.253999  0.260430  0.000000  1
  Sn  Sn7  1  0.739570  0.993569  0.000000  1
  Ir  Ir8  1  0.666667  0.333333  0.000000  1
