# generated using pymatgen
data_HoLu7Ga3Os
_symmetry_space_group_name_H-M   'P 1'
_cell_length_a   9.83095400
_cell_length_b   9.83095408
_cell_length_c   6.93234500
_cell_angle_alpha   90.00000000
_cell_angle_beta   90.00000000
_cell_angle_gamma   119.99999973
_symmetry_Int_Tables_number   1
_chemical_formula_structural   HoLu7Ga3Os
_chemical_formula_sum   'Ho2 Lu14 Ga6 Os2'
_cell_volume   580.23260894
_cell_formula_units_Z   2
loop_
 _symmetry_equiv_pos_site_id
 _symmetry_equiv_pos_as_xyz
  1  'x, y, z'
loop_
 _atom_site_type_symbol
 _atom_site_label
 _atom_site_symmetry_multiplicity
 _atom_site_fract_x
 _atom_site_fract_y
 _atom_site_fract_z
 _atom_site_occupancy
  Ho  Ho0  1  0.000000  0.000000  0.233978  1
  Ho  Ho1  1  0.000000  0.000000  0.733978  1
  Lu  Lu2  1  0.171886  0.828114  0.510024  1
  Lu  Lu3  1  0.656227  0.828114  0.510024  1
  Lu  Lu4  1  0.171886  0.343773  0.510024  1
  Lu  Lu5  1  0.828114  0.171886  0.010024  1
  Lu  Lu6  1  0.343773  0.171886  0.010024  1
  Lu  Lu7  1  0.828114  0.656227  0.010024  1
  Lu  Lu8  1  0.333333  0.666667  0.840210  1
  Lu  Lu9  1  0.666667  0.333333  0.340210  1
  Lu  Lu10  1  0.466026  0.533974  0.205248  1
  Lu  Lu11  1  0.067948  0.533974  0.205248  1
  Lu  Lu12  1  0.466026  0.932052  0.205248  1
  Lu  Lu13  1  0.533974  0.466026  0.705248  1
  Lu  Lu14  1  0.932052  0.466026  0.705248  1
  Lu  Lu15  1  0.533974  0.067948  0.705248  1
  Ga  Ga16  1  0.164144  0.835856  0.957353  1
  Ga  Ga17  1  0.671710  0.835856  0.957353  1
  Ga  Ga18  1  0.164144  0.328290  0.957353  1
  Ga  Ga19  1  0.835856  0.164144  0.457353  1
  Ga  Ga20  1  0.328290  0.164144  0.457353  1
  Ga  Ga21  1  0.835856  0.671710  0.457353  1
  Os  Os22  1  0.333333  0.666667  0.444957  1
  Os  Os23  1  0.666667  0.333333  0.944957  1
