# generated using pymatgen
data_LuSc9In8(PtAu)2
_symmetry_space_group_name_H-M   'P 1'
_cell_length_a   3.48272400
_cell_length_b   7.82107481
_cell_length_c   17.65966347
_cell_angle_alpha   89.90052657
_cell_angle_beta   90.00000000
_cell_angle_gamma   90.00000000
_symmetry_Int_Tables_number   1
_chemical_formula_structural   LuSc9In8(PtAu)2
_chemical_formula_sum   'Lu1 Sc9 In8 Pt2 Au2'
_cell_volume   481.02457845
_cell_formula_units_Z   1
loop_
 _symmetry_equiv_pos_site_id
 _symmetry_equiv_pos_as_xyz
  1  'x, y, z'
loop_
 _atom_site_type_symbol
 _atom_site_label
 _atom_site_symmetry_multiplicity
 _atom_site_fract_x
 _atom_site_fract_y
 _atom_site_fract_z
 _atom_site_occupancy
  Lu  Lu0  1  0.000000  0.733818  0.278545  1
  Sc  Sc1  1  0.000000  0.122140  0.421639  1
  Sc  Sc2  1  0.000000  0.878233  0.579965  1
  Sc  Sc3  1  0.000000  0.381034  0.916313  1
  Sc  Sc4  1  0.000000  0.618815  0.082507  1
  Sc  Sc5  1  0.000000  0.257006  0.216505  1
  Sc  Sc6  1  0.000000  0.741418  0.782521  1
  Sc  Sc7  1  0.000000  0.267405  0.722772  1
  Sc  Sc8  1  0.000000  0.000073  0.999437  1
  Sc  Sc9  1  0.000000  0.499673  0.500258  1
  In  In10  1  0.500000  0.418437  0.353700  1
  In  In11  1  0.500000  0.577908  0.646968  1
  In  In12  1  0.500000  0.078351  0.853890  1
  In  In13  1  0.500000  0.924026  0.144405  1
  In  In14  1  0.500000  0.292328  0.063355  1
  In  In15  1  0.500000  0.707266  0.935613  1
  In  In16  1  0.500000  0.209270  0.566242  1
  In  In17  1  0.500000  0.792182  0.436365  1
  Pt  Pt18  1  0.500000  0.468140  0.805398  1
  Pt  Pt19  1  0.500000  0.527507  0.192979  1
  Au  Au20  1  0.500000  0.036559  0.303467  1
  Au  Au21  1  0.500000  0.968412  0.697156  1
