# generated using pymatgen
data_SrYb11(AlP3)4
_symmetry_space_group_name_H-M   'P 1'
_cell_length_a   4.07863300
_cell_length_b   12.22950880
_cell_length_c   12.76872900
_cell_angle_alpha   89.74324002
_cell_angle_beta   90.00000000
_cell_angle_gamma   90.00000000
_symmetry_Int_Tables_number   1
_chemical_formula_structural   SrYb11(AlP3)4
_chemical_formula_sum   'Sr1 Yb11 Al4 P12'
_cell_volume   636.89369781
_cell_formula_units_Z   1
loop_
 _symmetry_equiv_pos_site_id
 _symmetry_equiv_pos_as_xyz
  1  'x, y, z'
loop_
 _atom_site_type_symbol
 _atom_site_label
 _atom_site_symmetry_multiplicity
 _atom_site_fract_x
 _atom_site_fract_y
 _atom_site_fract_z
 _atom_site_occupancy
  Sr  Sr0  1  0.750000  0.648567  0.997651  1
  Yb  Yb1  1  0.250000  0.861428  0.502508  1
  Yb  Yb2  1  0.250000  0.358902  0.996842  1
  Yb  Yb3  1  0.750000  0.141079  0.496639  1
  Yb  Yb4  1  0.750000  0.221662  0.204709  1
  Yb  Yb5  1  0.750000  0.421659  0.392050  1
  Yb  Yb6  1  0.250000  0.574812  0.605944  1
  Yb  Yb7  1  0.750000  0.924998  0.110378  1
  Yb  Yb8  1  0.250000  0.076081  0.893331  1
  Yb  Yb9  1  0.250000  0.276963  0.703217  1
  Yb  Yb10  1  0.750000  0.722049  0.302432  1
  Yb  Yb11  1  0.250000  0.779626  0.789253  1
  Al  Al12  1  0.750000  0.946939  0.701757  1
  Al  Al13  1  0.250000  0.054174  0.298505  1
  Al  Al14  1  0.250000  0.554182  0.204618  1
  Al  Al15  1  0.750000  0.442856  0.794828  1
  P  P16  1  0.750000  0.453697  0.150483  1
  P  P17  1  0.250000  0.542188  0.844609  1
  P  P18  1  0.750000  0.955937  0.353213  1
  P  P19  1  0.250000  0.044874  0.648101  1
  P  P20  1  0.750000  0.406875  0.613322  1
  P  P21  1  0.250000  0.587451  0.386597  1
  P  P22  1  0.750000  0.908022  0.884064  1
  P  P23  1  0.250000  0.091186  0.115785  1
  P  P24  1  0.750000  0.261702  0.872173  1
  P  P25  1  0.250000  0.741919  0.139174  1
  P  P26  1  0.750000  0.764201  0.625859  1
  P  P27  1  0.250000  0.235973  0.371956  1
