# generated using pymatgen
data_Pr16Nd3SmRh16
_symmetry_space_group_name_H-M   'P 1'
_cell_length_a   7.67040034
_cell_length_b   7.73663333
_cell_length_c   15.09455700
_cell_angle_alpha   90.00000000
_cell_angle_beta   90.00000000
_cell_angle_gamma   90.03373074
_symmetry_Int_Tables_number   1
_chemical_formula_structural   Pr16Nd3SmRh16
_chemical_formula_sum   'Pr16 Nd3 Sm1 Rh16'
_cell_volume   895.75727149
_cell_formula_units_Z   1
loop_
 _symmetry_equiv_pos_site_id
 _symmetry_equiv_pos_as_xyz
  1  'x, y, z'
loop_
 _atom_site_type_symbol
 _atom_site_label
 _atom_site_symmetry_multiplicity
 _atom_site_fract_x
 _atom_site_fract_y
 _atom_site_fract_z
 _atom_site_occupancy
  Pr  Pr0  1  0.667529  0.170246  0.622086  1
  Pr  Pr1  1  0.167911  0.330827  0.877977  1
  Pr  Pr2  1  0.332655  0.830642  0.121198  1
  Pr  Pr3  1  0.832566  0.668921  0.378677  1
  Pr  Pr4  1  0.332655  0.830642  0.378802  1
  Pr  Pr5  1  0.832566  0.668921  0.121323  1
  Pr  Pr6  1  0.667529  0.170246  0.877914  1
  Pr  Pr7  1  0.167911  0.330827  0.622023  1
  Pr  Pr8  1  0.519274  0.680878  0.595310  1
  Pr  Pr9  1  0.017239  0.818512  0.905153  1
  Pr  Pr10  1  0.480605  0.317915  0.094472  1
  Pr  Pr11  1  0.980815  0.181743  0.405716  1
  Pr  Pr12  1  0.480605  0.317915  0.405528  1
  Pr  Pr13  1  0.980815  0.181743  0.094284  1
  Pr  Pr14  1  0.519274  0.680878  0.904690  1
  Pr  Pr15  1  0.017239  0.818512  0.594847  1
  Nd  Nd16  1  0.329267  0.987585  0.750000  1
  Nd  Nd17  1  0.170658  0.488307  0.250000  1
  Nd  Nd18  1  0.670641  0.011493  0.250000  1
  Sm  Sm19  1  0.829823  0.510776  0.750000  1
  Rh  Rh20  1  0.670943  0.971651  0.457807  1
  Rh  Rh21  1  0.170726  0.527882  0.042531  1
  Rh  Rh22  1  0.330525  0.028285  0.956489  1
  Rh  Rh23  1  0.830806  0.472456  0.544276  1
  Rh  Rh24  1  0.330525  0.028285  0.543511  1
  Rh  Rh25  1  0.830806  0.472456  0.955724  1
  Rh  Rh26  1  0.670943  0.971651  0.042193  1
  Rh  Rh27  1  0.170726  0.527882  0.457469  1
  Rh  Rh28  1  0.463300  0.401268  0.750000  1
  Rh  Rh29  1  0.962097  0.103250  0.750000  1
  Rh  Rh30  1  0.538231  0.605104  0.250000  1
  Rh  Rh31  1  0.037622  0.895117  0.250000  1
  Rh  Rh32  1  0.705470  0.855019  0.750000  1
  Rh  Rh33  1  0.198708  0.642548  0.750000  1
  Rh  Rh34  1  0.295176  0.141306  0.250000  1
  Rh  Rh35  1  0.795819  0.358312  0.250000  1
