# generated using pymatgen
data_Sc4Al7Ru
_symmetry_space_group_name_H-M   'P 1'
_cell_length_a   5.36966700
_cell_length_b   5.36966672
_cell_length_c   8.58196000
_cell_angle_alpha   90.00000000
_cell_angle_beta   90.00000000
_cell_angle_gamma   119.99999555
_symmetry_Int_Tables_number   1
_chemical_formula_structural   Sc4Al7Ru
_chemical_formula_sum   'Sc4 Al7 Ru1'
_cell_volume   214.29489349
_cell_formula_units_Z   1
loop_
 _symmetry_equiv_pos_site_id
 _symmetry_equiv_pos_as_xyz
  1  'x, y, z'
loop_
 _atom_site_type_symbol
 _atom_site_label
 _atom_site_symmetry_multiplicity
 _atom_site_fract_x
 _atom_site_fract_y
 _atom_site_fract_z
 _atom_site_occupancy
  Sc  Sc0  1  0.333333  0.666667  0.443980  1
  Sc  Sc1  1  0.666667  0.333333  0.556020  1
  Sc  Sc2  1  0.666667  0.333333  0.935430  1
  Sc  Sc3  1  0.333333  0.666667  0.064570  1
  Al  Al4  1  0.000000  0.000000  0.500000  1
  Al  Al5  1  0.831077  0.168923  0.240124  1
  Al  Al6  1  0.831077  0.662155  0.240124  1
  Al  Al7  1  0.337845  0.168923  0.240124  1
  Al  Al8  1  0.168923  0.831077  0.759876  1
  Al  Al9  1  0.168923  0.337845  0.759876  1
  Al  Al10  1  0.662155  0.831077  0.759876  1
  Ru  Ru11  1  0.000000  0.000000  0.000000  1
