# generated using pymatgen
data_Rb4CdHg5Se8
_symmetry_space_group_name_H-M   'P 1'
_cell_length_a   10.06846730
_cell_length_b   10.06846734
_cell_length_c   10.06846717
_cell_angle_alpha   141.40848458
_cell_angle_beta   106.97057554
_cell_angle_gamma   85.78533568
_symmetry_Int_Tables_number   1
_chemical_formula_structural   Rb4CdHg5Se8
_chemical_formula_sum   'Rb4 Cd1 Hg5 Se8'
_cell_volume   588.12763368
_cell_formula_units_Z   1
loop_
 _symmetry_equiv_pos_site_id
 _symmetry_equiv_pos_as_xyz
  1  'x, y, z'
loop_
 _atom_site_type_symbol
 _atom_site_label
 _atom_site_symmetry_multiplicity
 _atom_site_fract_x
 _atom_site_fract_y
 _atom_site_fract_z
 _atom_site_occupancy
  Rb  Rb0  1  0.119633  0.772025  0.892863  1
  Rb  Rb1  1  0.879162  0.226770  0.107137  1
  Rb  Rb2  1  0.620838  0.727975  0.347608  1
  Rb  Rb3  1  0.380367  0.273230  0.652392  1
  Cd  Cd4  1  0.250000  0.750000  0.500000  1
  Hg  Hg5  1  0.750000  0.250000  0.500000  1
  Hg  Hg6  1  0.915665  0.750000  0.165665  1
  Hg  Hg7  1  0.584335  0.750000  0.834335  1
  Hg  Hg8  1  0.085544  0.250000  0.835544  1
  Hg  Hg9  1  0.414456  0.250000  0.164456  1
  Se  Se10  1  0.233366  0.641915  0.148498  1
  Se  Se11  1  0.493417  0.084868  0.851502  1
  Se  Se12  1  0.006583  0.858085  0.591450  1
  Se  Se13  1  0.266634  0.415132  0.408550  1
  Se  Se14  1  0.767138  0.359504  0.855624  1
  Se  Se15  1  0.503879  0.911514  0.144376  1
  Se  Se16  1  0.996121  0.140496  0.407634  1
  Se  Se17  1  0.732862  0.588486  0.592366  1
