# generated using pymatgen
data_Sr2Mo2N5
_symmetry_space_group_name_H-M   'P 1'
_cell_length_a   3.76832800
_cell_length_b   5.95119700
_cell_length_c   11.58283100
_cell_angle_alpha   90.00000000
_cell_angle_beta   90.00000000
_cell_angle_gamma   90.00000000
_symmetry_Int_Tables_number   1
_chemical_formula_structural   Sr2Mo2N5
_chemical_formula_sum   'Sr4 Mo4 N10'
_cell_volume   259.75728948
_cell_formula_units_Z   2
loop_
 _symmetry_equiv_pos_site_id
 _symmetry_equiv_pos_as_xyz
  1  'x, y, z'
loop_
 _atom_site_type_symbol
 _atom_site_label
 _atom_site_symmetry_multiplicity
 _atom_site_fract_x
 _atom_site_fract_y
 _atom_site_fract_z
 _atom_site_occupancy
  Sr  Sr0  1  0.500000  0.752940  0.374187  1
  Sr  Sr1  1  0.500000  0.247060  0.625813  1
  Sr  Sr2  1  0.500000  0.252940  0.125813  1
  Sr  Sr3  1  0.500000  0.747060  0.874187  1
  Mo  Mo4  1  0.000000  0.786278  0.130646  1
  Mo  Mo5  1  0.000000  0.213722  0.869354  1
  Mo  Mo6  1  0.000000  0.713722  0.630646  1
  Mo  Mo7  1  0.000000  0.286278  0.369354  1
  N  N8  1  0.000000  0.000000  0.000000  1
  N  N9  1  0.000000  0.518085  0.750571  1
  N  N10  1  0.000000  0.018085  0.749429  1
  N  N11  1  0.000000  0.981915  0.250571  1
  N  N12  1  0.500000  0.808991  0.600380  1
  N  N13  1  0.500000  0.191009  0.399620  1
  N  N14  1  0.000000  0.481915  0.249429  1
  N  N15  1  0.500000  0.691009  0.100380  1
  N  N16  1  0.000000  0.500000  0.500000  1
  N  N17  1  0.500000  0.308991  0.899620  1
