# generated using pymatgen
data_Er2InB2Ir5
_symmetry_space_group_name_H-M   'P 1'
_cell_length_a   9.72238900
_cell_length_b   9.72238900
_cell_length_c   3.19932200
_cell_angle_alpha   90.00000000
_cell_angle_beta   90.00000000
_cell_angle_gamma   90.00000000
_symmetry_Int_Tables_number   1
_chemical_formula_structural   Er2InB2Ir5
_chemical_formula_sum   'Er4 In2 B4 Ir10'
_cell_volume   302.41542533
_cell_formula_units_Z   2
loop_
 _symmetry_equiv_pos_site_id
 _symmetry_equiv_pos_as_xyz
  1  'x, y, z'
loop_
 _atom_site_type_symbol
 _atom_site_label
 _atom_site_symmetry_multiplicity
 _atom_site_fract_x
 _atom_site_fract_y
 _atom_site_fract_z
 _atom_site_occupancy
  Er  Er0  1  0.823292  0.323292  0.000000  1
  Er  Er1  1  0.176708  0.676708  0.000000  1
  Er  Er2  1  0.323292  0.176708  0.000000  1
  Er  Er3  1  0.676708  0.823292  0.000000  1
  In  In4  1  0.500000  0.500000  0.000000  1
  In  In5  1  0.000000  0.000000  0.000000  1
  B  B6  1  0.621183  0.121183  0.000000  1
  B  B7  1  0.378817  0.878817  0.000000  1
  B  B8  1  0.121183  0.378817  0.000000  1
  B  B9  1  0.878817  0.621183  0.000000  1
  Ir  Ir10  1  0.500000  0.000000  0.500000  1
  Ir  Ir11  1  0.000000  0.500000  0.500000  1
  Ir  Ir12  1  0.726565  0.569868  0.500000  1
  Ir  Ir13  1  0.273435  0.430132  0.500000  1
  Ir  Ir14  1  0.226565  0.930132  0.500000  1
  Ir  Ir15  1  0.773435  0.069868  0.500000  1
  Ir  Ir16  1  0.430132  0.726565  0.500000  1
  Ir  Ir17  1  0.569868  0.273435  0.500000  1
  Ir  Ir18  1  0.069868  0.226565  0.500000  1
  Ir  Ir19  1  0.930132  0.773435  0.500000  1
