# generated using pymatgen
data_LiLaNd7CdIr2
_symmetry_space_group_name_H-M   'P 1'
_cell_length_a   9.99804413
_cell_length_b   9.99804439
_cell_length_c   9.95820400
_cell_angle_alpha   60.13172943
_cell_angle_beta   60.13172854
_cell_angle_gamma   60.34115676
_symmetry_Int_Tables_number   1
_chemical_formula_structural   LiLaNd7CdIr2
_chemical_formula_sum   'Li2 La2 Nd14 Cd2 Ir4'
_cell_volume   707.08185099
_cell_formula_units_Z   2
loop_
 _symmetry_equiv_pos_site_id
 _symmetry_equiv_pos_as_xyz
  1  'x, y, z'
loop_
 _atom_site_type_symbol
 _atom_site_label
 _atom_site_symmetry_multiplicity
 _atom_site_fract_x
 _atom_site_fract_y
 _atom_site_fract_z
 _atom_site_occupancy
  Li  Li0  1  0.571769  0.571769  0.575445  1
  Li  Li1  1  0.571769  0.571769  0.281017  1
  La  La2  1  0.347589  0.347589  0.348505  1
  La  La3  1  0.347589  0.347589  0.956317  1
  Nd  Nd4  1  0.346829  0.957625  0.347773  1
  Nd  Nd5  1  0.957625  0.346829  0.347773  1
  Nd  Nd6  1  0.813479  0.187467  0.188631  1
  Nd  Nd7  1  0.187467  0.813479  0.810423  1
  Nd  Nd8  1  0.187467  0.813479  0.188631  1
  Nd  Nd9  1  0.813479  0.187467  0.810423  1
  Nd  Nd10  1  0.191076  0.191076  0.808924  1
  Nd  Nd11  1  0.815668  0.815668  0.184332  1
  Nd  Nd12  1  0.937832  0.562156  0.562947  1
  Nd  Nd13  1  0.562156  0.937832  0.937063  1
  Nd  Nd14  1  0.562156  0.937832  0.562947  1
  Nd  Nd15  1  0.937832  0.562156  0.937063  1
  Nd  Nd16  1  0.563354  0.563354  0.936646  1
  Nd  Nd17  1  0.938416  0.938416  0.561584  1
  Cd  Cd18  1  0.585313  0.255114  0.579787  1
  Cd  Cd19  1  0.255114  0.585313  0.579787  1
  Ir  Ir20  1  0.143126  0.143126  0.139894  1
  Ir  Ir21  1  0.143126  0.143126  0.573853  1
  Ir  Ir22  1  0.144399  0.575365  0.140117  1
  Ir  Ir23  1  0.575365  0.144399  0.140117  1
