# generated using pymatgen
data_Rb2Sb2PtO8
_symmetry_space_group_name_H-M   'P 1'
_cell_length_a   5.35325178
_cell_length_b   7.66697145
_cell_length_c   7.75145600
_cell_angle_alpha   48.62038223
_cell_angle_beta   64.92853164
_cell_angle_gamma   64.48688518
_symmetry_Int_Tables_number   1
_chemical_formula_structural   Rb2Sb2PtO8
_chemical_formula_sum   'Rb2 Sb2 Pt1 O8'
_cell_volume   210.85141623
_cell_formula_units_Z   1
loop_
 _symmetry_equiv_pos_site_id
 _symmetry_equiv_pos_as_xyz
  1  'x, y, z'
loop_
 _atom_site_type_symbol
 _atom_site_label
 _atom_site_symmetry_multiplicity
 _atom_site_fract_x
 _atom_site_fract_y
 _atom_site_fract_z
 _atom_site_occupancy
  Rb  Rb0  1  0.211784  0.729469  0.222822  1
  Rb  Rb1  1  0.788214  0.270532  0.777177  1
  Sb  Sb2  1  0.998588  0.261766  0.239384  1
  Sb  Sb3  1  0.001412  0.738234  0.760616  1
  Pt  Pt4  1  0.500000  0.000000  0.500000  1
  O  O5  1  0.781452  0.603283  0.093642  1
  O  O6  1  0.789360  0.139309  0.198089  1
  O  O7  1  0.203978  0.305273  0.362018  1
  O  O8  1  0.717852  0.087918  0.582973  1
  O  O9  1  0.282148  0.912082  0.417027  1
  O  O10  1  0.796022  0.694727  0.637982  1
  O  O11  1  0.210640  0.860691  0.801911  1
  O  O12  1  0.218548  0.396717  0.906357  1
