# generated using pymatgen
data_Rb6Si2Se6O
_symmetry_space_group_name_H-M   'P 1'
_cell_length_a   12.88249200
_cell_length_b   9.14484923
_cell_length_c   9.42312000
_cell_angle_alpha   67.15278258
_cell_angle_beta   90.00000000
_cell_angle_gamma   90.00000000
_symmetry_Int_Tables_number   1
_chemical_formula_structural   Rb6Si2Se6O
_chemical_formula_sum   'Rb12 Si4 Se12 O2'
_cell_volume   1023.02674469
_cell_formula_units_Z   2
loop_
 _symmetry_equiv_pos_site_id
 _symmetry_equiv_pos_as_xyz
  1  'x, y, z'
loop_
 _atom_site_type_symbol
 _atom_site_label
 _atom_site_symmetry_multiplicity
 _atom_site_fract_x
 _atom_site_fract_y
 _atom_site_fract_z
 _atom_site_occupancy
  Rb  Rb0  1  0.328650  0.988553  0.007493  1
  Rb  Rb1  1  0.220895  0.694592  0.454447  1
  Rb  Rb2  1  0.561385  0.282970  0.226801  1
  Rb  Rb3  1  0.828650  0.511447  0.992507  1
  Rb  Rb4  1  0.438615  0.717030  0.773199  1
  Rb  Rb5  1  0.779105  0.305408  0.545553  1
  Rb  Rb6  1  0.061385  0.217030  0.773199  1
  Rb  Rb7  1  0.938615  0.782970  0.226801  1
  Rb  Rb8  1  0.279105  0.194592  0.454447  1
  Rb  Rb9  1  0.720895  0.805408  0.545553  1
  Rb  Rb10  1  0.671350  0.011447  0.992507  1
  Rb  Rb11  1  0.171350  0.488553  0.007493  1
  Si  Si12  1  0.490462  0.358543  0.674408  1
  Si  Si13  1  0.990462  0.141457  0.325592  1
  Si  Si14  1  0.509538  0.641457  0.325592  1
  Si  Si15  1  0.009538  0.858543  0.674408  1
  Se  Se16  1  0.978275  0.618754  0.657987  1
  Se  Se17  1  0.885032  0.914335  0.820619  1
  Se  Se18  1  0.824269  0.126976  0.244425  1
  Se  Se19  1  0.614968  0.414335  0.820619  1
  Se  Se20  1  0.324269  0.373024  0.755575  1
  Se  Se21  1  0.114968  0.085665  0.179381  1
  Se  Se22  1  0.478275  0.881246  0.342013  1
  Se  Se23  1  0.385032  0.585665  0.179381  1
  Se  Se24  1  0.021725  0.381246  0.342013  1
  Se  Se25  1  0.675731  0.626976  0.244425  1
  Se  Se26  1  0.521725  0.118754  0.657987  1
  Se  Se27  1  0.175731  0.873024  0.755575  1
  O  O28  1  0.500000  0.500000  0.500000  1
  O  O29  1  0.000000  0.000000  0.500000  1
