# generated using pymatgen
data_Tm2Si2NiIr
_symmetry_space_group_name_H-M   'P 1'
_cell_length_a   4.16068200
_cell_length_b   6.76250408
_cell_length_c   7.28732118
_cell_angle_alpha   88.42368059
_cell_angle_beta   90.00000000
_cell_angle_gamma   90.00000000
_symmetry_Int_Tables_number   1
_chemical_formula_structural   Tm2Si2NiIr
_chemical_formula_sum   'Tm4 Si4 Ni2 Ir2'
_cell_volume   204.96305887
_cell_formula_units_Z   2
loop_
 _symmetry_equiv_pos_site_id
 _symmetry_equiv_pos_as_xyz
  1  'x, y, z'
loop_
 _atom_site_type_symbol
 _atom_site_label
 _atom_site_symmetry_multiplicity
 _atom_site_fract_x
 _atom_site_fract_y
 _atom_site_fract_z
 _atom_site_occupancy
  Tm  Tm0  1  0.250000  0.500308  0.203080  1
  Tm  Tm1  1  0.750000  0.499692  0.796920  1
  Tm  Tm2  1  0.750000  0.006942  0.682453  1
  Tm  Tm3  1  0.250000  0.993058  0.317547  1
  Si  Si4  1  0.250000  0.795654  0.890886  1
  Si  Si5  1  0.750000  0.204346  0.109114  1
  Si  Si6  1  0.750000  0.698091  0.401251  1
  Si  Si7  1  0.250000  0.301909  0.598749  1
  Ni  Ni8  1  0.250000  0.668841  0.576301  1
  Ni  Ni9  1  0.750000  0.331159  0.423699  1
  Ir  Ir10  1  0.750000  0.840146  0.063039  1
  Ir  Ir11  1  0.250000  0.159854  0.936961  1
