# generated using pymatgen
data_Pr2Zn14Ir3
_symmetry_space_group_name_H-M   'P 1'
_cell_length_a   6.87853028
_cell_length_b   6.87853161
_cell_length_c   6.87853084
_cell_angle_alpha   82.68625526
_cell_angle_beta   97.31374471
_cell_angle_gamma   97.31374336
_symmetry_Int_Tables_number   1
_chemical_formula_structural   Pr2Zn14Ir3
_chemical_formula_sum   'Pr2 Zn14 Ir3'
_cell_volume   318.12976997
_cell_formula_units_Z   1
loop_
 _symmetry_equiv_pos_site_id
 _symmetry_equiv_pos_as_xyz
  1  'x, y, z'
loop_
 _atom_site_type_symbol
 _atom_site_label
 _atom_site_symmetry_multiplicity
 _atom_site_fract_x
 _atom_site_fract_y
 _atom_site_fract_z
 _atom_site_occupancy
  Pr  Pr0  1  0.670361  0.329638  0.329639  1
  Pr  Pr1  1  0.329638  0.670360  0.670361  1
  Zn  Zn2  1  0.708511  0.708511  0.000000  1
  Zn  Zn3  1  0.291490  0.291489  0.000000  1
  Zn  Zn4  1  0.899713  0.100286  0.100286  1
  Zn  Zn5  1  0.349307  0.650694  0.157504  1
  Zn  Zn6  1  0.291489  0.000000  0.291489  1
  Zn  Zn7  1  0.000000  0.708511  0.291490  1
  Zn  Zn8  1  0.650694  0.842495  0.349305  1
  Zn  Zn9  1  0.157505  0.349306  0.349306  1
  Zn  Zn10  1  0.349306  0.157505  0.650693  1
  Zn  Zn11  1  0.842496  0.650694  0.650693  1
  Zn  Zn12  1  0.000000  0.291490  0.708511  1
  Zn  Zn13  1  0.708511  0.000000  0.708511  1
  Zn  Zn14  1  0.650694  0.349306  0.842495  1
  Zn  Zn15  1  0.100285  0.899714  0.899714  1
  Ir  Ir16  1  0.000000  0.499999  0.999999  1
  Ir  Ir17  1  0.499999  0.000001  0.000000  1
  Ir  Ir18  1  0.000000  0.000000  0.499999  1
