# generated using pymatgen
data_La3Yb2(Sn5Pd2)2
_symmetry_space_group_name_H-M   'P 1'
_cell_length_a   14.42048900
_cell_length_b   14.42048900
_cell_length_c   4.64281200
_cell_angle_alpha   90.00000000
_cell_angle_beta   90.00000000
_cell_angle_gamma   90.00000000
_symmetry_Int_Tables_number   1
_chemical_formula_structural   La3Yb2(Sn5Pd2)2
_chemical_formula_sum   'La6 Yb4 Sn20 Pd8'
_cell_volume   965.47509073
_cell_formula_units_Z   2
loop_
 _symmetry_equiv_pos_site_id
 _symmetry_equiv_pos_as_xyz
  1  'x, y, z'
loop_
 _atom_site_type_symbol
 _atom_site_label
 _atom_site_symmetry_multiplicity
 _atom_site_fract_x
 _atom_site_fract_y
 _atom_site_fract_z
 _atom_site_occupancy
  La  La0  1  0.500000  0.500000  0.000000  1
  La  La1  1  0.000000  0.000000  0.000000  1
  La  La2  1  0.890752  0.390752  0.500000  1
  La  La3  1  0.109248  0.609248  0.500000  1
  La  La4  1  0.390752  0.109248  0.500000  1
  La  La5  1  0.609248  0.890752  0.500000  1
  Yb  Yb6  1  0.677578  0.177578  0.500000  1
  Yb  Yb7  1  0.322422  0.822422  0.500000  1
  Yb  Yb8  1  0.177578  0.322422  0.500000  1
  Yb  Yb9  1  0.822422  0.677578  0.500000  1
  Sn  Sn10  1  0.569353  0.069353  0.000000  1
  Sn  Sn11  1  0.430647  0.930647  0.000000  1
  Sn  Sn12  1  0.069353  0.430647  0.000000  1
  Sn  Sn13  1  0.930647  0.569353  0.000000  1
  Sn  Sn14  1  0.654434  0.697497  0.000000  1
  Sn  Sn15  1  0.345566  0.302503  0.000000  1
  Sn  Sn16  1  0.154434  0.802503  0.000000  1
  Sn  Sn17  1  0.845566  0.197497  0.000000  1
  Sn  Sn18  1  0.302503  0.654434  0.000000  1
  Sn  Sn19  1  0.697497  0.345566  0.000000  1
  Sn  Sn20  1  0.197497  0.154434  0.000000  1
  Sn  Sn21  1  0.802503  0.845566  0.000000  1
  Sn  Sn22  1  0.662896  0.502170  0.500000  1
  Sn  Sn23  1  0.337104  0.497830  0.500000  1
  Sn  Sn24  1  0.162896  0.997830  0.500000  1
  Sn  Sn25  1  0.837104  0.002170  0.500000  1
  Sn  Sn26  1  0.497830  0.662896  0.500000  1
  Sn  Sn27  1  0.502170  0.337104  0.500000  1
  Sn  Sn28  1  0.002170  0.162896  0.500000  1
  Sn  Sn29  1  0.997830  0.837104  0.500000  1
  Pd  Pd30  1  0.747382  0.529657  0.000000  1
  Pd  Pd31  1  0.252618  0.470343  0.000000  1
  Pd  Pd32  1  0.247382  0.970343  0.000000  1
  Pd  Pd33  1  0.752618  0.029657  0.000000  1
  Pd  Pd34  1  0.470343  0.747382  0.000000  1
  Pd  Pd35  1  0.529657  0.252618  0.000000  1
  Pd  Pd36  1  0.029657  0.247382  0.000000  1
  Pd  Pd37  1  0.970343  0.752618  0.000000  1
