# generated using pymatgen
data_Zr4Al7Zn
_symmetry_space_group_name_H-M   'P 1'
_cell_length_a   5.29537800
_cell_length_b   5.26809455
_cell_length_c   8.78600000
_cell_angle_alpha   90.00000000
_cell_angle_beta   90.00000000
_cell_angle_gamma   120.17145566
_symmetry_Int_Tables_number   1
_chemical_formula_structural   Zr4Al7Zn
_chemical_formula_sum   'Zr4 Al7 Zn1'
_cell_volume   211.89437691
_cell_formula_units_Z   1
loop_
 _symmetry_equiv_pos_site_id
 _symmetry_equiv_pos_as_xyz
  1  'x, y, z'
loop_
 _atom_site_type_symbol
 _atom_site_label
 _atom_site_symmetry_multiplicity
 _atom_site_fract_x
 _atom_site_fract_y
 _atom_site_fract_z
 _atom_site_occupancy
  Zr  Zr0  1  0.334654  0.669309  0.433575  1
  Zr  Zr1  1  0.666286  0.332571  0.935851  1
  Zr  Zr2  1  0.666286  0.332571  0.564149  1
  Zr  Zr3  1  0.334654  0.669309  0.066425  1
  Al  Al4  1  0.829844  0.170931  0.250000  1
  Al  Al5  1  0.341086  0.170931  0.250000  1
  Al  Al6  1  0.654089  0.822888  0.750000  1
  Al  Al7  1  0.002471  0.004941  0.995959  1
  Al  Al8  1  0.002471  0.004941  0.504041  1
  Al  Al9  1  0.829996  0.659994  0.250000  1
  Al  Al10  1  0.168800  0.822888  0.750000  1
  Zn  Zn11  1  0.169364  0.338728  0.750000  1
