# generated using pymatgen
data_Pr20Ga5Si6Rh
_symmetry_space_group_name_H-M   'P 1'
_cell_length_a   7.89290229
_cell_length_b   7.88691347
_cell_length_c   14.47090486
_cell_angle_alpha   89.79081430
_cell_angle_beta   89.87392369
_cell_angle_gamma   90.46327217
_symmetry_Int_Tables_number   1
_chemical_formula_structural   Pr20Ga5Si6Rh
_chemical_formula_sum   'Pr20 Ga5 Si6 Rh1'
_cell_volume   900.78536126
_cell_formula_units_Z   1
loop_
 _symmetry_equiv_pos_site_id
 _symmetry_equiv_pos_as_xyz
  1  'x, y, z'
loop_
 _atom_site_type_symbol
 _atom_site_label
 _atom_site_symmetry_multiplicity
 _atom_site_fract_x
 _atom_site_fract_y
 _atom_site_fract_z
 _atom_site_occupancy
  Pr  Pr0  1  0.813957  0.834844  0.607293  1
  Pr  Pr1  1  0.185034  0.834023  0.103827  1
  Pr  Pr2  1  0.164968  0.813761  0.395388  1
  Pr  Pr3  1  0.000352  0.499652  0.723371  1
  Pr  Pr4  1  0.836395  0.188126  0.392401  1
  Pr  Pr5  1  0.679185  0.658165  0.390569  1
  Pr  Pr6  1  0.667186  0.314629  0.609320  1
  Pr  Pr7  1  0.333181  0.685043  0.607434  1
  Pr  Pr8  1  0.995319  0.499516  0.220767  1
  Pr  Pr9  1  0.660650  0.681963  0.109461  1
  Pr  Pr10  1  0.685090  0.332024  0.890689  1
  Pr  Pr11  1  0.833523  0.813289  0.892896  1
  Pr  Pr12  1  0.321488  0.342521  0.392198  1
  Pr  Pr13  1  0.186388  0.165701  0.606870  1
  Pr  Pr14  1  0.810737  0.162260  0.108019  1
  Pr  Pr15  1  0.314668  0.665020  0.892256  1
  Pr  Pr16  1  0.344311  0.322534  0.108095  1
  Pr  Pr17  1  0.509132  0.001066  0.279341  1
  Pr  Pr18  1  0.164625  0.185662  0.893482  1
  Pr  Pr19  1  0.499623  0.001409  0.776403  1
  Ga  Ga20  1  0.997875  0.499054  0.504807  1
  Ga  Ga21  1  0.499977  0.999107  0.496909  1
  Ga  Ga22  1  0.499638  0.998931  0.995142  1
  Ga  Ga23  1  0.121329  0.115353  0.248982  1
  Ga  Ga24  1  0.999204  0.498583  0.003344  1
  Si  Si25  1  0.114451  0.884904  0.749969  1
  Si  Si26  1  0.384613  0.385970  0.750068  1
  Si  Si27  1  0.378916  0.620999  0.249462  1
  Si  Si28  1  0.885495  0.880764  0.251082  1
  Si  Si29  1  0.613508  0.615386  0.749793  1
  Si  Si30  1  0.885695  0.113985  0.750165  1
  Rh  Rh31  1  0.613486  0.385754  0.250197  1
