# generated using pymatgen
data_Yb6Y2Si12Pd3Pt
_symmetry_space_group_name_H-M   'P 1'
_cell_length_a   8.22958700
_cell_length_b   8.22958640
_cell_length_c   8.15986300
_cell_angle_alpha   90.00000000
_cell_angle_beta   90.00000000
_cell_angle_gamma   119.99999839
_symmetry_Int_Tables_number   1
_chemical_formula_structural   Yb6Y2Si12Pd3Pt
_chemical_formula_sum   'Yb6 Y2 Si12 Pd3 Pt1'
_cell_volume   478.59654140
_cell_formula_units_Z   1
loop_
 _symmetry_equiv_pos_site_id
 _symmetry_equiv_pos_as_xyz
  1  'x, y, z'
loop_
 _atom_site_type_symbol
 _atom_site_label
 _atom_site_symmetry_multiplicity
 _atom_site_fract_x
 _atom_site_fract_y
 _atom_site_fract_z
 _atom_site_occupancy
  Yb  Yb0  1  0.500685  0.001370  0.249864  1
  Yb  Yb1  1  0.499097  0.998193  0.750235  1
  Yb  Yb2  1  0.998630  0.499315  0.249864  1
  Yb  Yb3  1  0.001807  0.500903  0.750235  1
  Yb  Yb4  1  0.500685  0.499315  0.249864  1
  Yb  Yb5  1  0.499097  0.500903  0.750235  1
  Y  Y6  1  0.000000  0.000000  0.250459  1
  Y  Y7  1  0.000000  0.000000  0.749559  1
  Si  Si8  1  0.164861  0.329723  0.000900  1
  Si  Si9  1  0.835705  0.671411  0.999268  1
  Si  Si10  1  0.670277  0.835139  0.000900  1
  Si  Si11  1  0.835896  0.671792  0.500607  1
  Si  Si12  1  0.328589  0.164295  0.999268  1
  Si  Si13  1  0.164160  0.328320  0.499281  1
  Si  Si14  1  0.164861  0.835139  0.000900  1
  Si  Si15  1  0.328208  0.164104  0.500607  1
  Si  Si16  1  0.835705  0.164295  0.999268  1
  Si  Si17  1  0.671680  0.835840  0.499281  1
  Si  Si18  1  0.835896  0.164104  0.500607  1
  Si  Si19  1  0.164160  0.835840  0.499281  1
  Pd  Pd20  1  0.666667  0.333333  0.999284  1
  Pd  Pd21  1  0.666667  0.333333  0.500429  1
  Pd  Pd22  1  0.333333  0.666667  0.499404  1
  Pt  Pt23  1  0.333333  0.666667  0.000403  1
