# generated using pymatgen
data_Be2TlB5O11
_symmetry_space_group_name_H-M   'P 1'
_cell_length_a   4.36660200
_cell_length_b   6.72502900
_cell_length_c   25.83481100
_cell_angle_alpha   90.00000000
_cell_angle_beta   90.00000000
_cell_angle_gamma   90.00000000
_symmetry_Int_Tables_number   1
_chemical_formula_structural   Be2TlB5O11
_chemical_formula_sum   'Be8 Tl4 B20 O44'
_cell_volume   758.65279040
_cell_formula_units_Z   4
loop_
 _symmetry_equiv_pos_site_id
 _symmetry_equiv_pos_as_xyz
  1  'x, y, z'
loop_
 _atom_site_type_symbol
 _atom_site_label
 _atom_site_symmetry_multiplicity
 _atom_site_fract_x
 _atom_site_fract_y
 _atom_site_fract_z
 _atom_site_occupancy
  Be  Be0  1  0.154369  0.451554  0.790397  1
  Be  Be1  1  0.845631  0.951554  0.209603  1
  Be  Be2  1  0.654369  0.951554  0.709603  1
  Be  Be3  1  0.345631  0.451554  0.290397  1
  Be  Be4  1  0.649451  0.229376  0.792539  1
  Be  Be5  1  0.350549  0.729376  0.207461  1
  Be  Be6  1  0.149451  0.729376  0.707461  1
  Be  Be7  1  0.850549  0.229376  0.292539  1
  Tl  Tl8  1  0.845695  0.369393  0.914839  1
  Tl  Tl9  1  0.154305  0.869393  0.085161  1
  Tl  Tl10  1  0.345695  0.869393  0.585161  1
  Tl  Tl11  1  0.654305  0.369393  0.414839  1
  B  B12  1  0.351715  0.042445  0.870232  1
  B  B13  1  0.648285  0.542445  0.129768  1
  B  B14  1  0.851715  0.542445  0.629768  1
  B  B15  1  0.148285  0.042445  0.370232  1
  B  B16  1  0.136879  0.710971  0.871569  1
  B  B17  1  0.863121  0.210971  0.128431  1
  B  B18  1  0.636879  0.210971  0.628431  1
  B  B19  1  0.363121  0.710971  0.371569  1
  B  B20  1  0.003279  0.935351  0.944872  1
  B  B21  1  0.996721  0.435351  0.055128  1
  B  B22  1  0.503279  0.435351  0.555128  1
  B  B23  1  0.496721  0.935351  0.444872  1
  B  B24  1  0.508770  0.954334  0.998693  1
  B  B25  1  0.491230  0.454334  0.001307  1
  B  B26  1  0.008770  0.454334  0.501307  1
  B  B27  1  0.991230  0.954334  0.498693  1
  B  B28  1  0.165179  0.089292  0.751468  1
  B  B29  1  0.834821  0.589292  0.248532  1
  B  B30  1  0.665179  0.589292  0.748532  1
  B  B31  1  0.334821  0.089292  0.251468  1
  O  O32  1  0.332412  0.850162  0.849685  1
  O  O33  1  0.667588  0.350162  0.150315  1
  O  O34  1  0.832412  0.350162  0.650315  1
  O  O35  1  0.167588  0.850162  0.349685  1
  O  O36  1  0.598593  0.937034  0.049375  1
  O  O37  1  0.401407  0.437034  0.950625  1
  O  O38  1  0.098593  0.437034  0.450625  1
  O  O39  1  0.901407  0.937034  0.549375  1
  O  O40  1  0.987252  0.745445  0.917293  1
  O  O41  1  0.012748  0.245445  0.082707  1
  O  O42  1  0.487252  0.245445  0.582707  1
  O  O43  1  0.512748  0.745445  0.417293  1
  O  O44  1  0.195951  0.924303  0.991434  1
  O  O45  1  0.804049  0.424303  0.008566  1
  O  O46  1  0.695951  0.424303  0.508566  1
  O  O47  1  0.304049  0.924303  0.491434  1
  O  O48  1  0.136752  0.089049  0.908953  1
  O  O49  1  0.863248  0.589049  0.091047  1
  O  O50  1  0.636752  0.589049  0.591047  1
  O  O51  1  0.363248  0.089049  0.408953  1
  O  O52  1  0.083584  0.528101  0.849530  1
  O  O53  1  0.916416  0.028101  0.150470  1
  O  O54  1  0.583584  0.028101  0.650470  1
  O  O55  1  0.416416  0.528101  0.349530  1
  O  O56  1  0.555753  0.177761  0.852236  1
  O  O57  1  0.444247  0.677761  0.147764  1
  O  O58  1  0.055753  0.677761  0.647764  1
  O  O59  1  0.944247  0.177761  0.352236  1
  O  O60  1  0.696228  0.000459  0.957765  1
  O  O61  1  0.303772  0.500459  0.042235  1
  O  O62  1  0.196228  0.500459  0.542235  1
  O  O63  1  0.803772  0.000459  0.457765  1
  O  O64  1  0.015038  0.224904  0.782838  1
  O  O65  1  0.984962  0.724904  0.217162  1
  O  O66  1  0.515038  0.724904  0.717162  1
  O  O67  1  0.484962  0.224904  0.282838  1
  O  O68  1  0.479651  0.089266  0.751163  1
  O  O69  1  0.520349  0.589266  0.248837  1
  O  O70  1  0.979651  0.589266  0.748837  1
  O  O71  1  0.020349  0.089266  0.251163  1
  O  O72  1  0.014750  0.954410  0.720902  1
  O  O73  1  0.985250  0.454410  0.279098  1
  O  O74  1  0.514750  0.454410  0.779098  1
  O  O75  1  0.485250  0.954410  0.220902  1
