# generated using pymatgen
data_Y2Lu2Al4RuPt3
_symmetry_space_group_name_H-M   'P 1'
_cell_length_a   4.31762400
_cell_length_b   6.83280831
_cell_length_c   7.84880594
_cell_angle_alpha   90.74667547
_cell_angle_beta   90.00000000
_cell_angle_gamma   90.00000000
_symmetry_Int_Tables_number   1
_chemical_formula_structural   Y2Lu2Al4RuPt3
_chemical_formula_sum   'Y2 Lu2 Al4 Ru1 Pt3'
_cell_volume   231.53186377
_cell_formula_units_Z   1
loop_
 _symmetry_equiv_pos_site_id
 _symmetry_equiv_pos_as_xyz
  1  'x, y, z'
loop_
 _atom_site_type_symbol
 _atom_site_label
 _atom_site_symmetry_multiplicity
 _atom_site_fract_x
 _atom_site_fract_y
 _atom_site_fract_z
 _atom_site_occupancy
  Y  Y0  1  0.250000  0.469253  0.180529  1
  Y  Y1  1  0.750000  0.533800  0.815949  1
  Lu  Lu2  1  0.750000  0.024727  0.676460  1
  Lu  Lu3  1  0.250000  0.966282  0.324157  1
  Al  Al4  1  0.250000  0.857544  0.939268  1
  Al  Al5  1  0.750000  0.140458  0.060676  1
  Al  Al6  1  0.750000  0.645040  0.440411  1
  Al  Al7  1  0.250000  0.361955  0.562586  1
  Ru  Ru8  1  0.250000  0.740581  0.617543  1
  Pt  Pt9  1  0.750000  0.263522  0.380935  1
  Pt  Pt10  1  0.750000  0.772708  0.125599  1
  Pt  Pt11  1  0.250000  0.224130  0.875887  1
