# generated using pymatgen
data_Pr7Th(MgOs)2
_symmetry_space_group_name_H-M   'P 1'
_cell_length_a   10.08759917
_cell_length_b   10.08759969
_cell_length_c   10.17409200
_cell_angle_alpha   59.71596928
_cell_angle_beta   59.71596755
_cell_angle_gamma   59.57122695
_symmetry_Int_Tables_number   1
_chemical_formula_structural   Pr7Th(MgOs)2
_chemical_formula_sum   'Pr14 Th2 Mg4 Os4'
_cell_volume   726.54656200
_cell_formula_units_Z   2
loop_
 _symmetry_equiv_pos_site_id
 _symmetry_equiv_pos_as_xyz
  1  'x, y, z'
loop_
 _atom_site_type_symbol
 _atom_site_label
 _atom_site_symmetry_multiplicity
 _atom_site_fract_x
 _atom_site_fract_y
 _atom_site_fract_z
 _atom_site_occupancy
  Pr  Pr0  1  0.345136  0.962427  0.346219  1
  Pr  Pr1  1  0.962427  0.345136  0.346219  1
  Pr  Pr2  1  0.811031  0.189542  0.189214  1
  Pr  Pr3  1  0.189542  0.811031  0.810212  1
  Pr  Pr4  1  0.189542  0.811031  0.189214  1
  Pr  Pr5  1  0.811031  0.189542  0.810212  1
  Pr  Pr6  1  0.189813  0.189813  0.810187  1
  Pr  Pr7  1  0.811128  0.811128  0.188872  1
  Pr  Pr8  1  0.941875  0.558885  0.560401  1
  Pr  Pr9  1  0.558885  0.941875  0.938840  1
  Pr  Pr10  1  0.558885  0.941875  0.560401  1
  Pr  Pr11  1  0.941875  0.558885  0.938840  1
  Pr  Pr12  1  0.559375  0.559375  0.940625  1
  Pr  Pr13  1  0.939580  0.939580  0.560420  1
  Th  Th14  1  0.340863  0.340863  0.341917  1
  Th  Th15  1  0.340863  0.340863  0.976358  1
  Mg  Mg16  1  0.577391  0.577391  0.581062  1
  Mg  Mg17  1  0.577391  0.577391  0.264155  1
  Mg  Mg18  1  0.576517  0.263493  0.579995  1
  Mg  Mg19  1  0.263493  0.576517  0.579995  1
  Os  Os20  1  0.145429  0.145429  0.131535  1
  Os  Os21  1  0.145429  0.145429  0.577607  1
  Os  Os22  1  0.149935  0.572564  0.138750  1
  Os  Os23  1  0.572564  0.149935  0.138750  1
