# generated using pymatgen
data_LiTa2Tl(P4O13)2
_symmetry_space_group_name_H-M   'P 1'
_cell_length_a   5.25816474
_cell_length_b   8.15457530
_cell_length_c   15.04966716
_cell_angle_alpha   83.27353512
_cell_angle_beta   83.37795464
_cell_angle_gamma   82.01609838
_symmetry_Int_Tables_number   1
_chemical_formula_structural   LiTa2Tl(P4O13)2
_chemical_formula_sum   'Li1 Ta2 Tl1 P8 O26'
_cell_volume   631.42066434
_cell_formula_units_Z   1
loop_
 _symmetry_equiv_pos_site_id
 _symmetry_equiv_pos_as_xyz
  1  'x, y, z'
loop_
 _atom_site_type_symbol
 _atom_site_label
 _atom_site_symmetry_multiplicity
 _atom_site_fract_x
 _atom_site_fract_y
 _atom_site_fract_z
 _atom_site_occupancy
  Li  Li0  1  0.009751  0.591972  0.011818  1
  Ta  Ta1  1  0.435165  0.055804  0.235345  1
  Ta  Ta2  1  0.566835  0.947950  0.757493  1
  Tl  Tl3  1  0.288084  0.416646  0.522645  1
  P  P4  1  0.334967  0.588818  0.813296  1
  P  P5  1  0.983397  0.110247  0.865536  1
  P  P6  1  0.710333  0.334459  0.726518  1
  P  P7  1  0.848720  0.217265  0.345141  1
  P  P8  1  0.016526  0.879209  0.137241  1
  P  P9  1  0.290907  0.670224  0.276763  1
  P  P10  1  0.150664  0.789999  0.647168  1
  P  P11  1  0.660370  0.421285  0.180592  1
  O  O12  1  0.480474  0.593193  0.195076  1
  O  O13  1  0.740244  0.969387  0.156819  1
  O  O14  1  0.590477  0.181681  0.704285  1
  O  O15  1  0.800458  0.985556  0.843511  1
  O  O16  1  0.202631  0.628539  0.721615  1
  O  O17  1  0.843739  0.447768  0.100433  1
  O  O18  1  0.414270  0.824325  0.294087  1
  O  O19  1  0.478602  0.286414  0.180025  1
  O  O20  1  0.499309  0.411075  0.803114  1
  O  O21  1  0.040162  0.743697  0.227151  1
  O  O22  1  0.530934  0.715673  0.810699  1
  O  O23  1  0.947398  0.261742  0.782450  1
  O  O24  1  0.332911  0.913515  0.668626  1
  O  O25  1  0.065676  0.792349  0.055179  1
  O  O26  1  0.870159  0.866637  0.676448  1
  O  O27  1  0.931679  0.171180  0.954333  1
  O  O28  1  0.777294  0.455140  0.649681  1
  O  O29  1  0.263364  0.029481  0.837553  1
  O  O30  1  0.814598  0.266443  0.437250  1
  O  O31  1  0.236430  0.546430  0.353255  1
  O  O32  1  0.126625  0.140620  0.311320  1
  O  O33  1  0.210077  0.003061  0.148343  1
  O  O34  1  0.147532  0.577287  0.893523  1
  O  O35  1  0.793767  0.379538  0.272061  1
  O  O36  1  0.662648  0.095383  0.324190  1
  O  O37  1  0.196075  0.736087  0.555914  1
