# generated using pymatgen
data_Tc4(As2S)3
_symmetry_space_group_name_H-M   'P 1'
_cell_length_a   7.07897585
_cell_length_b   7.07897604
_cell_length_c   7.07897573
_cell_angle_alpha   59.98901517
_cell_angle_beta   59.98901826
_cell_angle_gamma   59.98901652
_symmetry_Int_Tables_number   1
_chemical_formula_structural   Tc4(As2S)3
_chemical_formula_sum   'Tc4 As6 S3'
_cell_volume   250.77724662
_cell_formula_units_Z   1
loop_
 _symmetry_equiv_pos_site_id
 _symmetry_equiv_pos_as_xyz
  1  'x, y, z'
loop_
 _atom_site_type_symbol
 _atom_site_label
 _atom_site_symmetry_multiplicity
 _atom_site_fract_x
 _atom_site_fract_y
 _atom_site_fract_z
 _atom_site_occupancy
  Tc  Tc0  1  0.401113  0.401113  0.401113  1
  Tc  Tc1  1  0.398884  0.795022  0.398884  1
  Tc  Tc2  1  0.795022  0.398884  0.398884  1
  Tc  Tc3  1  0.398884  0.398884  0.795022  1
  As  As4  1  0.000072  0.000072  0.000072  1
  As  As5  1  0.144008  0.144008  0.144008  1
  As  As6  1  0.143685  0.566537  0.143685  1
  As  As7  1  0.566537  0.143685  0.143685  1
  As  As8  1  0.143685  0.143685  0.566537  1
  As  As9  1  0.638808  0.638808  0.638808  1
  S  S10  1  0.630105  0.109094  0.630105  1
  S  S11  1  0.109094  0.630105  0.630105  1
  S  S12  1  0.630105  0.630105  0.109094  1
