# generated using pymatgen
data_Pa3Co(PO4)6
_symmetry_space_group_name_H-M   'P 1'
_cell_length_a   9.33849407
_cell_length_b   9.33849352
_cell_length_c   9.33849362
_cell_angle_alpha   58.23409753
_cell_angle_beta   58.23410137
_cell_angle_gamma   58.23409497
_symmetry_Int_Tables_number   1
_chemical_formula_structural   Pa3Co(PO4)6
_chemical_formula_sum   'Pa3 Co1 P6 O24'
_cell_volume   552.56108484
_cell_formula_units_Z   1
loop_
 _symmetry_equiv_pos_site_id
 _symmetry_equiv_pos_as_xyz
  1  'x, y, z'
loop_
 _atom_site_type_symbol
 _atom_site_label
 _atom_site_symmetry_multiplicity
 _atom_site_fract_x
 _atom_site_fract_y
 _atom_site_fract_z
 _atom_site_occupancy
  Pa  Pa0  1  0.140342  0.140342  0.140342  1
  Pa  Pa1  1  0.355142  0.355142  0.355142  1
  Pa  Pa2  1  0.637796  0.637796  0.637796  1
  Co  Co3  1  0.853442  0.853442  0.853442  1
  P  P4  1  0.030931  0.494032  0.739975  1
  P  P5  1  0.494032  0.739975  0.030931  1
  P  P6  1  0.739975  0.030931  0.494032  1
  P  P7  1  0.214891  0.966984  0.558829  1
  P  P8  1  0.558829  0.214891  0.966984  1
  P  P9  1  0.966984  0.558829  0.214891  1
  O  O10  1  0.131805  0.517662  0.254372  1
  O  O11  1  0.254372  0.131805  0.517662  1
  O  O12  1  0.062099  0.318252  0.903125  1
  O  O13  1  0.517662  0.254372  0.131805  1
  O  O14  1  0.199585  0.462008  0.571850  1
  O  O15  1  0.005051  0.658749  0.757566  1
  O  O16  1  0.318252  0.903125  0.062099  1
  O  O17  1  0.462008  0.571850  0.199585  1
  O  O18  1  0.571850  0.199585  0.462008  1
  O  O19  1  0.206295  0.997882  0.381398  1
  O  O20  1  0.044427  0.956359  0.717463  1
  O  O21  1  0.381398  0.206295  0.997882  1
  O  O22  1  0.658749  0.757566  0.005051  1
  O  O23  1  0.903125  0.062099  0.318252  1
  O  O24  1  0.757566  0.005051  0.658749  1
  O  O25  1  0.384331  0.797295  0.586931  1
  O  O26  1  0.586931  0.384331  0.797295  1
  O  O27  1  0.717463  0.044427  0.956359  1
  O  O28  1  0.997882  0.381398  0.206295  1
  O  O29  1  0.797295  0.586931  0.384331  1
  O  O30  1  0.509462  0.711387  0.872283  1
  O  O31  1  0.956359  0.717463  0.044427  1
  O  O32  1  0.711387  0.872283  0.509462  1
  O  O33  1  0.872283  0.509462  0.711387  1
