# generated using pymatgen
data_Dy7YTa10(TiSi8)2
_symmetry_space_group_name_H-M   'P 1'
_cell_length_a   7.04630330
_cell_length_b   7.04605242
_cell_length_c   12.97839800
_cell_angle_alpha   89.94479000
_cell_angle_beta   90.05417942
_cell_angle_gamma   90.00310298
_symmetry_Int_Tables_number   1
_chemical_formula_structural   Dy7YTa10(TiSi8)2
_chemical_formula_sum   'Dy7 Y1 Ta10 Ti2 Si16'
_cell_volume   644.35899384
_cell_formula_units_Z   1
loop_
 _symmetry_equiv_pos_site_id
 _symmetry_equiv_pos_as_xyz
  1  'x, y, z'
loop_
 _atom_site_type_symbol
 _atom_site_label
 _atom_site_symmetry_multiplicity
 _atom_site_fract_x
 _atom_site_fract_y
 _atom_site_fract_z
 _atom_site_occupancy
  Dy  Dy0  1  0.001994  0.341204  0.532004  1
  Dy  Dy1  1  0.658001  0.998548  0.967430  1
  Dy  Dy2  1  0.159534  0.503059  0.782269  1
  Dy  Dy3  1  0.841357  0.497821  0.282001  1
  Dy  Dy4  1  0.503055  0.159532  0.217724  1
  Dy  Dy5  1  0.497827  0.841353  0.718046  1
  Dy  Dy6  1  0.341203  0.002000  0.468031  1
  Y  Y7  1  0.998371  0.658078  0.032502  1
  Ta  Ta8  1  0.346257  0.508483  0.375982  1
  Ta  Ta9  1  0.847230  0.992384  0.374648  1
  Ta  Ta10  1  0.008124  0.153015  0.126293  1
  Ta  Ta11  1  0.992399  0.847243  0.625350  1
  Ta  Ta12  1  0.508503  0.346264  0.624022  1
  Ta  Ta13  1  0.153076  0.008257  0.873661  1
  Ta  Ta14  1  0.672192  0.672195  0.499994  1
  Ta  Ta15  1  0.829333  0.170396  0.750061  1
  Ta  Ta16  1  0.170441  0.829402  0.250000  1
  Ta  Ta17  1  0.326328  0.326084  0.999987  1
  Ti  Ti18  1  0.492641  0.653010  0.124132  1
  Ti  Ti19  1  0.652927  0.492633  0.875828  1
  Si  Si20  1  0.045571  0.705584  0.435949  1
  Si  Si21  1  0.952597  0.294965  0.935765  1
  Si  Si22  1  0.705595  0.045569  0.564053  1
  Si  Si23  1  0.208173  0.455208  0.185375  1
  Si  Si24  1  0.793699  0.545272  0.687292  1
  Si  Si25  1  0.455286  0.208009  0.814697  1
  Si  Si26  1  0.545286  0.793692  0.312702  1
  Si  Si27  1  0.295215  0.952733  0.064216  1
  Si  Si28  1  0.794974  0.865405  0.181823  1
  Si  Si29  1  0.296752  0.633447  0.568403  1
  Si  Si30  1  0.700992  0.368369  0.066316  1
  Si  Si31  1  0.633442  0.296760  0.431597  1
  Si  Si32  1  0.368610  0.701152  0.933661  1
  Si  Si33  1  0.133672  0.204092  0.317800  1
  Si  Si34  1  0.204092  0.133665  0.682201  1
  Si  Si35  1  0.865257  0.795122  0.818184  1
