# generated using pymatgen
data_Pr8Mg5CdAg20
_symmetry_space_group_name_H-M   'P 1'
_cell_length_a   8.78068803
_cell_length_b   8.78068795
_cell_length_c   10.50083723
_cell_angle_alpha   90.04502475
_cell_angle_beta   89.95497442
_cell_angle_gamma   107.92540790
_symmetry_Int_Tables_number   1
_chemical_formula_structural   Pr8Mg5CdAg20
_chemical_formula_sum   'Pr8 Mg5 Cd1 Ag20'
_cell_volume   770.31869914
_cell_formula_units_Z   1
loop_
 _symmetry_equiv_pos_site_id
 _symmetry_equiv_pos_as_xyz
  1  'x, y, z'
loop_
 _atom_site_type_symbol
 _atom_site_label
 _atom_site_symmetry_multiplicity
 _atom_site_fract_x
 _atom_site_fract_y
 _atom_site_fract_z
 _atom_site_occupancy
  Pr  Pr0  1  0.702175  0.298949  0.000616  1
  Pr  Pr1  1  0.295947  0.700801  0.001543  1
  Pr  Pr2  1  0.798949  0.202175  0.499384  1
  Pr  Pr3  1  0.200801  0.795947  0.498457  1
  Pr  Pr4  1  0.301808  0.304970  0.203635  1
  Pr  Pr5  1  0.696234  0.696139  0.796228  1
  Pr  Pr6  1  0.196139  0.196234  0.703772  1
  Pr  Pr7  1  0.804970  0.801808  0.296365  1
  Mg  Mg8  1  0.981384  0.481384  0.750000  1
  Mg  Mg9  1  0.480949  0.980949  0.750000  1
  Mg  Mg10  1  0.519050  0.019050  0.250000  1
  Mg  Mg11  1  0.999713  0.999676  0.999380  1
  Mg  Mg12  1  0.499676  0.499713  0.500620  1
  Cd  Cd13  1  0.023428  0.523428  0.250000  1
  Ag  Ag14  1  0.097735  0.096396  0.404958  1
  Ag  Ag15  1  0.902476  0.902602  0.595440  1
  Ag  Ag16  1  0.402602  0.402476  0.904560  1
  Ag  Ag17  1  0.596396  0.597735  0.095042  1
  Ag  Ag18  1  0.893889  0.170471  0.205263  1
  Ag  Ag19  1  0.105837  0.826984  0.793884  1
  Ag  Ag20  1  0.605531  0.326471  0.705712  1
  Ag  Ag21  1  0.670471  0.393889  0.294737  1
  Ag  Ag22  1  0.399054  0.674496  0.294829  1
  Ag  Ag23  1  0.326984  0.605837  0.706116  1
  Ag  Ag24  1  0.826471  0.105531  0.794288  1
  Ag  Ag25  1  0.174496  0.899054  0.205171  1
  Ag  Ag26  1  0.930084  0.660855  0.022887  1
  Ag  Ag27  1  0.068024  0.338260  0.972083  1
  Ag  Ag28  1  0.567877  0.840418  0.526049  1
  Ag  Ag29  1  0.160855  0.430084  0.477113  1
  Ag  Ag30  1  0.431956  0.159360  0.473949  1
  Ag  Ag31  1  0.838260  0.568024  0.527917  1
  Ag  Ag32  1  0.340418  0.067877  0.973951  1
  Ag  Ag33  1  0.659360  0.931956  0.026051  1
