# generated using pymatgen
data_Ho3ErSc6(SiGe)4
_symmetry_space_group_name_H-M   'P 1'
_cell_length_a   7.15405925
_cell_length_b   7.39079445
_cell_length_c   14.03801662
_cell_angle_alpha   90.00366800
_cell_angle_beta   90.05500005
_cell_angle_gamma   89.96039639
_symmetry_Int_Tables_number   1
_chemical_formula_structural   Ho3ErSc6(SiGe)4
_chemical_formula_sum   'Ho6 Er2 Sc12 Si8 Ge8'
_cell_volume   742.24811633
_cell_formula_units_Z   2
loop_
 _symmetry_equiv_pos_site_id
 _symmetry_equiv_pos_as_xyz
  1  'x, y, z'
loop_
 _atom_site_type_symbol
 _atom_site_label
 _atom_site_symmetry_multiplicity
 _atom_site_fract_x
 _atom_site_fract_y
 _atom_site_fract_z
 _atom_site_occupancy
  Ho  Ho0  1  0.497273  0.677655  0.901739  1
  Ho  Ho1  1  0.996982  0.822873  0.598384  1
  Ho  Ho2  1  0.502727  0.322345  0.098261  1
  Ho  Ho3  1  0.003018  0.177127  0.401616  1
  Ho  Ho4  1  0.502716  0.322728  0.401338  1
  Ho  Ho5  1  0.497284  0.677272  0.598662  1
  Er  Er6  1  0.002207  0.177248  0.098469  1
  Er  Er7  1  0.997793  0.822752  0.901531  1
  Sc  Sc8  1  0.173055  0.500717  0.750251  1
  Sc  Sc9  1  0.826945  0.499283  0.249749  1
  Sc  Sc10  1  0.326712  0.000737  0.249665  1
  Sc  Sc11  1  0.673288  0.999263  0.750335  1
  Sc  Sc12  1  0.342560  0.172610  0.626377  1
  Sc  Sc13  1  0.657440  0.827390  0.373623  1
  Sc  Sc14  1  0.157470  0.672370  0.373649  1
  Sc  Sc15  1  0.656875  0.827928  0.125949  1
  Sc  Sc16  1  0.842530  0.327630  0.626351  1
  Sc  Sc17  1  0.343125  0.172072  0.874051  1
  Sc  Sc18  1  0.843224  0.327480  0.873752  1
  Sc  Sc19  1  0.156776  0.672520  0.126248  1
  Si  Si20  1  0.045020  0.116618  0.750071  1
  Si  Si21  1  0.954980  0.883382  0.249929  1
  Si  Si22  1  0.455143  0.616987  0.249782  1
  Si  Si23  1  0.544857  0.383013  0.750218  1
  Si  Si24  1  0.295684  0.871378  0.750207  1
  Si  Si25  1  0.704316  0.128622  0.249793  1
  Si  Si26  1  0.203896  0.371046  0.249782  1
  Si  Si27  1  0.796104  0.628954  0.750218  1
  Ge  Ge28  1  0.176448  0.460551  0.541173  1
  Ge  Ge29  1  0.823552  0.539449  0.458827  1
  Ge  Ge30  1  0.324537  0.960379  0.459188  1
  Ge  Ge31  1  0.824091  0.539512  0.040582  1
  Ge  Ge32  1  0.675463  0.039621  0.540812  1
  Ge  Ge33  1  0.175909  0.460488  0.959418  1
  Ge  Ge34  1  0.678247  0.039737  0.959327  1
  Ge  Ge35  1  0.321753  0.960263  0.040673  1
