# generated using pymatgen
data_AlSi2Mo9
_symmetry_space_group_name_H-M   'P 1'
_cell_length_a   4.94586800
_cell_length_b   4.94345400
_cell_length_c   14.75923100
_cell_angle_alpha   90.00000000
_cell_angle_beta   90.00000000
_cell_angle_gamma   90.00000000
_symmetry_Int_Tables_number   1
_chemical_formula_structural   AlSi2Mo9
_chemical_formula_sum   'Al2 Si4 Mo18'
_cell_volume   360.85834140
_cell_formula_units_Z   2
loop_
 _symmetry_equiv_pos_site_id
 _symmetry_equiv_pos_as_xyz
  1  'x, y, z'
loop_
 _atom_site_type_symbol
 _atom_site_label
 _atom_site_symmetry_multiplicity
 _atom_site_fract_x
 _atom_site_fract_y
 _atom_site_fract_z
 _atom_site_occupancy
  Al  Al0  1  0.500000  0.500000  0.833995  1
  Al  Al1  1  0.500000  0.500000  0.499369  1
  Si  Si2  1  0.500000  0.500000  0.166518  1
  Si  Si3  1  0.000000  0.000000  0.999818  1
  Si  Si4  1  0.000000  0.000000  0.666847  1
  Si  Si5  1  0.000000  0.000000  0.333437  1
  Mo  Mo6  1  0.500000  0.000000  0.749573  1
  Mo  Mo7  1  0.500000  0.000000  0.415728  1
  Mo  Mo8  1  0.500000  0.000000  0.083327  1
  Mo  Mo9  1  0.248541  0.500000  0.001870  1
  Mo  Mo10  1  0.248106  0.500000  0.666729  1
  Mo  Mo11  1  0.248669  0.500000  0.331351  1
  Mo  Mo12  1  0.000000  0.751139  0.834042  1
  Mo  Mo13  1  0.000000  0.751138  0.499295  1
  Mo  Mo14  1  0.000000  0.750438  0.166697  1
  Mo  Mo15  1  0.500000  0.000000  0.917611  1
  Mo  Mo16  1  0.500000  0.000000  0.583769  1
  Mo  Mo17  1  0.500000  0.000000  0.250036  1
  Mo  Mo18  1  0.751459  0.500000  0.001870  1
  Mo  Mo19  1  0.751894  0.500000  0.666729  1
  Mo  Mo20  1  0.751331  0.500000  0.331351  1
  Mo  Mo21  1  0.000000  0.248861  0.834042  1
  Mo  Mo22  1  0.000000  0.248862  0.499295  1
  Mo  Mo23  1  0.000000  0.249562  0.166697  1
