# generated using pymatgen
data_Tm10Cd3Os
_symmetry_space_group_name_H-M   'P 1'
_cell_length_a   9.43912200
_cell_length_b   9.43912248
_cell_length_c   9.74515600
_cell_angle_alpha   90.00000000
_cell_angle_beta   90.00000000
_cell_angle_gamma   119.99999830
_symmetry_Int_Tables_number   1
_chemical_formula_structural   Tm10Cd3Os
_chemical_formula_sum   'Tm20 Cd6 Os2'
_cell_volume   751.93907837
_cell_formula_units_Z   2
loop_
 _symmetry_equiv_pos_site_id
 _symmetry_equiv_pos_as_xyz
  1  'x, y, z'
loop_
 _atom_site_type_symbol
 _atom_site_label
 _atom_site_symmetry_multiplicity
 _atom_site_fract_x
 _atom_site_fract_y
 _atom_site_fract_z
 _atom_site_occupancy
  Tm  Tm0  1  0.000000  0.000000  0.500000  1
  Tm  Tm1  1  0.000000  0.000000  0.000000  1
  Tm  Tm2  1  0.209774  0.790226  0.441395  1
  Tm  Tm3  1  0.209774  0.419549  0.441395  1
  Tm  Tm4  1  0.580451  0.790226  0.441395  1
  Tm  Tm5  1  0.790226  0.209774  0.558605  1
  Tm  Tm6  1  0.790226  0.580451  0.558605  1
  Tm  Tm7  1  0.419549  0.209774  0.558605  1
  Tm  Tm8  1  0.790226  0.209774  0.941395  1
  Tm  Tm9  1  0.790226  0.580451  0.941395  1
  Tm  Tm10  1  0.419549  0.209774  0.941395  1
  Tm  Tm11  1  0.209774  0.790226  0.058605  1
  Tm  Tm12  1  0.209774  0.419549  0.058605  1
  Tm  Tm13  1  0.580451  0.790226  0.058605  1
  Tm  Tm14  1  0.539754  0.460246  0.250000  1
  Tm  Tm15  1  0.539754  0.079506  0.250000  1
  Tm  Tm16  1  0.920494  0.460246  0.250000  1
  Tm  Tm17  1  0.460246  0.539754  0.750000  1
  Tm  Tm18  1  0.460246  0.920494  0.750000  1
  Tm  Tm19  1  0.079506  0.539754  0.750000  1
  Cd  Cd20  1  0.885728  0.114272  0.250000  1
  Cd  Cd21  1  0.885728  0.771457  0.250000  1
  Cd  Cd22  1  0.228543  0.114272  0.250000  1
  Cd  Cd23  1  0.114272  0.885728  0.750000  1
  Cd  Cd24  1  0.114272  0.228543  0.750000  1
  Cd  Cd25  1  0.771457  0.885728  0.750000  1
  Os  Os26  1  0.333333  0.666667  0.250000  1
  Os  Os27  1  0.666667  0.333333  0.750000  1
