# generated using pymatgen
data_Hf3B2Ir2Ru3
_symmetry_space_group_name_H-M   'P 1'
_cell_length_a   9.59910700
_cell_length_b   9.54207100
_cell_length_c   3.11517900
_cell_angle_alpha   90.00000000
_cell_angle_beta   90.00000000
_cell_angle_gamma   90.00000000
_symmetry_Int_Tables_number   1
_chemical_formula_structural   Hf3B2Ir2Ru3
_chemical_formula_sum   'Hf6 B4 Ir4 Ru6'
_cell_volume   285.33594362
_cell_formula_units_Z   2
loop_
 _symmetry_equiv_pos_site_id
 _symmetry_equiv_pos_as_xyz
  1  'x, y, z'
loop_
 _atom_site_type_symbol
 _atom_site_label
 _atom_site_symmetry_multiplicity
 _atom_site_fract_x
 _atom_site_fract_y
 _atom_site_fract_z
 _atom_site_occupancy
  Hf  Hf0  1  0.825333  0.673109  0.000000  1
  Hf  Hf1  1  0.174667  0.326891  0.000000  1
  Hf  Hf2  1  0.325333  0.826891  0.000000  1
  Hf  Hf3  1  0.674667  0.173109  0.000000  1
  Hf  Hf4  1  0.500000  0.500000  0.000000  1
  Hf  Hf5  1  0.000000  0.000000  0.000000  1
  B  B6  1  0.625499  0.884085  0.000000  1
  B  B7  1  0.374501  0.115915  0.000000  1
  B  B8  1  0.125499  0.615915  0.000000  1
  B  B9  1  0.874501  0.384085  0.000000  1
  Ir  Ir10  1  0.572012  0.722491  0.500000  1
  Ir  Ir11  1  0.427988  0.277509  0.500000  1
  Ir  Ir12  1  0.072012  0.777509  0.500000  1
  Ir  Ir13  1  0.927988  0.222491  0.500000  1
  Ru  Ru14  1  0.279514  0.571338  0.500000  1
  Ru  Ru15  1  0.720486  0.428662  0.500000  1
  Ru  Ru16  1  0.220486  0.071338  0.500000  1
  Ru  Ru17  1  0.779514  0.928662  0.500000  1
  Ru  Ru18  1  0.500000  0.000000  0.500000  1
  Ru  Ru19  1  0.000000  0.500000  0.500000  1
