# generated using pymatgen
data_Na4SmPaTe6
_symmetry_space_group_name_H-M   'P 1'
_cell_length_a   7.63122844
_cell_length_b   7.63122808
_cell_length_c   7.96236700
_cell_angle_alpha   99.23034273
_cell_angle_beta   99.23034989
_cell_angle_gamma   120.06015131
_symmetry_Int_Tables_number   1
_chemical_formula_structural   Na4SmPaTe6
_chemical_formula_sum   'Na4 Sm1 Pa1 Te6'
_cell_volume   380.07465500
_cell_formula_units_Z   1
loop_
 _symmetry_equiv_pos_site_id
 _symmetry_equiv_pos_as_xyz
  1  'x, y, z'
loop_
 _atom_site_type_symbol
 _atom_site_label
 _atom_site_symmetry_multiplicity
 _atom_site_fract_x
 _atom_site_fract_y
 _atom_site_fract_z
 _atom_site_occupancy
  Na  Na0  1  0.000059  0.999941  0.000000  1
  Na  Na1  1  0.842866  0.157134  0.500000  1
  Na  Na2  1  0.499379  0.500621  0.500000  1
  Na  Na3  1  0.158268  0.841732  0.500000  1
  Sm  Sm4  1  0.332149  0.667851  0.000000  1
  Pa  Pa5  1  0.667815  0.332185  0.000000  1
  Te  Te6  1  0.735773  0.726053  0.235510  1
  Te  Te7  1  0.434662  0.090952  0.237644  1
  Te  Te8  1  0.070008  0.423974  0.239092  1
  Te  Te9  1  0.909048  0.565338  0.762355  1
  Te  Te10  1  0.576026  0.929992  0.760907  1
  Te  Te11  1  0.273947  0.264227  0.764490  1
