# generated using pymatgen
data_CrMoP4PbO14
_symmetry_space_group_name_H-M   'P 1'
_cell_length_a   4.93523743
_cell_length_b   7.25135294
_cell_length_c   8.20083121
_cell_angle_alpha   90.10189452
_cell_angle_beta   91.97608132
_cell_angle_gamma   105.28245215
_symmetry_Int_Tables_number   1
_chemical_formula_structural   CrMoP4PbO14
_chemical_formula_sum   'Cr1 Mo1 P4 Pb1 O14'
_cell_volume   282.91988801
_cell_formula_units_Z   1
loop_
 _symmetry_equiv_pos_site_id
 _symmetry_equiv_pos_as_xyz
  1  'x, y, z'
loop_
 _atom_site_type_symbol
 _atom_site_label
 _atom_site_symmetry_multiplicity
 _atom_site_fract_x
 _atom_site_fract_y
 _atom_site_fract_z
 _atom_site_occupancy
  Cr  Cr0  1  0.500000  0.000000  0.000000  1
  Mo  Mo1  1  0.000000  0.500000  0.500000  1
  P  P2  1  0.377022  0.267794  0.287775  1
  P  P3  1  0.622978  0.732206  0.712225  1
  P  P4  1  0.023051  0.111461  0.758170  1
  P  P5  1  0.976949  0.888539  0.241830  1
  Pb  Pb6  1  0.000000  0.500000  0.000000  1
  O  O7  1  0.284952  0.048598  0.803952  1
  O  O8  1  0.715048  0.951402  0.196048  1
  O  O9  1  0.136807  0.848512  0.090433  1
  O  O10  1  0.863193  0.151488  0.909567  1
  O  O11  1  0.194249  0.059014  0.342236  1
  O  O12  1  0.805751  0.940986  0.657764  1
  O  O13  1  0.177836  0.401940  0.282715  1
  O  O14  1  0.822164  0.598060  0.717285  1
  O  O15  1  0.606881  0.321759  0.417276  1
  O  O16  1  0.393119  0.678241  0.582724  1
  O  O17  1  0.089458  0.286139  0.651699  1
  O  O18  1  0.910542  0.713861  0.348301  1
  O  O19  1  0.473797  0.251020  0.110571  1
  O  O20  1  0.526203  0.748980  0.889429  1
