# generated using pymatgen
data_LiY7Tm9Cd3Ni4
_symmetry_space_group_name_H-M   'P 1'
_cell_length_a   9.49255863
_cell_length_b   9.49255968
_cell_length_c   9.49145900
_cell_angle_alpha   59.84067827
_cell_angle_beta   59.84067354
_cell_angle_gamma   59.94403915
_symmetry_Int_Tables_number   1
_chemical_formula_structural   LiY7Tm9Cd3Ni4
_chemical_formula_sum   'Li1 Y7 Tm9 Cd3 Ni4'
_cell_volume   603.04734922
_cell_formula_units_Z   1
loop_
 _symmetry_equiv_pos_site_id
 _symmetry_equiv_pos_as_xyz
  1  'x, y, z'
loop_
 _atom_site_type_symbol
 _atom_site_label
 _atom_site_symmetry_multiplicity
 _atom_site_fract_x
 _atom_site_fract_y
 _atom_site_fract_z
 _atom_site_occupancy
  Li  Li0  1  0.820687  0.820687  0.820940  1
  Y  Y1  1  0.064201  0.064201  0.436150  1
  Y  Y2  1  0.187425  0.812298  0.814028  1
  Y  Y3  1  0.811853  0.188181  0.187278  1
  Y  Y4  1  0.812298  0.187425  0.814028  1
  Y  Y5  1  0.188181  0.811853  0.187278  1
  Y  Y6  1  0.812808  0.812808  0.186769  1
  Y  Y7  1  0.187413  0.187413  0.812892  1
  Tm  Tm8  1  0.597640  0.597640  0.598085  1
  Tm  Tm9  1  0.596586  0.596586  0.208903  1
  Tm  Tm10  1  0.595309  0.209958  0.596946  1
  Tm  Tm11  1  0.209958  0.595309  0.596946  1
  Tm  Tm12  1  0.061945  0.440546  0.439366  1
  Tm  Tm13  1  0.436634  0.064494  0.063831  1
  Tm  Tm14  1  0.440546  0.061945  0.439366  1
  Tm  Tm15  1  0.064494  0.436634  0.063831  1
  Tm  Tm16  1  0.439271  0.439271  0.062462  1
  Cd  Cd17  1  0.831197  0.831197  0.507802  1
  Cd  Cd18  1  0.831522  0.508029  0.831204  1
  Cd  Cd19  1  0.508029  0.831522  0.831204  1
  Ni  Ni20  1  0.392152  0.392152  0.392268  1
  Ni  Ni21  1  0.392433  0.392433  0.824378  1
  Ni  Ni22  1  0.395226  0.822191  0.392022  1
  Ni  Ni23  1  0.822191  0.395226  0.392022  1
