# generated using pymatgen
data_Hf6Si7Ni9Ir7
_symmetry_space_group_name_H-M   'P 1'
_cell_length_a   8.32733375
_cell_length_b   8.32299355
_cell_length_c   8.32299387
_cell_angle_alpha   59.95676412
_cell_angle_beta   59.92331134
_cell_angle_gamma   59.92330016
_symmetry_Int_Tables_number   1
_chemical_formula_structural   Hf6Si7Ni9Ir7
_chemical_formula_sum   'Hf6 Si7 Ni9 Ir7'
_cell_volume   407.29014743
_cell_formula_units_Z   1
loop_
 _symmetry_equiv_pos_site_id
 _symmetry_equiv_pos_as_xyz
  1  'x, y, z'
loop_
 _atom_site_type_symbol
 _atom_site_label
 _atom_site_symmetry_multiplicity
 _atom_site_fract_x
 _atom_site_fract_y
 _atom_site_fract_z
 _atom_site_occupancy
  Hf  Hf0  1  0.798050  0.203096  0.797601  1
  Hf  Hf1  1  0.798050  0.797601  0.203096  1
  Hf  Hf2  1  0.205358  0.796236  0.796236  1
  Hf  Hf3  1  0.204460  0.200968  0.797869  1
  Hf  Hf4  1  0.798349  0.201695  0.201695  1
  Hf  Hf5  1  0.204460  0.797869  0.200968  1
  Si  Si6  1  0.992769  0.506461  0.991327  1
  Si  Si7  1  0.502764  0.506294  0.506294  1
  Si  Si8  1  0.506218  0.499168  0.991506  1
  Si  Si9  1  0.506218  0.991506  0.499168  1
  Si  Si10  1  0.987840  0.506400  0.506400  1
  Si  Si11  1  0.992769  0.991327  0.506461  1
  Si  Si12  1  0.506802  0.997683  0.997683  1
  Ni  Ni13  1  0.829432  0.833551  0.833551  1
  Ni  Ni14  1  0.849815  0.385837  0.385837  1
  Ni  Ni15  1  0.390108  0.382288  0.852629  1
  Ni  Ni16  1  0.390108  0.852629  0.382288  1
  Ni  Ni17  1  0.506240  0.829274  0.829274  1
  Ni  Ni18  1  0.619530  0.619095  0.619095  1
  Ni  Ni19  1  0.825732  0.831102  0.504584  1
  Ni  Ni20  1  0.503493  0.163521  0.163521  1
  Ni  Ni21  1  0.825732  0.504584  0.831102  1
  Ir  Ir22  1  0.161172  0.162529  0.162529  1
  Ir  Ir23  1  0.621462  0.623065  0.145134  1
  Ir  Ir24  1  0.389742  0.378425  0.378425  1
  Ir  Ir25  1  0.159649  0.511754  0.160237  1
  Ir  Ir26  1  0.159649  0.160237  0.511754  1
  Ir  Ir27  1  0.142566  0.620671  0.620671  1
  Ir  Ir28  1  0.621462  0.145134  0.623065  1
