# generated using pymatgen
data_K4RhO4
_symmetry_space_group_name_H-M   'P 1'
_cell_length_a   5.62186858
_cell_length_b   5.62186850
_cell_length_c   6.24980683
_cell_angle_alpha   76.88049320
_cell_angle_beta   76.88049605
_cell_angle_gamma   69.37300638
_symmetry_Int_Tables_number   1
_chemical_formula_structural   K4RhO4
_chemical_formula_sum   'K4 Rh1 O4'
_cell_volume   177.68211465
_cell_formula_units_Z   1
loop_
 _symmetry_equiv_pos_site_id
 _symmetry_equiv_pos_as_xyz
  1  'x, y, z'
loop_
 _atom_site_type_symbol
 _atom_site_label
 _atom_site_symmetry_multiplicity
 _atom_site_fract_x
 _atom_site_fract_y
 _atom_site_fract_z
 _atom_site_occupancy
  K  K0  1  0.378030  0.378030  0.865839  1
  K  K1  1  0.807591  0.807591  0.581188  1
  K  K2  1  0.621970  0.621970  0.134161  1
  K  K3  1  0.192409  0.192409  0.418812  1
  Rh  Rh4  1  0.000000  0.000000  0.000000  1
  O  O5  1  0.896479  0.324125  0.799977  1
  O  O6  1  0.324125  0.896479  0.799977  1
  O  O7  1  0.675875  0.103521  0.200023  1
  O  O8  1  0.103521  0.675875  0.200023  1
