# generated using pymatgen
data_Y20Al3Fe2Au3
_symmetry_space_group_name_H-M   'P 1'
_cell_length_a   9.59433000
_cell_length_b   9.59432869
_cell_length_c   9.57212900
_cell_angle_alpha   90.00000000
_cell_angle_beta   90.00000000
_cell_angle_gamma   120.00000452
_symmetry_Int_Tables_number   1
_chemical_formula_structural   Y20Al3Fe2Au3
_chemical_formula_sum   'Y20 Al3 Fe2 Au3'
_cell_volume   763.07706324
_cell_formula_units_Z   1
loop_
 _symmetry_equiv_pos_site_id
 _symmetry_equiv_pos_as_xyz
  1  'x, y, z'
loop_
 _atom_site_type_symbol
 _atom_site_label
 _atom_site_symmetry_multiplicity
 _atom_site_fract_x
 _atom_site_fract_y
 _atom_site_fract_z
 _atom_site_occupancy
  Y  Y0  1  0.000000  0.000000  0.463828  1
  Y  Y1  1  0.000000  0.000000  0.036172  1
  Y  Y2  1  0.211316  0.788684  0.438483  1
  Y  Y3  1  0.211316  0.422635  0.438483  1
  Y  Y4  1  0.577365  0.788684  0.438483  1
  Y  Y5  1  0.791833  0.208167  0.564818  1
  Y  Y6  1  0.791833  0.583665  0.564818  1
  Y  Y7  1  0.416335  0.208167  0.564818  1
  Y  Y8  1  0.791833  0.208167  0.935182  1
  Y  Y9  1  0.791833  0.583665  0.935182  1
  Y  Y10  1  0.416335  0.208167  0.935182  1
  Y  Y11  1  0.211316  0.788684  0.061517  1
  Y  Y12  1  0.211316  0.422635  0.061517  1
  Y  Y13  1  0.577365  0.788684  0.061517  1
  Y  Y14  1  0.539961  0.460039  0.250000  1
  Y  Y15  1  0.539961  0.079923  0.250000  1
  Y  Y16  1  0.920077  0.460039  0.250000  1
  Y  Y17  1  0.458106  0.541894  0.750000  1
  Y  Y18  1  0.458106  0.916212  0.750000  1
  Y  Y19  1  0.083788  0.541894  0.750000  1
  Al  Al20  1  0.103156  0.896844  0.750000  1
  Al  Al21  1  0.103156  0.206312  0.750000  1
  Al  Al22  1  0.793688  0.896844  0.750000  1
  Fe  Fe23  1  0.333333  0.666667  0.250000  1
  Fe  Fe24  1  0.666667  0.333333  0.750000  1
  Au  Au25  1  0.869819  0.130181  0.250000  1
  Au  Au26  1  0.869819  0.739640  0.250000  1
  Au  Au27  1  0.260360  0.130181  0.250000  1
