# generated using pymatgen
data_NdYGa2NiRh
_symmetry_space_group_name_H-M   'P 1'
_cell_length_a   4.40694800
_cell_length_b   6.96347100
_cell_length_c   7.55190200
_cell_angle_alpha   90.00000000
_cell_angle_beta   90.00000000
_cell_angle_gamma   90.00000000
_symmetry_Int_Tables_number   1
_chemical_formula_structural   NdYGa2NiRh
_chemical_formula_sum   'Nd2 Y2 Ga4 Ni2 Rh2'
_cell_volume   231.75016012
_cell_formula_units_Z   2
loop_
 _symmetry_equiv_pos_site_id
 _symmetry_equiv_pos_as_xyz
  1  'x, y, z'
loop_
 _atom_site_type_symbol
 _atom_site_label
 _atom_site_symmetry_multiplicity
 _atom_site_fract_x
 _atom_site_fract_y
 _atom_site_fract_z
 _atom_site_occupancy
  Nd  Nd0  1  0.750000  0.982068  0.191794  1
  Nd  Nd1  1  0.750000  0.482068  0.308206  1
  Y  Y2  1  0.250000  0.024511  0.805290  1
  Y  Y3  1  0.250000  0.524511  0.694710  1
  Ga  Ga4  1  0.250000  0.171683  0.435318  1
  Ga  Ga5  1  0.250000  0.671683  0.064682  1
  Ga  Ga6  1  0.750000  0.833301  0.590174  1
  Ga  Ga7  1  0.750000  0.333301  0.909826  1
  Ni  Ni8  1  0.750000  0.205584  0.601360  1
  Ni  Ni9  1  0.750000  0.705584  0.898640  1
  Rh  Rh10  1  0.250000  0.782853  0.406243  1
  Rh  Rh11  1  0.250000  0.282853  0.093757  1
