# generated using pymatgen
data_Sr5CeSb6
_symmetry_space_group_name_H-M   'P 1'
_cell_length_a   8.75266500
_cell_length_b   8.74043529
_cell_length_c   6.68226700
_cell_angle_alpha   90.00000000
_cell_angle_beta   90.00000000
_cell_angle_gamma   120.04630012
_symmetry_Int_Tables_number   1
_chemical_formula_structural   Sr5CeSb6
_chemical_formula_sum   'Sr5 Ce1 Sb6'
_cell_volume   442.51196190
_cell_formula_units_Z   1
loop_
 _symmetry_equiv_pos_site_id
 _symmetry_equiv_pos_as_xyz
  1  'x, y, z'
loop_
 _atom_site_type_symbol
 _atom_site_label
 _atom_site_symmetry_multiplicity
 _atom_site_fract_x
 _atom_site_fract_y
 _atom_site_fract_z
 _atom_site_occupancy
  Sr  Sr0  1  0.680580  0.000000  0.000000  1
  Sr  Sr1  1  0.328703  0.338392  0.000000  1
  Sr  Sr2  1  0.990312  0.661608  0.000000  1
  Sr  Sr3  1  0.000056  0.341309  0.500000  1
  Sr  Sr4  1  0.658748  0.658691  0.500000  1
  Ce  Ce5  1  0.340745  0.000000  0.500000  1
  Sb  Sb6  1  0.654367  0.320402  0.251006  1
  Sb  Sb7  1  0.333965  0.679598  0.251006  1
  Sb  Sb8  1  0.012097  0.000000  0.271668  1
  Sb  Sb9  1  0.012097  0.000000  0.728333  1
  Sb  Sb10  1  0.654367  0.320402  0.748995  1
  Sb  Sb11  1  0.333965  0.679598  0.748995  1
