# generated using pymatgen
data_LuMgReH6
_symmetry_space_group_name_H-M   'P 1'
_cell_length_a   4.84833138
_cell_length_b   4.84839199
_cell_length_c   4.84835500
_cell_angle_alpha   119.99995102
_cell_angle_beta   119.99967238
_cell_angle_gamma   90.00008539
_symmetry_Int_Tables_number   1
_chemical_formula_structural   LuMgReH6
_chemical_formula_sum   'Lu1 Mg1 Re1 H6'
_cell_volume   80.58822369
_cell_formula_units_Z   1
loop_
 _symmetry_equiv_pos_site_id
 _symmetry_equiv_pos_as_xyz
  1  'x, y, z'
loop_
 _atom_site_type_symbol
 _atom_site_label
 _atom_site_symmetry_multiplicity
 _atom_site_fract_x
 _atom_site_fract_y
 _atom_site_fract_z
 _atom_site_occupancy
  Lu  Lu0  1  0.749998  0.250002  0.499989  1
  Mg  Mg1  1  0.249989  0.749989  0.499988  1
  Re  Re2  1  0.000002  0.000002  0.000002  1
  H  H3  1  0.255879  0.255878  0.000002  1
  H  H4  1  0.744122  0.255881  0.000003  1
  H  H5  1  0.255881  0.744120  0.000002  1
  H  H6  1  0.744120  0.744120  0.000002  1
  H  H7  1  0.744122  0.744121  0.488242  1
  H  H8  1  0.255881  0.255882  0.511764  1
