# generated using pymatgen
data_Tm6Fe2Si5Ni
_symmetry_space_group_name_H-M   'P 1'
_cell_length_a   4.06286333
_cell_length_b   5.53500010
_cell_length_c   12.74018137
_cell_angle_alpha   94.89848448
_cell_angle_beta   99.17502398
_cell_angle_gamma   68.46832704
_symmetry_Int_Tables_number   1
_chemical_formula_structural   Tm6Fe2Si5Ni
_chemical_formula_sum   'Tm6 Fe2 Si5 Ni1'
_cell_volume   262.98468270
_cell_formula_units_Z   1
loop_
 _symmetry_equiv_pos_site_id
 _symmetry_equiv_pos_as_xyz
  1  'x, y, z'
loop_
 _atom_site_type_symbol
 _atom_site_label
 _atom_site_symmetry_multiplicity
 _atom_site_fract_x
 _atom_site_fract_y
 _atom_site_fract_z
 _atom_site_occupancy
  Tm  Tm0  1  0.398020  0.284213  0.080251  1
  Tm  Tm1  1  0.745049  0.736314  0.226412  1
  Tm  Tm2  1  0.526159  0.329162  0.381477  1
  Tm  Tm3  1  0.474603  0.668999  0.618203  1
  Tm  Tm4  1  0.251774  0.265035  0.768584  1
  Tm  Tm5  1  0.605353  0.714900  0.925603  1
  Fe  Fe6  1  0.246792  0.923440  0.417022  1
  Fe  Fe7  1  0.754327  0.077178  0.585830  1
  Si  Si8  1  0.056260  0.129892  0.242411  1
  Si  Si9  1  0.855349  0.743616  0.454315  1
  Si  Si10  1  0.142808  0.258552  0.544168  1
  Si  Si11  1  0.944809  0.866837  0.756455  1
  Si  Si12  1  0.893144  0.135818  0.922104  1
  Ni  Ni13  1  0.105560  0.866046  0.077165  1
