# generated using pymatgen
data_Li2Sc(TiIr2)3
_symmetry_space_group_name_H-M   'P 1'
_cell_length_a   4.36101200
_cell_length_b   6.14537100
_cell_length_c   13.00292900
_cell_angle_alpha   90.00000000
_cell_angle_beta   89.99729842
_cell_angle_gamma   90.00000000
_symmetry_Int_Tables_number   1
_chemical_formula_structural   Li2Sc(TiIr2)3
_chemical_formula_sum   'Li4 Sc2 Ti6 Ir12'
_cell_volume   348.47897389
_cell_formula_units_Z   2
loop_
 _symmetry_equiv_pos_site_id
 _symmetry_equiv_pos_as_xyz
  1  'x, y, z'
loop_
 _atom_site_type_symbol
 _atom_site_label
 _atom_site_symmetry_multiplicity
 _atom_site_fract_x
 _atom_site_fract_y
 _atom_site_fract_z
 _atom_site_occupancy
  Li  Li0  1  0.999611  0.000000  0.336067  1
  Li  Li1  1  0.499983  0.500000  0.501136  1
  Li  Li2  1  0.000390  0.000000  0.665534  1
  Li  Li3  1  0.500335  0.500000  0.830586  1
  Sc  Sc4  1  0.999977  0.000000  0.995582  1
  Sc  Sc5  1  0.499675  0.500000  0.171073  1
  Ti  Ti6  1  0.999945  0.500000  0.989976  1
  Ti  Ti7  1  0.499702  0.000000  0.176705  1
  Ti  Ti8  1  0.999637  0.500000  0.346464  1
  Ti  Ti9  1  0.500024  0.000000  0.505253  1
  Ti  Ti10  1  0.000350  0.500000  0.661406  1
  Ti  Ti11  1  0.500299  0.000000  0.820188  1
  Ir  Ir12  1  0.499990  0.253194  0.997385  1
  Ir  Ir13  1  0.499990  0.746806  0.997385  1
  Ir  Ir14  1  0.999681  0.246807  0.169280  1
  Ir  Ir15  1  0.999681  0.753192  0.169280  1
  Ir  Ir16  1  0.499666  0.247103  0.338962  1
  Ir  Ir17  1  0.499666  0.752898  0.338962  1
  Ir  Ir18  1  0.000008  0.246407  0.501682  1
  Ir  Ir19  1  0.000008  0.753592  0.501682  1
  Ir  Ir20  1  0.500355  0.253616  0.664997  1
  Ir  Ir21  1  0.500355  0.746385  0.664997  1
  Ir  Ir22  1  0.000330  0.252888  0.827708  1
  Ir  Ir23  1  0.000330  0.747111  0.827708  1
