# generated using pymatgen
data_TbEr5(Lu2Sn3)2
_symmetry_space_group_name_H-M   'P 1'
_cell_length_a   8.86257358
_cell_length_b   8.85148557
_cell_length_c   6.44300700
_cell_angle_alpha   90.00000000
_cell_angle_beta   90.00000000
_cell_angle_gamma   119.95862412
_symmetry_Int_Tables_number   1
_chemical_formula_structural   TbEr5(Lu2Sn3)2
_chemical_formula_sum   'Tb1 Er5 Lu4 Sn6'
_cell_volume   437.90123905
_cell_formula_units_Z   1
loop_
 _symmetry_equiv_pos_site_id
 _symmetry_equiv_pos_as_xyz
  1  'x, y, z'
loop_
 _atom_site_type_symbol
 _atom_site_label
 _atom_site_symmetry_multiplicity
 _atom_site_fract_x
 _atom_site_fract_y
 _atom_site_fract_z
 _atom_site_occupancy
  Tb  Tb0  1  0.000000  0.761973  0.250000  1
  Er  Er1  1  0.761227  0.761788  0.750000  1
  Er  Er2  1  0.238773  0.000559  0.750000  1
  Er  Er3  1  0.000000  0.237867  0.750000  1
  Er  Er4  1  0.238599  0.238391  0.250000  1
  Er  Er5  1  0.761401  0.999792  0.250000  1
  Lu  Lu6  1  0.666787  0.333348  0.999970  1
  Lu  Lu7  1  0.333213  0.666561  0.999970  1
  Lu  Lu8  1  0.333213  0.666561  0.500030  1
  Lu  Lu9  1  0.666787  0.333348  0.500030  1
  Sn  Sn10  1  0.395915  0.396045  0.750000  1
  Sn  Sn11  1  0.604085  0.000129  0.750000  1
  Sn  Sn12  1  0.000000  0.603886  0.750000  1
  Sn  Sn13  1  0.602889  0.603596  0.250000  1
  Sn  Sn14  1  0.397111  0.000708  0.250000  1
  Sn  Sn15  1  0.000000  0.395445  0.250000  1
