# generated using pymatgen
data_Zr4Ti3ReP4
_symmetry_space_group_name_H-M   'P 1'
_cell_length_a   3.56584400
_cell_length_b   6.76929354
_cell_length_c   8.12243871
_cell_angle_alpha   90.01475360
_cell_angle_beta   90.00000000
_cell_angle_gamma   90.00000000
_symmetry_Int_Tables_number   1
_chemical_formula_structural   Zr4Ti3ReP4
_chemical_formula_sum   'Zr4 Ti3 Re1 P4'
_cell_volume   196.06140711
_cell_formula_units_Z   1
loop_
 _symmetry_equiv_pos_site_id
 _symmetry_equiv_pos_as_xyz
  1  'x, y, z'
loop_
 _atom_site_type_symbol
 _atom_site_label
 _atom_site_symmetry_multiplicity
 _atom_site_fract_x
 _atom_site_fract_y
 _atom_site_fract_z
 _atom_site_occupancy
  Zr  Zr0  1  0.250000  0.533357  0.167307  1
  Zr  Zr1  1  0.750000  0.460805  0.830654  1
  Zr  Zr2  1  0.750000  0.966639  0.672188  1
  Zr  Zr3  1  0.250000  0.036257  0.326749  1
  Ti  Ti4  1  0.250000  0.634750  0.561830  1
  Ti  Ti5  1  0.750000  0.362252  0.440485  1
  Ti  Ti6  1  0.750000  0.869877  0.057122  1
  Re  Re7  1  0.250000  0.134607  0.942072  1
  P  P8  1  0.250000  0.761987  0.860365  1
  P  P9  1  0.750000  0.240008  0.141332  1
  P  P10  1  0.750000  0.737080  0.362304  1
  P  P11  1  0.250000  0.262382  0.637590  1
