# generated using pymatgen
data_Hf2Zr2Pd7Pt5
_symmetry_space_group_name_H-M   'P 1'
_cell_length_a   5.70361395
_cell_length_b   5.70112089
_cell_length_c   9.32002030
_cell_angle_alpha   90.00000067
_cell_angle_beta   89.83624895
_cell_angle_gamma   119.98554943
_symmetry_Int_Tables_number   1
_chemical_formula_structural   Hf2Zr2Pd7Pt5
_chemical_formula_sum   'Hf2 Zr2 Pd7 Pt5'
_cell_volume   262.49360002
_cell_formula_units_Z   1
loop_
 _symmetry_equiv_pos_site_id
 _symmetry_equiv_pos_as_xyz
  1  'x, y, z'
loop_
 _atom_site_type_symbol
 _atom_site_label
 _atom_site_symmetry_multiplicity
 _atom_site_fract_x
 _atom_site_fract_y
 _atom_site_fract_z
 _atom_site_occupancy
  Hf  Hf0  1  0.665109  0.332553  0.749682  1
  Hf  Hf1  1  0.334891  0.667447  0.250318  1
  Zr  Zr2  1  0.000000  0.000000  0.500000  1
  Zr  Zr3  1  0.000000  0.000000  0.000000  1
  Pd  Pd4  1  0.168544  0.338788  0.750489  1
  Pd  Pd5  1  0.831456  0.170243  0.249511  1
  Pd  Pd6  1  0.340338  0.170169  0.249131  1
  Pd  Pd7  1  0.659662  0.829831  0.750869  1
  Pd  Pd8  1  0.000000  0.500000  0.000000  1
  Pd  Pd9  1  0.831456  0.661212  0.249511  1
  Pd  Pd10  1  0.168544  0.829757  0.750489  1
  Pt  Pt11  1  0.500000  0.000000  0.000000  1
  Pt  Pt12  1  0.500000  0.500000  0.500000  1
  Pt  Pt13  1  0.000000  0.500000  0.500000  1
  Pt  Pt14  1  0.500000  0.500000  0.000000  1
  Pt  Pt15  1  0.500000  0.000000  0.500000  1
