# generated using pymatgen
data_YLu2Co9(SiB2)2
_symmetry_space_group_name_H-M   'P 1'
_cell_length_a   5.08005605
_cell_length_b   5.08006681
_cell_length_c   9.30032000
_cell_angle_alpha   89.99989068
_cell_angle_beta   90.00012719
_cell_angle_gamma   120.00978768
_symmetry_Int_Tables_number   1
_chemical_formula_structural   YLu2Co9(SiB2)2
_chemical_formula_sum   'Y1 Lu2 Co9 Si2 B4'
_cell_volume   207.83735624
_cell_formula_units_Z   1
loop_
 _symmetry_equiv_pos_site_id
 _symmetry_equiv_pos_as_xyz
  1  'x, y, z'
loop_
 _atom_site_type_symbol
 _atom_site_label
 _atom_site_symmetry_multiplicity
 _atom_site_fract_x
 _atom_site_fract_y
 _atom_site_fract_z
 _atom_site_occupancy
  Y  Y0  1  0.999989  0.000000  0.999972  1
  Lu  Lu1  1  0.999994  0.999999  0.338916  1
  Lu  Lu2  1  0.000003  0.000009  0.661058  1
  Co  Co3  1  0.499996  0.000001  0.499963  1
  Co  Co4  1  0.499995  0.500000  0.499974  1
  Co  Co5  1  0.999997  0.499999  0.499989  1
  Co  Co6  1  0.499989  0.999999  0.197345  1
  Co  Co7  1  0.499990  0.499999  0.197328  1
  Co  Co8  1  0.999990  0.500000  0.197318  1
  Co  Co9  1  0.500001  0.000002  0.802696  1
  Co  Co10  1  0.499997  0.499999  0.802711  1
  Co  Co11  1  0.999995  0.499997  0.802715  1
  Si  Si12  1  0.333345  0.666686  0.000002  1
  Si  Si13  1  0.666635  0.333314  0.000002  1
  B  B14  1  0.333276  0.666624  0.345900  1
  B  B15  1  0.666708  0.333373  0.345899  1
  B  B16  1  0.666659  0.333311  0.654106  1
  B  B17  1  0.333336  0.666686  0.654107  1
