# generated using pymatgen
data_Pr7Nd3Sn2(Bi2Br)2
_symmetry_space_group_name_H-M   'P 1'
_cell_length_a   9.73945914
_cell_length_b   9.65360156
_cell_length_c   6.77177807
_cell_angle_alpha   89.99025575
_cell_angle_beta   90.01677052
_cell_angle_gamma   120.30394910
_symmetry_Int_Tables_number   1
_chemical_formula_structural   Pr7Nd3Sn2(Bi2Br)2
_chemical_formula_sum   'Pr7 Nd3 Sn2 Bi4 Br2'
_cell_volume   549.69175253
_cell_formula_units_Z   1
loop_
 _symmetry_equiv_pos_site_id
 _symmetry_equiv_pos_as_xyz
  1  'x, y, z'
loop_
 _atom_site_type_symbol
 _atom_site_label
 _atom_site_symmetry_multiplicity
 _atom_site_fract_x
 _atom_site_fract_y
 _atom_site_fract_z
 _atom_site_occupancy
  Pr  Pr0  1  0.275127  0.000116  0.749740  1
  Pr  Pr1  1  0.724983  0.000104  0.250256  1
  Pr  Pr2  1  0.995382  0.267176  0.749785  1
  Pr  Pr3  1  0.004569  0.732901  0.250234  1
  Pr  Pr4  1  0.728294  0.732890  0.749765  1
  Pr  Pr5  1  0.271834  0.267196  0.250217  1
  Pr  Pr6  1  0.335544  0.671072  0.000000  1
  Nd  Nd7  1  0.335725  0.671424  0.499997  1
  Nd  Nd8  1  0.664263  0.328546  0.500003  1
  Nd  Nd9  1  0.664160  0.328334  0.999999  1
  Sn  Sn10  1  0.613611  0.000880  0.749387  1
  Sn  Sn11  1  0.387304  0.000951  0.250614  1
  Bi  Bi12  1  0.998043  0.614378  0.749458  1
  Bi  Bi13  1  0.000365  0.384822  0.250585  1
  Bi  Bi14  1  0.384492  0.384829  0.749417  1
  Bi  Bi15  1  0.616297  0.614369  0.250543  1
  Br  Br16  1  0.999999  0.000000  0.500001  1
  Br  Br17  1  0.000007  0.000013  0.999997  1
