# generated using pymatgen
data_YTm3Ga12Fe
_symmetry_space_group_name_H-M   'P 1'
_cell_length_a   7.38874414
_cell_length_b   7.38874322
_cell_length_c   7.39860519
_cell_angle_alpha   109.45448689
_cell_angle_beta   109.45448650
_cell_angle_gamma   109.49383648
_symmetry_Int_Tables_number   1
_chemical_formula_structural   YTm3Ga12Fe
_chemical_formula_sum   'Y1 Tm3 Ga12 Fe1'
_cell_volume   310.97627950
_cell_formula_units_Z   1
loop_
 _symmetry_equiv_pos_site_id
 _symmetry_equiv_pos_as_xyz
  1  'x, y, z'
loop_
 _atom_site_type_symbol
 _atom_site_label
 _atom_site_symmetry_multiplicity
 _atom_site_fract_x
 _atom_site_fract_y
 _atom_site_fract_z
 _atom_site_occupancy
  Y  Y0  1  0.500000  0.500000  0.500000  1
  Tm  Tm1  1  0.000000  0.000000  0.500000  1
  Tm  Tm2  1  0.000000  0.500000  0.000000  1
  Tm  Tm3  1  0.500000  0.000000  0.000000  1
  Ga  Ga4  1  0.751298  0.248702  0.500000  1
  Ga  Ga5  1  0.751251  0.499952  0.248571  1
  Ga  Ga6  1  0.500048  0.248749  0.751429  1
  Ga  Ga7  1  0.248749  0.500048  0.751429  1
  Ga  Ga8  1  0.248702  0.751298  0.500000  1
  Ga  Ga9  1  0.499952  0.751251  0.248571  1
  Ga  Ga10  1  0.717185  0.717185  0.002129  1
  Ga  Ga11  1  0.282987  0.997756  0.282868  1
  Ga  Ga12  1  0.997756  0.282987  0.282868  1
  Ga  Ga13  1  0.282815  0.282815  0.997871  1
  Ga  Ga14  1  0.717013  0.002244  0.717132  1
  Ga  Ga15  1  0.002244  0.717013  0.717132  1
  Fe  Fe16  1  0.000000  0.000000  0.000000  1
