# generated using pymatgen
data_Hf6Hg2CN
_symmetry_space_group_name_H-M   'P 1'
_cell_length_a   6.11350760
_cell_length_b   6.11350727
_cell_length_c   9.10373998
_cell_angle_alpha   90.05094972
_cell_angle_beta   89.94904890
_cell_angle_gamma   148.19082738
_symmetry_Int_Tables_number   1
_chemical_formula_structural   Hf6Hg2CN
_chemical_formula_sum   'Hf6 Hg2 C1 N1'
_cell_volume   179.34399942
_cell_formula_units_Z   1
loop_
 _symmetry_equiv_pos_site_id
 _symmetry_equiv_pos_as_xyz
  1  'x, y, z'
loop_
 _atom_site_type_symbol
 _atom_site_label
 _atom_site_symmetry_multiplicity
 _atom_site_fract_x
 _atom_site_fract_y
 _atom_site_fract_z
 _atom_site_occupancy
  Hf  Hf0  1  0.875765  0.124235  0.041662  1
  Hf  Hf1  1  0.536415  0.463585  0.248446  1
  Hf  Hf2  1  0.878601  0.121399  0.461210  1
  Hf  Hf3  1  0.121399  0.878601  0.538790  1
  Hf  Hf4  1  0.463585  0.536415  0.751554  1
  Hf  Hf5  1  0.124235  0.875765  0.958337  1
  Hg  Hg6  1  0.246463  0.753537  0.251938  1
  Hg  Hg7  1  0.753537  0.246463  0.748062  1
  C  C8  1  0.500000  0.500000  0.000000  1
  N  N9  1  0.500000  0.500000  0.500000  1
