# generated using pymatgen
data_Hf5Co16Si7Rh
_symmetry_space_group_name_H-M   'P 1'
_cell_length_a   7.99818234
_cell_length_b   7.99896705
_cell_length_c   7.99088500
_cell_angle_alpha   60.03370300
_cell_angle_beta   60.03005018
_cell_angle_gamma   59.92213015
_symmetry_Int_Tables_number   1
_chemical_formula_structural   Hf5Co16Si7Rh
_chemical_formula_sum   'Hf5 Co16 Si7 Rh1'
_cell_volume   361.45787562
_cell_formula_units_Z   1
loop_
 _symmetry_equiv_pos_site_id
 _symmetry_equiv_pos_as_xyz
  1  'x, y, z'
loop_
 _atom_site_type_symbol
 _atom_site_label
 _atom_site_symmetry_multiplicity
 _atom_site_fract_x
 _atom_site_fract_y
 _atom_site_fract_z
 _atom_site_occupancy
  Hf  Hf0  1  0.790521  0.202175  0.797862  1
  Hf  Hf1  1  0.212634  0.212707  0.787385  1
  Hf  Hf2  1  0.202138  0.790580  0.209476  1
  Hf  Hf3  1  0.202148  0.790521  0.797827  1
  Hf  Hf4  1  0.790579  0.202165  0.209412  1
  Co  Co5  1  0.140127  0.617978  0.620970  1
  Co  Co6  1  0.618017  0.140047  0.620991  1
  Co  Co7  1  0.620262  0.620270  0.145238  1
  Co  Co8  1  0.854794  0.385771  0.379717  1
  Co  Co9  1  0.379046  0.379056  0.859901  1
  Co  Co10  1  0.379031  0.379040  0.381969  1
  Co  Co11  1  0.501859  0.834086  0.832026  1
  Co  Co12  1  0.834120  0.501849  0.832015  1
  Co  Co13  1  0.830112  0.830062  0.516498  1
  Co  Co14  1  0.830126  0.830076  0.823365  1
  Co  Co15  1  0.176680  0.483501  0.169883  1
  Co  Co16  1  0.483518  0.176659  0.169883  1
  Co  Co17  1  0.167997  0.167975  0.498067  1
  Co  Co18  1  0.168023  0.167999  0.165948  1
  Co  Co19  1  0.620241  0.620248  0.614228  1
  Co  Co20  1  0.385770  0.854755  0.379737  1
  Si  Si21  1  0.502858  0.502833  0.997112  1
  Si  Si22  1  0.506555  0.990372  0.493410  1
  Si  Si23  1  0.496151  0.496227  0.503876  1
  Si  Si24  1  0.002856  0.002823  0.497145  1
  Si  Si25  1  0.990390  0.506553  0.009612  1
  Si  Si26  1  0.990345  0.506573  0.493438  1
  Si  Si27  1  0.506536  0.990416  0.009632  1
  Rh  Rh28  1  0.816555  0.816669  0.183366  1
