# generated using pymatgen
data_Ce3DyYNp5O20
_symmetry_space_group_name_H-M   'P 1'
_cell_length_a   6.62529689
_cell_length_b   7.62614572
_cell_length_c   8.54039354
_cell_angle_alpha   102.69415485
_cell_angle_beta   97.37325722
_cell_angle_gamma   106.78618870
_symmetry_Int_Tables_number   1
_chemical_formula_structural   Ce3DyYNp5O20
_chemical_formula_sum   'Ce3 Dy1 Y1 Np5 O20'
_cell_volume   394.43355003
_cell_formula_units_Z   1
loop_
 _symmetry_equiv_pos_site_id
 _symmetry_equiv_pos_as_xyz
  1  'x, y, z'
loop_
 _atom_site_type_symbol
 _atom_site_label
 _atom_site_symmetry_multiplicity
 _atom_site_fract_x
 _atom_site_fract_y
 _atom_site_fract_z
 _atom_site_occupancy
  Ce  Ce0  1  0.000457  0.500958  0.997629  1
  Ce  Ce1  1  0.196430  0.899144  0.399069  1
  Ce  Ce2  1  0.398640  0.800206  0.799382  1
  Dy  Dy3  1  0.999105  0.998683  0.997572  1
  Y  Y4  1  0.801641  0.601410  0.602256  1
  Np  Np5  1  0.601862  0.201203  0.201578  1
  Np  Np6  1  0.797964  0.098697  0.600936  1
  Np  Np7  1  0.602925  0.700703  0.201289  1
  Np  Np8  1  0.200857  0.398904  0.399747  1
  Np  Np9  1  0.399422  0.299262  0.800263  1
  O  O10  1  0.846748  0.314440  0.451066  1
  O  O11  1  0.644236  0.927016  0.059620  1
  O  O12  1  0.940758  0.771869  0.152662  1
  O  O13  1  0.842223  0.831279  0.449143  1
  O  O14  1  0.441351  0.512468  0.644712  1
  O  O15  1  0.646107  0.423404  0.050646  1
  O  O16  1  0.739732  0.364361  0.750567  1
  O  O17  1  0.259936  0.135338  0.252967  1
  O  O18  1  0.446187  0.030732  0.649119  1
  O  O19  1  0.947143  0.278954  0.159180  1
  O  O20  1  0.553106  0.976339  0.351386  1
  O  O21  1  0.053929  0.725548  0.851173  1
  O  O22  1  0.264388  0.623255  0.248769  1
  O  O23  1  0.746296  0.883143  0.747200  1
  O  O24  1  0.363191  0.571075  0.951442  1
  O  O25  1  0.055057  0.226920  0.843244  1
  O  O26  1  0.555339  0.474819  0.343795  1
  O  O27  1  0.146001  0.177885  0.550789  1
  O  O28  1  0.359956  0.087353  0.952269  1
  O  O29  1  0.149015  0.664631  0.540530  1
