# generated using pymatgen
data_Ho8MgSi4B16W
_symmetry_space_group_name_H-M   'P 1'
_cell_length_a   7.12972700
_cell_length_b   7.12972700
_cell_length_c   7.67966100
_cell_angle_alpha   90.00000000
_cell_angle_beta   90.00000000
_cell_angle_gamma   90.00000000
_symmetry_Int_Tables_number   1
_chemical_formula_structural   Ho8MgSi4B16W
_chemical_formula_sum   'Ho8 Mg1 Si4 B16 W1'
_cell_volume   390.38026210
_cell_formula_units_Z   1
loop_
 _symmetry_equiv_pos_site_id
 _symmetry_equiv_pos_as_xyz
  1  'x, y, z'
loop_
 _atom_site_type_symbol
 _atom_site_label
 _atom_site_symmetry_multiplicity
 _atom_site_fract_x
 _atom_site_fract_y
 _atom_site_fract_z
 _atom_site_occupancy
  Ho  Ho0  1  0.681306  0.181807  0.234741  1
  Ho  Ho1  1  0.318694  0.818193  0.765259  1
  Ho  Ho2  1  0.318694  0.818193  0.234741  1
  Ho  Ho3  1  0.818193  0.681306  0.234741  1
  Ho  Ho4  1  0.818193  0.681306  0.765259  1
  Ho  Ho5  1  0.681306  0.181807  0.765259  1
  Ho  Ho6  1  0.181807  0.318694  0.765259  1
  Ho  Ho7  1  0.181807  0.318694  0.234741  1
  Mg  Mg8  1  0.500000  0.500000  0.500000  1
  Si  Si9  1  0.106808  0.632413  0.500000  1
  Si  Si10  1  0.893192  0.367587  0.500000  1
  Si  Si11  1  0.367587  0.106808  0.500000  1
  Si  Si12  1  0.632413  0.893192  0.500000  1
  B  B13  1  0.172072  0.040050  0.000000  1
  B  B14  1  0.827928  0.959950  0.000000  1
  B  B15  1  0.959950  0.172072  0.000000  1
  B  B16  1  0.326987  0.539644  0.000000  1
  B  B17  1  0.040050  0.827928  0.000000  1
  B  B18  1  0.673013  0.460356  0.000000  1
  B  B19  1  0.539644  0.673013  0.000000  1
  B  B20  1  0.460356  0.326987  0.000000  1
  B  B21  1  0.090127  0.590151  0.000000  1
  B  B22  1  0.909873  0.409849  0.000000  1
  B  B23  1  0.409849  0.090127  0.000000  1
  B  B24  1  0.590151  0.909873  0.000000  1
  B  B25  1  0.000000  0.000000  0.175625  1
  B  B26  1  0.000000  0.000000  0.824375  1
  B  B27  1  0.500000  0.500000  0.832870  1
  B  B28  1  0.500000  0.500000  0.167130  1
  W  W29  1  0.000000  0.000000  0.500000  1
