# generated using pymatgen
data_YbHoBPd6
_symmetry_space_group_name_H-M   'P 1'
_cell_length_a   5.89557859
_cell_length_b   5.89557784
_cell_length_c   5.89557900
_cell_angle_alpha   59.99999909
_cell_angle_beta   60.00000331
_cell_angle_gamma   59.99999798
_symmetry_Int_Tables_number   1
_chemical_formula_structural   YbHoBPd6
_chemical_formula_sum   'Yb1 Ho1 B1 Pd6'
_cell_volume   144.89862934
_cell_formula_units_Z   1
loop_
 _symmetry_equiv_pos_site_id
 _symmetry_equiv_pos_as_xyz
  1  'x, y, z'
loop_
 _atom_site_type_symbol
 _atom_site_label
 _atom_site_symmetry_multiplicity
 _atom_site_fract_x
 _atom_site_fract_y
 _atom_site_fract_z
 _atom_site_occupancy
  Yb  Yb0  1  0.750000  0.750000  0.750000  1
  Ho  Ho1  1  0.250000  0.250000  0.250000  1
  B  B2  1  0.000000  0.000000  0.000000  1
  Pd  Pd3  1  0.743994  0.256006  0.256006  1
  Pd  Pd4  1  0.256006  0.743994  0.256006  1
  Pd  Pd5  1  0.743994  0.743994  0.256006  1
  Pd  Pd6  1  0.256006  0.256006  0.743994  1
  Pd  Pd7  1  0.743994  0.256006  0.743994  1
  Pd  Pd8  1  0.256006  0.743994  0.743994  1
