# generated using pymatgen
data_Er8MgSc(Ni2Bi)2
_symmetry_space_group_name_H-M   'P 1'
_cell_length_a   8.62186837
_cell_length_b   8.62186814
_cell_length_c   8.62186817
_cell_angle_alpha   128.77281083
_cell_angle_beta   128.77281341
_cell_angle_gamma   75.37640935
_symmetry_Int_Tables_number   1
_chemical_formula_structural   Er8MgSc(Ni2Bi)2
_chemical_formula_sum   'Er8 Mg1 Sc1 Ni4 Bi2'
_cell_volume   379.14234689
_cell_formula_units_Z   1
loop_
 _symmetry_equiv_pos_site_id
 _symmetry_equiv_pos_as_xyz
  1  'x, y, z'
loop_
 _atom_site_type_symbol
 _atom_site_label
 _atom_site_symmetry_multiplicity
 _atom_site_fract_x
 _atom_site_fract_y
 _atom_site_fract_z
 _atom_site_occupancy
  Er  Er0  1  0.795748  0.284011  0.822931  1
  Er  Er1  1  0.204252  0.715989  0.177069  1
  Er  Er2  1  0.461079  0.972816  0.177069  1
  Er  Er3  1  0.284011  0.461079  0.488263  1
  Er  Er4  1  0.027184  0.204252  0.488263  1
  Er  Er5  1  0.538921  0.027184  0.822931  1
  Er  Er6  1  0.715989  0.538921  0.511737  1
  Er  Er7  1  0.972816  0.795748  0.511737  1
  Mg  Mg8  1  0.000000  0.000000  0.000000  1
  Sc  Sc9  1  0.500000  0.500000  0.000000  1
  Ni  Ni10  1  0.137126  0.625303  0.762430  1
  Ni  Ni11  1  0.862874  0.374697  0.237570  1
  Ni  Ni12  1  0.625303  0.862874  0.488177  1
  Ni  Ni13  1  0.374697  0.137126  0.511823  1
  Bi  Bi14  1  0.258491  0.258491  0.000000  1
  Bi  Bi15  1  0.741509  0.741509  0.000000  1
