# generated using pymatgen
data_Ti9Nb(SiSn2)2
_symmetry_space_group_name_H-M   'P 1'
_cell_length_a   7.89338381
_cell_length_b   7.89338331
_cell_length_c   7.90235640
_cell_angle_alpha   96.15457337
_cell_angle_beta   95.75132559
_cell_angle_gamma   142.40492895
_symmetry_Int_Tables_number   1
_chemical_formula_structural   Ti9Nb(SiSn2)2
_chemical_formula_sum   'Ti9 Nb1 Si2 Sn4'
_cell_volume   284.39168471
_cell_formula_units_Z   1
loop_
 _symmetry_equiv_pos_site_id
 _symmetry_equiv_pos_as_xyz
  1  'x, y, z'
loop_
 _atom_site_type_symbol
 _atom_site_label
 _atom_site_symmetry_multiplicity
 _atom_site_fract_x
 _atom_site_fract_y
 _atom_site_fract_z
 _atom_site_occupancy
  Ti  Ti0  1  0.428583  0.291994  0.720575  1
  Ti  Ti1  1  0.206003  0.070579  0.276582  1
  Ti  Ti2  1  0.571948  0.706766  0.278714  1
  Ti  Ti3  1  0.249890  0.750801  0.501459  1
  Ti  Ti4  1  0.291577  0.571825  0.863403  1
  Ti  Ti5  1  0.706518  0.427690  0.134208  1
  Ti  Ti6  1  0.750658  0.251569  0.501459  1
  Ti  Ti7  1  0.929250  0.206893  0.136143  1
  Ti  Ti8  1  0.793244  0.928271  0.721515  1
  Nb  Nb9  1  0.072633  0.793347  0.865979  1
  Si  Si10  1  0.250433  0.252460  0.999830  1
  Si  Si11  1  0.747370  0.749397  0.999830  1
  Sn  Sn12  1  0.165672  0.334493  0.500165  1
  Sn  Sn13  1  0.666966  0.164735  0.831701  1
  Sn  Sn14  1  0.832206  0.664678  0.496884  1
  Sn  Sn15  1  0.337049  0.834503  0.171553  1
