# generated using pymatgen
data_Hf10ZnSiSb4
_symmetry_space_group_name_H-M   'P 1'
_cell_length_a   5.48411876
_cell_length_b   8.22617265
_cell_length_c   8.22617432
_cell_angle_alpha   83.62392714
_cell_angle_beta   70.50455023
_cell_angle_gamma   70.50454817
_symmetry_Int_Tables_number   1
_chemical_formula_structural   Hf10ZnSiSb4
_chemical_formula_sum   'Hf10 Zn1 Si1 Sb4'
_cell_volume   329.77677959
_cell_formula_units_Z   1
loop_
 _symmetry_equiv_pos_site_id
 _symmetry_equiv_pos_as_xyz
  1  'x, y, z'
loop_
 _atom_site_type_symbol
 _atom_site_label
 _atom_site_symmetry_multiplicity
 _atom_site_fract_x
 _atom_site_fract_y
 _atom_site_fract_z
 _atom_site_occupancy
  Hf  Hf0  1  0.250000  0.500235  0.499765  1
  Hf  Hf1  1  0.750000  0.499973  0.500027  1
  Hf  Hf2  1  0.072328  0.136609  0.714518  1
  Hf  Hf3  1  0.922949  0.863339  0.285665  1
  Hf  Hf4  1  0.786010  0.285669  0.136713  1
  Hf  Hf5  1  0.427672  0.285482  0.863391  1
  Hf  Hf6  1  0.209266  0.714377  0.863278  1
  Hf  Hf7  1  0.577051  0.714335  0.136661  1
  Hf  Hf8  1  0.713990  0.863287  0.714331  1
  Hf  Hf9  1  0.290734  0.136722  0.285623  1
  Zn  Zn10  1  0.250000  0.000064  0.999936  1
  Si  Si11  1  0.750000  0.999844  0.000156  1
  Sb  Sb12  1  0.164395  0.500101  0.171348  1
  Sb  Sb13  1  0.835518  0.499934  0.828625  1
  Sb  Sb14  1  0.335605  0.828652  0.499899  1
  Sb  Sb15  1  0.664482  0.171375  0.500066  1
