# generated using pymatgen
data_SmCd(Pd2Au)2
_symmetry_space_group_name_H-M   'P 1'
_cell_length_a   6.07016615
_cell_length_b   6.04128307
_cell_length_c   7.87107910
_cell_angle_alpha   90.00260238
_cell_angle_beta   90.01862203
_cell_angle_gamma   89.98279831
_symmetry_Int_Tables_number   1
_chemical_formula_structural   SmCd(Pd2Au)2
_chemical_formula_sum   'Sm2 Cd2 Pd8 Au4'
_cell_volume   288.64497289
_cell_formula_units_Z   2
loop_
 _symmetry_equiv_pos_site_id
 _symmetry_equiv_pos_as_xyz
  1  'x, y, z'
loop_
 _atom_site_type_symbol
 _atom_site_label
 _atom_site_symmetry_multiplicity
 _atom_site_fract_x
 _atom_site_fract_y
 _atom_site_fract_z
 _atom_site_occupancy
  Sm  Sm0  1  0.250519  0.250000  0.999995  1
  Sm  Sm1  1  0.749481  0.750001  0.000005  1
  Cd  Cd2  1  0.751155  0.750002  0.499990  1
  Cd  Cd3  1  0.248844  0.249999  0.500010  1
  Pd  Pd4  1  0.000180  0.000051  0.256959  1
  Pd  Pd5  1  0.000221  0.500002  0.256902  1
  Pd  Pd6  1  0.500233  0.000007  0.258722  1
  Pd  Pd7  1  0.500188  0.499975  0.258778  1
  Pd  Pd8  1  0.499768  0.999993  0.741278  1
  Pd  Pd9  1  0.499813  0.500024  0.741222  1
  Pd  Pd10  1  0.999819  0.999949  0.743041  1
  Pd  Pd11  1  0.999778  0.499997  0.743098  1
  Au  Au12  1  0.749791  0.249999  0.000004  1
  Au  Au13  1  0.250208  0.750002  0.999996  1
  Au  Au14  1  0.249077  0.750001  0.499968  1
  Au  Au15  1  0.750922  0.250000  0.500032  1
