# generated using pymatgen
data_TbTm4Lu3Pt4
_symmetry_space_group_name_H-M   'P 1'
_cell_length_a   4.72379800
_cell_length_b   7.07463467
_cell_length_c   8.63771450
_cell_angle_alpha   90.05866820
_cell_angle_beta   90.00000000
_cell_angle_gamma   90.00000000
_symmetry_Int_Tables_number   1
_chemical_formula_structural   TbTm4Lu3Pt4
_chemical_formula_sum   'Tb1 Tm4 Lu3 Pt4'
_cell_volume   288.66488284
_cell_formula_units_Z   1
loop_
 _symmetry_equiv_pos_site_id
 _symmetry_equiv_pos_as_xyz
  1  'x, y, z'
loop_
 _atom_site_type_symbol
 _atom_site_label
 _atom_site_symmetry_multiplicity
 _atom_site_fract_x
 _atom_site_fract_y
 _atom_site_fract_z
 _atom_site_occupancy
  Tb  Tb0  1  0.750000  0.012203  0.669308  1
  Tm  Tm1  1  0.250000  0.854198  0.922937  1
  Tm  Tm2  1  0.750000  0.509282  0.833318  1
  Tm  Tm3  1  0.250000  0.487125  0.170032  1
  Tm  Tm4  1  0.250000  0.989680  0.329938  1
  Lu  Lu5  1  0.750000  0.643833  0.421462  1
  Lu  Lu6  1  0.250000  0.358800  0.578127  1
  Lu  Lu7  1  0.750000  0.143102  0.078958  1
  Pt  Pt8  1  0.750000  0.245391  0.402660  1
  Pt  Pt9  1  0.250000  0.755827  0.591067  1
  Pt  Pt10  1  0.750000  0.743337  0.095256  1
  Pt  Pt11  1  0.250000  0.257220  0.906938  1
