# generated using pymatgen
data_La2Pr2IrI5
_symmetry_space_group_name_H-M   'P 1'
_cell_length_a   10.07942432
_cell_length_b   10.07942431
_cell_length_c   9.40593585
_cell_angle_alpha   77.02096750
_cell_angle_beta   77.02096720
_cell_angle_gamma   25.43017614
_symmetry_Int_Tables_number   1
_chemical_formula_structural   La2Pr2IrI5
_chemical_formula_sum   'La2 Pr2 Ir1 I5'
_cell_volume   399.31808568
_cell_formula_units_Z   1
loop_
 _symmetry_equiv_pos_site_id
 _symmetry_equiv_pos_as_xyz
  1  'x, y, z'
loop_
 _atom_site_type_symbol
 _atom_site_label
 _atom_site_symmetry_multiplicity
 _atom_site_fract_x
 _atom_site_fract_y
 _atom_site_fract_z
 _atom_site_occupancy
  La  La0  1  0.861311  0.861311  0.071862  1
  La  La1  1  0.138689  0.138689  0.928138  1
  Pr  Pr2  1  0.500758  0.500758  0.214935  1
  Pr  Pr3  1  0.499242  0.499242  0.785065  1
  Ir  Ir4  1  0.000000  0.000000  0.000000  1
  I  I5  1  0.673107  0.673107  0.169276  1
  I  I6  1  0.326893  0.326893  0.830724  1
  I  I7  1  0.666737  0.666737  0.660845  1
  I  I8  1  0.333263  0.333263  0.339155  1
  I  I9  1  0.000000  0.000000  0.500000  1
