# generated using pymatgen
data_Tb8HoTm11Pb16
_symmetry_space_group_name_H-M   'P 1'
_cell_length_a   8.16631414
_cell_length_b   8.24438015
_cell_length_c   15.54571902
_cell_angle_alpha   90.00544794
_cell_angle_beta   90.00013968
_cell_angle_gamma   90.02143000
_symmetry_Int_Tables_number   1
_chemical_formula_structural   Tb8HoTm11Pb16
_chemical_formula_sum   'Tb8 Ho1 Tm11 Pb16'
_cell_volume   1046.63408251
_cell_formula_units_Z   1
loop_
 _symmetry_equiv_pos_site_id
 _symmetry_equiv_pos_as_xyz
  1  'x, y, z'
loop_
 _atom_site_type_symbol
 _atom_site_label
 _atom_site_symmetry_multiplicity
 _atom_site_fract_x
 _atom_site_fract_y
 _atom_site_fract_z
 _atom_site_occupancy
  Tb  Tb0  1  0.534325  0.322715  0.900015  1
  Tb  Tb1  1  0.034407  0.177207  0.599994  1
  Tb  Tb2  1  0.465596  0.677219  0.399981  1
  Tb  Tb3  1  0.965648  0.822846  0.100140  1
  Tb  Tb4  1  0.465641  0.677149  0.100007  1
  Tb  Tb5  1  0.965587  0.822790  0.399979  1
  Tb  Tb6  1  0.534385  0.322757  0.600000  1
  Tb  Tb7  1  0.034392  0.177135  0.899982  1
  Ho  Ho8  1  0.876732  0.659370  0.879286  1
  Tm  Tm9  1  0.376652  0.840658  0.879252  1
  Tm  Tm10  1  0.876680  0.659293  0.620707  1
  Tm  Tm11  1  0.623347  0.159294  0.379261  1
  Tm  Tm12  1  0.123304  0.340746  0.120709  1
  Tm  Tm13  1  0.623317  0.159320  0.120781  1
  Tm  Tm14  1  0.123332  0.340667  0.379249  1
  Tm  Tm15  1  0.376721  0.840694  0.620724  1
  Tm  Tm16  1  0.208180  0.504560  0.749937  1
  Tm  Tm17  1  0.707943  0.995547  0.749926  1
  Tm  Tm18  1  0.791958  0.495343  0.250009  1
  Tm  Tm19  1  0.291948  0.004599  0.249993  1
  Pb  Pb20  1  0.282234  0.033775  0.042794  1
  Pb  Pb21  1  0.782228  0.466221  0.457213  1
  Pb  Pb22  1  0.717765  0.966236  0.542778  1
  Pb  Pb23  1  0.218168  0.533659  0.957300  1
  Pb  Pb24  1  0.717546  0.966669  0.957295  1
  Pb  Pb25  1  0.217753  0.533772  0.542775  1
  Pb  Pb26  1  0.282214  0.033785  0.457200  1
  Pb  Pb27  1  0.782100  0.465974  0.043026  1
  Pb  Pb28  1  0.571284  0.627658  0.749911  1
  Pb  Pb29  1  0.071709  0.872565  0.749873  1
  Pb  Pb30  1  0.428478  0.372346  0.250004  1
  Pb  Pb31  1  0.928542  0.127672  0.249994  1
  Pb  Pb32  1  0.345079  0.151609  0.750003  1
  Pb  Pb33  1  0.845084  0.348125  0.749921  1
  Pb  Pb34  1  0.654864  0.848329  0.249989  1
  Pb  Pb35  1  0.154858  0.651695  0.249991  1
