# generated using pymatgen
data_Eu3YCdIr
_symmetry_space_group_name_H-M   'P 1'
_cell_length_a   10.16439947
_cell_length_b   10.16439997
_cell_length_c   10.16439900
_cell_angle_alpha   59.99999990
_cell_angle_beta   59.99999827
_cell_angle_gamma   60.00000236
_symmetry_Int_Tables_number   1
_chemical_formula_structural   Eu3YCdIr
_chemical_formula_sum   'Eu12 Y4 Cd4 Ir4'
_cell_volume   742.55765521
_cell_formula_units_Z   4
loop_
 _symmetry_equiv_pos_site_id
 _symmetry_equiv_pos_as_xyz
  1  'x, y, z'
loop_
 _atom_site_type_symbol
 _atom_site_label
 _atom_site_symmetry_multiplicity
 _atom_site_fract_x
 _atom_site_fract_y
 _atom_site_fract_z
 _atom_site_occupancy
  Eu  Eu0  1  0.805078  0.194922  0.194922  1
  Eu  Eu1  1  0.194922  0.805078  0.805078  1
  Eu  Eu2  1  0.194922  0.805078  0.194922  1
  Eu  Eu3  1  0.805078  0.194922  0.805078  1
  Eu  Eu4  1  0.194922  0.194922  0.805078  1
  Eu  Eu5  1  0.805078  0.805078  0.194922  1
  Eu  Eu6  1  0.945225  0.554775  0.554775  1
  Eu  Eu7  1  0.554775  0.945225  0.945225  1
  Eu  Eu8  1  0.554775  0.945225  0.554775  1
  Eu  Eu9  1  0.945225  0.554775  0.945225  1
  Eu  Eu10  1  0.554775  0.554775  0.945225  1
  Eu  Eu11  1  0.945225  0.945225  0.554775  1
  Y  Y12  1  0.339592  0.339592  0.339592  1
  Y  Y13  1  0.339592  0.339592  0.981221  1
  Y  Y14  1  0.339592  0.981221  0.339592  1
  Y  Y15  1  0.981221  0.339592  0.339592  1
  Cd  Cd16  1  0.577645  0.577645  0.577645  1
  Cd  Cd17  1  0.577645  0.577645  0.267067  1
  Cd  Cd18  1  0.577645  0.267067  0.577645  1
  Cd  Cd19  1  0.267067  0.577645  0.577645  1
  Ir  Ir20  1  0.143053  0.143053  0.143053  1
  Ir  Ir21  1  0.143053  0.143053  0.570843  1
  Ir  Ir22  1  0.143053  0.570843  0.143053  1
  Ir  Ir23  1  0.570843  0.143053  0.143053  1
