# generated using pymatgen
data_TbSmDy2Ni13C4
_symmetry_space_group_name_H-M   'P 1'
_cell_length_a   8.39367700
_cell_length_b   8.39367794
_cell_length_c   3.86960700
_cell_angle_alpha   90.00000000
_cell_angle_beta   90.00000000
_cell_angle_gamma   90.96930847
_symmetry_Int_Tables_number   1
_chemical_formula_structural   TbSmDy2Ni13C4
_chemical_formula_sum   'Tb1 Sm1 Dy2 Ni13 C4'
_cell_volume   272.58958771
_cell_formula_units_Z   1
loop_
 _symmetry_equiv_pos_site_id
 _symmetry_equiv_pos_as_xyz
  1  'x, y, z'
loop_
 _atom_site_type_symbol
 _atom_site_label
 _atom_site_symmetry_multiplicity
 _atom_site_fract_x
 _atom_site_fract_y
 _atom_site_fract_z
 _atom_site_occupancy
  Tb  Tb0  1  0.652254  0.652254  0.500000  1
  Sm  Sm1  1  0.348094  0.348094  0.500000  1
  Dy  Dy2  1  0.812279  0.187428  0.500000  1
  Dy  Dy3  1  0.187428  0.812279  0.500000  1
  Ni  Ni4  1  0.500408  0.998893  0.500000  1
  Ni  Ni5  1  0.998893  0.500408  0.500000  1
  Ni  Ni6  1  0.999630  0.999630  0.000000  1
  Ni  Ni7  1  0.430508  0.785058  0.000000  1
  Ni  Ni8  1  0.570577  0.215186  0.000000  1
  Ni  Ni9  1  0.215186  0.570577  0.000000  1
  Ni  Ni10  1  0.785058  0.430508  0.000000  1
  Ni  Ni11  1  0.709385  0.927188  0.000000  1
  Ni  Ni12  1  0.290214  0.071129  0.000000  1
  Ni  Ni13  1  0.071129  0.290214  0.000000  1
  Ni  Ni14  1  0.927188  0.709385  0.000000  1
  Ni  Ni15  1  0.877191  0.877191  0.500000  1
  Ni  Ni16  1  0.121591  0.121591  0.500000  1
  C  C17  1  0.444223  0.558309  0.000000  1
  C  C18  1  0.558309  0.444223  0.000000  1
  C  C19  1  0.500112  0.000342  0.000000  1
  C  C20  1  0.000342  0.500112  0.000000  1
