# generated using pymatgen
data_Pr3Sm5(Ho3Sn4)4
_symmetry_space_group_name_H-M   'P 1'
_cell_length_a   8.10420817
_cell_length_b   8.23416490
_cell_length_c   15.53095900
_cell_angle_alpha   89.95533468
_cell_angle_beta   90.03075398
_cell_angle_gamma   90.09946506
_symmetry_Int_Tables_number   1
_chemical_formula_structural   Pr3Sm5(Ho3Sn4)4
_chemical_formula_sum   'Pr3 Sm5 Ho12 Sn16'
_cell_volume   1036.40040203
_cell_formula_units_Z   1
loop_
 _symmetry_equiv_pos_site_id
 _symmetry_equiv_pos_as_xyz
  1  'x, y, z'
loop_
 _atom_site_type_symbol
 _atom_site_label
 _atom_site_symmetry_multiplicity
 _atom_site_fract_x
 _atom_site_fract_y
 _atom_site_fract_z
 _atom_site_occupancy
  Pr  Pr0  1  0.514950  0.321810  0.904044  1
  Pr  Pr1  1  0.015023  0.177791  0.596247  1
  Pr  Pr2  1  0.484604  0.678738  0.402952  1
  Sm  Sm3  1  0.983712  0.822716  0.096400  1
  Sm  Sm4  1  0.482536  0.679653  0.098102  1
  Sm  Sm5  1  0.982710  0.821048  0.402593  1
  Sm  Sm6  1  0.518304  0.320863  0.597852  1
  Sm  Sm7  1  0.018631  0.178752  0.902398  1
  Ho  Ho8  1  0.361771  0.837548  0.877295  1
  Ho  Ho9  1  0.861516  0.662172  0.623162  1
  Ho  Ho10  1  0.638930  0.162291  0.377003  1
  Ho  Ho11  1  0.138308  0.337663  0.123315  1
  Ho  Ho12  1  0.638060  0.164328  0.122923  1
  Ho  Ho13  1  0.137840  0.335535  0.376548  1
  Ho  Ho14  1  0.361757  0.834530  0.623026  1
  Ho  Ho15  1  0.862211  0.665424  0.877213  1
  Ho  Ho16  1  0.193544  0.502786  0.749726  1
  Ho  Ho17  1  0.693850  0.996937  0.750326  1
  Ho  Ho18  1  0.805819  0.496894  0.249154  1
  Ho  Ho19  1  0.305758  0.002477  0.249908  1
  Sn  Sn20  1  0.300038  0.040773  0.042016  1
  Sn  Sn21  1  0.801866  0.458783  0.458277  1
  Sn  Sn22  1  0.697757  0.957669  0.541561  1
  Sn  Sn23  1  0.197638  0.541970  0.958748  1
  Sn  Sn24  1  0.701981  0.962495  0.957856  1
  Sn  Sn25  1  0.200219  0.536732  0.542445  1
  Sn  Sn26  1  0.300407  0.038122  0.457556  1
  Sn  Sn27  1  0.800875  0.463482  0.042568  1
  Sn  Sn28  1  0.559500  0.622179  0.750810  1
  Sn  Sn29  1  0.059789  0.877594  0.749524  1
  Sn  Sn30  1  0.440062  0.377193  0.250614  1
  Sn  Sn31  1  0.940353  0.121534  0.249465  1
  Sn  Sn32  1  0.324565  0.143689  0.749011  1
  Sn  Sn33  1  0.824536  0.355963  0.751105  1
  Sn  Sn34  1  0.677400  0.856274  0.248636  1
  Sn  Sn35  1  0.173183  0.645593  0.249626  1
