# generated using pymatgen
data_Ho3Cr(Ni4P3)2
_symmetry_space_group_name_H-M   'P 1'
_cell_length_a   3.73440000
_cell_length_b   10.52152500
_cell_length_c   12.26343700
_cell_angle_alpha   90.00000000
_cell_angle_beta   90.00000000
_cell_angle_gamma   90.00000000
_symmetry_Int_Tables_number   1
_chemical_formula_structural   Ho3Cr(Ni4P3)2
_chemical_formula_sum   'Ho6 Cr2 Ni16 P12'
_cell_volume   481.84985226
_cell_formula_units_Z   2
loop_
 _symmetry_equiv_pos_site_id
 _symmetry_equiv_pos_as_xyz
  1  'x, y, z'
loop_
 _atom_site_type_symbol
 _atom_site_label
 _atom_site_symmetry_multiplicity
 _atom_site_fract_x
 _atom_site_fract_y
 _atom_site_fract_z
 _atom_site_occupancy
  Ho  Ho0  1  0.000000  0.500000  0.522076  1
  Ho  Ho1  1  0.500000  0.000000  0.477924  1
  Ho  Ho2  1  0.500000  0.816302  0.205984  1
  Ho  Ho3  1  0.500000  0.183698  0.205984  1
  Ho  Ho4  1  0.000000  0.683698  0.794016  1
  Ho  Ho5  1  0.000000  0.316302  0.794016  1
  Cr  Cr6  1  0.500000  0.500000  0.154212  1
  Cr  Cr7  1  0.000000  0.000000  0.845788  1
  Ni  Ni8  1  0.500000  0.500000  0.700218  1
  Ni  Ni9  1  0.000000  0.000000  0.299782  1
  Ni  Ni10  1  0.000000  0.500000  0.983018  1
  Ni  Ni11  1  0.500000  0.000000  0.016982  1
  Ni  Ni12  1  0.500000  0.333195  0.990014  1
  Ni  Ni13  1  0.500000  0.666805  0.990014  1
  Ni  Ni14  1  0.000000  0.166805  0.009986  1
  Ni  Ni15  1  0.000000  0.833195  0.009986  1
  Ni  Ni16  1  0.500000  0.301711  0.427326  1
  Ni  Ni17  1  0.500000  0.698289  0.427326  1
  Ni  Ni18  1  0.000000  0.198289  0.572674  1
  Ni  Ni19  1  0.000000  0.801711  0.572674  1
  Ni  Ni20  1  0.500000  0.879864  0.710330  1
  Ni  Ni21  1  0.500000  0.120136  0.710330  1
  Ni  Ni22  1  0.000000  0.620136  0.289670  1
  Ni  Ni23  1  0.000000  0.379864  0.289670  1
  P  P24  1  0.500000  0.500000  0.876858  1
  P  P25  1  0.000000  0.000000  0.123142  1
  P  P26  1  0.500000  0.500000  0.345875  1
  P  P27  1  0.000000  0.000000  0.654125  1
  P  P28  1  0.500000  0.314115  0.614073  1
  P  P29  1  0.500000  0.685885  0.614073  1
  P  P30  1  0.000000  0.185885  0.385927  1
  P  P31  1  0.000000  0.814115  0.385927  1
  P  P32  1  0.500000  0.847925  0.892829  1
  P  P33  1  0.500000  0.152075  0.892829  1
  P  P34  1  0.000000  0.652075  0.107171  1
  P  P35  1  0.000000  0.347925  0.107171  1
