# generated using pymatgen
data_Tb5SnBiOs
_symmetry_space_group_name_H-M   'P 1'
_cell_length_a   7.95180496
_cell_length_b   9.07747284
_cell_length_c   12.40985395
_cell_angle_alpha   90.07062243
_cell_angle_beta   90.33387920
_cell_angle_gamma   89.97918258
_symmetry_Int_Tables_number   1
_chemical_formula_structural   Tb5SnBiOs
_chemical_formula_sum   'Tb20 Sn4 Bi4 Os4'
_cell_volume   895.75577442
_cell_formula_units_Z   4
loop_
 _symmetry_equiv_pos_site_id
 _symmetry_equiv_pos_as_xyz
  1  'x, y, z'
loop_
 _atom_site_type_symbol
 _atom_site_label
 _atom_site_symmetry_multiplicity
 _atom_site_fract_x
 _atom_site_fract_y
 _atom_site_fract_z
 _atom_site_occupancy
  Tb  Tb0  1  0.841966  0.742990  0.790885  1
  Tb  Tb1  1  0.163607  0.250662  0.209775  1
  Tb  Tb2  1  0.343490  0.257061  0.711693  1
  Tb  Tb3  1  0.651141  0.749183  0.289112  1
  Tb  Tb4  1  0.375414  0.744018  0.694552  1
  Tb  Tb5  1  0.616349  0.250483  0.303325  1
  Tb  Tb6  1  0.875284  0.256364  0.805139  1
  Tb  Tb7  1  0.133016  0.749519  0.192825  1
  Tb  Tb8  1  0.946260  0.746559  0.504889  1
  Tb  Tb9  1  0.056050  0.253364  0.498888  1
  Tb  Tb10  1  0.447372  0.253205  0.997952  1
  Tb  Tb11  1  0.550531  0.746825  0.005737  1
  Tb  Tb12  1  0.674578  0.039683  0.565979  1
  Tb  Tb13  1  0.324784  0.961393  0.429650  1
  Tb  Tb14  1  0.176476  0.961719  0.936095  1
  Tb  Tb15  1  0.325146  0.539285  0.432065  1
  Tb  Tb16  1  0.821579  0.037692  0.067150  1
  Tb  Tb17  1  0.676585  0.461273  0.570759  1
  Tb  Tb18  1  0.822458  0.461779  0.064943  1
  Tb  Tb19  1  0.178208  0.537425  0.930853  1
  Sn  Sn20  1  0.571024  0.494202  0.831068  1
  Sn  Sn21  1  0.429529  0.505674  0.170514  1
  Sn  Sn22  1  0.070281  0.506373  0.670533  1
  Sn  Sn23  1  0.429361  0.994270  0.168484  1
  Bi  Bi24  1  0.929355  0.493011  0.326238  1
  Bi  Bi25  1  0.571186  0.006186  0.827934  1
  Bi  Bi26  1  0.929277  0.006747  0.328424  1
  Bi  Bi27  1  0.070122  0.993205  0.673435  1
  Os  Os28  1  0.575167  0.750449  0.509442  1
  Os  Os29  1  0.424088  0.249840  0.491033  1
  Os  Os30  1  0.073592  0.249420  0.990886  1
  Os  Os31  1  0.926725  0.750140  0.009742  1
