# generated using pymatgen
data_Lu2Mn3Ni9P7
_symmetry_space_group_name_H-M   'P 1'
_cell_length_a   9.11994300
_cell_length_b   9.11994507
_cell_length_c   3.64903800
_cell_angle_alpha   90.00000000
_cell_angle_beta   90.00000000
_cell_angle_gamma   120.00000142
_symmetry_Int_Tables_number   1
_chemical_formula_structural   Lu2Mn3Ni9P7
_chemical_formula_sum   'Lu2 Mn3 Ni9 P7'
_cell_volume   262.84114964
_cell_formula_units_Z   1
loop_
 _symmetry_equiv_pos_site_id
 _symmetry_equiv_pos_as_xyz
  1  'x, y, z'
loop_
 _atom_site_type_symbol
 _atom_site_label
 _atom_site_symmetry_multiplicity
 _atom_site_fract_x
 _atom_site_fract_y
 _atom_site_fract_z
 _atom_site_occupancy
  Lu  Lu0  1  0.000000  0.000000  0.500000  1
  Lu  Lu1  1  0.666667  0.333333  0.000000  1
  Mn  Mn2  1  0.555513  0.765326  0.500000  1
  Mn  Mn3  1  0.234674  0.790187  0.500000  1
  Mn  Mn4  1  0.209813  0.444487  0.500000  1
  Ni  Ni5  1  0.769710  0.729300  0.000000  1
  Ni  Ni6  1  0.270700  0.040412  0.000000  1
  Ni  Ni7  1  0.959588  0.230290  0.000000  1
  Ni  Ni8  1  0.488186  0.945250  0.000000  1
  Ni  Ni9  1  0.054750  0.542936  0.000000  1
  Ni  Ni10  1  0.457064  0.511814  0.000000  1
  Ni  Ni11  1  0.716418  0.103792  0.500000  1
  Ni  Ni12  1  0.896208  0.612626  0.500000  1
  Ni  Ni13  1  0.387374  0.283582  0.500000  1
  P  P14  1  0.448580  0.074364  0.500000  1
  P  P15  1  0.925636  0.374216  0.500000  1
  P  P16  1  0.625784  0.551420  0.500000  1
  P  P17  1  0.742216  0.959968  0.000000  1
  P  P18  1  0.040032  0.782248  0.000000  1
  P  P19  1  0.217752  0.257784  0.000000  1
  P  P20  1  0.333333  0.666667  0.000000  1
