# generated using pymatgen
data_Er10SiAgPb6
_symmetry_space_group_name_H-M   'P 1'
_cell_length_a   9.16582200
_cell_length_b   9.16582103
_cell_length_c   6.72955500
_cell_angle_alpha   90.00000000
_cell_angle_beta   90.00000000
_cell_angle_gamma   120.00001072
_symmetry_Int_Tables_number   1
_chemical_formula_structural   Er10SiAgPb6
_chemical_formula_sum   'Er10 Si1 Ag1 Pb6'
_cell_volume   489.62064727
_cell_formula_units_Z   1
loop_
 _symmetry_equiv_pos_site_id
 _symmetry_equiv_pos_as_xyz
  1  'x, y, z'
loop_
 _atom_site_type_symbol
 _atom_site_label
 _atom_site_symmetry_multiplicity
 _atom_site_fract_x
 _atom_site_fract_y
 _atom_site_fract_z
 _atom_site_occupancy
  Er  Er0  1  0.253303  0.000000  0.233841  1
  Er  Er1  1  0.746697  0.000000  0.766159  1
  Er  Er2  1  0.000000  0.253303  0.233841  1
  Er  Er3  1  0.000000  0.746697  0.766159  1
  Er  Er4  1  0.746697  0.746697  0.233841  1
  Er  Er5  1  0.253303  0.253303  0.766159  1
  Er  Er6  1  0.333333  0.666667  0.000000  1
  Er  Er7  1  0.666667  0.333333  0.000000  1
  Er  Er8  1  0.666667  0.333333  0.500000  1
  Er  Er9  1  0.333333  0.666667  0.500000  1
  Si  Si10  1  0.000000  0.000000  0.000000  1
  Ag  Ag11  1  0.000000  0.000000  0.500000  1
  Pb  Pb12  1  0.606693  0.000000  0.249359  1
  Pb  Pb13  1  0.393307  0.000000  0.750641  1
  Pb  Pb14  1  0.000000  0.606693  0.249359  1
  Pb  Pb15  1  0.000000  0.393307  0.750641  1
  Pb  Pb16  1  0.393307  0.393307  0.249359  1
  Pb  Pb17  1  0.606693  0.606693  0.750641  1
