# generated using pymatgen
data_Zr2Sc2Re7Mo
_symmetry_space_group_name_H-M   'P 1'
_cell_length_a   5.30974972
_cell_length_b   5.32875594
_cell_length_c   8.66977479
_cell_angle_alpha   89.99999920
_cell_angle_beta   90.04242213
_cell_angle_gamma   120.11847977
_symmetry_Int_Tables_number   1
_chemical_formula_structural   Zr2Sc2Re7Mo
_chemical_formula_sum   'Zr2 Sc2 Re7 Mo1'
_cell_volume   212.18683481
_cell_formula_units_Z   1
loop_
 _symmetry_equiv_pos_site_id
 _symmetry_equiv_pos_as_xyz
  1  'x, y, z'
loop_
 _atom_site_type_symbol
 _atom_site_label
 _atom_site_symmetry_multiplicity
 _atom_site_fract_x
 _atom_site_fract_y
 _atom_site_fract_z
 _atom_site_occupancy
  Zr  Zr0  1  0.333169  0.666585  0.436821  1
  Zr  Zr1  1  0.666731  0.333365  0.939682  1
  Sc  Sc2  1  0.666489  0.333244  0.561042  1
  Sc  Sc3  1  0.333738  0.666869  0.062768  1
  Re  Re4  1  0.342097  0.171048  0.249851  1
  Re  Re5  1  0.828052  0.171193  0.249888  1
  Re  Re6  1  0.169362  0.341772  0.749876  1
  Re  Re7  1  0.169362  0.827591  0.749876  1
  Re  Re8  1  0.828052  0.656857  0.249888  1
  Re  Re9  1  0.002569  0.001284  0.498890  1
  Re  Re10  1  0.002190  0.001095  0.001593  1
  Mo  Mo11  1  0.658190  0.829095  0.749828  1
