# generated using pymatgen
data_Np2BiH2
_symmetry_space_group_name_H-M   'P 1'
_cell_length_a   4.17238765
_cell_length_b   4.17238874
_cell_length_c   5.84343423
_cell_angle_alpha   110.91701164
_cell_angle_beta   110.91701488
_cell_angle_gamma   90.00000121
_symmetry_Int_Tables_number   1
_chemical_formula_structural   Np2BiH2
_chemical_formula_sum   'Np2 Bi1 H2'
_cell_volume   87.80900102
_cell_formula_units_Z   1
loop_
 _symmetry_equiv_pos_site_id
 _symmetry_equiv_pos_as_xyz
  1  'x, y, z'
loop_
 _atom_site_type_symbol
 _atom_site_label
 _atom_site_symmetry_multiplicity
 _atom_site_fract_x
 _atom_site_fract_y
 _atom_site_fract_z
 _atom_site_occupancy
  Np  Np0  1  0.658025  0.658025  0.316049  1
  Np  Np1  1  0.341976  0.341976  0.683951  1
  Bi  Bi2  1  0.000000  0.000000  0.000000  1
  H  H3  1  0.750000  0.250000  0.500000  1
  H  H4  1  0.250000  0.750000  0.500000  1
