# generated using pymatgen
data_Y2MgAl8Ru5
_symmetry_space_group_name_H-M   'P 1'
_cell_length_a   8.05502109
_cell_length_b   8.05502088
_cell_length_c   8.05501991
_cell_angle_alpha   134.87711052
_cell_angle_beta   134.87711277
_cell_angle_gamma   65.72119997
_symmetry_Int_Tables_number   1
_chemical_formula_structural   Y2MgAl8Ru5
_chemical_formula_sum   'Y2 Mg1 Al8 Ru5'
_cell_volume   258.49992819
_cell_formula_units_Z   1
loop_
 _symmetry_equiv_pos_site_id
 _symmetry_equiv_pos_as_xyz
  1  'x, y, z'
loop_
 _atom_site_type_symbol
 _atom_site_label
 _atom_site_symmetry_multiplicity
 _atom_site_fract_x
 _atom_site_fract_y
 _atom_site_fract_z
 _atom_site_occupancy
  Y  Y0  1  0.000000  0.500000  0.500000  1
  Y  Y1  1  0.500000  0.000000  0.500000  1
  Mg  Mg2  1  0.000000  0.000000  0.000000  1
  Al  Al3  1  0.438546  0.863687  0.000000  1
  Al  Al4  1  0.136313  0.136313  0.574859  1
  Al  Al5  1  0.863687  0.438546  0.000000  1
  Al  Al6  1  0.863687  0.863687  0.425141  1
  Al  Al7  1  0.561454  0.136313  0.000000  1
  Al  Al8  1  0.136313  0.561454  0.000000  1
  Al  Al9  1  0.561454  0.561454  0.425141  1
  Al  Al10  1  0.438546  0.438546  0.574859  1
  Ru  Ru11  1  0.194726  0.194726  0.000000  1
  Ru  Ru12  1  0.805274  0.805274  0.000000  1
  Ru  Ru13  1  0.250000  0.750000  0.500000  1
  Ru  Ru14  1  0.750000  0.250000  0.500000  1
  Ru  Ru15  1  0.500000  0.500000  0.000000  1
