# generated using pymatgen
data_Sc2Mn6P7Ir6
_symmetry_space_group_name_H-M   'P 1'
_cell_length_a   9.39255200
_cell_length_b   9.39255231
_cell_length_c   3.76508500
_cell_angle_alpha   90.00000000
_cell_angle_beta   90.00000000
_cell_angle_gamma   119.99999890
_symmetry_Int_Tables_number   1
_chemical_formula_structural   Sc2Mn6P7Ir6
_chemical_formula_sum   'Sc2 Mn6 P7 Ir6'
_cell_volume   287.65548032
_cell_formula_units_Z   1
loop_
 _symmetry_equiv_pos_site_id
 _symmetry_equiv_pos_as_xyz
  1  'x, y, z'
loop_
 _atom_site_type_symbol
 _atom_site_label
 _atom_site_symmetry_multiplicity
 _atom_site_fract_x
 _atom_site_fract_y
 _atom_site_fract_z
 _atom_site_occupancy
  Sc  Sc0  1  0.000000  0.000000  0.000000  1
  Sc  Sc1  1  0.666667  0.333333  0.500000  1
  Mn  Mn2  1  0.605085  0.780307  0.000000  1
  Mn  Mn3  1  0.175223  0.394915  0.000000  1
  Mn  Mn4  1  0.219693  0.824777  0.000000  1
  Mn  Mn5  1  0.432882  0.548053  0.500000  1
  Mn  Mn6  1  0.115172  0.567118  0.500000  1
  Mn  Mn7  1  0.451947  0.884828  0.500000  1
  P  P8  1  0.634107  0.555264  0.000000  1
  P  P9  1  0.921157  0.365893  0.000000  1
  P  P10  1  0.444736  0.078843  0.000000  1
  P  P11  1  0.733873  0.945215  0.500000  1
  P  P12  1  0.211342  0.266127  0.500000  1
  P  P13  1  0.054785  0.788658  0.500000  1
  P  P14  1  0.333333  0.666667  0.000000  1
  Ir  Ir15  1  0.403235  0.306292  0.000000  1
  Ir  Ir16  1  0.903057  0.596765  0.000000  1
  Ir  Ir17  1  0.693708  0.096943  0.000000  1
  Ir  Ir18  1  0.780151  0.726348  0.500000  1
  Ir  Ir19  1  0.946197  0.219849  0.500000  1
  Ir  Ir20  1  0.273652  0.053803  0.500000  1
