# generated using pymatgen
data_Tb2NiRh3
_symmetry_space_group_name_H-M   'P 1'
_cell_length_a   5.40662783
_cell_length_b   5.40662857
_cell_length_c   5.18610700
_cell_angle_alpha   58.58314094
_cell_angle_beta   58.58314321
_cell_angle_gamma   60.00000385
_symmetry_Int_Tables_number   1
_chemical_formula_structural   Tb2NiRh3
_chemical_formula_sum   'Tb2 Ni1 Rh3'
_cell_volume   104.84286736
_cell_formula_units_Z   1
loop_
 _symmetry_equiv_pos_site_id
 _symmetry_equiv_pos_as_xyz
  1  'x, y, z'
loop_
 _atom_site_type_symbol
 _atom_site_label
 _atom_site_symmetry_multiplicity
 _atom_site_fract_x
 _atom_site_fract_y
 _atom_site_fract_z
 _atom_site_occupancy
  Tb  Tb0  1  0.752070  0.752070  0.743791  1
  Tb  Tb1  1  0.497930  0.497930  0.506209  1
  Ni  Ni2  1  0.125000  0.125000  0.625000  1
  Rh  Rh3  1  0.125000  0.625000  0.125000  1
  Rh  Rh4  1  0.625000  0.125000  0.125000  1
  Rh  Rh5  1  0.125000  0.125000  0.125000  1
