# generated using pymatgen
data_Nd5W2C7
_symmetry_space_group_name_H-M   'P 1'
_cell_length_a   8.76142466
_cell_length_b   8.76142449
_cell_length_c   3.54683000
_cell_angle_alpha   90.00000000
_cell_angle_beta   90.00000000
_cell_angle_gamma   124.75128607
_symmetry_Int_Tables_number   1
_chemical_formula_structural   Nd5W2C7
_chemical_formula_sum   'Nd5 W2 C7'
_cell_volume   223.70119524
_cell_formula_units_Z   1
loop_
 _symmetry_equiv_pos_site_id
 _symmetry_equiv_pos_as_xyz
  1  'x, y, z'
loop_
 _atom_site_type_symbol
 _atom_site_label
 _atom_site_symmetry_multiplicity
 _atom_site_fract_x
 _atom_site_fract_y
 _atom_site_fract_z
 _atom_site_occupancy
  Nd  Nd0  1  0.500000  0.500000  0.000000  1
  Nd  Nd1  1  0.067206  0.325454  0.500000  1
  Nd  Nd2  1  0.932794  0.674546  0.500000  1
  Nd  Nd3  1  0.674546  0.932794  0.500000  1
  Nd  Nd4  1  0.325454  0.067206  0.500000  1
  W  W5  1  0.712079  0.287921  0.000000  1
  W  W6  1  0.287921  0.712079  0.000000  1
  C  C7  1  0.632195  0.367805  0.500000  1
  C  C8  1  0.367805  0.632195  0.500000  1
  C  C9  1  0.000000  0.000000  0.000000  1
  C  C10  1  0.166695  0.166695  0.000000  1
  C  C11  1  0.833305  0.833305  0.000000  1
  C  C12  1  0.000000  0.500000  0.000000  1
  C  C13  1  0.500000  0.000000  0.000000  1
