# generated using pymatgen
data_MgZrSi(Ni2P)6
_symmetry_space_group_name_H-M   'P 1'
_cell_length_a   9.00736000
_cell_length_b   9.00736086
_cell_length_c   3.58402000
_cell_angle_alpha   90.00000000
_cell_angle_beta   90.00000000
_cell_angle_gamma   120.00000418
_symmetry_Int_Tables_number   1
_chemical_formula_structural   MgZrSi(Ni2P)6
_chemical_formula_sum   'Mg1 Zr1 Si1 Ni12 P6'
_cell_volume   251.82342180
_cell_formula_units_Z   1
loop_
 _symmetry_equiv_pos_site_id
 _symmetry_equiv_pos_as_xyz
  1  'x, y, z'
loop_
 _atom_site_type_symbol
 _atom_site_label
 _atom_site_symmetry_multiplicity
 _atom_site_fract_x
 _atom_site_fract_y
 _atom_site_fract_z
 _atom_site_occupancy
  Mg  Mg0  1  0.333333  0.666667  0.500000  1
  Zr  Zr1  1  0.000000  0.000000  0.000000  1
  Si  Si2  1  0.666667  0.333333  0.000000  1
  Ni  Ni3  1  0.292410  0.396411  0.000000  1
  Ni  Ni4  1  0.881289  0.458693  0.500000  1
  Ni  Ni5  1  0.104000  0.707590  0.000000  1
  Ni  Ni6  1  0.541307  0.422597  0.500000  1
  Ni  Ni7  1  0.382807  0.173191  0.000000  1
  Ni  Ni8  1  0.790384  0.617193  0.000000  1
  Ni  Ni9  1  0.826809  0.209616  0.000000  1
  Ni  Ni10  1  0.234183  0.948282  0.500000  1
  Ni  Ni11  1  0.051718  0.285900  0.500000  1
  Ni  Ni12  1  0.714100  0.765817  0.500000  1
  Ni  Ni13  1  0.577403  0.118711  0.500000  1
  Ni  Ni14  1  0.603589  0.896000  0.000000  1
  P  P15  1  0.077824  0.452846  0.000000  1
  P  P16  1  0.254656  0.213977  0.500000  1
  P  P17  1  0.786023  0.040679  0.500000  1
  P  P18  1  0.959321  0.745344  0.500000  1
  P  P19  1  0.547154  0.624978  0.000000  1
  P  P20  1  0.375022  0.922176  0.000000  1
