# generated using pymatgen
data_Dy8Zn3Si12Au
_symmetry_space_group_name_H-M   'P 1'
_cell_length_a   8.14511800
_cell_length_b   8.14511828
_cell_length_c   8.05494200
_cell_angle_alpha   90.00000000
_cell_angle_beta   90.00000000
_cell_angle_gamma   119.99999076
_symmetry_Int_Tables_number   1
_chemical_formula_structural   Dy8Zn3Si12Au
_chemical_formula_sum   'Dy8 Zn3 Si12 Au1'
_cell_volume   462.79415496
_cell_formula_units_Z   1
loop_
 _symmetry_equiv_pos_site_id
 _symmetry_equiv_pos_as_xyz
  1  'x, y, z'
loop_
 _atom_site_type_symbol
 _atom_site_label
 _atom_site_symmetry_multiplicity
 _atom_site_fract_x
 _atom_site_fract_y
 _atom_site_fract_z
 _atom_site_occupancy
  Dy  Dy0  1  0.000000  0.000000  0.248754  1
  Dy  Dy1  1  0.000000  0.000000  0.750998  1
  Dy  Dy2  1  0.004925  0.502463  0.247693  1
  Dy  Dy3  1  0.497537  0.502463  0.247693  1
  Dy  Dy4  1  0.499725  0.999450  0.752320  1
  Dy  Dy5  1  0.497537  0.995075  0.247693  1
  Dy  Dy6  1  0.499725  0.500275  0.752320  1
  Dy  Dy7  1  0.000550  0.500275  0.752320  1
  Zn  Zn8  1  0.333333  0.666667  0.993961  1
  Zn  Zn9  1  0.333333  0.666667  0.503589  1
  Zn  Zn10  1  0.666667  0.333333  0.006405  1
  Si  Si11  1  0.167214  0.334427  0.000922  1
  Si  Si12  1  0.665573  0.832786  0.000922  1
  Si  Si13  1  0.166882  0.333762  0.501030  1
  Si  Si14  1  0.332469  0.166235  0.998962  1
  Si  Si15  1  0.167214  0.832786  0.000922  1
  Si  Si16  1  0.666238  0.833118  0.501030  1
  Si  Si17  1  0.833765  0.667531  0.998962  1
  Si  Si18  1  0.327049  0.163525  0.498525  1
  Si  Si19  1  0.166882  0.833118  0.501030  1
  Si  Si20  1  0.836475  0.672951  0.498525  1
  Si  Si21  1  0.833765  0.166235  0.998962  1
  Si  Si22  1  0.836475  0.163525  0.498525  1
  Au  Au23  1  0.666667  0.333333  0.497936  1
