# generated using pymatgen
data_Sr4YbEr(IrO6)2
_symmetry_space_group_name_H-M   'P 1'
_cell_length_a   5.80186696
_cell_length_b   5.87471597
_cell_length_c   8.17844545
_cell_angle_alpha   89.90581527
_cell_angle_beta   90.33626371
_cell_angle_gamma   90.01355924
_symmetry_Int_Tables_number   1
_chemical_formula_structural   Sr4YbEr(IrO6)2
_chemical_formula_sum   'Sr4 Yb1 Er1 Ir2 O12'
_cell_volume   278.75157168
_cell_formula_units_Z   1
loop_
 _symmetry_equiv_pos_site_id
 _symmetry_equiv_pos_as_xyz
  1  'x, y, z'
loop_
 _atom_site_type_symbol
 _atom_site_label
 _atom_site_symmetry_multiplicity
 _atom_site_fract_x
 _atom_site_fract_y
 _atom_site_fract_z
 _atom_site_occupancy
  Sr  Sr0  1  0.010199  0.037306  0.243641  1
  Sr  Sr1  1  0.489746  0.540496  0.244635  1
  Sr  Sr2  1  0.510254  0.459505  0.755364  1
  Sr  Sr3  1  0.989800  0.962694  0.756360  1
  Yb  Yb4  1  0.500001  0.000000  0.000000  1
  Er  Er5  1  0.000000  0.500000  0.500000  1
  Ir  Ir6  1  0.000000  0.500000  0.000000  1
  Ir  Ir7  1  0.500001  0.000000  0.500000  1
  O  O8  1  0.267705  0.301094  0.036430  1
  O  O9  1  0.195858  0.768058  0.039370  1
  O  O10  1  0.927383  0.482547  0.235340  1
  O  O11  1  0.575064  0.982291  0.270417  1
  O  O12  1  0.300409  0.273100  0.457109  1
  O  O13  1  0.228200  0.796827  0.459417  1
  O  O14  1  0.771800  0.203172  0.540582  1
  O  O15  1  0.699591  0.726899  0.542890  1
  O  O16  1  0.424935  0.017709  0.729584  1
  O  O17  1  0.072617  0.517454  0.764660  1
  O  O18  1  0.804142  0.231942  0.960630  1
  O  O19  1  0.732295  0.698905  0.963571  1
