# generated using pymatgen
data_Eu6HoErSb6
_symmetry_space_group_name_H-M   'P 1'
_cell_length_a   8.26684335
_cell_length_b   8.26331212
_cell_length_c   8.35101900
_cell_angle_alpha   109.55216548
_cell_angle_beta   109.56061074
_cell_angle_gamma   109.05525897
_symmetry_Int_Tables_number   1
_chemical_formula_structural   Eu6HoErSb6
_chemical_formula_sum   'Eu6 Ho1 Er1 Sb6'
_cell_volume   440.46631005
_cell_formula_units_Z   1
loop_
 _symmetry_equiv_pos_site_id
 _symmetry_equiv_pos_as_xyz
  1  'x, y, z'
loop_
 _atom_site_type_symbol
 _atom_site_label
 _atom_site_symmetry_multiplicity
 _atom_site_fract_x
 _atom_site_fract_y
 _atom_site_fract_z
 _atom_site_occupancy
  Eu  Eu0  1  0.501024  0.003382  0.357805  1
  Eu  Eu1  1  0.503495  0.000876  0.857859  1
  Eu  Eu2  1  0.643378  0.642954  0.646601  1
  Eu  Eu3  1  0.996731  0.356379  0.496589  1
  Eu  Eu4  1  0.142809  0.143091  0.146370  1
  Eu  Eu5  1  0.855686  0.496427  0.996197  1
  Ho  Ho6  1  0.999734  0.857133  0.498377  1
  Er  Er7  1  0.357302  0.499600  0.998083  1
  Sb  Sb8  1  0.128381  0.747915  0.870876  1
  Sb  Sb9  1  0.889013  0.124155  0.748595  1
  Sb  Sb10  1  0.623571  0.388870  0.248035  1
  Sb  Sb11  1  0.364843  0.246689  0.632287  1
  Sb  Sb12  1  0.745912  0.864318  0.131735  1
  Sb  Sb13  1  0.248119  0.628211  0.370593  1
