# generated using pymatgen
data_Sm3Cu3(Ni5B)2
_symmetry_space_group_name_H-M   'P 1'
_cell_length_a   5.03439000
_cell_length_b   5.03439082
_cell_length_c   10.92369500
_cell_angle_alpha   90.00000000
_cell_angle_beta   90.00000000
_cell_angle_gamma   120.00000777
_symmetry_Int_Tables_number   1
_chemical_formula_structural   Sm3Cu3(Ni5B)2
_chemical_formula_sum   'Sm3 Cu3 Ni10 B2'
_cell_volume   239.76950473
_cell_formula_units_Z   1
loop_
 _symmetry_equiv_pos_site_id
 _symmetry_equiv_pos_as_xyz
  1  'x, y, z'
loop_
 _atom_site_type_symbol
 _atom_site_label
 _atom_site_symmetry_multiplicity
 _atom_site_fract_x
 _atom_site_fract_y
 _atom_site_fract_z
 _atom_site_occupancy
  Sm  Sm0  1  0.000000  0.000000  0.000477  1
  Sm  Sm1  1  0.000000  0.000000  0.666776  1
  Sm  Sm2  1  0.000000  0.000000  0.330409  1
  Cu  Cu3  1  0.666667  0.333333  0.682654  1
  Cu  Cu4  1  0.333333  0.666667  0.683056  1
  Cu  Cu5  1  0.333333  0.666667  0.316770  1
  Ni  Ni6  1  0.500391  0.499609  0.499484  1
  Ni  Ni7  1  0.500391  0.000781  0.499484  1
  Ni  Ni8  1  0.999219  0.499609  0.499484  1
  Ni  Ni9  1  0.666667  0.333333  0.318785  1
  Ni  Ni10  1  0.499899  0.500101  0.870109  1
  Ni  Ni11  1  0.499899  0.999797  0.870109  1
  Ni  Ni12  1  0.000203  0.500101  0.870109  1
  Ni  Ni13  1  0.501208  0.498792  0.130604  1
  Ni  Ni14  1  0.501208  0.002417  0.130604  1
  Ni  Ni15  1  0.997583  0.498792  0.130604  1
  B  B16  1  0.666667  0.333333  0.000020  1
  B  B17  1  0.333333  0.666667  0.000459  1
