# generated using pymatgen
data_Tm6BiO12
_symmetry_space_group_name_H-M   'P 1'
_cell_length_a   6.47146552
_cell_length_b   6.47146500
_cell_length_c   6.47146571
_cell_angle_alpha   99.23411479
_cell_angle_beta   99.23411355
_cell_angle_gamma   99.23411134
_symmetry_Int_Tables_number   1
_chemical_formula_structural   Tm6BiO12
_chemical_formula_sum   'Tm6 Bi1 O12'
_cell_volume   259.17683935
_cell_formula_units_Z   1
loop_
 _symmetry_equiv_pos_site_id
 _symmetry_equiv_pos_as_xyz
  1  'x, y, z'
loop_
 _atom_site_type_symbol
 _atom_site_label
 _atom_site_symmetry_multiplicity
 _atom_site_fract_x
 _atom_site_fract_y
 _atom_site_fract_z
 _atom_site_occupancy
  Tm  Tm0  1  0.859175  0.392133  0.689927  1
  Tm  Tm1  1  0.607867  0.310073  0.140825  1
  Tm  Tm2  1  0.310073  0.140825  0.607867  1
  Tm  Tm3  1  0.689927  0.859175  0.392133  1
  Tm  Tm4  1  0.392133  0.689927  0.859175  1
  Tm  Tm5  1  0.140825  0.607867  0.310073  1
  Bi  Bi6  1  0.000000  0.000000  0.000000  1
  O  O7  1  0.925210  0.053851  0.681685  1
  O  O8  1  0.946149  0.318315  0.074790  1
  O  O9  1  0.583290  0.179034  0.430909  1
  O  O10  1  0.820966  0.569091  0.416710  1
  O  O11  1  0.318315  0.074790  0.946149  1
  O  O12  1  0.569091  0.416710  0.820966  1
  O  O13  1  0.430909  0.583290  0.179034  1
  O  O14  1  0.681685  0.925210  0.053851  1
  O  O15  1  0.179034  0.430909  0.583290  1
  O  O16  1  0.416710  0.820966  0.569091  1
  O  O17  1  0.053851  0.681685  0.925210  1
  O  O18  1  0.074790  0.946149  0.318315  1
