# generated using pymatgen
data_Nb4Co2Ni(SeS2)4
_symmetry_space_group_name_H-M   'P 1'
_cell_length_a   7.33341283
_cell_length_b   7.33341132
_cell_length_c   18.70114318
_cell_angle_alpha   69.53156984
_cell_angle_beta   69.53157329
_cell_angle_gamma   26.33560398
_symmetry_Int_Tables_number   1
_chemical_formula_structural   Nb4Co2Ni(SeS2)4
_chemical_formula_sum   'Nb4 Co2 Ni1 Se4 S8'
_cell_volume   416.40337734
_cell_formula_units_Z   1
loop_
 _symmetry_equiv_pos_site_id
 _symmetry_equiv_pos_as_xyz
  1  'x, y, z'
loop_
 _atom_site_type_symbol
 _atom_site_label
 _atom_site_symmetry_multiplicity
 _atom_site_fract_x
 _atom_site_fract_y
 _atom_site_fract_z
 _atom_site_occupancy
  Nb  Nb0  1  0.742763  0.742763  0.590072  1
  Nb  Nb1  1  0.261428  0.261428  0.410190  1
  Nb  Nb2  1  0.617055  0.617055  0.854072  1
  Nb  Nb3  1  0.386888  0.386888  0.145001  1
  Co  Co4  1  0.774635  0.774635  0.279255  1
  Co  Co5  1  0.226658  0.226658  0.721961  1
  Ni  Ni6  1  0.999896  0.999896  0.000923  1
  Se  Se7  1  0.370789  0.370789  0.608990  1
  Se  Se8  1  0.965888  0.965888  0.887520  1
  Se  Se9  1  0.199388  0.199388  0.227437  1
  Se  Se10  1  0.632243  0.632243  0.392780  1
  S  S11  1  0.862126  0.862126  0.450732  1
  S  S12  1  0.025177  0.025177  0.110740  1
  S  S13  1  0.791632  0.791632  0.771176  1
  S  S14  1  0.383833  0.383833  0.279080  1
  S  S15  1  0.162980  0.162980  0.934091  1
  S  S16  1  0.617434  0.617434  0.720211  1
  S  S17  1  0.142014  0.142014  0.549430  1
  S  S18  1  0.837173  0.837173  0.066340  1
