# generated using pymatgen
data_Ho16In6CuAu
_symmetry_space_group_name_H-M   'P 1'
_cell_length_a   10.55376600
_cell_length_b   10.55376647
_cell_length_c   6.83347300
_cell_angle_alpha   90.00000000
_cell_angle_beta   90.00000000
_cell_angle_gamma   119.99999854
_symmetry_Int_Tables_number   1
_chemical_formula_structural   Ho16In6CuAu
_chemical_formula_sum   'Ho16 In6 Cu1 Au1'
_cell_volume   659.15425738
_cell_formula_units_Z   1
loop_
 _symmetry_equiv_pos_site_id
 _symmetry_equiv_pos_as_xyz
  1  'x, y, z'
loop_
 _atom_site_type_symbol
 _atom_site_label
 _atom_site_symmetry_multiplicity
 _atom_site_fract_x
 _atom_site_fract_y
 _atom_site_fract_z
 _atom_site_occupancy
  Ho  Ho0  1  0.524092  0.048184  0.509073  1
  Ho  Ho1  1  0.951816  0.475908  0.509073  1
  Ho  Ho2  1  0.524092  0.475908  0.509073  1
  Ho  Ho3  1  0.474214  0.948429  0.009489  1
  Ho  Ho4  1  0.051571  0.525786  0.009489  1
  Ho  Ho5  1  0.474214  0.525786  0.009489  1
  Ho  Ho6  1  0.175184  0.350367  0.724887  1
  Ho  Ho7  1  0.649633  0.824816  0.724887  1
  Ho  Ho8  1  0.175184  0.824816  0.724887  1
  Ho  Ho9  1  0.827398  0.654798  0.222707  1
  Ho  Ho10  1  0.345202  0.172602  0.222707  1
  Ho  Ho11  1  0.827398  0.172602  0.222707  1
  Ho  Ho12  1  0.666667  0.333333  0.865467  1
  Ho  Ho13  1  0.333333  0.666667  0.381352  1
  Ho  Ho14  1  0.000000  0.000000  0.492520  1
  Ho  Ho15  1  0.000000  0.000000  0.989091  1
  In  In16  1  0.836632  0.673264  0.743894  1
  In  In17  1  0.326736  0.163368  0.743894  1
  In  In18  1  0.836632  0.163368  0.743894  1
  In  In19  1  0.164811  0.329621  0.244958  1
  In  In20  1  0.670379  0.835189  0.244958  1
  In  In21  1  0.164811  0.835189  0.244958  1
  Cu  Cu22  1  0.333333  0.666667  0.786298  1
  Au  Au23  1  0.666667  0.333333  0.278285  1
