# generated using pymatgen
data_UTiN2
_symmetry_space_group_name_H-M   'P 1'
_cell_length_a   3.20159200
_cell_length_b   5.55332600
_cell_length_c   10.87267600
_cell_angle_alpha   90.00000000
_cell_angle_beta   90.00000000
_cell_angle_gamma   90.00000000
_symmetry_Int_Tables_number   1
_chemical_formula_structural   UTiN2
_chemical_formula_sum   'U4 Ti4 N8'
_cell_volume   193.31057001
_cell_formula_units_Z   4
loop_
 _symmetry_equiv_pos_site_id
 _symmetry_equiv_pos_as_xyz
  1  'x, y, z'
loop_
 _atom_site_type_symbol
 _atom_site_label
 _atom_site_symmetry_multiplicity
 _atom_site_fract_x
 _atom_site_fract_y
 _atom_site_fract_z
 _atom_site_occupancy
  U  U0  1  0.750000  0.078421  0.858135  1
  U  U1  1  0.750000  0.578421  0.641865  1
  U  U2  1  0.250000  0.921579  0.141865  1
  U  U3  1  0.250000  0.421579  0.358135  1
  Ti  Ti4  1  0.250000  0.079664  0.601003  1
  Ti  Ti5  1  0.750000  0.420336  0.101003  1
  Ti  Ti6  1  0.250000  0.579664  0.898997  1
  Ti  Ti7  1  0.750000  0.920336  0.398997  1
  N  N8  1  0.250000  0.335559  0.745009  1
  N  N9  1  0.750000  0.164441  0.245009  1
  N  N10  1  0.250000  0.254846  0.005237  1
  N  N11  1  0.750000  0.664441  0.254991  1
  N  N12  1  0.250000  0.835559  0.754991  1
  N  N13  1  0.750000  0.745154  0.994763  1
  N  N14  1  0.750000  0.245154  0.505237  1
  N  N15  1  0.250000  0.754846  0.494763  1
