# generated using pymatgen
data_Na(Pt3O4)4
_symmetry_space_group_name_H-M   'P 1'
_cell_length_a   8.05219575
_cell_length_b   8.05219566
_cell_length_c   8.05219500
_cell_angle_alpha   59.99999859
_cell_angle_beta   59.99999896
_cell_angle_gamma   59.99999657
_symmetry_Int_Tables_number   1
_chemical_formula_structural   Na(Pt3O4)4
_chemical_formula_sum   'Na1 Pt12 O16'
_cell_volume   369.17128189
_cell_formula_units_Z   1
loop_
 _symmetry_equiv_pos_site_id
 _symmetry_equiv_pos_as_xyz
  1  'x, y, z'
loop_
 _atom_site_type_symbol
 _atom_site_label
 _atom_site_symmetry_multiplicity
 _atom_site_fract_x
 _atom_site_fract_y
 _atom_site_fract_z
 _atom_site_occupancy
  Na  Na0  1  0.000000  0.000000  0.000000  1
  Pt  Pt1  1  0.377609  0.875151  0.124849  1
  Pt  Pt2  1  0.622391  0.124849  0.875151  1
  Pt  Pt3  1  0.622391  0.875151  0.377609  1
  Pt  Pt4  1  0.124849  0.875151  0.622391  1
  Pt  Pt5  1  0.622391  0.377609  0.124849  1
  Pt  Pt6  1  0.377609  0.124849  0.622391  1
  Pt  Pt7  1  0.875151  0.377609  0.622391  1
  Pt  Pt8  1  0.124849  0.622391  0.377609  1
  Pt  Pt9  1  0.124849  0.377609  0.875151  1
  Pt  Pt10  1  0.377609  0.622391  0.875151  1
  Pt  Pt11  1  0.875151  0.124849  0.377609  1
  Pt  Pt12  1  0.875151  0.622391  0.124849  1
  O  O13  1  0.634952  0.121682  0.121682  1
  O  O14  1  0.372681  0.881959  0.372681  1
  O  O15  1  0.121682  0.121682  0.634952  1
  O  O16  1  0.878318  0.878318  0.878318  1
  O  O17  1  0.627319  0.627319  0.118041  1
  O  O18  1  0.372681  0.372681  0.372681  1
  O  O19  1  0.627319  0.118041  0.627319  1
  O  O20  1  0.365048  0.878318  0.878318  1
  O  O21  1  0.372681  0.372681  0.881959  1
  O  O22  1  0.118041  0.627319  0.627319  1
  O  O23  1  0.627319  0.627319  0.627319  1
  O  O24  1  0.878318  0.365048  0.878318  1
  O  O25  1  0.121682  0.121682  0.121682  1
  O  O26  1  0.878318  0.878318  0.365048  1
  O  O27  1  0.881959  0.372681  0.372681  1
  O  O28  1  0.121682  0.634952  0.121682  1
