# generated using pymatgen
data_Zr3FeSn3Ir2
_symmetry_space_group_name_H-M   'P 1'
_cell_length_a   7.44309319
_cell_length_b   7.44253834
_cell_length_c   7.08705706
_cell_angle_alpha   89.99277032
_cell_angle_beta   90.01547293
_cell_angle_gamma   119.98162789
_symmetry_Int_Tables_number   1
_chemical_formula_structural   Zr3FeSn3Ir2
_chemical_formula_sum   'Zr6 Fe2 Sn6 Ir4'
_cell_volume   340.05679223
_cell_formula_units_Z   2
loop_
 _symmetry_equiv_pos_site_id
 _symmetry_equiv_pos_as_xyz
  1  'x, y, z'
loop_
 _atom_site_type_symbol
 _atom_site_label
 _atom_site_symmetry_multiplicity
 _atom_site_fract_x
 _atom_site_fract_y
 _atom_site_fract_z
 _atom_site_occupancy
  Zr  Zr0  1  0.400087  0.015672  0.250021  1
  Zr  Zr1  1  0.598770  0.614655  0.750009  1
  Zr  Zr2  1  0.615606  0.599910  0.249992  1
  Zr  Zr3  1  0.984294  0.384374  0.250005  1
  Zr  Zr4  1  0.015858  0.401227  0.749984  1
  Zr  Zr5  1  0.385339  0.984114  0.749994  1
  Fe  Fe6  1  0.999957  0.999966  0.750031  1
  Fe  Fe7  1  0.999949  0.999974  0.249967  1
  Sn  Sn8  1  0.264075  0.264336  0.499491  1
  Sn  Sn9  1  0.264054  0.264328  0.000507  1
  Sn  Sn10  1  0.735684  0.999695  0.000502  1
  Sn  Sn11  1  0.000289  0.735932  0.499504  1
  Sn  Sn12  1  0.735646  0.999773  0.499467  1
  Sn  Sn13  1  0.000273  0.735969  0.000522  1
  Ir  Ir14  1  0.666700  0.333341  0.526650  1
  Ir  Ir15  1  0.666704  0.333348  0.973344  1
  Ir  Ir16  1  0.333365  0.666693  0.027823  1
  Ir  Ir17  1  0.333350  0.666692  0.472186  1
