# generated using pymatgen
data_HgBiRh2O7
_symmetry_space_group_name_H-M   'P 1'
_cell_length_a   7.30206658
_cell_length_b   7.14015589
_cell_length_c   7.30206666
_cell_angle_alpha   60.73081459
_cell_angle_beta   61.47089300
_cell_angle_gamma   60.73081793
_symmetry_Int_Tables_number   1
_chemical_formula_structural   HgBiRh2O7
_chemical_formula_sum   'Hg2 Bi2 Rh4 O14'
_cell_volume   275.10419263
_cell_formula_units_Z   2
loop_
 _symmetry_equiv_pos_site_id
 _symmetry_equiv_pos_as_xyz
  1  'x, y, z'
loop_
 _atom_site_type_symbol
 _atom_site_label
 _atom_site_symmetry_multiplicity
 _atom_site_fract_x
 _atom_site_fract_y
 _atom_site_fract_z
 _atom_site_occupancy
  Hg  Hg0  1  0.125000  0.125000  0.125000  1
  Hg  Hg1  1  0.125000  0.625000  0.125000  1
  Bi  Bi2  1  0.625000  0.125000  0.125000  1
  Bi  Bi3  1  0.125000  0.125000  0.625000  1
  Rh  Rh4  1  0.625000  0.625000  0.625000  1
  Rh  Rh5  1  0.625000  0.625000  0.125000  1
  Rh  Rh6  1  0.125000  0.625000  0.625000  1
  Rh  Rh7  1  0.625000  0.125000  0.625000  1
  O  O8  1  0.248592  0.251408  0.248592  1
  O  O9  1  0.304399  0.695601  0.304399  1
  O  O10  1  0.952738  0.957339  0.553223  1
  O  O11  1  0.541342  0.958658  0.541342  1
  O  O12  1  0.696777  0.713299  0.297262  1
  O  O13  1  0.952738  0.536701  0.553223  1
  O  O14  1  0.708658  0.291342  0.708658  1
  O  O15  1  0.297262  0.292661  0.696777  1
  O  O16  1  0.696777  0.292661  0.297262  1
  O  O17  1  0.297262  0.713299  0.696777  1
  O  O18  1  0.945601  0.554399  0.945601  1
  O  O19  1  0.553223  0.536701  0.952738  1
  O  O20  1  0.001408  0.998592  0.001408  1
  O  O21  1  0.553223  0.957339  0.952738  1
