# generated using pymatgen
data_MgMn2(AgO2)3
_symmetry_space_group_name_H-M   'P 1'
_cell_length_a   5.27570931
_cell_length_b   5.38544096
_cell_length_c   6.46277057
_cell_angle_alpha   74.81658471
_cell_angle_beta   97.68220523
_cell_angle_gamma   120.69044936
_symmetry_Int_Tables_number   1
_chemical_formula_structural   MgMn2(AgO2)3
_chemical_formula_sum   'Mg1 Mn2 Ag3 O6'
_cell_volume   152.39003050
_cell_formula_units_Z   1
loop_
 _symmetry_equiv_pos_site_id
 _symmetry_equiv_pos_as_xyz
  1  'x, y, z'
loop_
 _atom_site_type_symbol
 _atom_site_label
 _atom_site_symmetry_multiplicity
 _atom_site_fract_x
 _atom_site_fract_y
 _atom_site_fract_z
 _atom_site_occupancy
  Mg  Mg0  1  0.333333  0.166667  0.500000  1
  Mn  Mn1  1  0.000632  0.500315  0.500000  1
  Mn  Mn2  1  0.666035  0.833018  0.500000  1
  Ag  Ag3  1  0.672409  0.336204  0.000000  1
  Ag  Ag4  1  0.333333  0.666667  0.000000  1
  Ag  Ag5  1  0.994258  0.997129  0.000000  1
  O  O6  1  0.333333  0.766914  0.660184  1
  O  O7  1  0.981870  0.105307  0.662929  1
  O  O8  1  0.684797  0.456770  0.662929  1
  O  O9  1  0.684797  0.228026  0.337071  1
  O  O10  1  0.333333  0.566420  0.339816  1
  O  O11  1  0.981870  0.876563  0.337071  1
