# generated using pymatgen
data_HoEr4In4IrPd
_symmetry_space_group_name_H-M   'P 1'
_cell_length_a   3.59863600
_cell_length_b   8.10472721
_cell_length_c   18.18681769
_cell_angle_alpha   90.09736873
_cell_angle_beta   90.00000000
_cell_angle_gamma   90.00000000
_symmetry_Int_Tables_number   1
_chemical_formula_structural   HoEr4In4IrPd
_chemical_formula_sum   'Ho2 Er8 In8 Ir2 Pd2'
_cell_volume   530.43528801
_cell_formula_units_Z   2
loop_
 _symmetry_equiv_pos_site_id
 _symmetry_equiv_pos_as_xyz
  1  'x, y, z'
loop_
 _atom_site_type_symbol
 _atom_site_label
 _atom_site_symmetry_multiplicity
 _atom_site_fract_x
 _atom_site_fract_y
 _atom_site_fract_z
 _atom_site_occupancy
  Ho  Ho0  1  0.000000  0.500000  0.500000  1
  Ho  Ho1  1  0.000000  0.000000  0.000000  1
  Er  Er2  1  0.000000  0.728271  0.277483  1
  Er  Er3  1  0.000000  0.271729  0.722517  1
  Er  Er4  1  0.000000  0.747352  0.779925  1
  Er  Er5  1  0.000000  0.252648  0.220075  1
  Er  Er6  1  0.000000  0.613304  0.086957  1
  Er  Er7  1  0.000000  0.386696  0.913043  1
  Er  Er8  1  0.000000  0.884962  0.584386  1
  Er  Er9  1  0.000000  0.115038  0.415614  1
  In  In10  1  0.500000  0.709847  0.932189  1
  In  In11  1  0.500000  0.290153  0.067811  1
  In  In12  1  0.500000  0.790561  0.432059  1
  In  In13  1  0.500000  0.209439  0.567941  1
  In  In14  1  0.500000  0.579286  0.648182  1
  In  In15  1  0.500000  0.420714  0.351818  1
  In  In16  1  0.500000  0.921867  0.149663  1
  In  In17  1  0.500000  0.078133  0.850337  1
  Ir  Ir18  1  0.500000  0.519539  0.195819  1
  Ir  Ir19  1  0.500000  0.480461  0.804181  1
  Pd  Pd20  1  0.500000  0.980242  0.696077  1
  Pd  Pd21  1  0.500000  0.019758  0.303923  1
