# generated using pymatgen
data_Lu6Ta4Ga12Os7
_symmetry_space_group_name_H-M   'P 1'
_cell_length_a   8.97381819
_cell_length_b   8.97381870
_cell_length_c   8.97381800
_cell_angle_alpha   59.99999520
_cell_angle_beta   59.99999333
_cell_angle_gamma   59.99999743
_symmetry_Int_Tables_number   1
_chemical_formula_structural   Lu6Ta4Ga12Os7
_chemical_formula_sum   'Lu6 Ta4 Ga12 Os7'
_cell_volume   510.99514149
_cell_formula_units_Z   1
loop_
 _symmetry_equiv_pos_site_id
 _symmetry_equiv_pos_as_xyz
  1  'x, y, z'
loop_
 _atom_site_type_symbol
 _atom_site_label
 _atom_site_symmetry_multiplicity
 _atom_site_fract_x
 _atom_site_fract_y
 _atom_site_fract_z
 _atom_site_occupancy
  Lu  Lu0  1  0.708867  0.708867  0.291133  1
  Lu  Lu1  1  0.291133  0.708867  0.291133  1
  Lu  Lu2  1  0.708867  0.291133  0.291133  1
  Lu  Lu3  1  0.291133  0.291133  0.708867  1
  Lu  Lu4  1  0.708867  0.291133  0.708867  1
  Lu  Lu5  1  0.291133  0.708867  0.708867  1
  Ta  Ta6  1  0.878291  0.878291  0.365129  1
  Ta  Ta7  1  0.878291  0.365129  0.878291  1
  Ta  Ta8  1  0.365129  0.878291  0.878291  1
  Ta  Ta9  1  0.878291  0.878291  0.878291  1
  Ga  Ga10  1  0.119454  0.119454  0.641639  1
  Ga  Ga11  1  0.119454  0.641639  0.119454  1
  Ga  Ga12  1  0.641639  0.119454  0.119454  1
  Ga  Ga13  1  0.119454  0.119454  0.119454  1
  Ga  Ga14  1  0.661396  0.661396  0.015811  1
  Ga  Ga15  1  0.661396  0.015811  0.661396  1
  Ga  Ga16  1  0.015811  0.661396  0.661396  1
  Ga  Ga17  1  0.661396  0.661396  0.661396  1
  Ga  Ga18  1  0.336077  0.336077  0.991771  1
  Ga  Ga19  1  0.336077  0.991771  0.336077  1
  Ga  Ga20  1  0.991771  0.336077  0.336077  1
  Ga  Ga21  1  0.336077  0.336077  0.336077  1
  Os  Os22  1  0.000000  0.000000  0.000000  1
  Os  Os23  1  0.995947  0.995947  0.504053  1
  Os  Os24  1  0.504053  0.995947  0.504053  1
  Os  Os25  1  0.995947  0.504053  0.504053  1
  Os  Os26  1  0.504053  0.504053  0.995947  1
  Os  Os27  1  0.995947  0.504053  0.995947  1
  Os  Os28  1  0.504053  0.995947  0.995947  1
