# generated using pymatgen
data_Er7TmTi11Si16Hg
_symmetry_space_group_name_H-M   'P 1'
_cell_length_a   7.05548788
_cell_length_b   7.05563597
_cell_length_c   12.87325907
_cell_angle_alpha   90.11849898
_cell_angle_beta   89.88336355
_cell_angle_gamma   89.62615098
_symmetry_Int_Tables_number   1
_chemical_formula_structural   Er7TmTi11Si16Hg
_chemical_formula_sum   'Er7 Tm1 Ti11 Si16 Hg1'
_cell_volume   640.82676064
_cell_formula_units_Z   1
loop_
 _symmetry_equiv_pos_site_id
 _symmetry_equiv_pos_as_xyz
  1  'x, y, z'
loop_
 _atom_site_type_symbol
 _atom_site_label
 _atom_site_symmetry_multiplicity
 _atom_site_fract_x
 _atom_site_fract_y
 _atom_site_fract_z
 _atom_site_occupancy
  Er  Er0  1  0.497807  0.840479  0.716011  1
  Er  Er1  1  0.501648  0.156539  0.215115  1
  Er  Er2  1  0.840468  0.497807  0.283982  1
  Er  Er3  1  0.156535  0.501640  0.784891  1
  Er  Er4  1  0.657010  0.001045  0.968514  1
  Er  Er5  1  0.001374  0.340857  0.533093  1
  Er  Er6  1  0.001034  0.657011  0.031477  1
  Tm  Tm7  1  0.340949  0.001264  0.466915  1
  Ti  Ti8  1  0.173922  0.826361  0.250675  1
  Ti  Ti9  1  0.826352  0.173905  0.749346  1
  Ti  Ti10  1  0.672367  0.672455  0.499988  1
  Ti  Ti11  1  0.146595  0.008870  0.876824  1
  Ti  Ti12  1  0.496798  0.649922  0.122945  1
  Ti  Ti13  1  0.506052  0.351745  0.623737  1
  Ti  Ti14  1  0.649912  0.496807  0.877063  1
  Ti  Ti15  1  0.351770  0.506096  0.376246  1
  Ti  Ti16  1  0.850225  0.991249  0.374313  1
  Ti  Ti17  1  0.008896  0.146561  0.123179  1
  Ti  Ti18  1  0.991291  0.850219  0.625663  1
  Si  Si19  1  0.201679  0.132802  0.683571  1
  Si  Si20  1  0.373593  0.725754  0.926219  1
  Si  Si21  1  0.632165  0.293133  0.431929  1
  Si  Si22  1  0.725752  0.373583  0.073773  1
  Si  Si23  1  0.293244  0.632368  0.568042  1
  Si  Si24  1  0.798463  0.866226  0.182633  1
  Si  Si25  1  0.132901  0.201542  0.316460  1
  Si  Si26  1  0.866207  0.798457  0.817369  1
  Si  Si27  1  0.286833  0.933040  0.067408  1
  Si  Si28  1  0.546412  0.790974  0.314649  1
  Si  Si29  1  0.458495  0.206082  0.805394  1
  Si  Si30  1  0.790876  0.546491  0.685420  1
  Si  Si31  1  0.206088  0.458501  0.194603  1
  Si  Si32  1  0.708256  0.047329  0.563780  1
  Si  Si33  1  0.933036  0.286831  0.932587  1
  Si  Si34  1  0.047427  0.708490  0.436173  1
  Hg  Hg35  1  0.327567  0.327568  0.000010  1
