# generated using pymatgen
data_Er7Lu(Si4W3)4
_symmetry_space_group_name_H-M   'P 1'
_cell_length_a   6.73778604
_cell_length_b   6.91682552
_cell_length_c   12.85538306
_cell_angle_alpha   89.97676056
_cell_angle_beta   89.99684153
_cell_angle_gamma   89.98103897
_symmetry_Int_Tables_number   1
_chemical_formula_structural   Er7Lu(Si4W3)4
_chemical_formula_sum   'Er7 Lu1 Si16 W12'
_cell_volume   599.11335171
_cell_formula_units_Z   1
loop_
 _symmetry_equiv_pos_site_id
 _symmetry_equiv_pos_as_xyz
  1  'x, y, z'
loop_
 _atom_site_type_symbol
 _atom_site_label
 _atom_site_symmetry_multiplicity
 _atom_site_fract_x
 _atom_site_fract_y
 _atom_site_fract_z
 _atom_site_occupancy
  Er  Er0  1  0.496547  0.332192  0.093499  1
  Er  Er1  1  0.996468  0.167716  0.406573  1
  Er  Er2  1  0.503513  0.667672  0.593484  1
  Er  Er3  1  0.003390  0.832331  0.906796  1
  Er  Er4  1  0.503418  0.667874  0.906676  1
  Er  Er5  1  0.003542  0.832308  0.593506  1
  Er  Er6  1  0.496477  0.332224  0.406261  1
  Lu  Lu7  1  0.995897  0.168076  0.093720  1
  Si  Si8  1  0.661665  0.040994  0.546688  1
  Si  Si9  1  0.161552  0.458618  0.953584  1
  Si  Si10  1  0.337135  0.959748  0.046936  1
  Si  Si11  1  0.838356  0.541048  0.453181  1
  Si  Si12  1  0.338440  0.958986  0.453098  1
  Si  Si13  1  0.838786  0.539986  0.046943  1
  Si  Si14  1  0.661938  0.041046  0.953594  1
  Si  Si15  1  0.161645  0.459044  0.546692  1
  Si  Si16  1  0.534909  0.371277  0.750146  1
  Si  Si17  1  0.034847  0.128585  0.750023  1
  Si  Si18  1  0.465294  0.628801  0.249855  1
  Si  Si19  1  0.965454  0.872036  0.249642  1
  Si  Si20  1  0.801622  0.633792  0.750176  1
  Si  Si21  1  0.301459  0.866049  0.750062  1
  Si  Si22  1  0.197787  0.365379  0.249502  1
  Si  Si23  1  0.699160  0.134071  0.249611  1
  W  W24  1  0.830790  0.335894  0.625234  1
  W  W25  1  0.330554  0.163905  0.875027  1
  W  W26  1  0.169247  0.664075  0.125163  1
  W  W27  1  0.669436  0.836122  0.374610  1
  W  W28  1  0.169173  0.664072  0.374625  1
  W  W29  1  0.669767  0.836457  0.124950  1
  W  W30  1  0.831061  0.335497  0.875217  1
  W  W31  1  0.330882  0.163939  0.625178  1
  W  W32  1  0.665372  0.998855  0.750124  1
  W  W33  1  0.165532  0.501106  0.750101  1
  W  W34  1  0.334253  0.001658  0.249727  1
  W  W35  1  0.834633  0.498569  0.249797  1
