# generated using pymatgen
data_LiTmPa2(Al8Pt3)3
_symmetry_space_group_name_H-M   'P 1'
_cell_length_a   7.54330413
_cell_length_b   7.55034134
_cell_length_c   13.10150936
_cell_angle_alpha   84.50728780
_cell_angle_beta   78.90201475
_cell_angle_gamma   59.96326556
_symmetry_Int_Tables_number   1
_chemical_formula_structural   LiTmPa2(Al8Pt3)3
_chemical_formula_sum   'Li1 Tm1 Pa2 Al24 Pt9'
_cell_volume   633.89994941
_cell_formula_units_Z   1
loop_
 _symmetry_equiv_pos_site_id
 _symmetry_equiv_pos_as_xyz
  1  'x, y, z'
loop_
 _atom_site_type_symbol
 _atom_site_label
 _atom_site_symmetry_multiplicity
 _atom_site_fract_x
 _atom_site_fract_y
 _atom_site_fract_z
 _atom_site_occupancy
  Li  Li0  1  0.739693  0.500546  0.791999  1
  Tm  Tm1  1  0.267539  0.502574  0.190524  1
  Pa  Pa2  1  0.395942  0.167906  0.804925  1
  Pa  Pa3  1  0.605218  0.830313  0.193363  1
  Al  Al4  1  0.685251  0.824959  0.939784  1
  Al  Al5  1  0.313694  0.167220  0.055857  1
  Al  Al6  1  0.145497  0.832232  0.562850  1
  Al  Al7  1  0.854466  0.167431  0.439860  1
  Al  Al8  1  0.479850  0.167796  0.558521  1
  Al  Al9  1  0.519127  0.832271  0.442363  1
  Al  Al10  1  0.214934  0.168537  0.329861  1
  Al  Al11  1  0.784012  0.825239  0.674761  1
  Al  Al12  1  0.441413  0.510091  0.676125  1
  Al  Al13  1  0.562253  0.490441  0.329839  1
  Al  Al14  1  0.098708  0.166050  0.673840  1
  Al  Al15  1  0.892315  0.839718  0.330848  1
  Al  Al16  1  0.364850  0.497067  0.939495  1
  Al  Al17  1  0.650835  0.498079  0.049759  1
  Al  Al18  1  0.011306  0.176039  0.947473  1
  Al  Al19  1  0.986837  0.832855  0.044526  1
  Al  Al20  1  0.184228  0.500740  0.441913  1
  Al  Al21  1  0.813349  0.499958  0.561019  1
  Al  Al22  1  0.735394  0.164056  0.183182  1
  Al  Al23  1  0.263165  0.840666  0.819199  1
  Al  Al24  1  0.064675  0.627112  0.818141  1
  Al  Al25  1  0.936674  0.369323  0.184687  1
  Al  Al26  1  0.850108  0.043238  0.819105  1
  Al  Al27  1  0.142115  0.960350  0.183891  1
  Pt  Pt28  1  0.122929  0.490962  0.640381  1
  Pt  Pt29  1  0.879479  0.508982  0.361067  1
  Pt  Pt30  1  0.655375  0.167153  0.003184  1
  Pt  Pt31  1  0.341083  0.829378  0.002537  1
  Pt  Pt32  1  0.536720  0.166207  0.360934  1
  Pt  Pt33  1  0.458629  0.837357  0.639740  1
  Pt  Pt34  1  0.777265  0.172127  0.639183  1
  Pt  Pt35  1  0.221812  0.824445  0.362049  1
  Pt  Pt36  1  0.003259  0.500582  0.003216  1
