# generated using pymatgen
data_Tb7YHf11Si16Tc
_symmetry_space_group_name_H-M   'P 1'
_cell_length_a   7.26298756
_cell_length_b   7.26270037
_cell_length_c   13.29590455
_cell_angle_alpha   89.94771711
_cell_angle_beta   90.07819930
_cell_angle_gamma   90.05629334
_symmetry_Int_Tables_number   1
_chemical_formula_structural   Tb7YHf11Si16Tc
_chemical_formula_sum   'Tb7 Y1 Hf11 Si16 Tc1'
_cell_volume   701.34309000
_cell_formula_units_Z   1
loop_
 _symmetry_equiv_pos_site_id
 _symmetry_equiv_pos_as_xyz
  1  'x, y, z'
loop_
 _atom_site_type_symbol
 _atom_site_label
 _atom_site_symmetry_multiplicity
 _atom_site_fract_x
 _atom_site_fract_y
 _atom_site_fract_z
 _atom_site_occupancy
  Tb  Tb0  1  0.004599  0.655740  0.717186  1
  Tb  Tb1  1  0.156282  0.495051  0.465320  1
  Tb  Tb2  1  0.501217  0.845794  0.033551  1
  Tb  Tb3  1  0.845768  0.501095  0.966448  1
  Tb  Tb4  1  0.494991  0.156388  0.534591  1
  Tb  Tb5  1  0.343039  0.998972  0.788032  1
  Tb  Tb6  1  0.655765  0.004552  0.282879  1
  Y  Y7  1  0.998892  0.343190  0.211983  1
  Hf  Hf8  1  0.825136  0.824967  0.499913  1
  Hf  Hf9  1  0.324093  0.675006  0.248508  1
  Hf  Hf10  1  0.675038  0.324172  0.751498  1
  Hf  Hf11  1  0.148185  0.997038  0.372858  1
  Hf  Hf12  1  0.853467  0.004806  0.877842  1
  Hf  Hf13  1  0.503592  0.647964  0.625135  1
  Hf  Hf14  1  0.350280  0.493914  0.877282  1
  Hf  Hf15  1  0.493881  0.350279  0.122801  1
  Hf  Hf16  1  0.648024  0.503509  0.374861  1
  Hf  Hf17  1  0.997197  0.148303  0.627083  1
  Hf  Hf18  1  0.004719  0.853655  0.122270  1
  Si  Si19  1  0.361588  0.295357  0.315606  1
  Si  Si20  1  0.637313  0.705098  0.818216  1
  Si  Si21  1  0.205067  0.862135  0.567206  1
  Si  Si22  1  0.136650  0.795026  0.932328  1
  Si  Si23  1  0.795317  0.136872  0.067803  1
  Si  Si24  1  0.862037  0.205065  0.432784  1
  Si  Si25  1  0.295267  0.361824  0.684341  1
  Si  Si26  1  0.705163  0.637284  0.181756  1
  Si  Si27  1  0.293375  0.053008  0.181582  1
  Si  Si28  1  0.704308  0.951214  0.686038  1
  Si  Si29  1  0.449912  0.795939  0.434927  1
  Si  Si30  1  0.205381  0.548254  0.064404  1
  Si  Si31  1  0.548505  0.205478  0.935599  1
  Si  Si32  1  0.795941  0.449946  0.565035  1
  Si  Si33  1  0.052918  0.293402  0.818384  1
  Si  Si34  1  0.951292  0.704071  0.313855  1
  Tc  Tc35  1  0.175802  0.175631  0.000096  1
