# generated using pymatgen
data_Nd3Ti(Co4P3)2
_symmetry_space_group_name_H-M   'P 1'
_cell_length_a   3.76350900
_cell_length_b   10.75944600
_cell_length_c   12.49023200
_cell_angle_alpha   90.00000000
_cell_angle_beta   90.00000000
_cell_angle_gamma   90.00000000
_symmetry_Int_Tables_number   1
_chemical_formula_structural   Nd3Ti(Co4P3)2
_chemical_formula_sum   'Nd6 Ti2 Co16 P12'
_cell_volume   505.77035992
_cell_formula_units_Z   2
loop_
 _symmetry_equiv_pos_site_id
 _symmetry_equiv_pos_as_xyz
  1  'x, y, z'
loop_
 _atom_site_type_symbol
 _atom_site_label
 _atom_site_symmetry_multiplicity
 _atom_site_fract_x
 _atom_site_fract_y
 _atom_site_fract_z
 _atom_site_occupancy
  Nd  Nd0  1  0.000000  0.500000  0.523922  1
  Nd  Nd1  1  0.500000  0.000000  0.476078  1
  Nd  Nd2  1  0.500000  0.820137  0.205086  1
  Nd  Nd3  1  0.500000  0.179863  0.205086  1
  Nd  Nd4  1  0.000000  0.679863  0.794914  1
  Nd  Nd5  1  0.000000  0.320137  0.794914  1
  Ti  Ti6  1  0.500000  0.500000  0.150862  1
  Ti  Ti7  1  0.000000  0.000000  0.849138  1
  Co  Co8  1  0.500000  0.500000  0.704433  1
  Co  Co9  1  0.000000  0.000000  0.295567  1
  Co  Co10  1  0.000000  0.500000  0.988735  1
  Co  Co11  1  0.500000  0.000000  0.011265  1
  Co  Co12  1  0.500000  0.332303  0.995082  1
  Co  Co13  1  0.500000  0.667697  0.995082  1
  Co  Co14  1  0.000000  0.167697  0.004918  1
  Co  Co15  1  0.000000  0.832303  0.004918  1
  Co  Co16  1  0.500000  0.295877  0.431420  1
  Co  Co17  1  0.500000  0.704123  0.431420  1
  Co  Co18  1  0.000000  0.204123  0.568580  1
  Co  Co19  1  0.000000  0.795877  0.568580  1
  Co  Co20  1  0.500000  0.880311  0.707217  1
  Co  Co21  1  0.500000  0.119689  0.707217  1
  Co  Co22  1  0.000000  0.619689  0.292783  1
  Co  Co23  1  0.000000  0.380311  0.292783  1
  P  P24  1  0.500000  0.500000  0.887549  1
  P  P25  1  0.000000  0.000000  0.112451  1
  P  P26  1  0.500000  0.500000  0.347730  1
  P  P27  1  0.000000  0.000000  0.652270  1
  P  P28  1  0.500000  0.306273  0.613974  1
  P  P29  1  0.500000  0.693727  0.613974  1
  P  P30  1  0.000000  0.193727  0.386026  1
  P  P31  1  0.000000  0.806273  0.386026  1
  P  P32  1  0.500000  0.844371  0.894664  1
  P  P33  1  0.500000  0.155629  0.894664  1
  P  P34  1  0.000000  0.655629  0.105336  1
  P  P35  1  0.000000  0.344371  0.105336  1
