# generated using pymatgen
data_GeMo6Ir3N2
_symmetry_space_group_name_H-M   'P 1'
_cell_length_a   6.86972900
_cell_length_b   6.86651493
_cell_length_c   6.85583800
_cell_angle_alpha   89.13374440
_cell_angle_beta   90.00000000
_cell_angle_gamma   90.00000000
_symmetry_Int_Tables_number   1
_chemical_formula_structural   GeMo6Ir3N2
_chemical_formula_sum   'Ge2 Mo12 Ir6 N4'
_cell_volume   323.36043612
_cell_formula_units_Z   2
loop_
 _symmetry_equiv_pos_site_id
 _symmetry_equiv_pos_as_xyz
  1  'x, y, z'
loop_
 _atom_site_type_symbol
 _atom_site_label
 _atom_site_symmetry_multiplicity
 _atom_site_fract_x
 _atom_site_fract_y
 _atom_site_fract_z
 _atom_site_occupancy
  Ge  Ge0  1  0.686908  0.179067  0.936101  1
  Ge  Ge1  1  0.186908  0.820933  0.063899  1
  Mo  Mo2  1  0.620794  0.044082  0.545205  1
  Mo  Mo3  1  0.120794  0.955918  0.454795  1
  Mo  Mo4  1  0.866987  0.538967  0.943831  1
  Mo  Mo5  1  0.366987  0.461033  0.056169  1
  Mo  Mo6  1  0.200246  0.623192  0.696511  1
  Mo  Mo7  1  0.299409  0.124751  0.784801  1
  Mo  Mo8  1  0.799409  0.875249  0.215199  1
  Mo  Mo9  1  0.700246  0.376808  0.303489  1
  Mo  Mo10  1  0.050684  0.211908  0.131989  1
  Mo  Mo11  1  0.963334  0.307345  0.620305  1
  Mo  Mo12  1  0.550684  0.788092  0.868011  1
  Mo  Mo13  1  0.463334  0.692655  0.379695  1
  Ir  Ir14  1  0.812448  0.688388  0.567122  1
  Ir  Ir15  1  0.312448  0.311612  0.432878  1
  Ir  Ir16  1  0.059931  0.569799  0.300710  1
  Ir  Ir17  1  0.435784  0.062447  0.174258  1
  Ir  Ir18  1  0.559931  0.430201  0.699290  1
  Ir  Ir19  1  0.935784  0.937553  0.825742  1
  N  N20  1  0.375453  0.872184  0.620361  1
  N  N21  1  0.875453  0.127816  0.379639  1
  N  N22  1  0.128025  0.376137  0.874451  1
  N  N23  1  0.628025  0.623863  0.125549  1
