# generated using pymatgen
data_Er4MnAl7
_symmetry_space_group_name_H-M   'P 1'
_cell_length_a   5.52935900
_cell_length_b   5.52914759
_cell_length_c   8.83977900
_cell_angle_alpha   90.00200095
_cell_angle_beta   90.00034867
_cell_angle_gamma   120.00102114
_symmetry_Int_Tables_number   1
_chemical_formula_structural   Er4MnAl7
_chemical_formula_sum   'Er4 Mn1 Al7'
_cell_volume   234.04563226
_cell_formula_units_Z   1
loop_
 _symmetry_equiv_pos_site_id
 _symmetry_equiv_pos_as_xyz
  1  'x, y, z'
loop_
 _atom_site_type_symbol
 _atom_site_label
 _atom_site_symmetry_multiplicity
 _atom_site_fract_x
 _atom_site_fract_y
 _atom_site_fract_z
 _atom_site_occupancy
  Er  Er0  1  0.333295  0.666640  0.438146  1
  Er  Er1  1  0.666653  0.333316  0.940246  1
  Er  Er2  1  0.666674  0.333336  0.561905  1
  Er  Er3  1  0.333336  0.666666  0.059797  1
  Mn  Mn4  1  0.000006  0.000079  0.999862  1
  Al  Al5  1  0.664741  0.832375  0.758133  1
  Al  Al6  1  0.167629  0.832366  0.758132  1
  Al  Al7  1  0.832351  0.167626  0.241884  1
  Al  Al8  1  0.335238  0.167615  0.241887  1
  Al  Al9  1  0.167621  0.335252  0.758133  1
  Al  Al10  1  0.832366  0.664741  0.241889  1
  Al  Al11  1  0.999986  0.999985  0.499984  1
