# generated using pymatgen
data_Dy2Cr3O12
_symmetry_space_group_name_H-M   'P 1'
_cell_length_a   5.08419701
_cell_length_b   6.82567905
_cell_length_c   14.21858605
_cell_angle_alpha   84.49048789
_cell_angle_beta   80.20078108
_cell_angle_gamma   68.55882068
_symmetry_Int_Tables_number   1
_chemical_formula_structural   Dy2Cr3O12
_chemical_formula_sum   'Dy4 Cr6 O24'
_cell_volume   452.27225872
_cell_formula_units_Z   2
loop_
 _symmetry_equiv_pos_site_id
 _symmetry_equiv_pos_as_xyz
  1  'x, y, z'
loop_
 _atom_site_type_symbol
 _atom_site_label
 _atom_site_symmetry_multiplicity
 _atom_site_fract_x
 _atom_site_fract_y
 _atom_site_fract_z
 _atom_site_occupancy
  Dy  Dy0  1  0.366586  0.127857  0.125253  1
  Dy  Dy1  1  0.379189  0.793913  0.454143  1
  Dy  Dy2  1  0.633414  0.872143  0.874747  1
  Dy  Dy3  1  0.620811  0.206087  0.545857  1
  Cr  Cr4  1  0.901908  0.277378  0.953110  1
  Cr  Cr5  1  0.852137  0.975845  0.297839  1
  Cr  Cr6  1  0.870431  0.623587  0.621150  1
  Cr  Cr7  1  0.147863  0.024155  0.702161  1
  Cr  Cr8  1  0.098092  0.722622  0.046890  1
  Cr  Cr9  1  0.129569  0.376413  0.378850  1
  O  O10  1  0.831986  0.194034  0.678605  1
  O  O11  1  0.749628  0.862993  0.030285  1
  O  O12  1  0.822609  0.565936  0.369607  1
  O  O13  1  0.870512  0.516496  0.908322  1
  O  O14  1  0.912888  0.179413  0.241734  1
  O  O15  1  0.948312  0.827072  0.557278  1
  O  O16  1  0.321449  0.104793  0.769899  1
  O  O17  1  0.206612  0.847102  0.117340  1
  O  O18  1  0.331739  0.454564  0.441605  1
  O  O19  1  0.694059  0.692823  0.727351  1
  O  O20  1  0.703813  0.284308  0.058991  1
  O  O21  1  0.638166  0.020684  0.408330  1
  O  O22  1  0.296187  0.715692  0.941009  1
  O  O23  1  0.305941  0.307177  0.272649  1
  O  O24  1  0.361834  0.979316  0.591670  1
  O  O25  1  0.087112  0.820587  0.758266  1
  O  O26  1  0.129488  0.483504  0.091678  1
  O  O27  1  0.051688  0.172928  0.442722  1
  O  O28  1  0.250372  0.137007  0.969715  1
  O  O29  1  0.168014  0.805966  0.321395  1
  O  O30  1  0.177391  0.434064  0.630393  1
  O  O31  1  0.793388  0.152898  0.882660  1
  O  O32  1  0.678551  0.895207  0.230101  1
  O  O33  1  0.668261  0.545436  0.558395  1
