# generated using pymatgen
data_TiGaIr2RhS8
_symmetry_space_group_name_H-M   'P 1'
_cell_length_a   6.87802448
_cell_length_b   6.88103314
_cell_length_c   6.88103242
_cell_angle_alpha   62.85902769
_cell_angle_beta   62.71114045
_cell_angle_gamma   62.71115066
_symmetry_Int_Tables_number   1
_chemical_formula_structural   TiGaIr2RhS8
_chemical_formula_sum   'Ti1 Ga1 Ir2 Rh1 S8'
_cell_volume   244.41715858
_cell_formula_units_Z   1
loop_
 _symmetry_equiv_pos_site_id
 _symmetry_equiv_pos_as_xyz
  1  'x, y, z'
loop_
 _atom_site_type_symbol
 _atom_site_label
 _atom_site_symmetry_multiplicity
 _atom_site_fract_x
 _atom_site_fract_y
 _atom_site_fract_z
 _atom_site_occupancy
  Ti  Ti0  1  0.596511  0.593202  0.593202  1
  Ga  Ga1  1  0.009085  0.012052  0.012052  1
  Ir  Ir2  1  0.625602  0.625744  0.139437  1
  Ir  Ir3  1  0.625602  0.139437  0.625744  1
  Rh  Rh4  1  0.139261  0.625314  0.625314  1
  S  S5  1  0.367842  0.368784  0.871343  1
  S  S6  1  0.367842  0.871343  0.368784  1
  S  S7  1  0.873278  0.366033  0.366033  1
  S  S8  1  0.389375  0.388894  0.388894  1
  S  S9  1  0.860742  0.862193  0.416299  1
  S  S10  1  0.860742  0.416299  0.862193  1
  S  S11  1  0.417333  0.861607  0.861607  1
  S  S12  1  0.866783  0.869095  0.869095  1
