# generated using pymatgen
data_La11Cd9Pt4
_symmetry_space_group_name_H-M   'P 1'
_cell_length_a   13.76666813
_cell_length_b   13.76666782
_cell_length_c   3.87098500
_cell_angle_alpha   90.00000000
_cell_angle_beta   90.00000000
_cell_angle_gamma   112.06137482
_symmetry_Int_Tables_number   1
_chemical_formula_structural   La11Cd9Pt4
_chemical_formula_sum   'La11 Cd9 Pt4'
_cell_volume   679.91837302
_cell_formula_units_Z   1
loop_
 _symmetry_equiv_pos_site_id
 _symmetry_equiv_pos_as_xyz
  1  'x, y, z'
loop_
 _atom_site_type_symbol
 _atom_site_label
 _atom_site_symmetry_multiplicity
 _atom_site_fract_x
 _atom_site_fract_y
 _atom_site_fract_z
 _atom_site_occupancy
  La  La0  1  0.310711  0.310711  0.000000  1
  La  La1  1  0.689289  0.689289  0.000000  1
  La  La2  1  0.000000  0.000000  0.000000  1
  La  La3  1  0.076369  0.418681  0.000000  1
  La  La4  1  0.923631  0.581319  0.000000  1
  La  La5  1  0.418681  0.076369  0.000000  1
  La  La6  1  0.581319  0.923631  0.000000  1
  La  La7  1  0.837239  0.162761  0.000000  1
  La  La8  1  0.162761  0.837239  0.000000  1
  La  La9  1  0.626625  0.373375  0.000000  1
  La  La10  1  0.373375  0.626625  0.000000  1
  Cd  Cd11  1  0.836498  0.362736  0.500000  1
  Cd  Cd12  1  0.163502  0.637264  0.500000  1
  Cd  Cd13  1  0.362736  0.836498  0.500000  1
  Cd  Cd14  1  0.637264  0.163502  0.500000  1
  Cd  Cd15  1  0.075227  0.215508  0.500000  1
  Cd  Cd16  1  0.924773  0.784492  0.500000  1
  Cd  Cd17  1  0.215508  0.075227  0.500000  1
  Cd  Cd18  1  0.784492  0.924773  0.500000  1
  Cd  Cd19  1  0.500000  0.500000  0.500000  1
  Pt  Pt20  1  0.247189  0.449887  0.500000  1
  Pt  Pt21  1  0.752811  0.550113  0.500000  1
  Pt  Pt22  1  0.449887  0.247189  0.500000  1
  Pt  Pt23  1  0.550113  0.752811  0.500000  1
