# generated using pymatgen
data_SF10
_symmetry_space_group_name_H-M   'P 1'
_cell_length_a   10.11335700
_cell_length_b   5.04469610
_cell_length_c   6.70686486
_cell_angle_alpha   88.19741850
_cell_angle_beta   90.00000000
_cell_angle_gamma   90.00000000
_symmetry_Int_Tables_number   1
_chemical_formula_structural   SF10
_chemical_formula_sum   'S2 F20'
_cell_volume   342.00695329
_cell_formula_units_Z   2
loop_
 _symmetry_equiv_pos_site_id
 _symmetry_equiv_pos_as_xyz
  1  'x, y, z'
loop_
 _atom_site_type_symbol
 _atom_site_label
 _atom_site_symmetry_multiplicity
 _atom_site_fract_x
 _atom_site_fract_y
 _atom_site_fract_z
 _atom_site_occupancy
  S  S0  1  0.000000  0.500000  0.500000  1
  S  S1  1  0.500000  0.500000  0.000000  1
  F  F2  1  0.860868  0.783906  0.973088  1
  F  F3  1  0.360868  0.216094  0.526912  1
  F  F4  1  0.139132  0.216094  0.026912  1
  F  F5  1  0.639132  0.783906  0.473088  1
  F  F6  1  0.850606  0.007800  0.096545  1
  F  F7  1  0.350606  0.992200  0.403455  1
  F  F8  1  0.149394  0.992200  0.903455  1
  F  F9  1  0.649394  0.007800  0.596545  1
  F  F10  1  0.064537  0.629037  0.302147  1
  F  F11  1  0.564537  0.370963  0.197853  1
  F  F12  1  0.935463  0.370963  0.697853  1
  F  F13  1  0.435463  0.629037  0.802147  1
  F  F14  1  0.877952  0.396571  0.372017  1
  F  F15  1  0.377952  0.603429  0.127983  1
  F  F16  1  0.122048  0.603429  0.627983  1
  F  F17  1  0.622048  0.396571  0.872017  1
  F  F18  1  0.077187  0.230634  0.463122  1
  F  F19  1  0.577187  0.769366  0.036878  1
  F  F20  1  0.422813  0.230634  0.963122  1
  F  F21  1  0.922813  0.769366  0.536878  1
