# generated using pymatgen
data_Mn8VFe3Si4
_symmetry_space_group_name_H-M   'P 1'
_cell_length_a   5.62271791
_cell_length_b   5.62284973
_cell_length_c   5.62284973
_cell_angle_alpha   89.87642902
_cell_angle_beta   90.04618524
_cell_angle_gamma   90.04618524
_symmetry_Int_Tables_number   1
_chemical_formula_structural   Mn8VFe3Si4
_chemical_formula_sum   'Mn8 V1 Fe3 Si4'
_cell_volume   177.76978935
_cell_formula_units_Z   1
loop_
 _symmetry_equiv_pos_site_id
 _symmetry_equiv_pos_as_xyz
  1  'x, y, z'
loop_
 _atom_site_type_symbol
 _atom_site_label
 _atom_site_symmetry_multiplicity
 _atom_site_fract_x
 _atom_site_fract_y
 _atom_site_fract_z
 _atom_site_occupancy
  Mn  Mn0  1  0.248084  0.751254  0.751254  1
  Mn  Mn1  1  0.751304  0.247715  0.751403  1
  Mn  Mn2  1  0.750351  0.751172  0.751172  1
  Mn  Mn3  1  0.501795  0.998814  0.998814  1
  Mn  Mn4  1  0.996248  0.999130  0.500723  1
  Mn  Mn5  1  0.996248  0.500723  0.999130  1
  Mn  Mn6  1  0.751304  0.751403  0.247715  1
  Mn  Mn7  1  0.750433  0.248832  0.248832  1
  V  V8  1  0.507514  0.502325  0.502325  1
  Fe  Fe9  1  0.249756  0.250355  0.749268  1
  Fe  Fe10  1  0.249756  0.749268  0.250355  1
  Fe  Fe11  1  0.249271  0.249713  0.249713  1
  Si  Si12  1  0.003995  0.498573  0.498573  1
  Si  Si13  1  0.494628  0.001118  0.498043  1
  Si  Si14  1  0.494628  0.498043  0.001118  1
  Si  Si15  1  0.004686  0.001564  0.001564  1
