# generated using pymatgen
data_ThTl2Te3
_symmetry_space_group_name_H-M   'P 1'
_cell_length_a   8.03868571
_cell_length_b   8.03832549
_cell_length_c   8.43804200
_cell_angle_alpha   99.26081065
_cell_angle_beta   108.77443553
_cell_angle_gamma   59.99853061
_symmetry_Int_Tables_number   1
_chemical_formula_structural   ThTl2Te3
_chemical_formula_sum   'Th2 Tl4 Te6'
_cell_volume   447.06589320
_cell_formula_units_Z   2
loop_
 _symmetry_equiv_pos_site_id
 _symmetry_equiv_pos_as_xyz
  1  'x, y, z'
loop_
 _atom_site_type_symbol
 _atom_site_label
 _atom_site_symmetry_multiplicity
 _atom_site_fract_x
 _atom_site_fract_y
 _atom_site_fract_z
 _atom_site_occupancy
  Th  Th0  1  0.832042  0.335915  0.000000  1
  Th  Th1  1  0.167958  0.664084  0.000000  1
  Tl  Tl2  1  0.500000  0.000000  0.000000  1
  Tl  Tl3  1  0.656287  0.687427  0.500000  1
  Tl  Tl4  1  0.343714  0.312573  0.500000  1
  Tl  Tl5  1  0.000001  0.000000  0.500000  1
  Te  Te6  1  0.213624  0.000000  0.219237  1
  Te  Te7  1  0.938700  0.638794  0.227866  1
  Te  Te8  1  0.577494  0.361206  0.227866  1
  Te  Te9  1  0.422505  0.638794  0.772134  1
  Te  Te10  1  0.061299  0.361206  0.772134  1
  Te  Te11  1  0.786376  0.000000  0.780763  1
