# generated using pymatgen
data_NbIr3Rh3W
_symmetry_space_group_name_H-M   'P 1'
_cell_length_a   5.55219400
_cell_length_b   5.56428198
_cell_length_c   4.43230800
_cell_angle_alpha   90.00000000
_cell_angle_beta   90.00000000
_cell_angle_gamma   119.92816276
_symmetry_Int_Tables_number   1
_chemical_formula_structural   NbIr3Rh3W
_chemical_formula_sum   'Nb1 Ir3 Rh3 W1'
_cell_volume   118.67199644
_cell_formula_units_Z   1
loop_
 _symmetry_equiv_pos_site_id
 _symmetry_equiv_pos_as_xyz
  1  'x, y, z'
loop_
 _atom_site_type_symbol
 _atom_site_label
 _atom_site_symmetry_multiplicity
 _atom_site_fract_x
 _atom_site_fract_y
 _atom_site_fract_z
 _atom_site_occupancy
  Nb  Nb0  1  0.665776  0.331552  0.750000  1
  Ir  Ir1  1  0.836326  0.672652  0.250000  1
  Ir  Ir2  1  0.166160  0.833049  0.750000  1
  Ir  Ir3  1  0.666887  0.833049  0.750000  1
  Rh  Rh4  1  0.329406  0.164990  0.250000  1
  Rh  Rh5  1  0.835585  0.164990  0.250000  1
  Rh  Rh6  1  0.166756  0.333513  0.750000  1
  W  W7  1  0.333102  0.666205  0.250000  1
