# generated using pymatgen
data_La16Cd4FeNi2Pd
_symmetry_space_group_name_H-M   'P 1'
_cell_length_a   10.10217570
_cell_length_b   10.10357629
_cell_length_c   10.10357622
_cell_angle_alpha   59.49672203
_cell_angle_beta   59.68956561
_cell_angle_gamma   59.68955907
_symmetry_Int_Tables_number   1
_chemical_formula_structural   La16Cd4FeNi2Pd
_chemical_formula_sum   'La16 Cd4 Fe1 Ni2 Pd1'
_cell_volume   722.99076089
_cell_formula_units_Z   1
loop_
 _symmetry_equiv_pos_site_id
 _symmetry_equiv_pos_as_xyz
  1  'x, y, z'
loop_
 _atom_site_type_symbol
 _atom_site_label
 _atom_site_symmetry_multiplicity
 _atom_site_fract_x
 _atom_site_fract_y
 _atom_site_fract_z
 _atom_site_occupancy
  La  La0  1  0.339876  0.353340  0.353340  1
  La  La1  1  0.337607  0.348209  0.961319  1
  La  La2  1  0.337607  0.961319  0.348209  1
  La  La3  1  0.963615  0.344147  0.344147  1
  La  La4  1  0.827615  0.187266  0.187266  1
  La  La5  1  0.192780  0.805785  0.805785  1
  La  La6  1  0.189335  0.816383  0.186567  1
  La  La7  1  0.814418  0.190254  0.797951  1
  La  La8  1  0.189335  0.186567  0.816383  1
  La  La9  1  0.814418  0.797951  0.190254  1
  La  La10  1  0.934969  0.564331  0.564331  1
  La  La11  1  0.553939  0.939751  0.939751  1
  La  La12  1  0.563062  0.940517  0.560701  1
  La  La13  1  0.938161  0.554881  0.938688  1
  La  La14  1  0.563062  0.560701  0.940517  1
  La  La15  1  0.938161  0.938688  0.554881  1
  Cd  Cd16  1  0.578694  0.578476  0.578476  1
  Cd  Cd17  1  0.579211  0.579677  0.262351  1
  Cd  Cd18  1  0.579211  0.262351  0.579677  1
  Cd  Cd19  1  0.261236  0.579790  0.579790  1
  Fe  Fe20  1  0.136397  0.144904  0.144904  1
  Ni  Ni21  1  0.144253  0.143919  0.577366  1
  Ni  Ni22  1  0.144253  0.577366  0.143919  1
  Pd  Pd23  1  0.578787  0.143431  0.143431  1
