# generated using pymatgen
data_Tb2Ho8InSb5
_symmetry_space_group_name_H-M   'P 1'
_cell_length_a   8.95339900
_cell_length_b   8.95349143
_cell_length_c   6.39281900
_cell_angle_alpha   90.00000000
_cell_angle_beta   90.00000000
_cell_angle_gamma   119.99965482
_symmetry_Int_Tables_number   1
_chemical_formula_structural   Tb2Ho8InSb5
_chemical_formula_sum   'Tb2 Ho8 In1 Sb5'
_cell_volume   443.81799974
_cell_formula_units_Z   1
loop_
 _symmetry_equiv_pos_site_id
 _symmetry_equiv_pos_as_xyz
  1  'x, y, z'
loop_
 _atom_site_type_symbol
 _atom_site_label
 _atom_site_symmetry_multiplicity
 _atom_site_fract_x
 _atom_site_fract_y
 _atom_site_fract_z
 _atom_site_occupancy
  Tb  Tb0  1  0.753501  0.755665  0.250000  1
  Tb  Tb1  1  0.997835  0.244335  0.250000  1
  Ho  Ho2  1  0.333768  0.668973  0.000865  1
  Ho  Ho3  1  0.664796  0.331027  0.499135  1
  Ho  Ho4  1  0.664796  0.331027  0.000865  1
  Ho  Ho5  1  0.333768  0.668973  0.499135  1
  Ho  Ho6  1  0.756622  0.000000  0.750000  1
  Ho  Ho7  1  0.004305  0.758268  0.750000  1
  Ho  Ho8  1  0.246037  0.241732  0.750000  1
  Ho  Ho9  1  0.242528  0.000000  0.250000  1
  In  In10  1  0.394555  0.000000  0.750000  1
  Sb  Sb11  1  0.389013  0.389636  0.250000  1
  Sb  Sb12  1  0.999379  0.610364  0.250000  1
  Sb  Sb13  1  0.000852  0.389561  0.750000  1
  Sb  Sb14  1  0.611292  0.610439  0.750000  1
  Sb  Sb15  1  0.606955  0.000000  0.250000  1
