# generated using pymatgen
data_Nb10Ga6N
_symmetry_space_group_name_H-M   'P 1'
_cell_length_a   7.79246400
_cell_length_b   7.79246369
_cell_length_c   5.31205800
_cell_angle_alpha   90.00000000
_cell_angle_beta   90.00000000
_cell_angle_gamma   119.99999283
_symmetry_Int_Tables_number   1
_chemical_formula_structural   Nb10Ga6N
_chemical_formula_sum   'Nb10 Ga6 N1'
_cell_volume   279.34638987
_cell_formula_units_Z   1
loop_
 _symmetry_equiv_pos_site_id
 _symmetry_equiv_pos_as_xyz
  1  'x, y, z'
loop_
 _atom_site_type_symbol
 _atom_site_label
 _atom_site_symmetry_multiplicity
 _atom_site_fract_x
 _atom_site_fract_y
 _atom_site_fract_z
 _atom_site_occupancy
  Nb  Nb0  1  0.000000  0.766286  0.255251  1
  Nb  Nb1  1  0.233714  0.233714  0.255251  1
  Nb  Nb2  1  0.766286  0.000000  0.255251  1
  Nb  Nb3  1  0.000000  0.233714  0.744749  1
  Nb  Nb4  1  0.766286  0.766286  0.744749  1
  Nb  Nb5  1  0.233714  0.000000  0.744749  1
  Nb  Nb6  1  0.333333  0.666667  0.000000  1
  Nb  Nb7  1  0.666667  0.333333  0.000000  1
  Nb  Nb8  1  0.666667  0.333333  0.500000  1
  Nb  Nb9  1  0.333333  0.666667  0.500000  1
  Ga  Ga10  1  0.000000  0.401275  0.244133  1
  Ga  Ga11  1  0.598725  0.598725  0.244133  1
  Ga  Ga12  1  0.401275  0.000000  0.244133  1
  Ga  Ga13  1  0.000000  0.598725  0.755867  1
  Ga  Ga14  1  0.401275  0.401275  0.755867  1
  Ga  Ga15  1  0.598725  0.000000  0.755867  1
  N  N16  1  0.000000  0.000000  0.500000  1
