# generated using pymatgen
data_Er2Si5IrPt2
_symmetry_space_group_name_H-M   'P 1'
_cell_length_a   8.13865408
_cell_length_b   8.13865351
_cell_length_c   8.13867262
_cell_angle_alpha   137.39940285
_cell_angle_beta   103.69661833
_cell_angle_gamma   91.55443302
_symmetry_Int_Tables_number   1
_chemical_formula_structural   Er2Si5IrPt2
_chemical_formula_sum   'Er4 Si10 Ir2 Pt4'
_cell_volume   337.48495702
_cell_formula_units_Z   2
loop_
 _symmetry_equiv_pos_site_id
 _symmetry_equiv_pos_as_xyz
  1  'x, y, z'
loop_
 _atom_site_type_symbol
 _atom_site_label
 _atom_site_symmetry_multiplicity
 _atom_site_fract_x
 _atom_site_fract_y
 _atom_site_fract_z
 _atom_site_occupancy
  Er  Er0  1  0.639714  0.868902  0.770814  1
  Er  Er1  1  0.360286  0.131098  0.229186  1
  Er  Er2  1  0.098088  0.368899  0.729186  1
  Er  Er3  1  0.901912  0.631100  0.270814  1
  Si  Si4  1  0.275067  0.025067  0.750000  1
  Si  Si5  1  0.724933  0.974933  0.250000  1
  Si  Si6  1  0.724935  0.474935  0.750000  1
  Si  Si7  1  0.275065  0.525065  0.250000  1
  Si  Si8  1  0.453880  0.606737  0.847146  1
  Si  Si9  1  0.546120  0.393263  0.152854  1
  Si  Si10  1  0.759592  0.106735  0.652854  1
  Si  Si11  1  0.240408  0.893265  0.347146  1
  Si  Si12  1  0.999999  0.749999  0.750000  1
  Si  Si13  1  0.000001  0.250001  0.250000  1
  Ir  Ir14  1  0.500001  0.750001  0.250000  1
  Ir  Ir15  1  0.499999  0.249999  0.750000  1
  Pt  Pt16  1  0.253883  0.638936  0.614944  1
  Pt  Pt17  1  0.746117  0.361064  0.385056  1
  Pt  Pt18  1  0.023992  0.138938  0.885056  1
  Pt  Pt19  1  0.976008  0.861062  0.114944  1
