# generated using pymatgen
data_La2YbZr(NiP)4
_symmetry_space_group_name_H-M   'P 1'
_cell_length_a   3.93448000
_cell_length_b   3.93447895
_cell_length_c   15.66491500
_cell_angle_alpha   90.00000000
_cell_angle_beta   90.00000000
_cell_angle_gamma   119.99999198
_symmetry_Int_Tables_number   1
_chemical_formula_structural   La2YbZr(NiP)4
_chemical_formula_sum   'La2 Yb1 Zr1 Ni4 P4'
_cell_volume   210.00676163
_cell_formula_units_Z   1
loop_
 _symmetry_equiv_pos_site_id
 _symmetry_equiv_pos_as_xyz
  1  'x, y, z'
loop_
 _atom_site_type_symbol
 _atom_site_label
 _atom_site_symmetry_multiplicity
 _atom_site_fract_x
 _atom_site_fract_y
 _atom_site_fract_z
 _atom_site_occupancy
  La  La0  1  0.000000  0.000000  0.494690  1
  La  La1  1  0.000000  0.000000  0.005310  1
  Yb  Yb2  1  0.000000  0.000000  0.750000  1
  Zr  Zr3  1  0.000000  0.000000  0.250000  1
  Ni  Ni4  1  0.333333  0.666667  0.343420  1
  Ni  Ni5  1  0.666667  0.333333  0.628452  1
  Ni  Ni6  1  0.666667  0.333333  0.871548  1
  Ni  Ni7  1  0.333333  0.666667  0.156580  1
  P  P8  1  0.333333  0.666667  0.875441  1
  P  P9  1  0.666667  0.333333  0.135239  1
  P  P10  1  0.666667  0.333333  0.364761  1
  P  P11  1  0.333333  0.666667  0.624559  1
