# generated using pymatgen
data_Tm6Mn3Fe(Co7P6)2
_symmetry_space_group_name_H-M   'P 1'
_cell_length_a   3.68794800
_cell_length_b   10.51706900
_cell_length_c   12.06746700
_cell_angle_alpha   90.00000000
_cell_angle_beta   90.00000000
_cell_angle_gamma   90.00000000
_symmetry_Int_Tables_number   1
_chemical_formula_structural   Tm6Mn3Fe(Co7P6)2
_chemical_formula_sum   'Tm6 Mn3 Fe1 Co14 P12'
_cell_volume   468.05364530
_cell_formula_units_Z   1
loop_
 _symmetry_equiv_pos_site_id
 _symmetry_equiv_pos_as_xyz
  1  'x, y, z'
loop_
 _atom_site_type_symbol
 _atom_site_label
 _atom_site_symmetry_multiplicity
 _atom_site_fract_x
 _atom_site_fract_y
 _atom_site_fract_z
 _atom_site_occupancy
  Tm  Tm0  1  0.000000  0.500000  0.524028  1
  Tm  Tm1  1  0.500000  0.000000  0.476440  1
  Tm  Tm2  1  0.500000  0.820152  0.203788  1
  Tm  Tm3  1  0.500000  0.179848  0.203788  1
  Tm  Tm4  1  0.000000  0.680628  0.796217  1
  Tm  Tm5  1  0.000000  0.319372  0.796217  1
  Mn  Mn6  1  0.500000  0.500000  0.154182  1
  Mn  Mn7  1  0.000000  0.000000  0.842539  1
  Mn  Mn8  1  0.000000  0.500000  0.988302  1
  Fe  Fe9  1  0.500000  0.000000  0.011767  1
  Co  Co10  1  0.500000  0.500000  0.698946  1
  Co  Co11  1  0.000000  0.000000  0.299359  1
  Co  Co12  1  0.500000  0.330938  0.993802  1
  Co  Co13  1  0.500000  0.669062  0.993802  1
  Co  Co14  1  0.000000  0.166931  0.005021  1
  Co  Co15  1  0.000000  0.833069  0.005021  1
  Co  Co16  1  0.500000  0.295713  0.431050  1
  Co  Co17  1  0.500000  0.704287  0.431050  1
  Co  Co18  1  0.000000  0.203221  0.570154  1
  Co  Co19  1  0.000000  0.796779  0.570154  1
  Co  Co20  1  0.500000  0.879263  0.709032  1
  Co  Co21  1  0.500000  0.120737  0.709032  1
  Co  Co22  1  0.000000  0.622407  0.292353  1
  Co  Co23  1  0.000000  0.377593  0.292353  1
  P  P24  1  0.500000  0.500000  0.881474  1
  P  P25  1  0.000000  0.000000  0.116837  1
  P  P26  1  0.500000  0.500000  0.347783  1
  P  P27  1  0.000000  0.000000  0.654668  1
  P  P28  1  0.500000  0.311273  0.617232  1
  P  P29  1  0.500000  0.688727  0.617232  1
  P  P30  1  0.000000  0.188062  0.383455  1
  P  P31  1  0.000000  0.811938  0.383455  1
  P  P32  1  0.500000  0.847344  0.892602  1
  P  P33  1  0.500000  0.152656  0.892602  1
  P  P34  1  0.000000  0.655631  0.107132  1
  P  P35  1  0.000000  0.344369  0.107132  1
