# generated using pymatgen
data_Pr4HfZrS10
_symmetry_space_group_name_H-M   'P 1'
_cell_length_a   7.44566900
_cell_length_b   8.03639200
_cell_length_c   11.76784200
_cell_angle_alpha   90.00000000
_cell_angle_beta   90.00000000
_cell_angle_gamma   90.00000000
_symmetry_Int_Tables_number   1
_chemical_formula_structural   Pr4HfZrS10
_chemical_formula_sum   'Pr8 Hf2 Zr2 S20'
_cell_volume   704.14429827
_cell_formula_units_Z   2
loop_
 _symmetry_equiv_pos_site_id
 _symmetry_equiv_pos_as_xyz
  1  'x, y, z'
loop_
 _atom_site_type_symbol
 _atom_site_label
 _atom_site_symmetry_multiplicity
 _atom_site_fract_x
 _atom_site_fract_y
 _atom_site_fract_z
 _atom_site_occupancy
  Pr  Pr0  1  0.529993  0.001873  0.323073  1
  Pr  Pr1  1  0.970007  0.498127  0.823073  1
  Pr  Pr2  1  0.470184  0.501103  0.676906  1
  Pr  Pr3  1  0.029816  0.998897  0.176906  1
  Pr  Pr4  1  0.470184  0.998897  0.676906  1
  Pr  Pr5  1  0.029816  0.501103  0.176906  1
  Pr  Pr6  1  0.529993  0.498127  0.323073  1
  Pr  Pr7  1  0.970007  0.001873  0.823073  1
  Hf  Hf8  1  0.925996  0.250000  0.506801  1
  Hf  Hf9  1  0.574004  0.250000  0.006801  1
  Zr  Zr10  1  0.075231  0.750000  0.492388  1
  Zr  Zr11  1  0.424769  0.750000  0.992388  1
  S  S12  1  0.838760  0.533047  0.586731  1
  S  S13  1  0.661240  0.966953  0.086731  1
  S  S14  1  0.160985  0.037139  0.413376  1
  S  S15  1  0.339015  0.462861  0.913376  1
  S  S16  1  0.160985  0.462861  0.413376  1
  S  S17  1  0.339015  0.037139  0.913376  1
  S  S18  1  0.838760  0.966953  0.586731  1
  S  S19  1  0.661240  0.533047  0.086731  1
  S  S20  1  0.838486  0.750000  0.317840  1
  S  S21  1  0.661514  0.750000  0.817840  1
  S  S22  1  0.159204  0.250000  0.680371  1
  S  S23  1  0.340796  0.250000  0.180371  1
  S  S24  1  0.441399  0.750000  0.494952  1
  S  S25  1  0.058601  0.750000  0.994952  1
  S  S26  1  0.560647  0.250000  0.505388  1
  S  S27  1  0.939353  0.250000  0.005388  1
  S  S28  1  0.182674  0.750000  0.705572  1
  S  S29  1  0.317326  0.750000  0.205572  1
  S  S30  1  0.818865  0.250000  0.296519  1
  S  S31  1  0.681135  0.250000  0.796519  1
