# generated using pymatgen
data_Ba2Zn3Sn4Au
_symmetry_space_group_name_H-M   'P 1'
_cell_length_a   4.82152400
_cell_length_b   4.82152400
_cell_length_c   11.46019100
_cell_angle_alpha   90.00000000
_cell_angle_beta   90.00000000
_cell_angle_gamma   90.00000000
_symmetry_Int_Tables_number   1
_chemical_formula_structural   Ba2Zn3Sn4Au
_chemical_formula_sum   'Ba2 Zn3 Sn4 Au1'
_cell_volume   266.41613380
_cell_formula_units_Z   1
loop_
 _symmetry_equiv_pos_site_id
 _symmetry_equiv_pos_as_xyz
  1  'x, y, z'
loop_
 _atom_site_type_symbol
 _atom_site_label
 _atom_site_symmetry_multiplicity
 _atom_site_fract_x
 _atom_site_fract_y
 _atom_site_fract_z
 _atom_site_occupancy
  Ba  Ba0  1  0.000000  0.500000  0.758414  1
  Ba  Ba1  1  0.500000  0.000000  0.239913  1
  Zn  Zn2  1  0.500000  0.000000  0.635496  1
  Zn  Zn3  1  0.500000  0.500000  0.999679  1
  Zn  Zn4  1  0.000000  0.000000  0.999679  1
  Sn  Sn5  1  0.500000  0.000000  0.874200  1
  Sn  Sn6  1  0.000000  0.500000  0.124379  1
  Sn  Sn7  1  0.500000  0.500000  0.500946  1
  Sn  Sn8  1  0.000000  0.000000  0.500946  1
  Au  Au9  1  0.000000  0.500000  0.366348  1
