# generated using pymatgen
data_Ba3Ho2TcO9
_symmetry_space_group_name_H-M   'P 1'
_cell_length_a   6.05305800
_cell_length_b   6.05305800
_cell_length_c   14.74431100
_cell_angle_alpha   90.00000000
_cell_angle_beta   90.00000000
_cell_angle_gamma   119.99999999
_symmetry_Int_Tables_number   1
_chemical_formula_structural   Ba3Ho2TcO9
_chemical_formula_sum   'Ba6 Ho4 Tc2 O18'
_cell_volume   467.84800863
_cell_formula_units_Z   2
loop_
 _symmetry_equiv_pos_site_id
 _symmetry_equiv_pos_as_xyz
  1  'x, y, z'
loop_
 _atom_site_type_symbol
 _atom_site_label
 _atom_site_symmetry_multiplicity
 _atom_site_fract_x
 _atom_site_fract_y
 _atom_site_fract_z
 _atom_site_occupancy
  Ba  Ba0  1  0.333333  0.666667  0.090175  1
  Ba  Ba1  1  0.666667  0.333333  0.909825  1
  Ba  Ba2  1  0.333333  0.666667  0.590175  1
  Ba  Ba3  1  0.666667  0.333333  0.409825  1
  Ba  Ba4  1  0.000000  0.000000  0.250000  1
  Ba  Ba5  1  0.000000  0.000000  0.750000  1
  Ho  Ho6  1  0.333333  0.666667  0.834169  1
  Ho  Ho7  1  0.666667  0.333333  0.165831  1
  Ho  Ho8  1  0.333333  0.666667  0.334169  1
  Ho  Ho9  1  0.666667  0.333333  0.665831  1
  Tc  Tc10  1  0.000000  0.000000  0.000000  1
  Tc  Tc11  1  0.000000  0.000000  0.500000  1
  O  O12  1  0.879511  0.695799  0.575058  1
  O  O13  1  0.000000  0.545531  0.250000  1
  O  O14  1  0.183711  0.304201  0.924942  1
  O  O15  1  0.879511  0.183711  0.075058  1
  O  O16  1  0.816289  0.120489  0.575058  1
  O  O17  1  0.816289  0.695799  0.075058  1
  O  O18  1  0.695799  0.816289  0.424942  1
  O  O19  1  0.454469  0.000000  0.750000  1
  O  O20  1  0.545531  0.545531  0.750000  1
  O  O21  1  0.304201  0.183711  0.575058  1
  O  O22  1  0.120489  0.304201  0.424942  1
  O  O23  1  0.183711  0.879511  0.424942  1
  O  O24  1  0.304201  0.120489  0.075058  1
  O  O25  1  0.545531  0.000000  0.250000  1
  O  O26  1  0.454469  0.454469  0.250000  1
  O  O27  1  0.000000  0.454469  0.750000  1
  O  O28  1  0.120489  0.816289  0.924942  1
  O  O29  1  0.695799  0.879511  0.924942  1
