# generated using pymatgen
data_Dy9Y(Ga2Te)2
_symmetry_space_group_name_H-M   'P 1'
_cell_length_a   8.67771316
_cell_length_b   8.68997341
_cell_length_c   6.40467600
_cell_angle_alpha   89.94089746
_cell_angle_beta   90.02959962
_cell_angle_gamma   120.04673652
_symmetry_Int_Tables_number   1
_chemical_formula_structural   Dy9Y(Ga2Te)2
_chemical_formula_sum   'Dy9 Y1 Ga4 Te2'
_cell_volume   418.06766655
_cell_formula_units_Z   1
loop_
 _symmetry_equiv_pos_site_id
 _symmetry_equiv_pos_as_xyz
  1  'x, y, z'
loop_
 _atom_site_type_symbol
 _atom_site_label
 _atom_site_symmetry_multiplicity
 _atom_site_fract_x
 _atom_site_fract_y
 _atom_site_fract_z
 _atom_site_occupancy
  Dy  Dy0  1  0.313604  0.656803  0.000000  1
  Dy  Dy1  1  0.669590  0.334795  0.500000  1
  Dy  Dy2  1  0.670034  0.335016  0.000000  1
  Dy  Dy3  1  0.232694  0.998974  0.249914  1
  Dy  Dy4  1  0.232694  0.233719  0.750086  1
  Dy  Dy5  1  0.013433  0.765462  0.749384  1
  Dy  Dy6  1  0.013433  0.247972  0.250616  1
  Dy  Dy7  1  0.765850  0.750934  0.249129  1
  Dy  Dy8  1  0.765850  0.014915  0.750871  1
  Y  Y9  1  0.316711  0.658356  0.500000  1
  Ga  Ga10  1  0.996618  0.396385  0.748020  1
  Ga  Ga11  1  0.996618  0.600233  0.251980  1
  Ga  Ga12  1  0.398966  0.395887  0.250259  1
  Ga  Ga13  1  0.398966  0.003079  0.749741  1
  Te  Te14  1  0.607471  0.995799  0.251373  1
  Te  Te15  1  0.607471  0.611672  0.748627  1
