# generated using pymatgen
data_Y2TmNb3(B2Ru5)2
_symmetry_space_group_name_H-M   'P 1'
_cell_length_a   9.60849635
_cell_length_b   9.60849618
_cell_length_c   3.12549800
_cell_angle_alpha   90.00000000
_cell_angle_beta   90.00000000
_cell_angle_gamma   90.52952678
_symmetry_Int_Tables_number   1
_chemical_formula_structural   Y2TmNb3(B2Ru5)2
_chemical_formula_sum   'Y2 Tm1 Nb3 B4 Ru10'
_cell_volume   288.54365490
_cell_formula_units_Z   1
loop_
 _symmetry_equiv_pos_site_id
 _symmetry_equiv_pos_as_xyz
  1  'x, y, z'
loop_
 _atom_site_type_symbol
 _atom_site_label
 _atom_site_symmetry_multiplicity
 _atom_site_fract_x
 _atom_site_fract_y
 _atom_site_fract_z
 _atom_site_occupancy
  Y  Y0  1  0.823796  0.675466  0.000000  1
  Y  Y1  1  0.175466  0.323796  0.000000  1
  Tm  Tm2  1  0.325778  0.825778  0.000000  1
  Nb  Nb3  1  0.675265  0.175265  0.000000  1
  Nb  Nb4  1  0.498134  0.503158  0.000000  1
  Nb  Nb5  1  0.003158  0.998134  0.000000  1
  B  B6  1  0.622438  0.881069  0.000000  1
  B  B7  1  0.381069  0.122438  0.000000  1
  B  B8  1  0.119634  0.619634  0.000000  1
  B  B9  1  0.876403  0.376403  0.000000  1
  Ru  Ru10  1  0.569176  0.722711  0.500000  1
  Ru  Ru11  1  0.441374  0.279629  0.500000  1
  Ru  Ru12  1  0.071226  0.780894  0.500000  1
  Ru  Ru13  1  0.915471  0.213551  0.500000  1
  Ru  Ru14  1  0.280894  0.571226  0.500000  1
  Ru  Ru15  1  0.713551  0.415471  0.500000  1
  Ru  Ru16  1  0.222711  0.069176  0.500000  1
  Ru  Ru17  1  0.779629  0.941374  0.500000  1
  Ru  Ru18  1  0.508451  0.008451  0.500000  1
  Ru  Ru19  1  0.996374  0.496374  0.500000  1
