# generated using pymatgen
data_Nd16Cd3Ag(IrPt)2
_symmetry_space_group_name_H-M   'P 1'
_cell_length_a   9.95925165
_cell_length_b   9.95925211
_cell_length_c   9.94746662
_cell_angle_alpha   60.27072441
_cell_angle_beta   60.27072241
_cell_angle_gamma   60.27647282
_symmetry_Int_Tables_number   1
_chemical_formula_structural   Nd16Cd3Ag(IrPt)2
_chemical_formula_sum   'Nd16 Cd3 Ag1 Ir2 Pt2'
_cell_volume   701.97653380
_cell_formula_units_Z   1
loop_
 _symmetry_equiv_pos_site_id
 _symmetry_equiv_pos_as_xyz
  1  'x, y, z'
loop_
 _atom_site_type_symbol
 _atom_site_label
 _atom_site_symmetry_multiplicity
 _atom_site_fract_x
 _atom_site_fract_y
 _atom_site_fract_z
 _atom_site_occupancy
  Nd  Nd0  1  0.349612  0.349612  0.345664  1
  Nd  Nd1  1  0.351195  0.351195  0.951355  1
  Nd  Nd2  1  0.354638  0.947317  0.350061  1
  Nd  Nd3  1  0.947317  0.354638  0.350061  1
  Nd  Nd4  1  0.806473  0.190515  0.190362  1
  Nd  Nd5  1  0.189240  0.805491  0.812189  1
  Nd  Nd6  1  0.190515  0.806473  0.190362  1
  Nd  Nd7  1  0.805491  0.189240  0.812189  1
  Nd  Nd8  1  0.191341  0.191341  0.809010  1
  Nd  Nd9  1  0.810000  0.810000  0.187913  1
  Nd  Nd10  1  0.936064  0.564314  0.561179  1
  Nd  Nd11  1  0.562229  0.937415  0.936922  1
  Nd  Nd12  1  0.564314  0.936064  0.561179  1
  Nd  Nd13  1  0.937415  0.562229  0.936922  1
  Nd  Nd14  1  0.562606  0.562606  0.935763  1
  Nd  Nd15  1  0.937270  0.937270  0.560899  1
  Cd  Cd16  1  0.580768  0.580768  0.260219  1
  Cd  Cd17  1  0.580515  0.260536  0.580706  1
  Cd  Cd18  1  0.260536  0.580515  0.580706  1
  Ag  Ag19  1  0.582780  0.582780  0.582331  1
  Ir  Ir20  1  0.141701  0.573441  0.143508  1
  Ir  Ir21  1  0.573441  0.141701  0.143508  1
  Pt  Pt22  1  0.142352  0.142352  0.144525  1
  Pt  Pt23  1  0.142185  0.142185  0.572467  1
