# generated using pymatgen
data_Nd8Ga(Pd11Au)2
_symmetry_space_group_name_H-M   'P 1'
_cell_length_a   8.52070800
_cell_length_b   8.58699000
_cell_length_c   8.57724100
_cell_angle_alpha   90.00000000
_cell_angle_beta   90.00000000
_cell_angle_gamma   90.00000000
_symmetry_Int_Tables_number   1
_chemical_formula_structural   Nd8Ga(Pd11Au)2
_chemical_formula_sum   'Nd8 Ga1 Pd22 Au2'
_cell_volume   627.57300266
_cell_formula_units_Z   1
loop_
 _symmetry_equiv_pos_site_id
 _symmetry_equiv_pos_as_xyz
  1  'x, y, z'
loop_
 _atom_site_type_symbol
 _atom_site_label
 _atom_site_symmetry_multiplicity
 _atom_site_fract_x
 _atom_site_fract_y
 _atom_site_fract_z
 _atom_site_occupancy
  Nd  Nd0  1  0.251133  0.242890  0.250901  1
  Nd  Nd1  1  0.748175  0.747929  0.748801  1
  Nd  Nd2  1  0.748175  0.747929  0.251199  1
  Nd  Nd3  1  0.748175  0.252071  0.748801  1
  Nd  Nd4  1  0.251133  0.242890  0.749099  1
  Nd  Nd5  1  0.251133  0.757110  0.250901  1
  Nd  Nd6  1  0.251133  0.757110  0.749099  1
  Nd  Nd7  1  0.748175  0.252071  0.251199  1
  Ga  Ga8  1  0.999232  0.000000  0.000000  1
  Pd  Pd9  1  0.740867  0.500000  0.000000  1
  Pd  Pd10  1  0.000399  0.259109  0.500000  1
  Pd  Pd11  1  0.499959  0.259348  0.000000  1
  Pd  Pd12  1  0.000399  0.740891  0.500000  1
  Pd  Pd13  1  0.499959  0.740652  0.000000  1
  Pd  Pd14  1  0.501448  0.000000  0.260385  1
  Pd  Pd15  1  0.259597  0.000000  0.500000  1
  Pd  Pd16  1  0.501448  0.000000  0.739615  1
  Pd  Pd17  1  0.739552  0.000000  0.500000  1
  Pd  Pd18  1  0.002243  0.500000  0.259050  1
  Pd  Pd19  1  0.002243  0.500000  0.740950  1
  Pd  Pd20  1  0.747375  0.500000  0.500000  1
  Pd  Pd21  1  0.499570  0.252188  0.500000  1
  Pd  Pd22  1  0.499570  0.747812  0.500000  1
  Pd  Pd23  1  0.497987  0.500000  0.253406  1
  Pd  Pd24  1  0.497987  0.500000  0.746594  1
  Pd  Pd25  1  0.294150  0.000000  0.000000  1
  Pd  Pd26  1  0.706748  0.000000  0.000000  1
  Pd  Pd27  1  0.000387  0.291104  0.000000  1
  Pd  Pd28  1  0.000387  0.708896  0.000000  1
  Pd  Pd29  1  0.997985  0.000000  0.292810  1
  Pd  Pd30  1  0.997985  0.000000  0.707190  1
  Au  Au31  1  0.261972  0.500000  0.000000  1
  Au  Au32  1  0.253322  0.500000  0.500000  1
