# generated using pymatgen
data_Pu2CrN3
_symmetry_space_group_name_H-M   'P 1'
_cell_length_a   6.62950132
_cell_length_b   3.40270256
_cell_length_c   12.25705000
_cell_angle_alpha   90.00000000
_cell_angle_beta   22.41712026
_cell_angle_gamma   75.12960539
_symmetry_Int_Tables_number   1
_chemical_formula_structural   Pu2CrN3
_chemical_formula_sum   'Pu2 Cr1 N3'
_cell_volume   77.99209002
_cell_formula_units_Z   1
loop_
 _symmetry_equiv_pos_site_id
 _symmetry_equiv_pos_as_xyz
  1  'x, y, z'
loop_
 _atom_site_type_symbol
 _atom_site_label
 _atom_site_symmetry_multiplicity
 _atom_site_fract_x
 _atom_site_fract_y
 _atom_site_fract_z
 _atom_site_occupancy
  Pu  Pu0  1  0.000000  0.000000  0.645867  1
  Pu  Pu1  1  0.000000  0.000000  0.354133  1
  Cr  Cr2  1  0.000000  0.000000  0.000000  1
  N  N3  1  0.000000  0.500000  0.500000  1
  N  N4  1  0.000000  0.000000  0.836436  1
  N  N5  1  0.000000  0.000000  0.163564  1
