# generated using pymatgen
data_Y11Ho9GaBi11
_symmetry_space_group_name_H-M   'P 1'
_cell_length_a   8.21513735
_cell_length_b   9.46900014
_cell_length_c   12.05868571
_cell_angle_alpha   90.01480089
_cell_angle_beta   90.31238113
_cell_angle_gamma   90.01277046
_symmetry_Int_Tables_number   1
_chemical_formula_structural   Y11Ho9GaBi11
_chemical_formula_sum   'Y11 Ho9 Ga1 Bi11'
_cell_volume   938.02075475
_cell_formula_units_Z   1
loop_
 _symmetry_equiv_pos_site_id
 _symmetry_equiv_pos_as_xyz
  1  'x, y, z'
loop_
 _atom_site_type_symbol
 _atom_site_label
 _atom_site_symmetry_multiplicity
 _atom_site_fract_x
 _atom_site_fract_y
 _atom_site_fract_z
 _atom_site_occupancy
  Y  Y0  1  0.190343  0.749853  0.722607  1
  Y  Y1  1  0.673346  0.750043  0.788162  1
  Y  Y2  1  0.811834  0.249868  0.280264  1
  Y  Y3  1  0.313901  0.250117  0.220157  1
  Y  Y4  1  0.194764  0.937401  0.439248  1
  Y  Y5  1  0.308736  0.048374  0.940460  1
  Y  Y6  1  0.805483  0.437804  0.559570  1
  Y  Y7  1  0.355669  0.749802  0.205442  1
  Y  Y8  1  0.852464  0.749832  0.285528  1
  Y  Y9  1  0.648228  0.249858  0.785648  1
  Y  Y10  1  0.148770  0.250032  0.715434  1
  Ho  Ho11  1  0.036333  0.749781  0.990107  1
  Ho  Ho12  1  0.527044  0.749817  0.511352  1
  Ho  Ho13  1  0.977339  0.250175  0.010060  1
  Ho  Ho14  1  0.473760  0.249862  0.488967  1
  Ho  Ho15  1  0.308716  0.451708  0.940491  1
  Ho  Ho16  1  0.805339  0.062661  0.559650  1
  Ho  Ho17  1  0.686104  0.930432  0.055339  1
  Ho  Ho18  1  0.194965  0.563133  0.439134  1
  Ho  Ho19  1  0.685853  0.569489  0.055229  1
  Ga  Ga20  1  0.411146  0.749444  0.961654  1
  Bi  Bi21  1  0.435338  0.003880  0.674185  1
  Bi  Bi22  1  0.935126  0.497485  0.826023  1
  Bi  Bi23  1  0.565049  0.504451  0.326234  1
  Bi  Bi24  1  0.063883  0.996782  0.174296  1
  Bi  Bi25  1  0.565231  0.995499  0.326290  1
  Bi  Bi26  1  0.063986  0.503142  0.174322  1
  Bi  Bi27  1  0.435087  0.496065  0.674254  1
  Bi  Bi28  1  0.934905  0.002473  0.825899  1
  Bi  Bi29  1  0.911415  0.750293  0.543786  1
  Bi  Bi30  1  0.590187  0.250149  0.042001  1
  Bi  Bi31  1  0.089659  0.250296  0.458209  1
