# generated using pymatgen
data_Dy2MgNiRu
_symmetry_space_group_name_H-M   'P 1'
_cell_length_a   4.23262432
_cell_length_b   5.78284684
_cell_length_c   5.50119137
_cell_angle_alpha   121.70861147
_cell_angle_beta   112.62514630
_cell_angle_gamma   89.99999671
_symmetry_Int_Tables_number   1
_chemical_formula_structural   Dy2MgNiRu
_chemical_formula_sum   'Dy2 Mg1 Ni1 Ru1'
_cell_volume   102.17047407
_cell_formula_units_Z   1
loop_
 _symmetry_equiv_pos_site_id
 _symmetry_equiv_pos_as_xyz
  1  'x, y, z'
loop_
 _atom_site_type_symbol
 _atom_site_label
 _atom_site_symmetry_multiplicity
 _atom_site_fract_x
 _atom_site_fract_y
 _atom_site_fract_z
 _atom_site_occupancy
  Dy  Dy0  1  0.794317  0.284062  0.588633  1
  Dy  Dy1  1  0.205683  0.695429  0.411367  1
  Mg  Mg2  1  0.000000  0.998002  0.000000  1
  Ni  Ni3  1  0.500000  0.724328  0.000000  1
  Ru  Ru4  1  0.500000  0.298180  0.000000  1
