# generated using pymatgen
data_Er2Hf3Zr3F30
_symmetry_space_group_name_H-M   'P 1'
_cell_length_a   8.15258681
_cell_length_b   8.15044231
_cell_length_c   8.13900309
_cell_angle_alpha   79.77132159
_cell_angle_beta   79.73121537
_cell_angle_gamma   100.06330886
_symmetry_Int_Tables_number   1
_chemical_formula_structural   Er2Hf3Zr3F30
_chemical_formula_sum   'Er2 Hf3 Zr3 F30'
_cell_volume   511.66017276
_cell_formula_units_Z   1
loop_
 _symmetry_equiv_pos_site_id
 _symmetry_equiv_pos_as_xyz
  1  'x, y, z'
loop_
 _atom_site_type_symbol
 _atom_site_label
 _atom_site_symmetry_multiplicity
 _atom_site_fract_x
 _atom_site_fract_y
 _atom_site_fract_z
 _atom_site_occupancy
  Er  Er0  1  0.177258  0.821492  0.251280  1
  Er  Er1  1  0.821717  0.178201  0.749536  1
  Hf  Hf2  1  0.751415  0.248412  0.249676  1
  Hf  Hf3  1  0.248597  0.751372  0.750176  1
  Hf  Hf4  1  0.748161  0.677843  0.673927  1
  Zr  Zr5  1  0.322559  0.252198  0.825643  1
  Zr  Zr6  1  0.251391  0.321947  0.325704  1
  Zr  Zr7  1  0.678094  0.748554  0.174057  1
  F  F8  1  0.317024  0.351615  0.053351  1
  F  F9  1  0.937851  0.812534  0.151750  1
  F  F10  1  0.841777  0.461009  0.684031  1
  F  F11  1  0.459017  0.844348  0.183669  1
  F  F12  1  0.810311  0.934264  0.653298  1
  F  F13  1  0.350935  0.316902  0.553028  1
  F  F14  1  0.685404  0.650951  0.942568  1
  F  F15  1  0.062533  0.187471  0.848215  1
  F  F16  1  0.155121  0.540581  0.317101  1
  F  F17  1  0.541034  0.155810  0.816574  1
  F  F18  1  0.186975  0.061976  0.349398  1
  F  F19  1  0.651444  0.683577  0.448667  1
  F  F20  1  0.775112  0.278712  0.997731  1
  F  F21  1  0.005537  0.275683  0.220381  1
  F  F22  1  0.776067  0.504031  0.222210  1
  F  F23  1  0.504471  0.774108  0.722424  1
  F  F24  1  0.276618  0.005618  0.720442  1
  F  F25  1  0.279079  0.774668  0.497971  1
  F  F26  1  0.225007  0.721282  0.002229  1
  F  F27  1  0.994499  0.723730  0.777777  1
  F  F28  1  0.223805  0.495850  0.776961  1
  F  F29  1  0.496028  0.223616  0.276624  1
  F  F30  1  0.723981  0.994200  0.279677  1
  F  F31  1  0.721241  0.224968  0.501784  1
  F  F32  1  0.467527  0.533370  0.249588  1
  F  F33  1  0.748121  0.955955  0.970202  1
  F  F34  1  0.044071  0.251768  0.530446  1
  F  F35  1  0.252004  0.044973  0.030726  1
  F  F36  1  0.953731  0.747521  0.472085  1
  F  F37  1  0.534485  0.468895  0.749093  1
