# generated using pymatgen
data_Ca3Ac17Sn16
_symmetry_space_group_name_H-M   'P 1'
_cell_length_a   8.73120809
_cell_length_b   8.82353910
_cell_length_c   17.02434200
_cell_angle_alpha   90.00000000
_cell_angle_beta   90.00000000
_cell_angle_gamma   89.98314558
_symmetry_Int_Tables_number   1
_chemical_formula_structural   Ca3Ac17Sn16
_chemical_formula_sum   'Ca3 Ac17 Sn16'
_cell_volume   1311.55790625
_cell_formula_units_Z   1
loop_
 _symmetry_equiv_pos_site_id
 _symmetry_equiv_pos_as_xyz
  1  'x, y, z'
loop_
 _atom_site_type_symbol
 _atom_site_label
 _atom_site_symmetry_multiplicity
 _atom_site_fract_x
 _atom_site_fract_y
 _atom_site_fract_z
 _atom_site_occupancy
  Ca  Ca0  1  0.202293  0.500503  0.750000  1
  Ca  Ca1  1  0.702674  0.999924  0.750000  1
  Ca  Ca2  1  0.797556  0.498448  0.250000  1
  Ac  Ac3  1  0.373042  0.840604  0.881766  1
  Ac  Ac4  1  0.872648  0.660506  0.618220  1
  Ac  Ac5  1  0.630110  0.161442  0.382417  1
  Ac  Ac6  1  0.126276  0.340881  0.117870  1
  Ac  Ac7  1  0.630110  0.161442  0.117583  1
  Ac  Ac8  1  0.126276  0.340881  0.382130  1
  Ac  Ac9  1  0.373042  0.840604  0.618234  1
  Ac  Ac10  1  0.872648  0.660506  0.881780  1
  Ac  Ac11  1  0.518358  0.318118  0.901385  1
  Ac  Ac12  1  0.017849  0.181779  0.598776  1
  Ac  Ac13  1  0.481995  0.678668  0.401578  1
  Ac  Ac14  1  0.979367  0.817248  0.098472  1
  Ac  Ac15  1  0.481995  0.678668  0.098422  1
  Ac  Ac16  1  0.979367  0.817248  0.401528  1
  Ac  Ac17  1  0.518358  0.318118  0.598615  1
  Ac  Ac18  1  0.017849  0.181779  0.901224  1
  Ac  Ac19  1  0.301374  0.000607  0.250000  1
  Sn  Sn20  1  0.287630  0.034981  0.043490  1
  Sn  Sn21  1  0.787849  0.465453  0.456814  1
  Sn  Sn22  1  0.712403  0.965721  0.544064  1
  Sn  Sn23  1  0.212681  0.534684  0.955977  1
  Sn  Sn24  1  0.712403  0.965721  0.955936  1
  Sn  Sn25  1  0.212681  0.534684  0.544023  1
  Sn  Sn26  1  0.287630  0.034981  0.456510  1
  Sn  Sn27  1  0.787849  0.465453  0.043186  1
  Sn  Sn28  1  0.571045  0.606058  0.750000  1
  Sn  Sn29  1  0.071695  0.892549  0.750000  1
  Sn  Sn30  1  0.430230  0.393853  0.250000  1
  Sn  Sn31  1  0.925141  0.112220  0.250000  1
  Sn  Sn32  1  0.317331  0.139854  0.750000  1
  Sn  Sn33  1  0.817535  0.360653  0.750000  1
  Sn  Sn34  1  0.683830  0.857929  0.250000  1
  Sn  Sn35  1  0.178882  0.637232  0.250000  1
