# generated using pymatgen
data_Li3Eu4(Ag2As3)2
_symmetry_space_group_name_H-M   'P 1'
_cell_length_a   8.47950178
_cell_length_b   8.47950234
_cell_length_c   11.92250312
_cell_angle_alpha   56.43268925
_cell_angle_beta   56.43268667
_cell_angle_gamma   30.56464264
_symmetry_Int_Tables_number   1
_chemical_formula_structural   Li3Eu4(Ag2As3)2
_chemical_formula_sum   'Li3 Eu4 Ag4 As6'
_cell_volume   357.20505225
_cell_formula_units_Z   1
loop_
 _symmetry_equiv_pos_site_id
 _symmetry_equiv_pos_as_xyz
  1  'x, y, z'
loop_
 _atom_site_type_symbol
 _atom_site_label
 _atom_site_symmetry_multiplicity
 _atom_site_fract_x
 _atom_site_fract_y
 _atom_site_fract_z
 _atom_site_occupancy
  Li  Li0  1  0.417399  0.417399  0.654154  1
  Li  Li1  1  0.582601  0.582601  0.345846  1
  Li  Li2  1  0.000000  0.000000  0.500000  1
  Eu  Eu3  1  0.263469  0.263469  0.337418  1
  Eu  Eu4  1  0.736531  0.736531  0.662582  1
  Eu  Eu5  1  0.432809  0.432809  0.913727  1
  Eu  Eu6  1  0.567191  0.567191  0.086273  1
  Ag  Ag7  1  0.055995  0.055995  0.674976  1
  Ag  Ag8  1  0.944005  0.944005  0.325024  1
  Ag  Ag9  1  0.236531  0.236531  0.906970  1
  Ag  Ag10  1  0.763469  0.763469  0.093030  1
  As  As11  1  0.084903  0.084903  0.879946  1
  As  As12  1  0.915097  0.915097  0.120054  1
  As  As13  1  0.147948  0.147948  0.194486  1
  As  As14  1  0.852052  0.852052  0.805514  1
  As  As15  1  0.379433  0.379433  0.473938  1
  As  As16  1  0.620567  0.620567  0.526062  1
