# generated using pymatgen
data_U2H2SeBr3
_symmetry_space_group_name_H-M   'P 1'
_cell_length_a   3.86742800
_cell_length_b   3.86742722
_cell_length_c   14.94513100
_cell_angle_alpha   90.00000000
_cell_angle_beta   90.00000000
_cell_angle_gamma   120.00000663
_symmetry_Int_Tables_number   1
_chemical_formula_structural   U2H2SeBr3
_chemical_formula_sum   'U2 H2 Se1 Br3'
_cell_volume   193.58634317
_cell_formula_units_Z   1
loop_
 _symmetry_equiv_pos_site_id
 _symmetry_equiv_pos_as_xyz
  1  'x, y, z'
loop_
 _atom_site_type_symbol
 _atom_site_label
 _atom_site_symmetry_multiplicity
 _atom_site_fract_x
 _atom_site_fract_y
 _atom_site_fract_z
 _atom_site_occupancy
  U  U0  1  0.000000  0.000000  0.242274  1
  U  U1  1  0.000000  0.000000  0.751529  1
  H  H2  1  0.333333  0.666667  0.750547  1
  H  H3  1  0.666667  0.333333  0.251076  1
  Se  Se4  1  0.333333  0.666667  0.125567  1
  Br  Br5  1  0.666667  0.333333  0.883739  1
  Br  Br6  1  0.666667  0.333333  0.618346  1
  Br  Br7  1  0.333333  0.666667  0.376922  1
