# generated using pymatgen
data_Nd16CdIn3Ru4
_symmetry_space_group_name_H-M   'P 1'
_cell_length_a   9.93026233
_cell_length_b   9.93686492
_cell_length_c   9.93686400
_cell_angle_alpha   59.99999639
_cell_angle_beta   59.97799938
_cell_angle_gamma   59.97800942
_symmetry_Int_Tables_number   1
_chemical_formula_structural   Nd16CdIn3Ru4
_chemical_formula_sum   'Nd16 Cd1 In3 Ru4'
_cell_volume   693.10650773
_cell_formula_units_Z   1
loop_
 _symmetry_equiv_pos_site_id
 _symmetry_equiv_pos_as_xyz
  1  'x, y, z'
loop_
 _atom_site_type_symbol
 _atom_site_label
 _atom_site_symmetry_multiplicity
 _atom_site_fract_x
 _atom_site_fract_y
 _atom_site_fract_z
 _atom_site_occupancy
  Nd  Nd0  1  0.596049  0.596315  0.596315  1
  Nd  Nd1  1  0.596049  0.596315  0.211322  1
  Nd  Nd2  1  0.596049  0.211322  0.596315  1
  Nd  Nd3  1  0.209937  0.596688  0.596688  1
  Nd  Nd4  1  0.057507  0.442253  0.442253  1
  Nd  Nd5  1  0.441014  0.059022  0.059022  1
  Nd  Nd6  1  0.441014  0.059022  0.440943  1
  Nd  Nd7  1  0.057507  0.442253  0.057987  1
  Nd  Nd8  1  0.441014  0.440943  0.059022  1
  Nd  Nd9  1  0.057507  0.057987  0.442253  1
  Nd  Nd10  1  0.192503  0.809505  0.809505  1
  Nd  Nd11  1  0.810226  0.189766  0.189766  1
  Nd  Nd12  1  0.810226  0.189766  0.810244  1
  Nd  Nd13  1  0.192503  0.809505  0.188486  1
  Nd  Nd14  1  0.810226  0.810244  0.189766  1
  Nd  Nd15  1  0.192503  0.188486  0.809505  1
  Cd  Cd16  1  0.512266  0.829244  0.829244  1
  In  In17  1  0.829344  0.829957  0.829957  1
  In  In18  1  0.829344  0.829957  0.510740  1
  In  In19  1  0.829344  0.510740  0.829957  1
  Ru  Ru20  1  0.387761  0.388072  0.388072  1
  Ru  Ru21  1  0.387761  0.388072  0.836093  1
  Ru  Ru22  1  0.387761  0.836093  0.388072  1
  Ru  Ru23  1  0.834579  0.388474  0.388474  1
