# generated using pymatgen
data_Ho6AlSi11Pt8
_symmetry_space_group_name_H-M   'P 1'
_cell_length_a   4.25286500
_cell_length_b   8.60846612
_cell_length_c   12.87508049
_cell_angle_alpha   80.40177087
_cell_angle_beta   90.00000000
_cell_angle_gamma   90.00000000
_symmetry_Int_Tables_number   1
_chemical_formula_structural   Ho6AlSi11Pt8
_chemical_formula_sum   'Ho6 Al1 Si11 Pt8'
_cell_volume   464.76644328
_cell_formula_units_Z   1
loop_
 _symmetry_equiv_pos_site_id
 _symmetry_equiv_pos_as_xyz
  1  'x, y, z'
loop_
 _atom_site_type_symbol
 _atom_site_label
 _atom_site_symmetry_multiplicity
 _atom_site_fract_x
 _atom_site_fract_y
 _atom_site_fract_z
 _atom_site_occupancy
  Ho  Ho0  1  0.250000  0.769546  0.438108  1
  Ho  Ho1  1  0.250000  0.587810  0.184528  1
  Ho  Ho2  1  0.750000  0.231236  0.560239  1
  Ho  Ho3  1  0.750000  0.407099  0.819691  1
  Ho  Ho4  1  0.750000  0.928951  0.817077  1
  Ho  Ho5  1  0.250000  0.070910  0.182589  1
  Al  Al6  1  0.750000  0.588359  0.572589  1
  Si  Si7  1  0.750000  0.125362  0.006714  1
  Si  Si8  1  0.750000  0.881098  0.567087  1
  Si  Si9  1  0.250000  0.691972  0.709008  1
  Si  Si10  1  0.750000  0.303152  0.285786  1
  Si  Si11  1  0.750000  0.806374  0.276437  1
  Si  Si12  1  0.250000  0.871746  0.994173  1
  Si  Si13  1  0.250000  0.191184  0.724985  1
  Si  Si14  1  0.250000  0.380653  0.000853  1
  Si  Si15  1  0.250000  0.129375  0.427514  1
  Si  Si16  1  0.750000  0.621798  0.997347  1
  Si  Si17  1  0.250000  0.419727  0.435418  1
  Pt  Pt18  1  0.750000  0.353792  0.098763  1
  Pt  Pt19  1  0.250000  0.971057  0.624988  1
  Pt  Pt20  1  0.750000  0.848492  0.087762  1
  Pt  Pt21  1  0.750000  0.031664  0.374474  1
  Pt  Pt22  1  0.250000  0.648404  0.898280  1
  Pt  Pt23  1  0.250000  0.148912  0.913944  1
  Pt  Pt24  1  0.750000  0.532889  0.373043  1
  Pt  Pt25  1  0.250000  0.458439  0.628604  1
