# generated using pymatgen
data_NaCa2Cd2Bi3
_symmetry_space_group_name_H-M   'P 1'
_cell_length_a   4.86411500
_cell_length_b   12.53148700
_cell_length_c   16.32006300
_cell_angle_alpha   90.00000000
_cell_angle_beta   90.00000000
_cell_angle_gamma   90.00000000
_symmetry_Int_Tables_number   1
_chemical_formula_structural   NaCa2Cd2Bi3
_chemical_formula_sum   'Na4 Ca8 Cd8 Bi12'
_cell_volume   994.78281241
_cell_formula_units_Z   4
loop_
 _symmetry_equiv_pos_site_id
 _symmetry_equiv_pos_as_xyz
  1  'x, y, z'
loop_
 _atom_site_type_symbol
 _atom_site_label
 _atom_site_symmetry_multiplicity
 _atom_site_fract_x
 _atom_site_fract_y
 _atom_site_fract_z
 _atom_site_occupancy
  Na  Na0  1  0.750000  0.100680  0.040734  1
  Na  Na1  1  0.750000  0.600680  0.459266  1
  Na  Na2  1  0.250000  0.899320  0.959266  1
  Na  Na3  1  0.250000  0.399320  0.540734  1
  Ca  Ca4  1  0.750000  0.394737  0.923993  1
  Ca  Ca5  1  0.750000  0.894737  0.576007  1
  Ca  Ca6  1  0.250000  0.605263  0.076007  1
  Ca  Ca7  1  0.250000  0.105263  0.423993  1
  Ca  Ca8  1  0.750000  0.149121  0.772129  1
  Ca  Ca9  1  0.750000  0.649121  0.727871  1
  Ca  Ca10  1  0.250000  0.850879  0.227871  1
  Ca  Ca11  1  0.250000  0.350879  0.272129  1
  Cd  Cd12  1  0.750000  0.199895  0.568286  1
  Cd  Cd13  1  0.750000  0.699895  0.931714  1
  Cd  Cd14  1  0.250000  0.800105  0.431714  1
  Cd  Cd15  1  0.250000  0.300105  0.068286  1
  Cd  Cd16  1  0.750000  0.140941  0.279799  1
  Cd  Cd17  1  0.750000  0.640941  0.220201  1
  Cd  Cd18  1  0.250000  0.859059  0.720201  1
  Cd  Cd19  1  0.250000  0.359059  0.779799  1
  Bi  Bi20  1  0.750000  0.421582  0.129306  1
  Bi  Bi21  1  0.750000  0.921582  0.370694  1
  Bi  Bi22  1  0.250000  0.578418  0.870694  1
  Bi  Bi23  1  0.250000  0.078418  0.629306  1
  Bi  Bi24  1  0.750000  0.395093  0.684269  1
  Bi  Bi25  1  0.750000  0.895093  0.815731  1
  Bi  Bi26  1  0.250000  0.604907  0.315731  1
  Bi  Bi27  1  0.250000  0.104907  0.184269  1
  Bi  Bi28  1  0.750000  0.812792  0.089631  1
  Bi  Bi29  1  0.750000  0.312792  0.410369  1
  Bi  Bi30  1  0.250000  0.187208  0.910369  1
  Bi  Bi31  1  0.250000  0.687208  0.589631  1
