# generated using pymatgen
data_Ta3Mn4NbGe4
_symmetry_space_group_name_H-M   'P 1'
_cell_length_a   6.47683500
_cell_length_b   3.62097500
_cell_length_c   7.63825000
_cell_angle_alpha   90.00000000
_cell_angle_beta   89.99710418
_cell_angle_gamma   90.00000000
_symmetry_Int_Tables_number   1
_chemical_formula_structural   Ta3Mn4NbGe4
_chemical_formula_sum   'Ta3 Mn4 Nb1 Ge4'
_cell_volume   179.13573426
_cell_formula_units_Z   1
loop_
 _symmetry_equiv_pos_site_id
 _symmetry_equiv_pos_as_xyz
  1  'x, y, z'
loop_
 _atom_site_type_symbol
 _atom_site_label
 _atom_site_symmetry_multiplicity
 _atom_site_fract_x
 _atom_site_fract_y
 _atom_site_fract_z
 _atom_site_occupancy
  Ta  Ta0  1  0.961198  0.249999  0.174721  1
  Ta  Ta1  1  0.461389  0.249999  0.326485  1
  Ta  Ta2  1  0.538694  0.749999  0.673520  1
  Mn  Mn3  1  0.636257  0.749999  0.062671  1
  Mn  Mn4  1  0.136530  0.749999  0.436889  1
  Mn  Mn5  1  0.862831  0.249999  0.561460  1
  Mn  Mn6  1  0.364918  0.249999  0.938022  1
  Nb  Nb7  1  0.038432  0.749999  0.826333  1
  Ge  Ge8  1  0.259499  0.749999  0.129940  1
  Ge  Ge9  1  0.759540  0.749999  0.370034  1
  Ge  Ge10  1  0.240013  0.249999  0.630060  1
  Ge  Ge11  1  0.740699  0.249999  0.869863  1
