# generated using pymatgen
data_SrCa2Sc4V6O24
_symmetry_space_group_name_H-M   'P 1'
_cell_length_a   7.00874368
_cell_length_b   8.90258956
_cell_length_c   10.34290241
_cell_angle_alpha   106.27903362
_cell_angle_beta   106.72767462
_cell_angle_gamma   103.15914849
_symmetry_Int_Tables_number   1
_chemical_formula_structural   SrCa2Sc4V6O24
_chemical_formula_sum   'Sr1 Ca2 Sc4 V6 O24'
_cell_volume   558.90098973
_cell_formula_units_Z   1
loop_
 _symmetry_equiv_pos_site_id
 _symmetry_equiv_pos_as_xyz
  1  'x, y, z'
loop_
 _atom_site_type_symbol
 _atom_site_label
 _atom_site_symmetry_multiplicity
 _atom_site_fract_x
 _atom_site_fract_y
 _atom_site_fract_z
 _atom_site_occupancy
  Sr  Sr0  1  0.000000  0.500000  0.500000  1
  Ca  Ca1  1  0.287632  0.305782  0.797397  1
  Ca  Ca2  1  0.712368  0.694218  0.202603  1
  Sc  Sc3  1  0.378311  0.957291  0.608007  1
  Sc  Sc4  1  0.621689  0.042709  0.391993  1
  Sc  Sc5  1  0.044861  0.210741  0.028397  1
  Sc  Sc6  1  0.955139  0.789259  0.971603  1
  V  V7  1  0.783205  0.336752  0.739003  1
  V  V8  1  0.216795  0.663248  0.260997  1
  V  V9  1  0.892890  0.915286  0.670714  1
  V  V10  1  0.397641  0.736962  0.866098  1
  V  V11  1  0.107110  0.084714  0.329286  1
  V  V12  1  0.602359  0.263038  0.133902  1
  O  O13  1  0.846521  0.714321  0.586439  1
  O  O14  1  0.153479  0.285679  0.413561  1
  O  O15  1  0.259756  0.533823  0.746140  1
  O  O16  1  0.740244  0.466177  0.253860  1
  O  O17  1  0.787309  0.282222  0.562671  1
  O  O18  1  0.212691  0.717778  0.437329  1
  O  O19  1  0.671255  0.965897  0.580557  1
  O  O20  1  0.328745  0.034103  0.419443  1
  O  O21  1  0.642015  0.740754  0.983735  1
  O  O22  1  0.357985  0.259246  0.016265  1
  O  O23  1  0.461798  0.778977  0.270458  1
  O  O24  1  0.538202  0.221023  0.729542  1
  O  O25  1  0.124924  0.024707  0.655583  1
  O  O26  1  0.068401  0.045338  0.143291  1
  O  O27  1  0.931599  0.954662  0.856709  1
  O  O28  1  0.574758  0.144750  0.239565  1
  O  O29  1  0.425242  0.855250  0.760435  1
  O  O30  1  0.178275  0.456043  0.187128  1
  O  O31  1  0.821725  0.543957  0.812872  1
  O  O32  1  0.983592  0.286902  0.849101  1
  O  O33  1  0.016408  0.713098  0.150899  1
  O  O34  1  0.244263  0.794208  0.961844  1
  O  O35  1  0.755737  0.205792  0.038156  1
  O  O36  1  0.875076  0.975293  0.344417  1
