# generated using pymatgen
data_Th4MnP8Os7
_symmetry_space_group_name_H-M   'P 1'
_cell_length_a   4.17203900
_cell_length_b   7.57921306
_cell_length_c   10.48099238
_cell_angle_alpha   90.42906583
_cell_angle_beta   90.00000000
_cell_angle_gamma   90.00000000
_symmetry_Int_Tables_number   1
_chemical_formula_structural   Th4MnP8Os7
_chemical_formula_sum   'Th4 Mn1 P8 Os7'
_cell_volume   331.40778223
_cell_formula_units_Z   1
loop_
 _symmetry_equiv_pos_site_id
 _symmetry_equiv_pos_as_xyz
  1  'x, y, z'
loop_
 _atom_site_type_symbol
 _atom_site_label
 _atom_site_symmetry_multiplicity
 _atom_site_fract_x
 _atom_site_fract_y
 _atom_site_fract_z
 _atom_site_occupancy
  Th  Th0  1  0.250000  0.264854  0.669368  1
  Th  Th1  1  0.750000  0.731624  0.333400  1
  Th  Th2  1  0.250000  0.762117  0.825029  1
  Th  Th3  1  0.750000  0.234870  0.170338  1
  Mn  Mn4  1  0.750000  0.629437  0.630446  1
  P  P5  1  0.250000  0.092842  0.965906  1
  P  P6  1  0.750000  0.905612  0.031411  1
  P  P7  1  0.250000  0.593298  0.541312  1
  P  P8  1  0.750000  0.412268  0.475420  1
  P  P9  1  0.250000  0.533310  0.161655  1
  P  P10  1  0.750000  0.470577  0.834089  1
  P  P11  1  0.250000  0.033710  0.339061  1
  P  P12  1  0.750000  0.959515  0.659328  1
  Os  Os13  1  0.750000  0.113132  0.452068  1
  Os  Os14  1  0.250000  0.890169  0.546110  1
  Os  Os15  1  0.750000  0.609933  0.046529  1
  Os  Os16  1  0.250000  0.389558  0.951291  1
  Os  Os17  1  0.250000  0.871458  0.132093  1
  Os  Os18  1  0.750000  0.127221  0.866755  1
  Os  Os19  1  0.250000  0.374495  0.368389  1
