# generated using pymatgen
data_Ce8Cu(Si4Pt)3
_symmetry_space_group_name_H-M   'P 1'
_cell_length_a   8.22781500
_cell_length_b   8.22781578
_cell_length_c   8.36566500
_cell_angle_alpha   90.00000000
_cell_angle_beta   90.00000000
_cell_angle_gamma   119.99999283
_symmetry_Int_Tables_number   1
_chemical_formula_structural   Ce8Cu(Si4Pt)3
_chemical_formula_sum   'Ce8 Cu1 Si12 Pt3'
_cell_volume   490.45617871
_cell_formula_units_Z   1
loop_
 _symmetry_equiv_pos_site_id
 _symmetry_equiv_pos_as_xyz
  1  'x, y, z'
loop_
 _atom_site_type_symbol
 _atom_site_label
 _atom_site_symmetry_multiplicity
 _atom_site_fract_x
 _atom_site_fract_y
 _atom_site_fract_z
 _atom_site_occupancy
  Ce  Ce0  1  0.000000  0.000000  0.250367  1
  Ce  Ce1  1  0.000000  0.000000  0.749308  1
  Ce  Ce2  1  0.500263  0.499737  0.250619  1
  Ce  Ce3  1  0.500263  0.000525  0.250619  1
  Ce  Ce4  1  0.999475  0.499737  0.250619  1
  Ce  Ce5  1  0.500177  0.499823  0.749655  1
  Ce  Ce6  1  0.500177  0.000353  0.749655  1
  Ce  Ce7  1  0.999647  0.499823  0.749655  1
  Cu  Cu8  1  0.333333  0.666667  0.498680  1
  Si  Si9  1  0.168754  0.831246  0.500257  1
  Si  Si10  1  0.168754  0.337510  0.500257  1
  Si  Si11  1  0.662490  0.831246  0.500257  1
  Si  Si12  1  0.835722  0.164278  0.499379  1
  Si  Si13  1  0.835722  0.671442  0.499379  1
  Si  Si14  1  0.328558  0.164278  0.499379  1
  Si  Si15  1  0.835210  0.164790  0.001056  1
  Si  Si16  1  0.835210  0.670419  0.001056  1
  Si  Si17  1  0.329581  0.164790  0.001056  1
  Si  Si18  1  0.164701  0.835299  0.999097  1
  Si  Si19  1  0.164701  0.329405  0.999097  1
  Si  Si20  1  0.670595  0.835299  0.999097  1
  Pt  Pt21  1  0.666667  0.333333  0.500751  1
  Pt  Pt22  1  0.666667  0.333333  0.999715  1
  Pt  Pt23  1  0.333333  0.666667  0.000993  1
