# generated using pymatgen
data_LaGa8Pd3
_symmetry_space_group_name_H-M   'P 1'
_cell_length_a   8.57701989
_cell_length_b   8.57702075
_cell_length_c   8.57701997
_cell_angle_alpha   89.97452870
_cell_angle_beta   89.97452930
_cell_angle_gamma   89.97453605
_symmetry_Int_Tables_number   1
_chemical_formula_structural   LaGa8Pd3
_chemical_formula_sum   'La3 Ga24 Pd9'
_cell_volume   630.97066820
_cell_formula_units_Z   3
loop_
 _symmetry_equiv_pos_site_id
 _symmetry_equiv_pos_as_xyz
  1  'x, y, z'
loop_
 _atom_site_type_symbol
 _atom_site_label
 _atom_site_symmetry_multiplicity
 _atom_site_fract_x
 _atom_site_fract_y
 _atom_site_fract_z
 _atom_site_occupancy
  La  La0  1  0.000000  0.500000  0.000000  1
  La  La1  1  0.500000  0.000000  0.000000  1
  La  La2  1  0.000000  0.000000  0.500000  1
  Ga  Ga3  1  0.986119  0.643236  0.643236  1
  Ga  Ga4  1  0.643236  0.643236  0.986119  1
  Ga  Ga5  1  0.643236  0.986119  0.643236  1
  Ga  Ga6  1  0.013881  0.356764  0.356764  1
  Ga  Ga7  1  0.356764  0.356764  0.013881  1
  Ga  Ga8  1  0.356764  0.013881  0.356764  1
  Ga  Ga9  1  0.738204  0.500000  0.261796  1
  Ga  Ga10  1  0.261796  0.500000  0.738204  1
  Ga  Ga11  1  0.500000  0.261796  0.738204  1
  Ga  Ga12  1  0.500000  0.738204  0.261796  1
  Ga  Ga13  1  0.261796  0.738204  0.500000  1
  Ga  Ga14  1  0.738204  0.261796  0.500000  1
  Ga  Ga15  1  0.838559  0.143810  0.838559  1
  Ga  Ga16  1  0.143810  0.838559  0.838559  1
  Ga  Ga17  1  0.838559  0.838559  0.143810  1
  Ga  Ga18  1  0.161441  0.856190  0.161441  1
  Ga  Ga19  1  0.856190  0.161441  0.161441  1
  Ga  Ga20  1  0.161441  0.161441  0.856190  1
  Ga  Ga21  1  0.730781  0.484407  0.730781  1
  Ga  Ga22  1  0.484407  0.730781  0.730781  1
  Ga  Ga23  1  0.730781  0.730781  0.484407  1
  Ga  Ga24  1  0.269219  0.515593  0.269219  1
  Ga  Ga25  1  0.515593  0.269219  0.269219  1
  Ga  Ga26  1  0.269219  0.269219  0.515593  1
  Pd  Pd27  1  0.838170  0.838170  0.838170  1
  Pd  Pd28  1  0.161830  0.161830  0.161830  1
  Pd  Pd29  1  0.662818  0.337182  0.000000  1
  Pd  Pd30  1  0.000000  0.337182  0.662818  1
  Pd  Pd31  1  0.337182  0.000000  0.662818  1
  Pd  Pd32  1  0.337182  0.662818  0.000000  1
  Pd  Pd33  1  0.000000  0.662818  0.337182  1
  Pd  Pd34  1  0.662818  0.000000  0.337182  1
  Pd  Pd35  1  0.500000  0.500000  0.500000  1
