# generated using pymatgen
data_Li3Pr4ZnPd4
_symmetry_space_group_name_H-M   'P 1'
_cell_length_a   4.17183400
_cell_length_b   7.33540419
_cell_length_c   8.62889603
_cell_angle_alpha   89.51728538
_cell_angle_beta   90.00000000
_cell_angle_gamma   90.00000000
_symmetry_Int_Tables_number   1
_chemical_formula_structural   Li3Pr4ZnPd4
_chemical_formula_sum   'Li3 Pr4 Zn1 Pd4'
_cell_volume   264.05286943
_cell_formula_units_Z   1
loop_
 _symmetry_equiv_pos_site_id
 _symmetry_equiv_pos_as_xyz
  1  'x, y, z'
loop_
 _atom_site_type_symbol
 _atom_site_label
 _atom_site_symmetry_multiplicity
 _atom_site_fract_x
 _atom_site_fract_y
 _atom_site_fract_z
 _atom_site_occupancy
  Li  Li0  1  0.250000  0.132094  0.059410  1
  Li  Li1  1  0.250000  0.625843  0.443773  1
  Li  Li2  1  0.750000  0.870104  0.942360  1
  Pr  Pr3  1  0.250000  0.049270  0.685313  1
  Pr  Pr4  1  0.250000  0.538930  0.807703  1
  Pr  Pr5  1  0.750000  0.958486  0.312247  1
  Pr  Pr6  1  0.750000  0.456267  0.191842  1
  Zn  Zn7  1  0.750000  0.368781  0.560798  1
  Pd  Pd8  1  0.250000  0.255068  0.388396  1
  Pd  Pd9  1  0.250000  0.748951  0.115148  1
  Pd  Pd10  1  0.750000  0.745459  0.611478  1
  Pd  Pd11  1  0.750000  0.250748  0.881531  1
