# generated using pymatgen
data_YbCu2SnAu3
_symmetry_space_group_name_H-M   'P 1'
_cell_length_a   5.31904813
_cell_length_b   8.84697714
_cell_length_c   10.99793910
_cell_angle_alpha   89.99878553
_cell_angle_beta   90.01544981
_cell_angle_gamma   90.02041188
_symmetry_Int_Tables_number   1
_chemical_formula_structural   YbCu2SnAu3
_chemical_formula_sum   'Yb4 Cu8 Sn4 Au12'
_cell_volume   517.53543711
_cell_formula_units_Z   4
loop_
 _symmetry_equiv_pos_site_id
 _symmetry_equiv_pos_as_xyz
  1  'x, y, z'
loop_
 _atom_site_type_symbol
 _atom_site_label
 _atom_site_symmetry_multiplicity
 _atom_site_fract_x
 _atom_site_fract_y
 _atom_site_fract_z
 _atom_site_occupancy
  Yb  Yb0  1  0.250001  0.755652  0.059587  1
  Yb  Yb1  1  0.750006  0.244359  0.940442  1
  Yb  Yb2  1  0.749988  0.744343  0.559558  1
  Yb  Yb3  1  0.250018  0.255676  0.440415  1
  Cu  Cu4  1  0.509237  0.562760  0.800399  1
  Cu  Cu5  1  0.490763  0.437204  0.199702  1
  Cu  Cu6  1  0.490738  0.937202  0.300300  1
  Cu  Cu7  1  0.009283  0.437284  0.199631  1
  Cu  Cu8  1  0.509223  0.062752  0.699611  1
  Cu  Cu9  1  0.990758  0.562723  0.800416  1
  Cu  Cu10  1  0.990736  0.062697  0.699593  1
  Cu  Cu11  1  0.009288  0.937281  0.300329  1
  Sn  Sn12  1  0.249959  0.650951  0.344849  1
  Sn  Sn13  1  0.750012  0.349075  0.655172  1
  Sn  Sn14  1  0.750057  0.849058  0.844834  1
  Sn  Sn15  1  0.249918  0.150952  0.155158  1
  Au  Au16  1  0.249977  0.811118  0.758670  1
  Au  Au17  1  0.750008  0.188884  0.241326  1
  Au  Au18  1  0.749972  0.688881  0.258675  1
  Au  Au19  1  0.250013  0.311118  0.741327  1
  Au  Au20  1  0.250005  0.925456  0.512659  1
  Au  Au21  1  0.750004  0.074553  0.487310  1
  Au  Au22  1  0.750020  0.574555  0.012688  1
  Au  Au23  1  0.249996  0.425453  0.987346  1
  Au  Au24  1  0.249982  0.564894  0.579668  1
  Au  Au25  1  0.750032  0.435113  0.420338  1
  Au  Au26  1  0.749928  0.935106  0.079671  1
  Au  Au27  1  0.250076  0.064901  0.920328  1
