# generated using pymatgen
data_FeAs6Pd
_symmetry_space_group_name_H-M   'P 1'
_cell_length_a   7.31385099
_cell_length_b   7.31385099
_cell_length_c   8.48917793
_cell_angle_alpha   54.95165540
_cell_angle_beta   54.95165612
_cell_angle_gamma   70.55106846
_symmetry_Int_Tables_number   1
_chemical_formula_structural   FeAs6Pd
_chemical_formula_sum   'Fe2 As12 Pd2'
_cell_volume   304.34653279
_cell_formula_units_Z   2
loop_
 _symmetry_equiv_pos_site_id
 _symmetry_equiv_pos_as_xyz
  1  'x, y, z'
loop_
 _atom_site_type_symbol
 _atom_site_label
 _atom_site_symmetry_multiplicity
 _atom_site_fract_x
 _atom_site_fract_y
 _atom_site_fract_z
 _atom_site_occupancy
  Fe  Fe0  1  0.500000  0.000000  0.500000  1
  Fe  Fe1  1  0.000000  0.500000  0.500000  1
  As  As2  1  0.666739  0.666739  0.486720  1
  As  As3  1  0.333261  0.333261  0.513280  1
  As  As4  1  0.641787  0.641787  0.215392  1
  As  As5  1  0.358213  0.358213  0.784608  1
  As  As6  1  0.160981  0.862409  0.641803  1
  As  As7  1  0.839019  0.137591  0.358197  1
  As  As8  1  0.862409  0.160981  0.641803  1
  As  As9  1  0.137591  0.839019  0.358197  1
  As  As10  1  0.802607  0.493616  0.839669  1
  As  As11  1  0.197393  0.506384  0.160331  1
  As  As12  1  0.506384  0.197393  0.160331  1
  As  As13  1  0.493616  0.802607  0.839669  1
  Pd  Pd14  1  0.000000  0.500000  0.000000  1
  Pd  Pd15  1  0.500000  0.000000  0.000000  1
