# generated using pymatgen
data_YbSc7(Ga3Pt)4
_symmetry_space_group_name_H-M   'P 1'
_cell_length_a   8.65791500
_cell_length_b   8.65901804
_cell_length_c   6.72569000
_cell_angle_alpha   90.00000000
_cell_angle_beta   90.00000000
_cell_angle_gamma   120.01228657
_symmetry_Int_Tables_number   1
_chemical_formula_structural   YbSc7(Ga3Pt)4
_chemical_formula_sum   'Yb1 Sc7 Ga12 Pt4'
_cell_volume   436.61198985
_cell_formula_units_Z   1
loop_
 _symmetry_equiv_pos_site_id
 _symmetry_equiv_pos_as_xyz
  1  'x, y, z'
loop_
 _atom_site_type_symbol
 _atom_site_label
 _atom_site_symmetry_multiplicity
 _atom_site_fract_x
 _atom_site_fract_y
 _atom_site_fract_z
 _atom_site_occupancy
  Yb  Yb0  1  0.040562  0.520253  0.750000  1
  Sc  Sc1  1  0.999915  0.999797  0.250000  1
  Sc  Sc2  1  0.998403  0.999295  0.750000  1
  Sc  Sc3  1  0.520673  0.041447  0.250000  1
  Sc  Sc4  1  0.520616  0.479407  0.250000  1
  Sc  Sc5  1  0.957359  0.478757  0.250000  1
  Sc  Sc6  1  0.479370  0.958043  0.750000  1
  Sc  Sc7  1  0.479427  0.521156  0.750000  1
  Ga  Ga8  1  0.166892  0.331922  0.049327  1
  Ga  Ga9  1  0.167057  0.834907  0.450680  1
  Ga  Ga10  1  0.668978  0.834531  0.452439  1
  Ga  Ga11  1  0.668978  0.834531  0.047561  1
  Ga  Ga12  1  0.167057  0.834907  0.049320  1
  Ga  Ga13  1  0.832975  0.668859  0.954402  1
  Ga  Ga14  1  0.832827  0.164191  0.954426  1
  Ga  Ga15  1  0.331062  0.165492  0.952485  1
  Ga  Ga16  1  0.166892  0.331922  0.450673  1
  Ga  Ga17  1  0.331062  0.165492  0.547515  1
  Ga  Ga18  1  0.832975  0.668859  0.545598  1
  Ga  Ga19  1  0.832827  0.164191  0.545574  1
  Pt  Pt20  1  0.337231  0.668525  0.030079  1
  Pt  Pt21  1  0.337231  0.668525  0.469921  1
  Pt  Pt22  1  0.664814  0.332496  0.977714  1
  Pt  Pt23  1  0.664814  0.332496  0.522286  1
