# generated using pymatgen
data_BaSr7Ta4O18
_symmetry_space_group_name_H-M   'P 1'
_cell_length_a   5.96804366
_cell_length_b   5.96848389
_cell_length_c   15.87391428
_cell_angle_alpha   89.99194938
_cell_angle_beta   89.98712103
_cell_angle_gamma   59.99012517
_symmetry_Int_Tables_number   1
_chemical_formula_structural   BaSr7Ta4O18
_chemical_formula_sum   'Ba1 Sr7 Ta4 O18'
_cell_volume   489.62935317
_cell_formula_units_Z   1
loop_
 _symmetry_equiv_pos_site_id
 _symmetry_equiv_pos_as_xyz
  1  'x, y, z'
loop_
 _atom_site_type_symbol
 _atom_site_label
 _atom_site_symmetry_multiplicity
 _atom_site_fract_x
 _atom_site_fract_y
 _atom_site_fract_z
 _atom_site_occupancy
  Ba  Ba0  1  0.000501  0.998970  0.248510  1
  Sr  Sr1  1  0.000209  0.999457  0.500640  1
  Sr  Sr2  1  0.000020  0.000362  0.998544  1
  Sr  Sr3  1  0.666992  0.666328  0.361858  1
  Sr  Sr4  1  0.667141  0.665636  0.135198  1
  Sr  Sr5  1  0.332798  0.335110  0.861834  1
  Sr  Sr6  1  0.333511  0.332397  0.638243  1
  Sr  Sr7  1  0.999953  0.000269  0.747981  1
  Ta  Ta8  1  0.665730  0.668417  0.845607  1
  Ta  Ta9  1  0.666949  0.666009  0.655600  1
  Ta  Ta10  1  0.333510  0.332949  0.345821  1
  Ta  Ta11  1  0.333931  0.332445  0.154265  1
  O  O12  1  0.594985  0.958970  0.749941  1
  O  O13  1  0.919027  0.727263  0.603165  1
  O  O14  1  0.919197  0.728352  0.897368  1
  O  O15  1  0.352285  0.917785  0.603612  1
  O  O16  1  0.353462  0.922279  0.897697  1
  O  O17  1  0.957878  0.446851  0.750525  1
  O  O18  1  0.446328  0.595609  0.750679  1
  O  O19  1  0.267983  0.646664  0.101025  1
  O  O20  1  0.270686  0.646272  0.398647  1
  O  O21  1  0.729291  0.350836  0.604137  1
  O  O22  1  0.724026  0.357774  0.898972  1
  O  O23  1  0.531472  0.429977  0.249585  1
  O  O24  1  0.038512  0.529797  0.249738  1
  O  O25  1  0.647543  0.083900  0.101070  1
  O  O26  1  0.645890  0.083365  0.399238  1
  O  O27  1  0.085409  0.267210  0.101024  1
  O  O28  1  0.083548  0.271254  0.399568  1
  O  O29  1  0.431232  0.037493  0.249906  1
