# generated using pymatgen
data_Ho4Si4TcIrRh2
_symmetry_space_group_name_H-M   'P 1'
_cell_length_a   4.29737500
_cell_length_b   6.92350340
_cell_length_c   7.27033328
_cell_angle_alpha   90.11098974
_cell_angle_beta   90.00000000
_cell_angle_gamma   90.00000000
_symmetry_Int_Tables_number   1
_chemical_formula_structural   Ho4Si4TcIrRh2
_chemical_formula_sum   'Ho4 Si4 Tc1 Ir1 Rh2'
_cell_volume   216.31302359
_cell_formula_units_Z   1
loop_
 _symmetry_equiv_pos_site_id
 _symmetry_equiv_pos_as_xyz
  1  'x, y, z'
loop_
 _atom_site_type_symbol
 _atom_site_label
 _atom_site_symmetry_multiplicity
 _atom_site_fract_x
 _atom_site_fract_y
 _atom_site_fract_z
 _atom_site_occupancy
  Ho  Ho0  1  0.750000  0.503880  0.814516  1
  Ho  Ho1  1  0.250000  0.988161  0.310611  1
  Ho  Ho2  1  0.750000  0.008544  0.690663  1
  Ho  Ho3  1  0.250000  0.495338  0.184818  1
  Si  Si4  1  0.250000  0.799376  0.885469  1
  Si  Si5  1  0.250000  0.299788  0.602389  1
  Si  Si6  1  0.750000  0.201292  0.112628  1
  Si  Si7  1  0.750000  0.700548  0.399764  1
  Tc  Tc8  1  0.250000  0.654724  0.567550  1
  Ir  Ir9  1  0.750000  0.342599  0.430830  1
  Rh  Rh10  1  0.250000  0.157704  0.933940  1
  Rh  Rh11  1  0.750000  0.848045  0.066824  1
