# generated using pymatgen
data_Ho12Tc3Se
_symmetry_space_group_name_H-M   'P 1'
_cell_length_a   6.29949933
_cell_length_b   7.43331997
_cell_length_c   9.13480000
_cell_angle_alpha   90.00000000
_cell_angle_beta   90.00000000
_cell_angle_gamma   89.67079634
_symmetry_Int_Tables_number   1
_chemical_formula_structural   Ho12Tc3Se
_chemical_formula_sum   'Ho12 Tc3 Se1'
_cell_volume   427.74085770
_cell_formula_units_Z   1
loop_
 _symmetry_equiv_pos_site_id
 _symmetry_equiv_pos_as_xyz
  1  'x, y, z'
loop_
 _atom_site_type_symbol
 _atom_site_label
 _atom_site_symmetry_multiplicity
 _atom_site_fract_x
 _atom_site_fract_y
 _atom_site_fract_z
 _atom_site_occupancy
  Ho  Ho0  1  0.329540  0.678407  0.068883  1
  Ho  Ho1  1  0.166138  0.179142  0.435246  1
  Ho  Ho2  1  0.659961  0.308014  0.558161  1
  Ho  Ho3  1  0.850885  0.834128  0.943396  1
  Ho  Ho4  1  0.659961  0.308014  0.941839  1
  Ho  Ho5  1  0.850885  0.834128  0.556604  1
  Ho  Ho6  1  0.329540  0.678407  0.431117  1
  Ho  Ho7  1  0.166138  0.179142  0.064754  1
  Ho  Ho8  1  0.866322  0.539102  0.250000  1
  Ho  Ho9  1  0.618674  0.034111  0.250000  1
  Ho  Ho10  1  0.128050  0.448765  0.750000  1
  Ho  Ho11  1  0.365714  0.978925  0.750000  1
  Tc  Tc12  1  0.033737  0.881171  0.250000  1
  Tc  Tc13  1  0.464519  0.383209  0.250000  1
  Tc  Tc14  1  0.946710  0.116322  0.750000  1
  Se  Se15  1  0.563227  0.619013  0.750000  1
