# generated using pymatgen
data_Ho5Er5(InBi2)2
_symmetry_space_group_name_H-M   'P 1'
_cell_length_a   9.02967286
_cell_length_b   9.03228561
_cell_length_c   6.47003400
_cell_angle_alpha   90.00000000
_cell_angle_beta   90.00000000
_cell_angle_gamma   119.66215258
_symmetry_Int_Tables_number   1
_chemical_formula_structural   Ho5Er5(InBi2)2
_chemical_formula_sum   'Ho5 Er5 In2 Bi4'
_cell_volume   458.53799749
_cell_formula_units_Z   1
loop_
 _symmetry_equiv_pos_site_id
 _symmetry_equiv_pos_as_xyz
  1  'x, y, z'
loop_
 _atom_site_type_symbol
 _atom_site_label
 _atom_site_symmetry_multiplicity
 _atom_site_fract_x
 _atom_site_fract_y
 _atom_site_fract_z
 _atom_site_occupancy
  Ho  Ho0  1  0.762370  0.762307  0.750000  1
  Ho  Ho1  1  0.234203  0.997821  0.750000  1
  Ho  Ho2  1  0.997850  0.234297  0.750000  1
  Ho  Ho3  1  0.234044  0.233990  0.250000  1
  Ho  Ho4  1  0.766271  0.008644  0.250000  1
  Er  Er5  1  0.668896  0.329070  0.003737  1
  Er  Er6  1  0.329067  0.668960  0.003785  1
  Er  Er7  1  0.329067  0.668960  0.496215  1
  Er  Er8  1  0.668896  0.329070  0.496263  1
  Er  Er9  1  0.008762  0.766231  0.250000  1
  In  In10  1  0.396769  0.001984  0.250000  1
  In  In11  1  0.002084  0.397095  0.250000  1
  Bi  Bi12  1  0.393785  0.393782  0.750000  1
  Bi  Bi13  1  0.602107  0.996728  0.750000  1
  Bi  Bi14  1  0.996725  0.602112  0.750000  1
  Bi  Bi15  1  0.609105  0.608950  0.250000  1
