# generated using pymatgen
data_Hf2Co2SiP
_symmetry_space_group_name_H-M   'P 1'
_cell_length_a   3.74049300
_cell_length_b   6.34213000
_cell_length_c   7.11983500
_cell_angle_alpha   90.00000000
_cell_angle_beta   90.00000000
_cell_angle_gamma   90.00000000
_symmetry_Int_Tables_number   1
_chemical_formula_structural   Hf2Co2SiP
_chemical_formula_sum   'Hf4 Co4 Si2 P2'
_cell_volume   168.90165899
_cell_formula_units_Z   2
loop_
 _symmetry_equiv_pos_site_id
 _symmetry_equiv_pos_as_xyz
  1  'x, y, z'
loop_
 _atom_site_type_symbol
 _atom_site_label
 _atom_site_symmetry_multiplicity
 _atom_site_fract_x
 _atom_site_fract_y
 _atom_site_fract_z
 _atom_site_occupancy
  Hf  Hf0  1  0.250000  0.019041  0.316973  1
  Hf  Hf1  1  0.250000  0.519041  0.183027  1
  Hf  Hf2  1  0.750000  0.985945  0.688194  1
  Hf  Hf3  1  0.750000  0.485945  0.811806  1
  Co  Co4  1  0.250000  0.140227  0.932579  1
  Co  Co5  1  0.250000  0.640227  0.567421  1
  Co  Co6  1  0.750000  0.855079  0.059585  1
  Co  Co7  1  0.750000  0.355079  0.440415  1
  Si  Si8  1  0.750000  0.723362  0.389342  1
  Si  Si9  1  0.750000  0.223362  0.110658  1
  P  P10  1  0.250000  0.276345  0.613241  1
  P  P11  1  0.250000  0.776345  0.886759  1
