# generated using pymatgen
data_La3Ga3(BiSb2)2
_symmetry_space_group_name_H-M   'P 1'
_cell_length_a   13.57971800
_cell_length_b   13.57971907
_cell_length_c   4.29377700
_cell_angle_alpha   90.00000000
_cell_angle_beta   90.00000000
_cell_angle_gamma   119.99999739
_symmetry_Int_Tables_number   1
_chemical_formula_structural   La3Ga3(BiSb2)2
_chemical_formula_sum   'La6 Ga6 Bi4 Sb8'
_cell_volume   685.72765615
_cell_formula_units_Z   2
loop_
 _symmetry_equiv_pos_site_id
 _symmetry_equiv_pos_as_xyz
  1  'x, y, z'
loop_
 _atom_site_type_symbol
 _atom_site_label
 _atom_site_symmetry_multiplicity
 _atom_site_fract_x
 _atom_site_fract_y
 _atom_site_fract_z
 _atom_site_occupancy
  La  La0  1  0.773756  0.226244  0.500000  1
  La  La1  1  0.773756  0.547512  0.500000  1
  La  La2  1  0.452488  0.226244  0.500000  1
  La  La3  1  0.226244  0.773756  0.500000  1
  La  La4  1  0.547512  0.773756  0.500000  1
  La  La5  1  0.226244  0.452488  0.500000  1
  Ga  Ga6  1  0.816616  0.816616  0.500000  1
  Ga  Ga7  1  0.183384  0.000000  0.500000  1
  Ga  Ga8  1  0.000000  0.183384  0.500000  1
  Ga  Ga9  1  0.183384  0.183384  0.500000  1
  Ga  Ga10  1  0.816616  0.000000  0.500000  1
  Ga  Ga11  1  0.000000  0.816616  0.500000  1
  Bi  Bi12  1  0.500000  0.500000  0.500000  1
  Bi  Bi13  1  0.500000  0.000000  0.500000  1
  Bi  Bi14  1  0.000000  0.500000  0.500000  1
  Bi  Bi15  1  0.000000  0.000000  0.000000  1
  Sb  Sb16  1  0.675129  0.675129  0.000000  1
  Sb  Sb17  1  0.324871  0.000000  0.000000  1
  Sb  Sb18  1  0.000000  0.324871  0.000000  1
  Sb  Sb19  1  0.324871  0.324871  0.000000  1
  Sb  Sb20  1  0.675129  0.000000  0.000000  1
  Sb  Sb21  1  0.000000  0.675129  0.000000  1
  Sb  Sb22  1  0.666667  0.333333  0.000000  1
  Sb  Sb23  1  0.333333  0.666667  0.000000  1
