# generated using pymatgen
data_YErFe8(MoP3)2
_symmetry_space_group_name_H-M   'P 1'
_cell_length_a   3.70423700
_cell_length_b   10.39992800
_cell_length_c   12.02288300
_cell_angle_alpha   90.00000000
_cell_angle_beta   90.00000000
_cell_angle_gamma   90.00000000
_symmetry_Int_Tables_number   1
_chemical_formula_structural   YErFe8(MoP3)2
_chemical_formula_sum   'Y2 Er2 Fe16 Mo4 P12'
_cell_volume   463.16711721
_cell_formula_units_Z   2
loop_
 _symmetry_equiv_pos_site_id
 _symmetry_equiv_pos_as_xyz
  1  'x, y, z'
loop_
 _atom_site_type_symbol
 _atom_site_label
 _atom_site_symmetry_multiplicity
 _atom_site_fract_x
 _atom_site_fract_y
 _atom_site_fract_z
 _atom_site_occupancy
  Y  Y0  1  0.250000  0.583250  0.708872  1
  Y  Y1  1  0.250000  0.916750  0.208872  1
  Er  Er2  1  0.750000  0.416956  0.290990  1
  Er  Er3  1  0.750000  0.083044  0.790990  1
  Fe  Fe4  1  0.250000  0.410985  0.492283  1
  Fe  Fe5  1  0.250000  0.089016  0.992283  1
  Fe  Fe6  1  0.750000  0.588744  0.506507  1
  Fe  Fe7  1  0.750000  0.911256  0.006507  1
  Fe  Fe8  1  0.250000  0.217636  0.177136  1
  Fe  Fe9  1  0.250000  0.282364  0.677136  1
  Fe  Fe10  1  0.750000  0.783347  0.823123  1
  Fe  Fe11  1  0.750000  0.716653  0.323123  1
  Fe  Fe12  1  0.250000  0.878160  0.700670  1
  Fe  Fe13  1  0.250000  0.621840  0.200670  1
  Fe  Fe14  1  0.750000  0.123239  0.299747  1
  Fe  Fe15  1  0.750000  0.376761  0.799747  1
  Fe  Fe16  1  0.250000  0.463265  0.933521  1
  Fe  Fe17  1  0.250000  0.036735  0.433521  1
  Fe  Fe18  1  0.750000  0.536029  0.067078  1
  Fe  Fe19  1  0.750000  0.963971  0.567078  1
  Mo  Mo20  1  0.250000  0.707009  0.988134  1
  Mo  Mo21  1  0.250000  0.792991  0.488134  1
  Mo  Mo22  1  0.750000  0.293195  0.011658  1
  Mo  Mo23  1  0.750000  0.206805  0.511658  1
  P  P24  1  0.250000  0.424691  0.113694  1
  P  P25  1  0.250000  0.075309  0.613694  1
  P  P26  1  0.750000  0.574879  0.887245  1
  P  P27  1  0.750000  0.925121  0.387245  1
  P  P28  1  0.250000  0.266280  0.865855  1
  P  P29  1  0.250000  0.233720  0.365855  1
  P  P30  1  0.750000  0.732522  0.133986  1
  P  P31  1  0.750000  0.767478  0.633986  1
  P  P32  1  0.250000  0.594612  0.386794  1
  P  P33  1  0.250000  0.905388  0.886794  1
  P  P34  1  0.750000  0.404344  0.612710  1
  P  P35  1  0.750000  0.095656  0.112710  1
