# generated using pymatgen
data_Ac2NbReH18
_symmetry_space_group_name_H-M   'P 1'
_cell_length_a   5.02054300
_cell_length_b   5.02054219
_cell_length_c   9.19468200
_cell_angle_alpha   90.00000000
_cell_angle_beta   90.00000000
_cell_angle_gamma   119.72208580
_symmetry_Int_Tables_number   1
_chemical_formula_structural   Ac2NbReH18
_chemical_formula_sum   'Ac2 Nb1 Re1 H18'
_cell_volume   201.26955091
_cell_formula_units_Z   1
loop_
 _symmetry_equiv_pos_site_id
 _symmetry_equiv_pos_as_xyz
  1  'x, y, z'
loop_
 _atom_site_type_symbol
 _atom_site_label
 _atom_site_symmetry_multiplicity
 _atom_site_fract_x
 _atom_site_fract_y
 _atom_site_fract_z
 _atom_site_occupancy
  Ac  Ac0  1  0.001644  0.998356  0.018737  1
  Ac  Ac1  1  0.001644  0.998356  0.481263  1
  Nb  Nb2  1  0.336177  0.663823  0.250000  1
  Re  Re3  1  0.663286  0.336714  0.750000  1
  H  H4  1  0.485429  0.514571  0.103054  1
  H  H5  1  0.524016  0.475984  0.881196  1
  H  H6  1  0.485429  0.514571  0.396946  1
  H  H7  1  0.524016  0.475984  0.618804  1
  H  H8  1  0.484538  0.961116  0.397372  1
  H  H9  1  0.942632  0.475156  0.619603  1
  H  H10  1  0.484538  0.961116  0.102628  1
  H  H11  1  0.942632  0.475156  0.880397  1
  H  H12  1  0.524844  0.057368  0.619603  1
  H  H13  1  0.038884  0.515462  0.397372  1
  H  H14  1  0.524844  0.057368  0.880397  1
  H  H15  1  0.038884  0.515462  0.102628  1
  H  H16  1  0.746380  0.867138  0.250000  1
  H  H17  1  0.852201  0.721471  0.750000  1
  H  H18  1  0.278529  0.147799  0.750000  1
  H  H19  1  0.132862  0.253620  0.250000  1
  H  H20  1  0.130417  0.869583  0.250000  1
  H  H21  1  0.856171  0.143829  0.750000  1
