# generated using pymatgen
data_Nd8Sm2B2Cl15
_symmetry_space_group_name_H-M   'P 1'
_cell_length_a   9.01727897
_cell_length_b   9.84223719
_cell_length_c   10.63579150
_cell_angle_alpha   90.71602985
_cell_angle_beta   114.59790942
_cell_angle_gamma   111.10061422
_symmetry_Int_Tables_number   1
_chemical_formula_structural   Nd8Sm2B2Cl15
_chemical_formula_sum   'Nd8 Sm2 B2 Cl15'
_cell_volume   785.91992593
_cell_formula_units_Z   1
loop_
 _symmetry_equiv_pos_site_id
 _symmetry_equiv_pos_as_xyz
  1  'x, y, z'
loop_
 _atom_site_type_symbol
 _atom_site_label
 _atom_site_symmetry_multiplicity
 _atom_site_fract_x
 _atom_site_fract_y
 _atom_site_fract_z
 _atom_site_occupancy
  Nd  Nd0  1  0.811040  0.418613  0.279259  1
  Nd  Nd1  1  0.188960  0.581387  0.720741  1
  Nd  Nd2  1  0.681719  0.743904  0.818253  1
  Nd  Nd3  1  0.318281  0.256096  0.181747  1
  Nd  Nd4  1  0.527422  0.700509  0.102470  1
  Nd  Nd5  1  0.472578  0.299491  0.897530  1
  Nd  Nd6  1  0.591892  0.036969  0.333745  1
  Nd  Nd7  1  0.408108  0.963031  0.666255  1
  Sm  Sm8  1  0.731798  0.077331  0.048988  1
  Sm  Sm9  1  0.268202  0.922669  0.951012  1
  B  B10  1  0.466056  0.818629  0.875582  1
  B  B11  1  0.533944  0.181371  0.124418  1
  Cl  Cl12  1  0.000000  0.000000  0.000000  1
  Cl  Cl13  1  0.634549  0.882875  0.585858  1
  Cl  Cl14  1  0.365451  0.117125  0.414142  1
  Cl  Cl15  1  0.882270  0.299397  0.523615  1
  Cl  Cl16  1  0.117730  0.700603  0.476385  1
  Cl  Cl17  1  0.292901  0.767552  0.177806  1
  Cl  Cl18  1  0.707099  0.232448  0.822194  1
  Cl  Cl19  1  0.050443  0.339865  0.223516  1
  Cl  Cl20  1  0.166539  0.055528  0.709056  1
  Cl  Cl21  1  0.833461  0.944472  0.290944  1
  Cl  Cl22  1  0.236393  0.411572  0.946109  1
  Cl  Cl23  1  0.763607  0.588428  0.053891  1
  Cl  Cl24  1  0.407545  0.467724  0.660845  1
  Cl  Cl25  1  0.592455  0.532276  0.339155  1
  Cl  Cl26  1  0.949557  0.660135  0.776484  1
