# generated using pymatgen
data_RbTa(SO4)3
_symmetry_space_group_name_H-M   'P 1'
_cell_length_a   8.88631590
_cell_length_b   8.61111099
_cell_length_c   9.14432600
_cell_angle_alpha   107.53049020
_cell_angle_beta   109.77994206
_cell_angle_gamma   108.13381631
_symmetry_Int_Tables_number   1
_chemical_formula_structural   RbTa(SO4)3
_chemical_formula_sum   'Rb2 Ta2 S6 O24'
_cell_volume   557.34580749
_cell_formula_units_Z   2
loop_
 _symmetry_equiv_pos_site_id
 _symmetry_equiv_pos_as_xyz
  1  'x, y, z'
loop_
 _atom_site_type_symbol
 _atom_site_label
 _atom_site_symmetry_multiplicity
 _atom_site_fract_x
 _atom_site_fract_y
 _atom_site_fract_z
 _atom_site_occupancy
  Rb  Rb0  1  0.849782  0.180631  0.373855  1
  Rb  Rb1  1  0.150218  0.819369  0.626145  1
  Ta  Ta2  1  0.000000  0.000000  0.000000  1
  Ta  Ta3  1  0.500000  0.500000  0.500000  1
  S  S4  1  0.906010  0.559606  0.776048  1
  S  S5  1  0.444611  0.258075  0.105100  1
  S  S6  1  0.748520  0.928585  0.580194  1
  S  S7  1  0.251480  0.071415  0.419806  1
  S  S8  1  0.555389  0.741925  0.894900  1
  S  S9  1  0.093990  0.440394  0.223952  1
  O  O10  1  0.984228  0.226852  0.119537  1
  O  O11  1  0.984107  0.503639  0.285013  1
  O  O12  1  0.882921  0.997002  0.773319  1
  O  O13  1  0.694678  0.066133  0.567285  1
  O  O14  1  0.828091  0.867900  0.475164  1
  O  O15  1  0.765530  0.850697  0.969946  1
  O  O16  1  0.521357  0.149344  0.162699  1
  O  O17  1  0.751220  0.539297  0.609938  1
  O  O18  1  0.830621  0.485058  0.868920  1
  O  O19  1  0.494473  0.429037  0.269440  1
  O  O20  1  0.524828  0.689594  0.019780  1
  O  O21  1  0.413542  0.240530  0.455167  1
  O  O22  1  0.586458  0.759470  0.544833  1
  O  O23  1  0.475172  0.310406  0.980220  1
  O  O24  1  0.505527  0.570963  0.730560  1
  O  O25  1  0.169379  0.514942  0.131080  1
  O  O26  1  0.248780  0.460703  0.390062  1
  O  O27  1  0.478643  0.850656  0.837301  1
  O  O28  1  0.234470  0.149303  0.030054  1
  O  O29  1  0.171909  0.132100  0.524836  1
  O  O30  1  0.305322  0.933867  0.432715  1
  O  O31  1  0.117079  0.002998  0.226681  1
  O  O32  1  0.015893  0.496361  0.714987  1
  O  O33  1  0.015772  0.773148  0.880463  1
