# generated using pymatgen
data_Pr16Nd4Si15Se
_symmetry_space_group_name_H-M   'P 1'
_cell_length_a   7.95171570
_cell_length_b   7.90918120
_cell_length_c   15.36937886
_cell_angle_alpha   89.74222098
_cell_angle_beta   89.27446843
_cell_angle_gamma   90.00239227
_symmetry_Int_Tables_number   1
_chemical_formula_structural   Pr16Nd4Si15Se
_chemical_formula_sum   'Pr16 Nd4 Si15 Se1'
_cell_volume   966.51693484
_cell_formula_units_Z   1
loop_
 _symmetry_equiv_pos_site_id
 _symmetry_equiv_pos_as_xyz
  1  'x, y, z'
loop_
 _atom_site_type_symbol
 _atom_site_label
 _atom_site_symmetry_multiplicity
 _atom_site_fract_x
 _atom_site_fract_y
 _atom_site_fract_z
 _atom_site_occupancy
  Pr  Pr0  1  0.381441  0.007184  0.443375  1
  Pr  Pr1  1  0.492111  0.875541  0.698169  1
  Pr  Pr2  1  0.510448  0.121006  0.196410  1
  Pr  Pr3  1  0.876950  0.487316  0.301601  1
  Pr  Pr4  1  0.122897  0.510739  0.803391  1
  Pr  Pr5  1  0.628877  0.985941  0.949695  1
  Pr  Pr6  1  0.001061  0.380171  0.548732  1
  Pr  Pr7  1  0.990575  0.621703  0.053410  1
  Pr  Pr8  1  0.136514  0.988600  0.873283  1
  Pr  Pr9  1  0.518154  0.628817  0.126194  1
  Pr  Pr10  1  0.478254  0.370058  0.630438  1
  Pr  Pr11  1  0.631260  0.521374  0.875435  1
  Pr  Pr12  1  0.370655  0.478784  0.374411  1
  Pr  Pr13  1  0.871871  0.018987  0.376523  1
  Pr  Pr14  1  0.982495  0.128396  0.124470  1
  Pr  Pr15  1  0.015416  0.867919  0.621892  1
  Nd  Nd16  1  0.310848  0.310090  0.000339  1
  Nd  Nd17  1  0.188497  0.808931  0.249589  1
  Nd  Nd18  1  0.801613  0.190397  0.751536  1
  Nd  Nd19  1  0.686768  0.688498  0.497544  1
  Si  Si20  1  0.330176  0.696869  0.951162  1
  Si  Si21  1  0.664537  0.305112  0.454354  1
  Si  Si22  1  0.699624  0.334476  0.049324  1
  Si  Si23  1  0.304574  0.667731  0.548954  1
  Si  Si24  1  0.804320  0.832419  0.202671  1
  Si  Si25  1  0.168325  0.194801  0.297151  1
  Si  Si26  1  0.839986  0.804011  0.796819  1
  Si  Si27  1  0.285960  0.921779  0.058491  1
  Si  Si28  1  0.577411  0.786706  0.309023  1
  Si  Si29  1  0.448646  0.210510  0.823025  1
  Si  Si30  1  0.788904  0.578369  0.688737  1
  Si  Si31  1  0.211983  0.423663  0.190982  1
  Si  Si32  1  0.704737  0.075589  0.560613  1
  Si  Si33  1  0.926021  0.289845  0.940227  1
  Si  Si34  1  0.077545  0.711338  0.440568  1
  Se  Se35  1  0.170546  0.176331  0.691456  1
