# generated using pymatgen
data_Na2Zr3(SbSe5)2
_symmetry_space_group_name_H-M   'P 1'
_cell_length_a   6.81815534
_cell_length_b   10.86588427
_cell_length_c   8.31447900
_cell_angle_alpha   65.10469392
_cell_angle_beta   65.94394241
_cell_angle_gamma   90.18076421
_symmetry_Int_Tables_number   1
_chemical_formula_structural   Na2Zr3(SbSe5)2
_chemical_formula_sum   'Na2 Zr3 Sb2 Se10'
_cell_volume   498.72986640
_cell_formula_units_Z   1
loop_
 _symmetry_equiv_pos_site_id
 _symmetry_equiv_pos_as_xyz
  1  'x, y, z'
loop_
 _atom_site_type_symbol
 _atom_site_label
 _atom_site_symmetry_multiplicity
 _atom_site_fract_x
 _atom_site_fract_y
 _atom_site_fract_z
 _atom_site_occupancy
  Na  Na0  1  0.790716  0.085683  0.413431  1
  Na  Na1  1  0.004682  0.511251  0.989975  1
  Zr  Zr2  1  0.403591  0.802802  0.196010  1
  Zr  Zr3  1  0.596661  0.197771  0.809464  1
  Zr  Zr4  1  0.002345  0.998534  0.994309  1
  Sb  Sb5  1  0.796080  0.603889  0.410787  1
  Sb  Sb6  1  0.200399  0.401269  0.584623  1
  Se  Se7  1  0.994192  0.852720  0.360368  1
  Se  Se8  1  0.587963  0.040563  0.171420  1
  Se  Se9  1  0.179071  0.234437  0.976383  1
  Se  Se10  1  0.764888  0.429198  0.790847  1
  Se  Se11  1  0.367182  0.653464  0.561991  1
  Se  Se12  1  0.415364  0.958574  0.830410  1
  Se  Se13  1  0.006680  0.146781  0.637533  1
  Se  Se14  1  0.634454  0.345828  0.439398  1
  Se  Se15  1  0.237281  0.573047  0.208307  1
  Se  Se16  1  0.818453  0.764190  0.024741  1
