# generated using pymatgen
data_Y2CuSiCl2
_symmetry_space_group_name_H-M   'P 1'
_cell_length_a   3.97273100
_cell_length_b   3.97273164
_cell_length_c   10.47038000
_cell_angle_alpha   90.00000000
_cell_angle_beta   90.00000000
_cell_angle_gamma   119.99998632
_symmetry_Int_Tables_number   1
_chemical_formula_structural   Y2CuSiCl2
_chemical_formula_sum   'Y2 Cu1 Si1 Cl2'
_cell_volume   143.11050829
_cell_formula_units_Z   1
loop_
 _symmetry_equiv_pos_site_id
 _symmetry_equiv_pos_as_xyz
  1  'x, y, z'
loop_
 _atom_site_type_symbol
 _atom_site_label
 _atom_site_symmetry_multiplicity
 _atom_site_fract_x
 _atom_site_fract_y
 _atom_site_fract_z
 _atom_site_occupancy
  Y  Y0  1  0.000000  0.000000  0.186310  1
  Y  Y1  1  0.000000  0.000000  0.812919  1
  Cu  Cu2  1  0.333333  0.666667  0.013056  1
  Si  Si3  1  0.666667  0.333333  0.989078  1
  Cl  Cl4  1  0.333333  0.666667  0.657585  1
  Cl  Cl5  1  0.666667  0.333333  0.341052  1
