# generated using pymatgen
data_Y9Tm(Bi2As)2
_symmetry_space_group_name_H-M   'P 1'
_cell_length_a   12.11802000
_cell_length_b   9.15211548
_cell_length_c   8.07845643
_cell_angle_alpha   89.96275150
_cell_angle_beta   90.00000000
_cell_angle_gamma   90.00000000
_symmetry_Int_Tables_number   1
_chemical_formula_structural   Y9Tm(Bi2As)2
_chemical_formula_sum   'Y18 Tm2 Bi8 As4'
_cell_volume   895.94520913
_cell_formula_units_Z   2
loop_
 _symmetry_equiv_pos_site_id
 _symmetry_equiv_pos_as_xyz
  1  'x, y, z'
loop_
 _atom_site_type_symbol
 _atom_site_label
 _atom_site_symmetry_multiplicity
 _atom_site_fract_x
 _atom_site_fract_y
 _atom_site_fract_z
 _atom_site_occupancy
  Y  Y0  1  0.436341  0.553699  0.683148  1
  Y  Y1  1  0.936341  0.946301  0.816852  1
  Y  Y2  1  0.436540  0.946450  0.682925  1
  Y  Y3  1  0.936540  0.553550  0.817075  1
  Y  Y4  1  0.563611  0.445704  0.316611  1
  Y  Y5  1  0.063611  0.054296  0.183389  1
  Y  Y6  1  0.710938  0.249662  0.656811  1
  Y  Y7  1  0.210938  0.250338  0.843189  1
  Y  Y8  1  0.288791  0.749982  0.343049  1
  Y  Y9  1  0.788791  0.750018  0.156951  1
  Y  Y10  1  0.500440  0.249688  0.964745  1
  Y  Y11  1  0.000440  0.250312  0.535255  1
  Y  Y12  1  0.499595  0.750160  0.036406  1
  Y  Y13  1  0.999595  0.749840  0.463594  1
  Y  Y14  1  0.794589  0.249699  0.135361  1
  Y  Y15  1  0.294589  0.250301  0.364639  1
  Y  Y16  1  0.205275  0.750013  0.865104  1
  Y  Y17  1  0.705275  0.749987  0.634896  1
  Tm  Tm18  1  0.563533  0.055433  0.317457  1
  Tm  Tm19  1  0.063533  0.444567  0.182543  1
  Bi  Bi20  1  0.826346  0.009768  0.426957  1
  Bi  Bi21  1  0.326346  0.490232  0.073043  1
  Bi  Bi22  1  0.173310  0.509974  0.572591  1
  Bi  Bi23  1  0.673310  0.990026  0.927409  1
  Bi  Bi24  1  0.173397  0.990218  0.572682  1
  Bi  Bi25  1  0.673397  0.509782  0.927318  1
  Bi  Bi26  1  0.826811  0.490288  0.427271  1
  Bi  Bi27  1  0.326811  0.009712  0.072729  1
  As  As28  1  0.980889  0.250861  0.915819  1
  As  As29  1  0.480889  0.249139  0.584181  1
  As  As30  1  0.019596  0.748289  0.085665  1
  As  As31  1  0.519596  0.751711  0.414335  1
