# generated using pymatgen
data_TbNd(Si7Ir3)2
_symmetry_space_group_name_H-M   'P 1'
_cell_length_a   8.08055184
_cell_length_b   8.08055228
_cell_length_c   8.08055132
_cell_angle_alpha   56.53490775
_cell_angle_beta   56.53490596
_cell_angle_gamma   56.53490807
_symmetry_Int_Tables_number   1
_chemical_formula_structural   TbNd(Si7Ir3)2
_chemical_formula_sum   'Tb1 Nd1 Si14 Ir6'
_cell_volume   343.20953612
_cell_formula_units_Z   1
loop_
 _symmetry_equiv_pos_site_id
 _symmetry_equiv_pos_as_xyz
  1  'x, y, z'
loop_
 _atom_site_type_symbol
 _atom_site_label
 _atom_site_symmetry_multiplicity
 _atom_site_fract_x
 _atom_site_fract_y
 _atom_site_fract_z
 _atom_site_occupancy
  Tb  Tb0  1  0.500000  0.500000  0.500000  1
  Nd  Nd1  1  0.000000  0.000000  0.000000  1
  Si  Si2  1  0.064544  0.850384  0.672114  1
  Si  Si3  1  0.672114  0.064544  0.850384  1
  Si  Si4  1  0.850384  0.672114  0.064544  1
  Si  Si5  1  0.173211  0.351066  0.563332  1
  Si  Si6  1  0.563332  0.173211  0.351066  1
  Si  Si7  1  0.351066  0.563332  0.173211  1
  Si  Si8  1  0.935456  0.149616  0.327886  1
  Si  Si9  1  0.327886  0.935456  0.149616  1
  Si  Si10  1  0.149616  0.327886  0.935456  1
  Si  Si11  1  0.826789  0.648934  0.436668  1
  Si  Si12  1  0.436668  0.826789  0.648934  1
  Si  Si13  1  0.648934  0.436668  0.826789  1
  Si  Si14  1  0.750008  0.750008  0.750008  1
  Si  Si15  1  0.249992  0.249992  0.249992  1
  Ir  Ir16  1  0.069876  0.748410  0.432683  1
  Ir  Ir17  1  0.432683  0.069876  0.748410  1
  Ir  Ir18  1  0.748410  0.432683  0.069876  1
  Ir  Ir19  1  0.930124  0.251590  0.567317  1
  Ir  Ir20  1  0.567317  0.930124  0.251590  1
  Ir  Ir21  1  0.251590  0.567317  0.930124  1
