# generated using pymatgen
data_Tb8Al(Pd3Pt5)3
_symmetry_space_group_name_H-M   'P 1'
_cell_length_a   8.35456400
_cell_length_b   8.35693800
_cell_length_c   8.38158200
_cell_angle_alpha   90.00000000
_cell_angle_beta   90.00000000
_cell_angle_gamma   90.00000000
_symmetry_Int_Tables_number   1
_chemical_formula_structural   Tb8Al(Pd3Pt5)3
_chemical_formula_sum   'Tb8 Al1 Pd9 Pt15'
_cell_volume   585.19009778
_cell_formula_units_Z   1
loop_
 _symmetry_equiv_pos_site_id
 _symmetry_equiv_pos_as_xyz
  1  'x, y, z'
loop_
 _atom_site_type_symbol
 _atom_site_label
 _atom_site_symmetry_multiplicity
 _atom_site_fract_x
 _atom_site_fract_y
 _atom_site_fract_z
 _atom_site_occupancy
  Tb  Tb0  1  0.250947  0.251034  0.251024  1
  Tb  Tb1  1  0.748512  0.748251  0.748690  1
  Tb  Tb2  1  0.749053  0.748966  0.251024  1
  Tb  Tb3  1  0.748512  0.251749  0.748690  1
  Tb  Tb4  1  0.251488  0.251749  0.748690  1
  Tb  Tb5  1  0.250947  0.748966  0.251024  1
  Tb  Tb6  1  0.251488  0.748251  0.748690  1
  Tb  Tb7  1  0.749053  0.251034  0.251024  1
  Al  Al8  1  0.000000  0.000000  0.001836  1
  Pd  Pd9  1  0.500000  0.000000  0.261304  1
  Pd  Pd10  1  0.261335  0.000000  0.500280  1
  Pd  Pd11  1  0.500000  0.000000  0.738101  1
  Pd  Pd12  1  0.738665  0.000000  0.500280  1
  Pd  Pd13  1  0.000000  0.500000  0.260396  1
  Pd  Pd14  1  0.000000  0.500000  0.738750  1
  Pd  Pd15  1  0.500000  0.500000  0.253883  1
  Pd  Pd16  1  0.500000  0.500000  0.746453  1
  Pd  Pd17  1  0.000000  0.000000  0.709680  1
  Pt  Pt18  1  0.260605  0.500000  0.000022  1
  Pt  Pt19  1  0.739395  0.500000  0.000022  1
  Pt  Pt20  1  0.000000  0.260775  0.499945  1
  Pt  Pt21  1  0.500000  0.260461  0.999987  1
  Pt  Pt22  1  0.000000  0.739225  0.499945  1
  Pt  Pt23  1  0.500000  0.739539  0.999987  1
  Pt  Pt24  1  0.253239  0.500000  0.499964  1
  Pt  Pt25  1  0.746761  0.500000  0.499964  1
  Pt  Pt26  1  0.500000  0.253490  0.499987  1
  Pt  Pt27  1  0.500000  0.746510  0.499987  1
  Pt  Pt28  1  0.291090  0.000000  0.999126  1
  Pt  Pt29  1  0.708910  0.000000  0.999126  1
  Pt  Pt30  1  0.000000  0.290779  0.999220  1
  Pt  Pt31  1  0.000000  0.709221  0.999220  1
  Pt  Pt32  1  0.000000  0.000000  0.293681  1
