# generated using pymatgen
data_Er3Hf(Al3Co)6
_symmetry_space_group_name_H-M   'P 1'
_cell_length_a   7.33705870
_cell_length_b   7.32701649
_cell_length_c   9.18832200
_cell_angle_alpha   90.00000000
_cell_angle_beta   90.00000000
_cell_angle_gamma   119.25226588
_symmetry_Int_Tables_number   1
_chemical_formula_structural   Er3Hf(Al3Co)6
_chemical_formula_sum   'Er3 Hf1 Al18 Co6'
_cell_volume   430.96221881
_cell_formula_units_Z   1
loop_
 _symmetry_equiv_pos_site_id
 _symmetry_equiv_pos_as_xyz
  1  'x, y, z'
loop_
 _atom_site_type_symbol
 _atom_site_label
 _atom_site_symmetry_multiplicity
 _atom_site_fract_x
 _atom_site_fract_y
 _atom_site_fract_z
 _atom_site_occupancy
  Er  Er0  1  0.006705  0.325898  0.250000  1
  Er  Er1  1  0.672928  0.994031  0.750000  1
  Er  Er2  1  0.326919  0.007618  0.250000  1
  Hf  Hf3  1  0.995610  0.673841  0.750000  1
  Al  Al4  1  0.121092  0.118033  0.750000  1
  Al  Al5  1  0.874142  0.873069  0.250000  1
  Al  Al6  1  0.996914  0.338201  0.575857  1
  Al  Al7  1  0.002508  0.664795  0.432138  1
  Al  Al8  1  0.002508  0.664795  0.067862  1
  Al  Al9  1  0.332870  0.994668  0.924186  1
  Al  Al10  1  0.996914  0.338201  0.924143  1
  Al  Al11  1  0.663954  0.001237  0.071177  1
  Al  Al12  1  0.663954  0.001237  0.428823  1
  Al  Al13  1  0.332870  0.994668  0.575814  1
  Al  Al14  1  0.332635  0.332817  0.039558  1
  Al  Al15  1  0.670922  0.668675  0.950451  1
  Al  Al16  1  0.670922  0.668675  0.549549  1
  Al  Al17  1  0.332635  0.332817  0.460442  1
  Al  Al18  1  0.334873  0.556903  0.750000  1
  Al  Al19  1  0.661300  0.446041  0.250000  1
  Al  Al20  1  0.562181  0.344502  0.750000  1
  Al  Al21  1  0.444177  0.659773  0.250000  1
  Co  Co22  1  0.672425  0.329531  0.501509  1
  Co  Co23  1  0.328083  0.671543  0.502066  1
  Co  Co24  1  0.328083  0.671543  0.997934  1
  Co  Co25  1  0.672425  0.329531  0.998491  1
  Co  Co26  1  0.999728  0.998679  0.501476  1
  Co  Co27  1  0.999728  0.998679  0.998524  1
