# generated using pymatgen
data_Sn3OsPb4O13
_symmetry_space_group_name_H-M   'P 1'
_cell_length_a   7.60456386
_cell_length_b   7.60533079
_cell_length_c   7.60548112
_cell_angle_alpha   59.54811948
_cell_angle_beta   59.55433826
_cell_angle_gamma   59.52483298
_symmetry_Int_Tables_number   1
_chemical_formula_structural   Sn3OsPb4O13
_chemical_formula_sum   'Sn3 Os1 Pb4 O13'
_cell_volume   307.79539631
_cell_formula_units_Z   1
loop_
 _symmetry_equiv_pos_site_id
 _symmetry_equiv_pos_as_xyz
  1  'x, y, z'
loop_
 _atom_site_type_symbol
 _atom_site_label
 _atom_site_symmetry_multiplicity
 _atom_site_fract_x
 _atom_site_fract_y
 _atom_site_fract_z
 _atom_site_occupancy
  Sn  Sn0  1  0.000042  0.499585  0.499583  1
  Sn  Sn1  1  0.499580  0.000047  0.499572  1
  Sn  Sn2  1  0.499572  0.499567  0.000030  1
  Os  Os3  1  0.499532  0.499514  0.499350  1
  Pb  Pb4  1  0.501017  0.999127  0.999170  1
  Pb  Pb5  1  0.999129  0.501008  0.999176  1
  Pb  Pb6  1  0.999146  0.999153  0.501033  1
  Pb  Pb7  1  0.999100  0.999099  0.999094  1
  O  O8  1  0.830691  0.830679  0.425451  1
  O  O9  1  0.429088  0.429103  0.807529  1
  O  O10  1  0.830679  0.425459  0.830675  1
  O  O11  1  0.429088  0.807392  0.429103  1
  O  O12  1  0.425457  0.830672  0.830675  1
  O  O13  1  0.807386  0.429083  0.429087  1
  O  O14  1  0.171826  0.171838  0.572170  1
  O  O15  1  0.568818  0.568824  0.194681  1
  O  O16  1  0.171830  0.572178  0.171824  1
  O  O17  1  0.568715  0.194736  0.568802  1
  O  O18  1  0.572181  0.171835  0.171824  1
  O  O19  1  0.194738  0.568700  0.568797  1
  O  O20  1  0.127385  0.127403  0.127374  1
