# generated using pymatgen
data_Yb4In4Ag3Pt
_symmetry_space_group_name_H-M   'P 1'
_cell_length_a   4.35748100
_cell_length_b   7.54446706
_cell_length_c   8.81183701
_cell_angle_alpha   90.11020670
_cell_angle_beta   90.00000000
_cell_angle_gamma   90.00000000
_symmetry_Int_Tables_number   1
_chemical_formula_structural   Yb4In4Ag3Pt
_chemical_formula_sum   'Yb4 In4 Ag3 Pt1'
_cell_volume   289.68747666
_cell_formula_units_Z   1
loop_
 _symmetry_equiv_pos_site_id
 _symmetry_equiv_pos_as_xyz
  1  'x, y, z'
loop_
 _atom_site_type_symbol
 _atom_site_label
 _atom_site_symmetry_multiplicity
 _atom_site_fract_x
 _atom_site_fract_y
 _atom_site_fract_z
 _atom_site_occupancy
  Yb  Yb0  1  0.250000  0.018233  0.177182  1
  Yb  Yb1  1  0.750000  0.957920  0.831393  1
  Yb  Yb2  1  0.250000  0.545360  0.307023  1
  Yb  Yb3  1  0.750000  0.464809  0.681749  1
  In  In4  1  0.750000  0.360424  0.059330  1
  In  In5  1  0.250000  0.651410  0.945342  1
  In  In6  1  0.750000  0.851695  0.438370  1
  In  In7  1  0.250000  0.145696  0.557731  1
  Ag  Ag8  1  0.250000  0.760777  0.635062  1
  Ag  Ag9  1  0.750000  0.240765  0.364484  1
  Ag  Ag10  1  0.250000  0.259899  0.868164  1
  Pt  Pt11  1  0.750000  0.743011  0.134171  1
