# generated using pymatgen
data_Sc5P12Ir(Ru5Rh)3
_symmetry_space_group_name_H-M   'P 1'
_cell_length_a   12.44977800
_cell_length_b   12.44977848
_cell_length_c   3.92120600
_cell_angle_alpha   90.00000000
_cell_angle_beta   90.00000000
_cell_angle_gamma   120.00000403
_symmetry_Int_Tables_number   1
_chemical_formula_structural   Sc5P12Ir(Ru5Rh)3
_chemical_formula_sum   'Sc5 P12 Ir1 Ru15 Rh3'
_cell_volume   526.34863869
_cell_formula_units_Z   1
loop_
 _symmetry_equiv_pos_site_id
 _symmetry_equiv_pos_as_xyz
  1  'x, y, z'
loop_
 _atom_site_type_symbol
 _atom_site_label
 _atom_site_symmetry_multiplicity
 _atom_site_fract_x
 _atom_site_fract_y
 _atom_site_fract_z
 _atom_site_occupancy
  Sc  Sc0  1  0.333333  0.666667  0.000000  1
  Sc  Sc1  1  0.666667  0.333333  0.000000  1
  Sc  Sc2  1  0.813208  0.999470  0.500000  1
  Sc  Sc3  1  0.000530  0.813737  0.500000  1
  Sc  Sc4  1  0.186263  0.186792  0.500000  1
  P  P5  1  0.179915  0.996558  0.000000  1
  P  P6  1  0.003442  0.183357  0.000000  1
  P  P7  1  0.816643  0.820085  0.000000  1
  P  P8  1  0.172282  0.479648  0.500000  1
  P  P9  1  0.520352  0.692634  0.500000  1
  P  P10  1  0.307366  0.827718  0.500000  1
  P  P11  1  0.687451  0.517778  0.500000  1
  P  P12  1  0.830326  0.312549  0.500000  1
  P  P13  1  0.482222  0.169674  0.500000  1
  P  P14  1  0.627284  0.996306  0.000000  1
  P  P15  1  0.003694  0.630977  0.000000  1
  P  P16  1  0.369023  0.372716  0.000000  1
  Ir  Ir17  1  0.000000  0.000000  0.000000  1
  Ru  Ru18  1  0.449055  0.006263  0.000000  1
  Ru  Ru19  1  0.993737  0.442792  0.000000  1
  Ru  Ru20  1  0.557208  0.550945  0.000000  1
  Ru  Ru21  1  0.366024  0.492206  0.500000  1
  Ru  Ru22  1  0.507794  0.873818  0.500000  1
  Ru  Ru23  1  0.126182  0.633976  0.500000  1
  Ru  Ru24  1  0.869852  0.509979  0.500000  1
  Ru  Ru25  1  0.640126  0.130148  0.500000  1
  Ru  Ru26  1  0.490021  0.359874  0.500000  1
  Ru  Ru27  1  0.183132  0.376580  0.000000  1
  Ru  Ru28  1  0.623420  0.806553  0.000000  1
  Ru  Ru29  1  0.193447  0.816868  0.000000  1
  Ru  Ru30  1  0.281049  0.002266  0.500000  1
  Ru  Ru31  1  0.997734  0.278784  0.500000  1
  Ru  Ru32  1  0.721216  0.718951  0.500000  1
  Rh  Rh33  1  0.814629  0.629482  0.000000  1
  Rh  Rh34  1  0.814853  0.185371  0.000000  1
  Rh  Rh35  1  0.370518  0.185147  0.000000  1
