# generated using pymatgen
data_Li3Ca3ThAu10
_symmetry_space_group_name_H-M   'P 1'
_cell_length_a   8.65857000
_cell_length_b   8.65857087
_cell_length_c   10.26230700
_cell_angle_alpha   90.00000000
_cell_angle_beta   90.00000000
_cell_angle_gamma   107.90477000
_symmetry_Int_Tables_number   1
_chemical_formula_structural   Li3Ca3ThAu10
_chemical_formula_sum   'Li6 Ca6 Th2 Au20'
_cell_volume   732.11210977
_cell_formula_units_Z   2
loop_
 _symmetry_equiv_pos_site_id
 _symmetry_equiv_pos_as_xyz
  1  'x, y, z'
loop_
 _atom_site_type_symbol
 _atom_site_label
 _atom_site_symmetry_multiplicity
 _atom_site_fract_x
 _atom_site_fract_y
 _atom_site_fract_z
 _atom_site_occupancy
  Li  Li0  1  0.508759  0.011649  0.251128  1
  Li  Li1  1  0.988290  0.491309  0.748869  1
  Li  Li2  1  0.996192  0.003838  0.999999  1
  Li  Li3  1  0.008759  0.511649  0.248872  1
  Li  Li4  1  0.488290  0.991309  0.751131  1
  Li  Li5  1  0.496192  0.503838  0.500001  1
  Ca  Ca6  1  0.799747  0.804971  0.300814  1
  Ca  Ca7  1  0.299747  0.304971  0.199186  1
  Ca  Ca8  1  0.803791  0.196212  0.500075  1
  Ca  Ca9  1  0.303791  0.696212  0.999925  1
  Ca  Ca10  1  0.695092  0.700165  0.800788  1
  Ca  Ca11  1  0.195092  0.200165  0.699212  1
  Th  Th12  1  0.700072  0.299918  0.999991  1
  Th  Th13  1  0.200072  0.799918  0.500009  1
  Au  Au14  1  0.154208  0.436322  0.471801  1
  Au  Au15  1  0.901152  0.900307  0.597981  1
  Au  Au16  1  0.563705  0.845783  0.528175  1
  Au  Au17  1  0.890631  0.171376  0.204829  1
  Au  Au18  1  0.390631  0.671376  0.295171  1
  Au  Au19  1  0.661609  0.376946  0.294105  1
  Au  Au20  1  0.401152  0.400307  0.902019  1
  Au  Au21  1  0.938456  0.653061  0.015421  1
  Au  Au22  1  0.328664  0.609428  0.704830  1
  Au  Au23  1  0.346944  0.061465  0.984492  1
  Au  Au24  1  0.599640  0.598830  0.097977  1
  Au  Au25  1  0.654208  0.936322  0.028199  1
  Au  Au26  1  0.099640  0.098830  0.402023  1
  Au  Au27  1  0.623051  0.338419  0.705900  1
  Au  Au28  1  0.123051  0.838419  0.794100  1
  Au  Au29  1  0.063705  0.345783  0.971825  1
  Au  Au30  1  0.846944  0.561465  0.515508  1
  Au  Au31  1  0.161609  0.876946  0.205895  1
  Au  Au32  1  0.438456  0.153061  0.484579  1
  Au  Au33  1  0.828664  0.109428  0.795170  1
