# generated using pymatgen
data_Y3Ho17(Cd3Ir)2
_symmetry_space_group_name_H-M   'P 1'
_cell_length_a   9.59311200
_cell_length_b   9.59311227
_cell_length_c   9.81503800
_cell_angle_alpha   90.00000000
_cell_angle_beta   90.00000000
_cell_angle_gamma   119.99999908
_symmetry_Int_Tables_number   1
_chemical_formula_structural   Y3Ho17(Cd3Ir)2
_chemical_formula_sum   'Y3 Ho17 Cd6 Ir2'
_cell_volume   782.24295929
_cell_formula_units_Z   1
loop_
 _symmetry_equiv_pos_site_id
 _symmetry_equiv_pos_as_xyz
  1  'x, y, z'
loop_
 _atom_site_type_symbol
 _atom_site_label
 _atom_site_symmetry_multiplicity
 _atom_site_fract_x
 _atom_site_fract_y
 _atom_site_fract_z
 _atom_site_occupancy
  Y  Y0  1  0.458811  0.541189  0.750000  1
  Y  Y1  1  0.458811  0.917622  0.750000  1
  Y  Y2  1  0.082378  0.541189  0.750000  1
  Ho  Ho3  1  0.000000  0.000000  0.500075  1
  Ho  Ho4  1  0.000000  0.000000  0.999925  1
  Ho  Ho5  1  0.209498  0.790502  0.440534  1
  Ho  Ho6  1  0.209498  0.418995  0.440534  1
  Ho  Ho7  1  0.581005  0.790502  0.440534  1
  Ho  Ho8  1  0.790415  0.209585  0.558834  1
  Ho  Ho9  1  0.790415  0.580830  0.558834  1
  Ho  Ho10  1  0.419170  0.209585  0.558834  1
  Ho  Ho11  1  0.790415  0.209585  0.941166  1
  Ho  Ho12  1  0.790415  0.580830  0.941166  1
  Ho  Ho13  1  0.419170  0.209585  0.941166  1
  Ho  Ho14  1  0.209498  0.790502  0.059466  1
  Ho  Ho15  1  0.209498  0.418995  0.059466  1
  Ho  Ho16  1  0.581005  0.790502  0.059466  1
  Ho  Ho17  1  0.541393  0.458607  0.250000  1
  Ho  Ho18  1  0.541393  0.082787  0.250000  1
  Ho  Ho19  1  0.917213  0.458607  0.250000  1
  Cd  Cd20  1  0.885359  0.114641  0.250000  1
  Cd  Cd21  1  0.885359  0.770717  0.250000  1
  Cd  Cd22  1  0.229283  0.114641  0.250000  1
  Cd  Cd23  1  0.114361  0.885639  0.750000  1
  Cd  Cd24  1  0.114361  0.228721  0.750000  1
  Cd  Cd25  1  0.771279  0.885639  0.750000  1
  Ir  Ir26  1  0.333333  0.666667  0.250000  1
  Ir  Ir27  1  0.666667  0.333333  0.750000  1
