# generated using pymatgen
data_DyY11GaCo4Pb
_symmetry_space_group_name_H-M   'P 1'
_cell_length_a   8.39303902
_cell_length_b   8.39303933
_cell_length_c   8.40843826
_cell_angle_alpha   111.85745988
_cell_angle_beta   109.19959633
_cell_angle_gamma   107.31080500
_symmetry_Int_Tables_number   1
_chemical_formula_structural   DyY11GaCo4Pb
_chemical_formula_sum   'Dy1 Y11 Ga1 Co4 Pb1'
_cell_volume   455.67737305
_cell_formula_units_Z   1
loop_
 _symmetry_equiv_pos_site_id
 _symmetry_equiv_pos_as_xyz
  1  'x, y, z'
loop_
 _atom_site_type_symbol
 _atom_site_label
 _atom_site_symmetry_multiplicity
 _atom_site_fract_x
 _atom_site_fract_y
 _atom_site_fract_z
 _atom_site_occupancy
  Dy  Dy0  1  0.821461  0.219372  0.040833  1
  Y  Y1  1  0.969078  0.268287  0.701269  1
  Y  Y2  1  0.031010  0.731476  0.298995  1
  Y  Y3  1  0.675061  0.860404  0.185187  1
  Y  Y4  1  0.324783  0.510129  0.185187  1
  Y  Y5  1  0.325168  0.139678  0.814834  1
  Y  Y6  1  0.675156  0.489666  0.814834  1
  Y  Y7  1  0.567519  0.267987  0.298995  1
  Y  Y8  1  0.432982  0.732189  0.701269  1
  Y  Y9  1  0.179181  0.780441  0.959621  1
  Y  Y10  1  0.820621  0.780352  0.600974  1
  Y  Y11  1  0.179308  0.219918  0.399226  1
  Ga  Ga12  1  0.999999  0.499832  0.499831  1
  Co  Co13  1  0.112329  0.113597  0.999728  1
  Co  Co14  1  0.886130  0.887398  0.999728  1
  Co  Co15  1  0.660815  0.499499  0.160314  1
  Co  Co16  1  0.339538  0.499927  0.839464  1
  Pb  Pb17  1  0.499861  0.999849  0.499710  1
