# generated using pymatgen
data_Ta3CoOs2N
_symmetry_space_group_name_H-M   'P 1'
_cell_length_a   8.21745630
_cell_length_b   8.21745698
_cell_length_c   8.21745600
_cell_angle_alpha   60.00000393
_cell_angle_beta   60.00000122
_cell_angle_gamma   60.00000585
_symmetry_Int_Tables_number   1
_chemical_formula_structural   Ta3CoOs2N
_chemical_formula_sum   'Ta12 Co4 Os8 N4'
_cell_volume   392.37133116
_cell_formula_units_Z   4
loop_
 _symmetry_equiv_pos_site_id
 _symmetry_equiv_pos_as_xyz
  1  'x, y, z'
loop_
 _atom_site_type_symbol
 _atom_site_label
 _atom_site_symmetry_multiplicity
 _atom_site_fract_x
 _atom_site_fract_y
 _atom_site_fract_z
 _atom_site_occupancy
  Ta  Ta0  1  0.555639  0.944361  0.555639  1
  Ta  Ta1  1  0.305639  0.694361  0.694361  1
  Ta  Ta2  1  0.694361  0.305639  0.305639  1
  Ta  Ta3  1  0.305639  0.694361  0.305639  1
  Ta  Ta4  1  0.694361  0.694361  0.305639  1
  Ta  Ta5  1  0.305639  0.305639  0.694361  1
  Ta  Ta6  1  0.555639  0.555639  0.944361  1
  Ta  Ta7  1  0.944361  0.555639  0.555639  1
  Ta  Ta8  1  0.555639  0.944361  0.944361  1
  Ta  Ta9  1  0.944361  0.944361  0.555639  1
  Ta  Ta10  1  0.694361  0.305639  0.694361  1
  Ta  Ta11  1  0.944361  0.555639  0.944361  1
  Co  Co12  1  0.125000  0.125000  0.125000  1
  Co  Co13  1  0.625000  0.125000  0.125000  1
  Co  Co14  1  0.125000  0.625000  0.125000  1
  Co  Co15  1  0.125000  0.125000  0.625000  1
  Os  Os16  1  0.917770  0.917770  0.917770  1
  Os  Os17  1  0.003308  0.332230  0.332230  1
  Os  Os18  1  0.332230  0.003308  0.332230  1
  Os  Os19  1  0.332230  0.332230  0.003308  1
  Os  Os20  1  0.917770  0.246692  0.917770  1
  Os  Os21  1  0.917770  0.917770  0.246692  1
  Os  Os22  1  0.246692  0.917770  0.917770  1
  Os  Os23  1  0.332230  0.332230  0.332230  1
  N  N24  1  0.625000  0.625000  0.625000  1
  N  N25  1  0.125000  0.625000  0.625000  1
  N  N26  1  0.625000  0.125000  0.625000  1
  N  N27  1  0.625000  0.625000  0.125000  1
