# generated using pymatgen
data_CeY(CrAs3)2
_symmetry_space_group_name_H-M   'P 1'
_cell_length_a   5.58810200
_cell_length_b   5.69847051
_cell_length_c   12.13557075
_cell_angle_alpha   89.87166261
_cell_angle_beta   90.00000000
_cell_angle_gamma   90.00000000
_symmetry_Int_Tables_number   1
_chemical_formula_structural   CeY(CrAs3)2
_chemical_formula_sum   'Ce2 Y2 Cr4 As12'
_cell_volume   386.43970936
_cell_formula_units_Z   2
loop_
 _symmetry_equiv_pos_site_id
 _symmetry_equiv_pos_as_xyz
  1  'x, y, z'
loop_
 _atom_site_type_symbol
 _atom_site_label
 _atom_site_symmetry_multiplicity
 _atom_site_fract_x
 _atom_site_fract_y
 _atom_site_fract_z
 _atom_site_occupancy
  Ce  Ce0  1  0.250000  0.004104  0.689095  1
  Ce  Ce1  1  0.750000  0.995896  0.310905  1
  Y  Y2  1  0.250000  0.505424  0.309584  1
  Y  Y3  1  0.750000  0.494576  0.690416  1
  Cr  Cr4  1  0.999694  0.749594  0.914004  1
  Cr  Cr5  1  0.000306  0.250406  0.085996  1
  Cr  Cr6  1  0.499694  0.250406  0.085996  1
  Cr  Cr7  1  0.500306  0.749594  0.914004  1
  As  As8  1  0.000620  0.745026  0.501363  1
  As  As9  1  0.999380  0.254974  0.498637  1
  As  As10  1  0.500620  0.254974  0.498637  1
  As  As11  1  0.499380  0.745026  0.501363  1
  As  As12  1  0.250000  0.604940  0.068510  1
  As  As13  1  0.750000  0.395060  0.931490  1
  As  As14  1  0.250000  0.104782  0.931583  1
  As  As15  1  0.750000  0.895218  0.068417  1
  As  As16  1  0.250000  0.009711  0.217537  1
  As  As17  1  0.750000  0.990289  0.782463  1
  As  As18  1  0.250000  0.509453  0.782144  1
  As  As19  1  0.750000  0.490547  0.217856  1
