# generated using pymatgen
data_CaIr2F12
_symmetry_space_group_name_H-M   'P 1'
_cell_length_a   11.62092764
_cell_length_b   5.85875690
_cell_length_c   5.89559710
_cell_angle_alpha   57.54879252
_cell_angle_beta   57.04486056
_cell_angle_gamma   56.81063276
_symmetry_Int_Tables_number   1
_chemical_formula_structural   CaIr2F12
_chemical_formula_sum   'Ca1 Ir2 F12'
_cell_volume   265.06639727
_cell_formula_units_Z   1
loop_
 _symmetry_equiv_pos_site_id
 _symmetry_equiv_pos_as_xyz
  1  'x, y, z'
loop_
 _atom_site_type_symbol
 _atom_site_label
 _atom_site_symmetry_multiplicity
 _atom_site_fract_x
 _atom_site_fract_y
 _atom_site_fract_z
 _atom_site_occupancy
  Ca  Ca0  1  0.750000  0.500000  0.500000  1
  Ir  Ir1  1  0.006855  0.992418  0.997182  1
  Ir  Ir2  1  0.493145  0.007582  0.002818  1
  F  F3  1  0.164575  0.124001  0.773583  1
  F  F4  1  0.663786  0.128686  0.774161  1
  F  F5  1  0.063814  0.776714  0.321100  1
  F  F6  1  0.564200  0.776633  0.324789  1
  F  F7  1  0.114275  0.671118  0.873830  1
  F  F8  1  0.614118  0.672633  0.871291  1
  F  F9  1  0.436186  0.223286  0.678900  1
  F  F10  1  0.935800  0.223367  0.675211  1
  F  F11  1  0.335425  0.875999  0.226417  1
  F  F12  1  0.836214  0.871314  0.225839  1
  F  F13  1  0.385725  0.328882  0.126170  1
  F  F14  1  0.885882  0.327367  0.128709  1
