# generated using pymatgen
data_La3(FeH6)2
_symmetry_space_group_name_H-M   'P 1'
_cell_length_a   4.81601000
_cell_length_b   4.81601000
_cell_length_c   8.43128000
_cell_angle_alpha   90.00000000
_cell_angle_beta   90.00000000
_cell_angle_gamma   120.00000003
_symmetry_Int_Tables_number   1
_chemical_formula_structural   La3(FeH6)2
_chemical_formula_sum   'La3 Fe2 H12'
_cell_volume   169.35534330
_cell_formula_units_Z   1
loop_
 _symmetry_equiv_pos_site_id
 _symmetry_equiv_pos_as_xyz
  1  'x, y, z'
loop_
 _atom_site_type_symbol
 _atom_site_label
 _atom_site_symmetry_multiplicity
 _atom_site_fract_x
 _atom_site_fract_y
 _atom_site_fract_z
 _atom_site_occupancy
  La  La0  1  0.000000  0.000000  0.000000  1
  La  La1  1  0.666667  0.333333  0.359339  1
  La  La2  1  0.333333  0.666667  0.640661  1
  Fe  Fe3  1  0.666667  0.333333  0.761614  1
  Fe  Fe4  1  0.333333  0.666667  0.238386  1
  H  H5  1  0.178382  0.821618  0.353570  1
  H  H6  1  0.643235  0.821618  0.353570  1
  H  H7  1  0.178382  0.356765  0.353570  1
  H  H8  1  0.821618  0.178382  0.646430  1
  H  H9  1  0.356765  0.178382  0.646430  1
  H  H10  1  0.821618  0.643235  0.646430  1
  H  H11  1  0.509605  0.019210  0.871987  1
  H  H12  1  0.509605  0.490395  0.871987  1
  H  H13  1  0.980790  0.490395  0.871987  1
  H  H14  1  0.490395  0.980790  0.128013  1
  H  H15  1  0.490395  0.509605  0.128013  1
  H  H16  1  0.019210  0.509605  0.128013  1
