# generated using pymatgen
data_Li4PrHo(ErSi3)2
_symmetry_space_group_name_H-M   'P 1'
_cell_length_a   9.29007545
_cell_length_b   9.29007611
_cell_length_c   6.77145300
_cell_angle_alpha   90.00000000
_cell_angle_beta   90.00000000
_cell_angle_gamma   153.52140370
_symmetry_Int_Tables_number   1
_chemical_formula_structural   Li4PrHo(ErSi3)2
_chemical_formula_sum   'Li4 Pr1 Ho1 Er2 Si6'
_cell_volume   260.56871367
_cell_formula_units_Z   1
loop_
 _symmetry_equiv_pos_site_id
 _symmetry_equiv_pos_as_xyz
  1  'x, y, z'
loop_
 _atom_site_type_symbol
 _atom_site_label
 _atom_site_symmetry_multiplicity
 _atom_site_fract_x
 _atom_site_fract_y
 _atom_site_fract_z
 _atom_site_occupancy
  Li  Li0  1  0.191119  0.808881  0.058809  1
  Li  Li1  1  0.191119  0.808881  0.441191  1
  Li  Li2  1  0.809480  0.190520  0.939528  1
  Li  Li3  1  0.809480  0.190520  0.560472  1
  Pr  Pr4  1  0.553500  0.446500  0.250000  1
  Ho  Ho5  1  0.445985  0.554015  0.750000  1
  Er  Er6  1  0.345133  0.654867  0.250000  1
  Er  Er7  1  0.655077  0.344923  0.750000  1
  Si  Si8  1  0.724197  0.275803  0.250000  1
  Si  Si9  1  0.278655  0.721345  0.750000  1
  Si  Si10  1  0.058698  0.941302  0.923245  1
  Si  Si11  1  0.939429  0.060571  0.071279  1
  Si  Si12  1  0.939429  0.060571  0.428721  1
  Si  Si13  1  0.058698  0.941302  0.576755  1
