# generated using pymatgen
data_Zr6Ti2Pd3PtN2
_symmetry_space_group_name_H-M   'P 1'
_cell_length_a   8.71788714
_cell_length_b   8.71937318
_cell_length_c   8.72511400
_cell_angle_alpha   59.97821798
_cell_angle_beta   59.97257414
_cell_angle_gamma   59.95823241
_symmetry_Int_Tables_number   1
_chemical_formula_structural   Zr6Ti2Pd3PtN2
_chemical_formula_sum   'Zr12 Ti4 Pd6 Pt2 N4'
_cell_volume   468.65562573
_cell_formula_units_Z   2
loop_
 _symmetry_equiv_pos_site_id
 _symmetry_equiv_pos_as_xyz
  1  'x, y, z'
loop_
 _atom_site_type_symbol
 _atom_site_label
 _atom_site_symmetry_multiplicity
 _atom_site_fract_x
 _atom_site_fract_y
 _atom_site_fract_z
 _atom_site_occupancy
  Zr  Zr0  1  0.814724  0.814728  0.185274  1
  Zr  Zr1  1  0.183519  0.183434  0.816524  1
  Zr  Zr2  1  0.815546  0.184231  0.815609  1
  Zr  Zr3  1  0.184229  0.815595  0.184528  1
  Zr  Zr4  1  0.184229  0.815595  0.815648  1
  Zr  Zr5  1  0.815546  0.184231  0.184613  1
  Zr  Zr6  1  0.433988  0.433981  0.066015  1
  Zr  Zr7  1  0.065145  0.065178  0.434838  1
  Zr  Zr8  1  0.434541  0.065142  0.434530  1
  Zr  Zr9  1  0.065151  0.434481  0.065874  1
  Zr  Zr10  1  0.065151  0.434481  0.434493  1
  Zr  Zr11  1  0.434541  0.065142  0.065787  1
  Ti  Ti12  1  0.125118  0.625172  0.624855  1
  Ti  Ti13  1  0.625160  0.125153  0.624843  1
  Ti  Ti14  1  0.624719  0.624705  0.126170  1
  Ti  Ti15  1  0.624719  0.624705  0.624406  1
  Pd  Pd16  1  0.414903  0.414673  0.755099  1
  Pd  Pd17  1  0.414903  0.414673  0.415324  1
  Pd  Pd18  1  0.494729  0.835314  0.834979  1
  Pd  Pd19  1  0.835192  0.494594  0.835107  1
  Pd  Pd20  1  0.835149  0.835394  0.494464  1
  Pd  Pd21  1  0.835149  0.835394  0.834992  1
  Pt  Pt22  1  0.760325  0.412678  0.413499  1
  Pt  Pt23  1  0.412745  0.760459  0.413398  1
  N  N24  1  0.625698  0.124960  0.124671  1
  N  N25  1  0.124961  0.625696  0.124671  1
  N  N26  1  0.125109  0.125105  0.624984  1
  N  N27  1  0.125109  0.125105  0.124802  1
