# generated using pymatgen
data_Cs3Al2Bi3
_symmetry_space_group_name_H-M   'P 1'
_cell_length_a   6.84476200
_cell_length_b   8.86069355
_cell_length_c   12.18683934
_cell_angle_alpha   70.02789724
_cell_angle_beta   90.00000000
_cell_angle_gamma   90.00000000
_symmetry_Int_Tables_number   1
_chemical_formula_structural   Cs3Al2Bi3
_chemical_formula_sum   'Cs6 Al4 Bi6'
_cell_volume   694.67213195
_cell_formula_units_Z   2
loop_
 _symmetry_equiv_pos_site_id
 _symmetry_equiv_pos_as_xyz
  1  'x, y, z'
loop_
 _atom_site_type_symbol
 _atom_site_label
 _atom_site_symmetry_multiplicity
 _atom_site_fract_x
 _atom_site_fract_y
 _atom_site_fract_z
 _atom_site_occupancy
  Cs  Cs0  1  0.250000  0.425636  0.425736  1
  Cs  Cs1  1  0.750000  0.137972  0.912590  1
  Cs  Cs2  1  0.750000  0.462814  0.152629  1
  Cs  Cs3  1  0.250000  0.537186  0.847371  1
  Cs  Cs4  1  0.750000  0.574364  0.574264  1
  Cs  Cs5  1  0.250000  0.862028  0.087410  1
  Al  Al6  1  0.998547  0.030003  0.348093  1
  Al  Al7  1  0.498547  0.969997  0.651907  1
  Al  Al8  1  0.501453  0.030003  0.348093  1
  Al  Al9  1  0.001453  0.969997  0.651907  1
  Bi  Bi10  1  0.250000  0.814852  0.527202  1
  Bi  Bi11  1  0.750000  0.185148  0.472798  1
  Bi  Bi12  1  0.250000  0.241438  0.182220  1
  Bi  Bi13  1  0.750000  0.758562  0.817780  1
  Bi  Bi14  1  0.250000  0.146793  0.744241  1
  Bi  Bi15  1  0.750000  0.853207  0.255759  1
