# generated using pymatgen
data_Nd5HoTiAl23Ru8
_symmetry_space_group_name_H-M   'P 1'
_cell_length_a   8.89316500
_cell_length_b   8.92431621
_cell_length_c   9.67442718
_cell_angle_alpha   90.04901343
_cell_angle_beta   90.00000000
_cell_angle_gamma   119.88460264
_symmetry_Int_Tables_number   1
_chemical_formula_structural   Nd5HoTiAl23Ru8
_chemical_formula_sum   'Nd5 Ho1 Ti1 Al23 Ru8'
_cell_volume   665.71878719
_cell_formula_units_Z   1
loop_
 _symmetry_equiv_pos_site_id
 _symmetry_equiv_pos_as_xyz
  1  'x, y, z'
loop_
 _atom_site_type_symbol
 _atom_site_label
 _atom_site_symmetry_multiplicity
 _atom_site_fract_x
 _atom_site_fract_y
 _atom_site_fract_z
 _atom_site_occupancy
  Nd  Nd0  1  0.807334  0.614670  0.749046  1
  Nd  Nd1  1  0.614142  0.807226  0.250462  1
  Nd  Nd2  1  0.384890  0.192390  0.748689  1
  Nd  Nd3  1  0.193085  0.807226  0.250462  1
  Nd  Nd4  1  0.807498  0.192390  0.748689  1
  Ho  Ho5  1  0.193501  0.387001  0.250214  1
  Ti  Ti6  1  0.332708  0.665417  0.991082  1
  Al  Al7  1  0.666684  0.333367  0.990126  1
  Al  Al8  1  0.666546  0.333090  0.508478  1
  Al  Al9  1  0.332655  0.665311  0.487771  1
  Al  Al10  1  0.161840  0.323680  0.574196  1
  Al  Al11  1  0.837801  0.675603  0.423233  1
  Al  Al12  1  0.676048  0.837988  0.575817  1
  Al  Al13  1  0.837332  0.674662  0.077504  1
  Al  Al14  1  0.323701  0.163349  0.422677  1
  Al  Al15  1  0.158849  0.317698  0.926841  1
  Al  Al16  1  0.161939  0.837988  0.575817  1
  Al  Al17  1  0.324489  0.163427  0.077889  1
  Al  Al18  1  0.839648  0.163349  0.422677  1
  Al  Al19  1  0.681986  0.841196  0.924922  1
  Al  Al20  1  0.838940  0.163427  0.077889  1
  Al  Al21  1  0.159210  0.841196  0.924922  1
  Al  Al22  1  0.563232  0.126464  0.252033  1
  Al  Al23  1  0.438552  0.877104  0.749853  1
  Al  Al24  1  0.876282  0.436663  0.252250  1
  Al  Al25  1  0.122932  0.561103  0.749553  1
  Al  Al26  1  0.560383  0.436663  0.252250  1
  Al  Al27  1  0.438170  0.561103  0.749553  1
  Al  Al28  1  0.001678  0.003355  0.249846  1
  Al  Al29  1  0.999889  0.999778  0.749197  1
  Ru  Ru30  1  0.497777  0.995553  0.002990  1
  Ru  Ru31  1  0.005218  0.501422  0.003800  1
  Ru  Ru32  1  0.499202  0.998404  0.502399  1
  Ru  Ru33  1  0.496205  0.501422  0.003800  1
  Ru  Ru34  1  0.001527  0.499765  0.501835  1
  Ru  Ru35  1  0.498238  0.499765  0.501835  1
  Ru  Ru36  1  0.999907  0.999815  0.000679  1
  Ru  Ru37  1  0.999984  0.999968  0.498721  1
