# generated using pymatgen
data_CaDyEr2(B6Ru)2
_symmetry_space_group_name_H-M   'P 1'
_cell_length_a   3.64340500
_cell_length_b   9.13003901
_cell_length_c   11.53395300
_cell_angle_alpha   89.80513641
_cell_angle_beta   90.00000000
_cell_angle_gamma   90.00000000
_symmetry_Int_Tables_number   1
_chemical_formula_structural   CaDyEr2(B6Ru)2
_chemical_formula_sum   'Ca2 Dy2 Er4 B24 Ru4'
_cell_volume   383.66815080
_cell_formula_units_Z   2
loop_
 _symmetry_equiv_pos_site_id
 _symmetry_equiv_pos_as_xyz
  1  'x, y, z'
loop_
 _atom_site_type_symbol
 _atom_site_label
 _atom_site_symmetry_multiplicity
 _atom_site_fract_x
 _atom_site_fract_y
 _atom_site_fract_z
 _atom_site_occupancy
  Ca  Ca0  1  0.000000  0.324021  0.415046  1
  Ca  Ca1  1  0.000000  0.675979  0.584954  1
  Dy  Dy2  1  0.000000  0.822454  0.086033  1
  Dy  Dy3  1  0.000000  0.177546  0.913967  1
  Er  Er4  1  0.000000  0.941962  0.369395  1
  Er  Er5  1  0.000000  0.058038  0.630605  1
  Er  Er6  1  0.000000  0.442655  0.130670  1
  Er  Er7  1  0.000000  0.557345  0.869330  1
  B  B8  1  0.500000  0.554636  0.431794  1
  B  B9  1  0.500000  0.445364  0.568206  1
  B  B10  1  0.500000  0.053955  0.066718  1
  B  B11  1  0.500000  0.946045  0.933282  1
  B  B12  1  0.500000  0.748550  0.416983  1
  B  B13  1  0.500000  0.251450  0.583017  1
  B  B14  1  0.500000  0.248565  0.081066  1
  B  B15  1  0.500000  0.751435  0.918934  1
  B  B16  1  0.500000  0.791492  0.264217  1
  B  B17  1  0.500000  0.208508  0.735783  1
  B  B18  1  0.500000  0.289906  0.233641  1
  B  B19  1  0.500000  0.710094  0.766359  1
  B  B20  1  0.500000  0.631429  0.184672  1
  B  B21  1  0.500000  0.368571  0.815328  1
  B  B22  1  0.500000  0.130232  0.313380  1
  B  B23  1  0.500000  0.869768  0.686620  1
  B  B24  1  0.500000  0.983300  0.211342  1
  B  B25  1  0.500000  0.016700  0.788658  1
  B  B26  1  0.500000  0.484339  0.287435  1
  B  B27  1  0.500000  0.515661  0.712565  1
  B  B28  1  0.500000  0.602999  0.028231  1
  B  B29  1  0.500000  0.397001  0.971769  1
  B  B30  1  0.500000  0.098634  0.472770  1
  B  B31  1  0.500000  0.901366  0.527230  1
  Ru  Ru32  1  0.000000  0.640923  0.317709  1
  Ru  Ru33  1  0.000000  0.359077  0.682291  1
  Ru  Ru34  1  0.000000  0.136965  0.177858  1
  Ru  Ru35  1  0.000000  0.863035  0.822142  1
