# generated using pymatgen
data_TbLu3BBr6
_symmetry_space_group_name_H-M   'P 1'
_cell_length_a   3.89518300
_cell_length_b   12.99158431
_cell_length_c   13.45478095
_cell_angle_alpha   90.49551554
_cell_angle_beta   90.00000000
_cell_angle_gamma   90.00000000
_symmetry_Int_Tables_number   1
_chemical_formula_structural   TbLu3BBr6
_chemical_formula_sum   'Tb2 Lu6 B2 Br12'
_cell_volume   680.84832321
_cell_formula_units_Z   2
loop_
 _symmetry_equiv_pos_site_id
 _symmetry_equiv_pos_as_xyz
  1  'x, y, z'
loop_
 _atom_site_type_symbol
 _atom_site_label
 _atom_site_symmetry_multiplicity
 _atom_site_fract_x
 _atom_site_fract_y
 _atom_site_fract_z
 _atom_site_occupancy
  Tb  Tb0  1  0.500000  0.123711  0.854651  1
  Tb  Tb1  1  0.500000  0.876289  0.145349  1
  Lu  Lu2  1  0.000000  0.099753  0.079348  1
  Lu  Lu3  1  0.000000  0.900247  0.920652  1
  Lu  Lu4  1  0.000000  0.598940  0.421534  1
  Lu  Lu5  1  0.000000  0.401060  0.578466  1
  Lu  Lu6  1  0.500000  0.621235  0.642456  1
  Lu  Lu7  1  0.500000  0.378765  0.357544  1
  B  B8  1  0.500000  0.000000  0.000000  1
  B  B9  1  0.500000  0.500000  0.500000  1
  Br  Br10  1  0.500000  0.271638  0.678448  1
  Br  Br11  1  0.500000  0.728362  0.321552  1
  Br  Br12  1  0.500000  0.768272  0.817515  1
  Br  Br13  1  0.500000  0.231728  0.182485  1
  Br  Br14  1  0.000000  0.264723  0.935468  1
  Br  Br15  1  0.000000  0.735277  0.064532  1
  Br  Br16  1  0.000000  0.479252  0.240952  1
  Br  Br17  1  0.000000  0.520748  0.759048  1
  Br  Br18  1  0.000000  0.985433  0.263419  1
  Br  Br19  1  0.000000  0.014567  0.736581  1
  Br  Br20  1  0.000000  0.240809  0.430238  1
  Br  Br21  1  0.000000  0.759191  0.569762  1
