# generated using pymatgen
data_Sb6TeMo3
_symmetry_space_group_name_H-M   'P 1'
_cell_length_a   8.36654961
_cell_length_b   8.36901615
_cell_length_c   8.36654997
_cell_angle_alpha   109.78668111
_cell_angle_beta   108.83003032
_cell_angle_gamma   109.78668905
_symmetry_Int_Tables_number   1
_chemical_formula_structural   Sb6TeMo3
_chemical_formula_sum   'Sb12 Te2 Mo6'
_cell_volume   450.99332128
_cell_formula_units_Z   2
loop_
 _symmetry_equiv_pos_site_id
 _symmetry_equiv_pos_as_xyz
  1  'x, y, z'
loop_
 _atom_site_type_symbol
 _atom_site_label
 _atom_site_symmetry_multiplicity
 _atom_site_fract_x
 _atom_site_fract_y
 _atom_site_fract_z
 _atom_site_occupancy
  Sb  Sb0  1  0.498983  0.748514  0.249531  1
  Sb  Sb1  1  0.251173  0.502345  0.751173  1
  Sb  Sb2  1  0.751173  0.502345  0.251173  1
  Sb  Sb3  1  0.249531  0.748514  0.498983  1
  Sb  Sb4  1  0.322759  0.325450  0.322759  1
  Sb  Sb5  1  0.998929  0.998020  0.322166  1
  Sb  Sb6  1  0.322166  0.998020  0.998929  1
  Sb  Sb7  1  0.002691  0.325450  0.002691  1
  Sb  Sb8  1  0.675855  0.998020  0.999092  1
  Sb  Sb9  1  0.003123  0.677989  0.003123  1
  Sb  Sb10  1  0.999092  0.998020  0.675855  1
  Sb  Sb11  1  0.674865  0.677989  0.674865  1
  Te  Te12  1  0.750497  0.249784  0.499287  1
  Te  Te13  1  0.499287  0.249784  0.750497  1
  Mo  Mo14  1  0.342594  0.341255  0.998661  1
  Mo  Mo15  1  0.998661  0.341255  0.342594  1
  Mo  Mo16  1  0.998839  0.656693  0.657854  1
  Mo  Mo17  1  0.657005  0.001929  0.657005  1
  Mo  Mo18  1  0.344924  0.001929  0.344924  1
  Mo  Mo19  1  0.657854  0.656693  0.998839  1
