# generated using pymatgen
data_Y3ErAl24Pt8Rh
_symmetry_space_group_name_H-M   'P 1'
_cell_length_a   7.52687836
_cell_length_b   7.52780188
_cell_length_c   13.18569713
_cell_angle_alpha   84.56782863
_cell_angle_beta   100.89132614
_cell_angle_gamma   119.80719445
_symmetry_Int_Tables_number   1
_chemical_formula_structural   Y3ErAl24Pt8Rh
_chemical_formula_sum   'Y3 Er1 Al24 Pt8 Rh1'
_cell_volume   636.59469008
_cell_formula_units_Z   1
loop_
 _symmetry_equiv_pos_site_id
 _symmetry_equiv_pos_as_xyz
  1  'x, y, z'
loop_
 _atom_site_type_symbol
 _atom_site_label
 _atom_site_symmetry_multiplicity
 _atom_site_fract_x
 _atom_site_fract_y
 _atom_site_fract_z
 _atom_site_occupancy
  Y  Y0  1  0.731662  0.998493  0.191061  1
  Y  Y1  1  0.268310  0.001581  0.808907  1
  Y  Y2  1  0.061998  0.667864  0.191120  1
  Er  Er3  1  0.937831  0.331894  0.808322  1
  Al  Al4  1  0.810538  0.871938  0.817971  1
  Al  Al5  1  0.189435  0.128702  0.182043  1
  Al  Al6  1  0.982080  0.669175  0.945424  1
  Al  Al7  1  0.017710  0.330286  0.053810  1
  Al  Al8  1  0.398290  0.663102  0.817009  1
  Al  Al9  1  0.601062  0.336174  0.183027  1
  Al  Al10  1  0.882209  0.664974  0.671785  1
  Al  Al11  1  0.117913  0.334723  0.328589  1
  Al  Al12  1  0.603441  0.458910  0.816647  1
  Al  Al13  1  0.397164  0.541092  0.183373  1
  Al  Al14  1  0.229941  0.339728  0.669607  1
  Al  Al15  1  0.769888  0.660281  0.330774  1
  Al  Al16  1  0.852972  0.333179  0.559038  1
  Al  Al17  1  0.185776  0.999263  0.558868  1
  Al  Al18  1  0.814272  0.000778  0.441235  1
  Al  Al19  1  0.348312  0.999474  0.054154  1
  Al  Al20  1  0.652103  0.001133  0.945416  1
  Al  Al21  1  0.556790  0.992971  0.671784  1
  Al  Al22  1  0.443599  0.007299  0.328583  1
  Al  Al23  1  0.521212  0.667840  0.561702  1
  Al  Al24  1  0.478824  0.332137  0.438405  1
  Al  Al25  1  0.686803  0.671803  0.044858  1
  Al  Al26  1  0.312588  0.328259  0.954666  1
  Al  Al27  1  0.147042  0.666818  0.441195  1
  Pt  Pt28  1  0.328485  0.671502  0.999997  1
  Pt  Pt29  1  0.546237  0.324904  0.637286  1
  Pt  Pt30  1  0.454119  0.675008  0.363029  1
  Pt  Pt31  1  0.887284  0.007829  0.638618  1
  Pt  Pt32  1  0.112901  0.992615  0.361698  1
  Pt  Pt33  1  0.671487  0.328455  0.999839  1
  Pt  Pt34  1  0.203965  0.666376  0.638508  1
  Pt  Pt35  1  0.795722  0.333318  0.361783  1
  Rh  Rh36  1  0.000031  0.000124  0.999869  1
