# generated using pymatgen
data_KMnTe2O7
_symmetry_space_group_name_H-M   'P 1'
_cell_length_a   8.90596788
_cell_length_b   8.90572891
_cell_length_c   5.54560700
_cell_angle_alpha   89.99983424
_cell_angle_beta   89.99907349
_cell_angle_gamma   131.90242036
_symmetry_Int_Tables_number   1
_chemical_formula_structural   KMnTe2O7
_chemical_formula_sum   'K2 Mn2 Te4 O14'
_cell_volume   327.36932197
_cell_formula_units_Z   2
loop_
 _symmetry_equiv_pos_site_id
 _symmetry_equiv_pos_as_xyz
  1  'x, y, z'
loop_
 _atom_site_type_symbol
 _atom_site_label
 _atom_site_symmetry_multiplicity
 _atom_site_fract_x
 _atom_site_fract_y
 _atom_site_fract_z
 _atom_site_occupancy
  K  K0  1  0.795103  0.220617  0.750003  1
  K  K1  1  0.220556  0.794968  0.249999  1
  Mn  Mn2  1  0.374554  0.619696  0.750005  1
  Mn  Mn3  1  0.619631  0.374523  0.249999  1
  Te  Te4  1  0.172418  0.318865  0.250001  1
  Te  Te5  1  0.694217  0.836319  0.250001  1
  Te  Te6  1  0.836351  0.694247  0.749998  1
  Te  Te7  1  0.318898  0.172436  0.749997  1
  O  O8  1  0.488208  0.464338  0.750002  1
  O  O9  1  0.172915  0.469183  0.999062  1
  O  O10  1  0.172909  0.469178  0.500939  1
  O  O11  1  0.464304  0.488202  0.250002  1
  O  O12  1  0.128330  0.128328  0.500002  1
  O  O13  1  0.469178  0.172904  0.000937  1
  O  O14  1  0.556880  0.833160  0.512868  1
  O  O15  1  0.556890  0.833168  0.987138  1
  O  O16  1  0.875160  0.139070  0.250002  1
  O  O17  1  0.833161  0.556911  0.487137  1
  O  O18  1  0.833154  0.556902  0.012862  1
  O  O19  1  0.469181  0.172910  0.499055  1
  O  O20  1  0.139069  0.875150  0.749996  1
  O  O21  1  0.128334  0.128326  0.999995  1
