# generated using pymatgen
data_CaLa3RuRh3O14
_symmetry_space_group_name_H-M   'P 1'
_cell_length_a   7.33594167
_cell_length_b   7.41710059
_cell_length_c   7.45714112
_cell_angle_alpha   60.17744616
_cell_angle_beta   59.72625464
_cell_angle_gamma   59.63334340
_symmetry_Int_Tables_number   1
_chemical_formula_structural   CaLa3RuRh3O14
_chemical_formula_sum   'Ca1 La3 Ru1 Rh3 O14'
_cell_volume   285.89145409
_cell_formula_units_Z   1
loop_
 _symmetry_equiv_pos_site_id
 _symmetry_equiv_pos_as_xyz
  1  'x, y, z'
loop_
 _atom_site_type_symbol
 _atom_site_label
 _atom_site_symmetry_multiplicity
 _atom_site_fract_x
 _atom_site_fract_y
 _atom_site_fract_z
 _atom_site_occupancy
  Ca  Ca0  1  0.125000  0.625000  0.625000  1
  La  La1  1  0.625000  0.125000  0.625000  1
  La  La2  1  0.625000  0.625000  0.125000  1
  La  La3  1  0.625000  0.625000  0.625000  1
  Ru  Ru4  1  0.125000  0.125000  0.625000  1
  Rh  Rh5  1  0.625000  0.125000  0.125000  1
  Rh  Rh6  1  0.125000  0.625000  0.125000  1
  Rh  Rh7  1  0.125000  0.125000  0.125000  1
  O  O8  1  0.195657  0.198197  0.799344  1
  O  O9  1  0.196637  0.797087  0.209188  1
  O  O10  1  0.456941  0.046385  0.041189  1
  O  O11  1  0.195657  0.806802  0.799344  1
  O  O12  1  0.054343  0.443198  0.450656  1
  O  O13  1  0.793059  0.794513  0.208811  1
  O  O14  1  0.456941  0.455487  0.041189  1
  O  O15  1  0.494837  0.501464  0.502235  1
  O  O16  1  0.054343  0.051803  0.450656  1
  O  O17  1  0.450287  0.048054  0.453606  1
  O  O18  1  0.053363  0.452913  0.040812  1
  O  O19  1  0.755163  0.748536  0.747765  1
  O  O20  1  0.799713  0.201946  0.796394  1
  O  O21  1  0.793059  0.203615  0.208811  1
