# generated using pymatgen
data_Tb2MgCdPt2
_symmetry_space_group_name_H-M   'P 1'
_cell_length_a   4.14349800
_cell_length_b   7.18309600
_cell_length_c   8.79841300
_cell_angle_alpha   90.00000000
_cell_angle_beta   90.00000000
_cell_angle_gamma   90.00000000
_symmetry_Int_Tables_number   1
_chemical_formula_structural   Tb2MgCdPt2
_chemical_formula_sum   'Tb4 Mg2 Cd2 Pt4'
_cell_volume   261.86843230
_cell_formula_units_Z   2
loop_
 _symmetry_equiv_pos_site_id
 _symmetry_equiv_pos_as_xyz
  1  'x, y, z'
loop_
 _atom_site_type_symbol
 _atom_site_label
 _atom_site_symmetry_multiplicity
 _atom_site_fract_x
 _atom_site_fract_y
 _atom_site_fract_z
 _atom_site_occupancy
  Tb  Tb0  1  0.250000  0.041616  0.322494  1
  Tb  Tb1  1  0.250000  0.541616  0.177506  1
  Tb  Tb2  1  0.750000  0.959913  0.676681  1
  Tb  Tb3  1  0.750000  0.459913  0.823319  1
  Mg  Mg4  1  0.250000  0.132857  0.941750  1
  Mg  Mg5  1  0.250000  0.632857  0.558250  1
  Cd  Cd6  1  0.750000  0.861147  0.063031  1
  Cd  Cd7  1  0.750000  0.361147  0.436969  1
  Pt  Pt8  1  0.250000  0.244789  0.640131  1
  Pt  Pt9  1  0.250000  0.744789  0.859869  1
  Pt  Pt10  1  0.750000  0.759676  0.380374  1
  Pt  Pt11  1  0.750000  0.259676  0.119626  1
