# generated using pymatgen
data_TePd2SeO6
_symmetry_space_group_name_H-M   'P 1'
_cell_length_a   6.57257200
_cell_length_b   3.98064332
_cell_length_c   6.29739000
_cell_angle_alpha   82.44477745
_cell_angle_beta   90.00000000
_cell_angle_gamma   90.00000000
_symmetry_Int_Tables_number   1
_chemical_formula_structural   TePd2SeO6
_chemical_formula_sum   'Te1 Pd2 Se1 O6'
_cell_volume   163.32868346
_cell_formula_units_Z   1
loop_
 _symmetry_equiv_pos_site_id
 _symmetry_equiv_pos_as_xyz
  1  'x, y, z'
loop_
 _atom_site_type_symbol
 _atom_site_label
 _atom_site_symmetry_multiplicity
 _atom_site_fract_x
 _atom_site_fract_y
 _atom_site_fract_z
 _atom_site_occupancy
  Te  Te0  1  0.750000  0.092554  0.154120  1
  Pd  Pd1  1  0.000474  0.502695  0.503713  1
  Pd  Pd2  1  0.499526  0.502695  0.503713  1
  Se  Se3  1  0.250000  0.931699  0.827127  1
  O  O4  1  0.041781  0.197747  0.790760  1
  O  O5  1  0.750000  0.222742  0.448469  1
  O  O6  1  0.968468  0.781239  0.210736  1
  O  O7  1  0.531532  0.781239  0.210736  1
  O  O8  1  0.250000  0.789645  0.559864  1
  O  O9  1  0.458219  0.197747  0.790760  1
