# generated using pymatgen
data_YbY19(Cd3Ni)2
_symmetry_space_group_name_H-M   'P 1'
_cell_length_a   9.66813000
_cell_length_b   9.66813020
_cell_length_c   9.71305900
_cell_angle_alpha   90.00000000
_cell_angle_beta   90.00000000
_cell_angle_gamma   119.99999246
_symmetry_Int_Tables_number   1
_chemical_formula_structural   YbY19(Cd3Ni)2
_chemical_formula_sum   'Yb1 Y19 Cd6 Ni2'
_cell_volume   786.26992377
_cell_formula_units_Z   1
loop_
 _symmetry_equiv_pos_site_id
 _symmetry_equiv_pos_as_xyz
  1  'x, y, z'
loop_
 _atom_site_type_symbol
 _atom_site_label
 _atom_site_symmetry_multiplicity
 _atom_site_fract_x
 _atom_site_fract_y
 _atom_site_fract_z
 _atom_site_occupancy
  Yb  Yb0  1  0.000000  0.000000  0.500000  1
  Y  Y1  1  0.000000  0.000000  0.000000  1
  Y  Y2  1  0.543518  0.456482  0.250656  1
  Y  Y3  1  0.543518  0.087036  0.250656  1
  Y  Y4  1  0.912964  0.456482  0.250656  1
  Y  Y5  1  0.456482  0.543518  0.749344  1
  Y  Y6  1  0.456482  0.912964  0.749344  1
  Y  Y7  1  0.087036  0.543518  0.749344  1
  Y  Y8  1  0.210358  0.789642  0.435523  1
  Y  Y9  1  0.210358  0.420717  0.435523  1
  Y  Y10  1  0.579283  0.789642  0.435523  1
  Y  Y11  1  0.789642  0.210358  0.564477  1
  Y  Y12  1  0.789642  0.579283  0.564477  1
  Y  Y13  1  0.420717  0.210358  0.564477  1
  Y  Y14  1  0.789649  0.210351  0.936586  1
  Y  Y15  1  0.789649  0.579298  0.936586  1
  Y  Y16  1  0.420702  0.210351  0.936586  1
  Y  Y17  1  0.210351  0.789649  0.063414  1
  Y  Y18  1  0.210351  0.420702  0.063414  1
  Y  Y19  1  0.579298  0.789649  0.063414  1
  Cd  Cd20  1  0.883898  0.116102  0.249930  1
  Cd  Cd21  1  0.883898  0.767797  0.249930  1
  Cd  Cd22  1  0.232203  0.116102  0.249930  1
  Cd  Cd23  1  0.116102  0.883898  0.750070  1
  Cd  Cd24  1  0.116102  0.232203  0.750070  1
  Cd  Cd25  1  0.767797  0.883898  0.750070  1
  Ni  Ni26  1  0.333333  0.666667  0.250621  1
  Ni  Ni27  1  0.666667  0.333333  0.749379  1
