# generated using pymatgen
data_Tb2Er10InCo4Ir
_symmetry_space_group_name_H-M   'P 1'
_cell_length_a   8.23687435
_cell_length_b   8.23687366
_cell_length_c   8.23512389
_cell_angle_alpha   111.10175240
_cell_angle_beta   110.83122682
_cell_angle_gamma   106.52957953
_symmetry_Int_Tables_number   1
_chemical_formula_structural   Tb2Er10InCo4Ir
_chemical_formula_sum   'Tb2 Er10 In1 Co4 Ir1'
_cell_volume   429.20551176
_cell_formula_units_Z   1
loop_
 _symmetry_equiv_pos_site_id
 _symmetry_equiv_pos_as_xyz
  1  'x, y, z'
loop_
 _atom_site_type_symbol
 _atom_site_label
 _atom_site_symmetry_multiplicity
 _atom_site_fract_x
 _atom_site_fract_y
 _atom_site_fract_z
 _atom_site_occupancy
  Tb  Tb0  1  0.183799  0.285232  0.469031  1
  Tb  Tb1  1  0.816201  0.714768  0.530969  1
  Er  Er2  1  0.183847  0.715686  0.899533  1
  Er  Er3  1  0.816153  0.284314  0.100467  1
  Er  Er4  1  0.314720  0.621347  0.305359  1
  Er  Er5  1  0.685280  0.378653  0.694641  1
  Er  Er6  1  0.315988  0.009360  0.694641  1
  Er  Er7  1  0.684012  0.990640  0.305359  1
  Er  Er8  1  0.412522  0.217282  0.193741  1
  Er  Er9  1  0.587478  0.782718  0.806259  1
  Er  Er10  1  0.023542  0.218781  0.806259  1
  Er  Er11  1  0.976458  0.781219  0.193741  1
  In  In12  1  0.500000  0.500000  0.000000  1
  Co  Co13  1  0.112230  0.612230  0.500000  1
  Co  Co14  1  0.887770  0.387770  0.500000  1
  Co  Co15  1  0.377407  0.999446  0.376852  1
  Co  Co16  1  0.622593  0.000554  0.623148  1
  Ir  Ir17  1  0.000000  0.000000  0.000000  1
