# generated using pymatgen
data_Pr2Nd2Zn10SiSb
_symmetry_space_group_name_H-M   'P 1'
_cell_length_a   8.47978208
_cell_length_b   8.47978160
_cell_length_c   8.99882900
_cell_angle_alpha   90.00000000
_cell_angle_beta   90.00000000
_cell_angle_gamma   149.59643853
_symmetry_Int_Tables_number   1
_chemical_formula_structural   Pr2Nd2Zn10SiSb
_chemical_formula_sum   'Pr2 Nd2 Zn10 Si1 Sb1'
_cell_volume   327.47704487
_cell_formula_units_Z   1
loop_
 _symmetry_equiv_pos_site_id
 _symmetry_equiv_pos_as_xyz
  1  'x, y, z'
loop_
 _atom_site_type_symbol
 _atom_site_label
 _atom_site_symmetry_multiplicity
 _atom_site_fract_x
 _atom_site_fract_y
 _atom_site_fract_z
 _atom_site_occupancy
  Pr  Pr0  1  0.000756  0.999244  0.484191  1
  Pr  Pr1  1  0.000756  0.999244  0.015809  1
  Nd  Nd2  1  0.201829  0.798171  0.250000  1
  Nd  Nd3  1  0.795398  0.204602  0.750000  1
  Zn  Zn4  1  0.813365  0.186635  0.390841  1
  Zn  Zn5  1  0.185791  0.814209  0.606027  1
  Zn  Zn6  1  0.813365  0.186635  0.109159  1
  Zn  Zn7  1  0.185791  0.814209  0.893973  1
  Zn  Zn8  1  0.650304  0.349696  0.474331  1
  Zn  Zn9  1  0.342142  0.657858  0.513337  1
  Zn  Zn10  1  0.650304  0.349696  0.025669  1
  Zn  Zn11  1  0.342142  0.657858  0.986663  1
  Zn  Zn12  1  0.406466  0.593534  0.250000  1
  Zn  Zn13  1  0.607307  0.392693  0.750000  1
  Si  Si14  1  0.558330  0.441670  0.250000  1
  Sb  Sb15  1  0.445952  0.554048  0.750000  1
