# generated using pymatgen
data_Yb7(PrPt3)2
_symmetry_space_group_name_H-M   'P 1'
_cell_length_a   7.61026037
_cell_length_b   7.59080391
_cell_length_c   7.56781480
_cell_angle_alpha   70.20959072
_cell_angle_beta   70.23153429
_cell_angle_gamma   70.03804569
_symmetry_Int_Tables_number   1
_chemical_formula_structural   Yb7(PrPt3)2
_chemical_formula_sum   'Yb7 Pr2 Pt6'
_cell_volume   374.19147877
_cell_formula_units_Z   1
loop_
 _symmetry_equiv_pos_site_id
 _symmetry_equiv_pos_as_xyz
  1  'x, y, z'
loop_
 _atom_site_type_symbol
 _atom_site_label
 _atom_site_symmetry_multiplicity
 _atom_site_fract_x
 _atom_site_fract_y
 _atom_site_fract_z
 _atom_site_occupancy
  Yb  Yb0  1  0.993781  0.004200  0.998828  1
  Yb  Yb1  1  0.804451  0.803687  0.809261  1
  Yb  Yb2  1  0.198441  0.196009  0.196940  1
  Yb  Yb3  1  0.328625  0.601808  0.854913  1
  Yb  Yb4  1  0.848954  0.327225  0.600253  1
  Yb  Yb5  1  0.603413  0.847277  0.326194  1
  Yb  Yb6  1  0.671078  0.401108  0.148422  1
  Pr  Pr7  1  0.144800  0.669339  0.399003  1
  Pr  Pr8  1  0.402889  0.145571  0.669833  1
  Pt  Pt9  1  0.166068  0.954822  0.589833  1
  Pt  Pt10  1  0.590929  0.168003  0.953589  1
  Pt  Pt11  1  0.954259  0.586102  0.163639  1
  Pt  Pt12  1  0.829618  0.045638  0.412829  1
  Pt  Pt13  1  0.411216  0.833835  0.049436  1
  Pt  Pt14  1  0.051478  0.415376  0.827026  1
