# generated using pymatgen
data_YLuPa(InRh)3
_symmetry_space_group_name_H-M   'P 1'
_cell_length_a   7.51105946
_cell_length_b   7.81892887
_cell_length_c   3.82090100
_cell_angle_alpha   90.00000000
_cell_angle_beta   90.00000000
_cell_angle_gamma   121.16544863
_symmetry_Int_Tables_number   1
_chemical_formula_structural   YLuPa(InRh)3
_chemical_formula_sum   'Y1 Lu1 Pa1 In3 Rh3'
_cell_volume   192.01000054
_cell_formula_units_Z   1
loop_
 _symmetry_equiv_pos_site_id
 _symmetry_equiv_pos_as_xyz
  1  'x, y, z'
loop_
 _atom_site_type_symbol
 _atom_site_label
 _atom_site_symmetry_multiplicity
 _atom_site_fract_x
 _atom_site_fract_y
 _atom_site_fract_z
 _atom_site_occupancy
  Y  Y0  1  0.597274  0.001953  0.500000  1
  Lu  Lu1  1  0.402248  0.403642  0.500000  1
  Pa  Pa2  1  0.999577  0.582540  0.500000  1
  In  In3  1  0.001932  0.242353  0.000000  1
  In  In4  1  0.273060  0.014087  0.000000  1
  In  In5  1  0.725993  0.740036  0.000000  1
  Rh  Rh6  1  0.295105  0.659475  0.000000  1
  Rh  Rh7  1  0.002755  0.988170  0.500000  1
  Rh  Rh8  1  0.702056  0.367745  0.000000  1
