# generated using pymatgen
data_Dy5In4RuPt
_symmetry_space_group_name_H-M   'P 1'
_cell_length_a   3.62293200
_cell_length_b   8.08937366
_cell_length_c   18.33326449
_cell_angle_alpha   89.93683439
_cell_angle_beta   90.00000000
_cell_angle_gamma   90.00000000
_symmetry_Int_Tables_number   1
_chemical_formula_structural   Dy5In4RuPt
_chemical_formula_sum   'Dy10 In8 Ru2 Pt2'
_cell_volume   537.29725161
_cell_formula_units_Z   2
loop_
 _symmetry_equiv_pos_site_id
 _symmetry_equiv_pos_as_xyz
  1  'x, y, z'
loop_
 _atom_site_type_symbol
 _atom_site_label
 _atom_site_symmetry_multiplicity
 _atom_site_fract_x
 _atom_site_fract_y
 _atom_site_fract_z
 _atom_site_occupancy
  Dy  Dy0  1  0.000000  0.115842  0.412442  1
  Dy  Dy1  1  0.000000  0.884158  0.587558  1
  Dy  Dy2  1  0.000000  0.381267  0.913293  1
  Dy  Dy3  1  0.000000  0.618733  0.086707  1
  Dy  Dy4  1  0.000000  0.235566  0.222205  1
  Dy  Dy5  1  0.000000  0.764434  0.777795  1
  Dy  Dy6  1  0.000000  0.248239  0.720147  1
  Dy  Dy7  1  0.000000  0.751761  0.279853  1
  Dy  Dy8  1  0.000000  0.000000  0.000000  1
  Dy  Dy9  1  0.000000  0.500000  0.500000  1
  In  In10  1  0.500000  0.424266  0.351532  1
  In  In11  1  0.500000  0.575734  0.648468  1
  In  In12  1  0.500000  0.067713  0.849613  1
  In  In13  1  0.500000  0.932287  0.150387  1
  In  In14  1  0.500000  0.292258  0.066282  1
  In  In15  1  0.500000  0.707742  0.933718  1
  In  In16  1  0.500000  0.206654  0.568898  1
  In  In17  1  0.500000  0.793346  0.431102  1
  Ru  Ru18  1  0.500000  0.021227  0.303949  1
  Ru  Ru19  1  0.500000  0.978773  0.696051  1
  Pt  Pt20  1  0.500000  0.478034  0.803275  1
  Pt  Pt21  1  0.500000  0.521966  0.196725  1
