# generated using pymatgen
data_NdMgP7Ru12
_symmetry_space_group_name_H-M   'P 1'
_cell_length_a   9.44723700
_cell_length_b   9.44723554
_cell_length_c   3.93250500
_cell_angle_alpha   90.00000000
_cell_angle_beta   90.00000000
_cell_angle_gamma   119.99999972
_symmetry_Int_Tables_number   1
_chemical_formula_structural   NdMgP7Ru12
_chemical_formula_sum   'Nd1 Mg1 P7 Ru12'
_cell_volume   303.95512504
_cell_formula_units_Z   1
loop_
 _symmetry_equiv_pos_site_id
 _symmetry_equiv_pos_as_xyz
  1  'x, y, z'
loop_
 _atom_site_type_symbol
 _atom_site_label
 _atom_site_symmetry_multiplicity
 _atom_site_fract_x
 _atom_site_fract_y
 _atom_site_fract_z
 _atom_site_occupancy
  Nd  Nd0  1  0.333333  0.666667  0.000000  1
  Mg  Mg1  1  0.666667  0.333333  0.500000  1
  P  P2  1  0.603915  0.715824  0.500000  1
  P  P3  1  0.000000  0.000000  0.000000  1
  P  P4  1  0.284176  0.888091  0.500000  1
  P  P5  1  0.111909  0.396085  0.500000  1
  P  P6  1  0.891200  0.581683  0.000000  1
  P  P7  1  0.418317  0.309517  0.000000  1
  P  P8  1  0.690483  0.108800  0.000000  1
  Ru  Ru9  1  0.559507  0.954113  0.500000  1
  Ru  Ru10  1  0.394607  0.440493  0.500000  1
  Ru  Ru11  1  0.912505  0.118940  0.500000  1
  Ru  Ru12  1  0.206436  0.087495  0.500000  1
  Ru  Ru13  1  0.881060  0.793564  0.500000  1
  Ru  Ru14  1  0.726136  0.884575  0.000000  1
  Ru  Ru15  1  0.115425  0.841560  0.000000  1
  Ru  Ru16  1  0.158440  0.273864  0.000000  1
  Ru  Ru17  1  0.431794  0.076792  0.000000  1
  Ru  Ru18  1  0.923208  0.355004  0.000000  1
  Ru  Ru19  1  0.644996  0.568206  0.000000  1
  Ru  Ru20  1  0.045887  0.605393  0.500000  1
