# generated using pymatgen
data_HoLu2Pa(Al3Ir)6
_symmetry_space_group_name_H-M   'P 1'
_cell_length_a   7.56020605
_cell_length_b   7.55464747
_cell_length_c   9.38936200
_cell_angle_alpha   90.00000000
_cell_angle_beta   90.00000000
_cell_angle_gamma   119.60974321
_symmetry_Int_Tables_number   1
_chemical_formula_structural   HoLu2Pa(Al3Ir)6
_chemical_formula_sum   'Ho1 Lu2 Pa1 Al18 Ir6'
_cell_volume   466.23944185
_cell_formula_units_Z   1
loop_
 _symmetry_equiv_pos_site_id
 _symmetry_equiv_pos_as_xyz
  1  'x, y, z'
loop_
 _atom_site_type_symbol
 _atom_site_label
 _atom_site_symmetry_multiplicity
 _atom_site_fract_x
 _atom_site_fract_y
 _atom_site_fract_z
 _atom_site_occupancy
  Ho  Ho0  1  0.672542  0.994919  0.250000  1
  Lu  Lu1  1  0.004631  0.328403  0.750000  1
  Lu  Lu2  1  0.328752  0.004303  0.750000  1
  Pa  Pa3  1  0.995984  0.671528  0.250000  1
  Al  Al4  1  0.132329  0.131316  0.250000  1
  Al  Al5  1  0.873111  0.874980  0.750000  1
  Al  Al6  1  0.001000  0.332188  0.073999  1
  Al  Al7  1  0.999824  0.664523  0.918860  1
  Al  Al8  1  0.999824  0.664523  0.581140  1
  Al  Al9  1  0.338919  0.004130  0.425761  1
  Al  Al10  1  0.001000  0.332188  0.426001  1
  Al  Al11  1  0.664912  0.000677  0.577558  1
  Al  Al12  1  0.664912  0.000677  0.922442  1
  Al  Al13  1  0.338919  0.004130  0.074239  1
  Al  Al14  1  0.331859  0.331981  0.558038  1
  Al  Al15  1  0.663005  0.665764  0.448870  1
  Al  Al16  1  0.663005  0.665764  0.051130  1
  Al  Al17  1  0.331859  0.331981  0.941962  1
  Al  Al18  1  0.339635  0.547110  0.250000  1
  Al  Al19  1  0.658817  0.448482  0.750000  1
  Al  Al20  1  0.546776  0.341558  0.250000  1
  Al  Al21  1  0.449523  0.660757  0.750000  1
  Ir  Ir22  1  0.674123  0.329620  0.001488  1
  Ir  Ir23  1  0.325483  0.672122  0.001538  1
  Ir  Ir24  1  0.325483  0.672122  0.498462  1
  Ir  Ir25  1  0.674123  0.329620  0.498512  1
  Ir  Ir26  1  0.999823  0.997317  0.002291  1
  Ir  Ir27  1  0.999823  0.997317  0.497709  1
