# generated using pymatgen
data_Mg4CdGa7Ir4
_symmetry_space_group_name_H-M   'P 1'
_cell_length_a   5.15243677
_cell_length_b   7.40851517
_cell_length_c   7.19624600
_cell_angle_alpha   89.87423327
_cell_angle_beta   90.22512766
_cell_angle_gamma   90.67035736
_symmetry_Int_Tables_number   1
_chemical_formula_structural   Mg4CdGa7Ir4
_chemical_formula_sum   'Mg4 Cd1 Ga7 Ir4'
_cell_volume   274.67287026
_cell_formula_units_Z   1
loop_
 _symmetry_equiv_pos_site_id
 _symmetry_equiv_pos_as_xyz
  1  'x, y, z'
loop_
 _atom_site_type_symbol
 _atom_site_label
 _atom_site_symmetry_multiplicity
 _atom_site_fract_x
 _atom_site_fract_y
 _atom_site_fract_z
 _atom_site_occupancy
  Mg  Mg0  1  0.385352  0.250524  0.025428  1
  Mg  Mg1  1  0.897902  0.749495  0.476465  1
  Mg  Mg2  1  0.102639  0.250633  0.528879  1
  Mg  Mg3  1  0.603686  0.748551  0.974956  1
  Cd  Cd4  1  0.102181  0.952801  0.819651  1
  Ga  Ga5  1  0.894462  0.048718  0.166884  1
  Ga  Ga6  1  0.889921  0.450516  0.172011  1
  Ga  Ga7  1  0.399129  0.545309  0.328405  1
  Ga  Ga8  1  0.395591  0.949274  0.332492  1
  Ga  Ga9  1  0.605756  0.051469  0.667777  1
  Ga  Ga10  1  0.607064  0.446131  0.664677  1
  Ga  Ga11  1  0.112911  0.557661  0.835743  1
  Ir  Ir12  1  0.116711  0.745137  0.139953  1
  Ir  Ir13  1  0.615823  0.247490  0.369446  1
  Ir  Ir14  1  0.402145  0.739580  0.618283  1
  Ir  Ir15  1  0.868728  0.266711  0.878953  1
