# generated using pymatgen
data_YbHoTiSbO7
_symmetry_space_group_name_H-M   'P 1'
_cell_length_a   7.27677900
_cell_length_b   7.27677900
_cell_length_c   10.26635600
_cell_angle_alpha   90.00000000
_cell_angle_beta   90.00000000
_cell_angle_gamma   90.00000000
_symmetry_Int_Tables_number   1
_chemical_formula_structural   YbHoTiSbO7
_chemical_formula_sum   'Yb4 Ho4 Ti4 Sb4 O28'
_cell_volume   543.61907924
_cell_formula_units_Z   4
loop_
 _symmetry_equiv_pos_site_id
 _symmetry_equiv_pos_as_xyz
  1  'x, y, z'
loop_
 _atom_site_type_symbol
 _atom_site_label
 _atom_site_symmetry_multiplicity
 _atom_site_fract_x
 _atom_site_fract_y
 _atom_site_fract_z
 _atom_site_occupancy
  Yb  Yb0  1  0.000000  0.752499  0.000000  1
  Yb  Yb1  1  0.752499  0.000000  0.750000  1
  Yb  Yb2  1  0.000000  0.247501  0.500000  1
  Yb  Yb3  1  0.247501  0.000000  0.250000  1
  Ho  Ho4  1  0.500000  0.235955  0.500000  1
  Ho  Ho5  1  0.500000  0.764045  0.000000  1
  Ho  Ho6  1  0.764045  0.500000  0.750000  1
  Ho  Ho7  1  0.235955  0.500000  0.250000  1
  Ti  Ti8  1  0.760706  0.000000  0.250000  1
  Ti  Ti9  1  0.000000  0.760706  0.500000  1
  Ti  Ti10  1  0.000000  0.239294  0.000000  1
  Ti  Ti11  1  0.239294  0.000000  0.750000  1
  Sb  Sb12  1  0.244741  0.500000  0.750000  1
  Sb  Sb13  1  0.500000  0.755259  0.500000  1
  Sb  Sb14  1  0.500000  0.244741  0.000000  1
  Sb  Sb15  1  0.755259  0.500000  0.250000  1
  O  O16  1  0.256211  0.743789  0.125000  1
  O  O17  1  0.549312  0.957995  0.376183  1
  O  O18  1  0.751093  0.743516  0.577256  1
  O  O19  1  0.743789  0.256211  0.625000  1
  O  O20  1  0.743516  0.751093  0.172744  1
  O  O21  1  0.944765  0.944765  0.375000  1
  O  O22  1  0.055235  0.055235  0.875000  1
  O  O23  1  0.055235  0.944765  0.625000  1
  O  O24  1  0.042005  0.450688  0.873817  1
  O  O25  1  0.248907  0.256484  0.077256  1
  O  O26  1  0.248907  0.743516  0.422744  1
  O  O27  1  0.256484  0.751093  0.827256  1
  O  O28  1  0.256484  0.248907  0.672744  1
  O  O29  1  0.450688  0.042005  0.876183  1
  O  O30  1  0.450688  0.957995  0.623817  1
  O  O31  1  0.455389  0.455389  0.875000  1
  O  O32  1  0.544611  0.544611  0.375000  1
  O  O33  1  0.549312  0.042005  0.123817  1
  O  O34  1  0.544611  0.455389  0.125000  1
  O  O35  1  0.743516  0.248907  0.327256  1
  O  O36  1  0.751093  0.256484  0.922744  1
  O  O37  1  0.944765  0.055235  0.125000  1
  O  O38  1  0.957995  0.549312  0.373817  1
  O  O39  1  0.957995  0.450688  0.126183  1
  O  O40  1  0.042005  0.549312  0.626183  1
  O  O41  1  0.256211  0.256211  0.375000  1
  O  O42  1  0.455389  0.544611  0.625000  1
  O  O43  1  0.743789  0.743789  0.875000  1
