# generated using pymatgen
data_La8PrNd11Ir12
_symmetry_space_group_name_H-M   'P 1'
_cell_length_a   11.35460422
_cell_length_b   11.35043925
_cell_length_c   6.62530313
_cell_angle_alpha   90.04428682
_cell_angle_beta   89.97876936
_cell_angle_gamma   89.96064516
_symmetry_Int_Tables_number   1
_chemical_formula_structural   La8PrNd11Ir12
_chemical_formula_sum   'La8 Pr1 Nd11 Ir12'
_cell_volume   853.86686540
_cell_formula_units_Z   1
loop_
 _symmetry_equiv_pos_site_id
 _symmetry_equiv_pos_as_xyz
  1  'x, y, z'
loop_
 _atom_site_type_symbol
 _atom_site_label
 _atom_site_symmetry_multiplicity
 _atom_site_fract_x
 _atom_site_fract_y
 _atom_site_fract_z
 _atom_site_occupancy
  La  La0  1  0.791527  0.408116  0.113022  1
  La  La1  1  0.208678  0.591525  0.112017  1
  La  La2  1  0.908355  0.708657  0.112379  1
  La  La3  1  0.408196  0.791296  0.387558  1
  La  La4  1  0.593160  0.208972  0.387355  1
  La  La5  1  0.289855  0.090894  0.387157  1
  La  La6  1  0.708741  0.908246  0.387162  1
  La  La7  1  0.410056  0.208061  0.887186  1
  Pr  Pr8  1  0.090479  0.291117  0.115128  1
  Nd  Nd9  1  0.709374  0.088549  0.885450  1
  Nd  Nd10  1  0.291382  0.909620  0.884993  1
  Nd  Nd11  1  0.589154  0.792045  0.885203  1
  Nd  Nd12  1  0.088694  0.708300  0.614525  1
  Nd  Nd13  1  0.911698  0.292197  0.614750  1
  Nd  Nd14  1  0.206864  0.411150  0.613647  1
  Nd  Nd15  1  0.791869  0.589174  0.614540  1
  Nd  Nd16  1  0.000456  0.000023  0.998493  1
  Nd  Nd17  1  0.500955  0.501119  0.998403  1
  Nd  Nd18  1  0.499802  0.500073  0.501363  1
  Nd  Nd19  1  0.999792  0.000122  0.501787  1
  Ir  Ir20  1  0.152818  0.846814  0.249797  1
  Ir  Ir21  1  0.347529  0.346428  0.249576  1
  Ir  Ir22  1  0.652781  0.653506  0.250162  1
  Ir  Ir23  1  0.847358  0.153065  0.249751  1
  Ir  Ir24  1  0.345650  0.653945  0.749733  1
  Ir  Ir25  1  0.154032  0.153445  0.749074  1
  Ir  Ir26  1  0.845566  0.846108  0.749583  1
  Ir  Ir27  1  0.655196  0.346412  0.749163  1
  Ir  Ir28  1  0.000077  0.500720  0.376296  1
  Ir  Ir29  1  0.500411  0.999537  0.124011  1
  Ir  Ir30  1  0.499760  0.000565  0.620217  1
  Ir  Ir31  1  0.999739  0.500198  0.880519  1
