# generated using pymatgen
data_Dy5Lu11(ScIr3)4
_symmetry_space_group_name_H-M   'P 1'
_cell_length_a   10.64564820
_cell_length_b   10.66978640
_cell_length_c   6.20506589
_cell_angle_alpha   89.94207391
_cell_angle_beta   89.97959619
_cell_angle_gamma   90.00925229
_symmetry_Int_Tables_number   1
_chemical_formula_structural   Dy5Lu11(ScIr3)4
_chemical_formula_sum   'Dy5 Lu11 Sc4 Ir12'
_cell_volume   704.81311709
_cell_formula_units_Z   1
loop_
 _symmetry_equiv_pos_site_id
 _symmetry_equiv_pos_as_xyz
  1  'x, y, z'
loop_
 _atom_site_type_symbol
 _atom_site_label
 _atom_site_symmetry_multiplicity
 _atom_site_fract_x
 _atom_site_fract_y
 _atom_site_fract_z
 _atom_site_occupancy
  Dy  Dy0  1  0.785837  0.586644  0.626520  1
  Dy  Dy1  1  0.913013  0.713157  0.126614  1
  Dy  Dy2  1  0.912407  0.286496  0.627208  1
  Dy  Dy3  1  0.088845  0.712887  0.626370  1
  Dy  Dy4  1  0.088219  0.286480  0.127826  1
  Lu  Lu5  1  0.290622  0.083631  0.377329  1
  Lu  Lu6  1  0.290181  0.916397  0.876724  1
  Lu  Lu7  1  0.709375  0.083830  0.877192  1
  Lu  Lu8  1  0.709618  0.916330  0.377034  1
  Lu  Lu9  1  0.583414  0.790334  0.877623  1
  Lu  Lu10  1  0.585267  0.210965  0.374898  1
  Lu  Lu11  1  0.415126  0.789196  0.377618  1
  Lu  Lu12  1  0.414439  0.210690  0.876290  1
  Lu  Lu13  1  0.212243  0.414170  0.625017  1
  Lu  Lu14  1  0.212782  0.585430  0.125036  1
  Lu  Lu15  1  0.788832  0.413999  0.124106  1
  Sc  Sc16  1  0.000440  0.000079  0.495146  1
  Sc  Sc17  1  0.000295  0.000512  0.995769  1
  Sc  Sc18  1  0.500062  0.499225  0.996349  1
  Sc  Sc19  1  0.498555  0.498899  0.495870  1
  Ir  Ir20  1  0.848164  0.148557  0.245936  1
  Ir  Ir21  1  0.848040  0.854282  0.748502  1
  Ir  Ir22  1  0.152153  0.148586  0.746047  1
  Ir  Ir23  1  0.152710  0.852495  0.246581  1
  Ir  Ir24  1  0.646613  0.347573  0.752155  1
  Ir  Ir25  1  0.646536  0.649974  0.246780  1
  Ir  Ir26  1  0.351964  0.349829  0.251080  1
  Ir  Ir27  1  0.351765  0.649516  0.750619  1
  Ir  Ir28  1  0.499368  0.000156  0.122817  1
  Ir  Ir29  1  0.500048  0.000998  0.622186  1
  Ir  Ir30  1  0.001780  0.499338  0.881180  1
  Ir  Ir31  1  0.001285  0.499343  0.379578  1
