# generated using pymatgen
data_Sc2FeSi2Ir
_symmetry_space_group_name_H-M   'P 1'
_cell_length_a   4.07666900
_cell_length_b   6.54215000
_cell_length_c   6.97414600
_cell_angle_alpha   90.00000000
_cell_angle_beta   90.00000000
_cell_angle_gamma   90.00000000
_symmetry_Int_Tables_number   1
_chemical_formula_structural   Sc2FeSi2Ir
_chemical_formula_sum   'Sc4 Fe2 Si4 Ir2'
_cell_volume   186.00172985
_cell_formula_units_Z   2
loop_
 _symmetry_equiv_pos_site_id
 _symmetry_equiv_pos_as_xyz
  1  'x, y, z'
loop_
 _atom_site_type_symbol
 _atom_site_label
 _atom_site_symmetry_multiplicity
 _atom_site_fract_x
 _atom_site_fract_y
 _atom_site_fract_z
 _atom_site_occupancy
  Sc  Sc0  1  0.250000  0.002024  0.314172  1
  Sc  Sc1  1  0.250000  0.502024  0.185828  1
  Sc  Sc2  1  0.750000  0.008784  0.691045  1
  Sc  Sc3  1  0.750000  0.508784  0.808955  1
  Fe  Fe4  1  0.250000  0.148387  0.939365  1
  Fe  Fe5  1  0.250000  0.648387  0.560635  1
  Si  Si6  1  0.250000  0.297389  0.629106  1
  Si  Si7  1  0.250000  0.797389  0.870894  1
  Si  Si8  1  0.750000  0.707682  0.400131  1
  Si  Si9  1  0.750000  0.207682  0.099869  1
  Ir  Ir10  1  0.750000  0.835734  0.060683  1
  Ir  Ir11  1  0.750000  0.335734  0.439317  1
