# generated using pymatgen
data_Ca3Y(ReB4)4
_symmetry_space_group_name_H-M   'P 1'
_cell_length_a   3.58483900
_cell_length_b   6.01307651
_cell_length_c   11.61913999
_cell_angle_alpha   90.04721254
_cell_angle_beta   90.00000000
_cell_angle_gamma   90.00000000
_symmetry_Int_Tables_number   1
_chemical_formula_structural   Ca3Y(ReB4)4
_chemical_formula_sum   'Ca3 Y1 Re4 B16'
_cell_volume   250.46106455
_cell_formula_units_Z   1
loop_
 _symmetry_equiv_pos_site_id
 _symmetry_equiv_pos_as_xyz
  1  'x, y, z'
loop_
 _atom_site_type_symbol
 _atom_site_label
 _atom_site_symmetry_multiplicity
 _atom_site_fract_x
 _atom_site_fract_y
 _atom_site_fract_z
 _atom_site_occupancy
  Ca  Ca0  1  0.000000  0.127551  0.149977  1
  Ca  Ca1  1  0.000000  0.872772  0.850857  1
  Ca  Ca2  1  0.000000  0.627694  0.348778  1
  Y  Y3  1  0.000000  0.371706  0.650526  1
  Re  Re4  1  0.000000  0.131704  0.416856  1
  Re  Re5  1  0.000000  0.870197  0.584838  1
  Re  Re6  1  0.000000  0.630765  0.083372  1
  Re  Re7  1  0.000000  0.370311  0.915881  1
  B  B8  1  0.500000  0.477371  0.192372  1
  B  B9  1  0.500000  0.523249  0.807629  1
  B  B10  1  0.500000  0.977624  0.307779  1
  B  B11  1  0.500000  0.023148  0.692385  1
  B  B12  1  0.500000  0.284190  0.315103  1
  B  B13  1  0.500000  0.715090  0.684651  1
  B  B14  1  0.500000  0.785049  0.184611  1
  B  B15  1  0.500000  0.214315  0.815410  1
  B  B16  1  0.500000  0.363836  0.468126  1
  B  B17  1  0.500000  0.636055  0.531644  1
  B  B18  1  0.500000  0.864694  0.032011  1
  B  B19  1  0.500000  0.134898  0.967997  1
  B  B20  1  0.500000  0.385761  0.047236  1
  B  B21  1  0.500000  0.613845  0.952282  1
  B  B22  1  0.500000  0.885848  0.452325  1
  B  B23  1  0.500000  0.112326  0.547353  1
