# generated using pymatgen
data_Lu2Fe2Co10P7
_symmetry_space_group_name_H-M   'P 1'
_cell_length_a   3.58766100
_cell_length_b   8.95570170
_cell_length_c   8.95154909
_cell_angle_alpha   120.06114465
_cell_angle_beta   90.00000000
_cell_angle_gamma   90.00000000
_symmetry_Int_Tables_number   1
_chemical_formula_structural   Lu2Fe2Co10P7
_chemical_formula_sum   'Lu2 Fe2 Co10 P7'
_cell_volume   248.92695986
_cell_formula_units_Z   1
loop_
 _symmetry_equiv_pos_site_id
 _symmetry_equiv_pos_as_xyz
  1  'x, y, z'
loop_
 _atom_site_type_symbol
 _atom_site_label
 _atom_site_symmetry_multiplicity
 _atom_site_fract_x
 _atom_site_fract_y
 _atom_site_fract_z
 _atom_site_occupancy
  Lu  Lu0  1  0.000000  0.666944  0.333266  1
  Lu  Lu1  1  0.500000  0.333789  0.666547  1
  Fe  Fe2  1  0.500000  0.094083  0.218490  1
  Fe  Fe3  1  0.500000  0.779497  0.874200  1
  Co  Co4  1  0.000000  0.370769  0.939252  1
  Co  Co5  1  0.000000  0.061422  0.432193  1
  Co  Co6  1  0.000000  0.567951  0.628725  1
  Co  Co7  1  0.000000  0.883638  0.725007  1
  Co  Co8  1  0.000000  0.274389  0.156423  1
  Co  Co9  1  0.000000  0.841183  0.117763  1
  Co  Co10  1  0.500000  0.949700  0.564587  1
  Co  Co11  1  0.500000  0.435756  0.384703  1
  Co  Co12  1  0.500000  0.614130  0.050750  1
  Co  Co13  1  0.500000  0.126397  0.907646  1
  P  P14  1  0.000000  0.114824  0.702781  1
  P  P15  1  0.000000  0.296659  0.411136  1
  P  P16  1  0.000000  0.588670  0.884882  1
  P  P17  1  0.500000  0.710698  0.596122  1
  P  P18  1  0.500000  0.405348  0.115983  1
  P  P19  1  0.500000  0.885833  0.289650  1
  P  P20  1  0.000000  0.998322  0.999896  1
