# generated using pymatgen
data_LiEu9Te10
_symmetry_space_group_name_H-M   'P 1'
_cell_length_a   7.84561229
_cell_length_b   9.05561067
_cell_length_c   10.12634200
_cell_angle_alpha   102.87713266
_cell_angle_beta   97.38345054
_cell_angle_gamma   106.75111417
_symmetry_Int_Tables_number   1
_chemical_formula_structural   LiEu9Te10
_chemical_formula_sum   'Li1 Eu9 Te10'
_cell_volume   657.11765695
_cell_formula_units_Z   1
loop_
 _symmetry_equiv_pos_site_id
 _symmetry_equiv_pos_as_xyz
  1  'x, y, z'
loop_
 _atom_site_type_symbol
 _atom_site_label
 _atom_site_symmetry_multiplicity
 _atom_site_fract_x
 _atom_site_fract_y
 _atom_site_fract_z
 _atom_site_occupancy
  Li  Li0  1  0.000000  0.500000  0.000000  1
  Eu  Eu1  1  0.802778  0.598725  0.600442  1
  Eu  Eu2  1  0.596765  0.200405  0.196590  1
  Eu  Eu3  1  0.403235  0.799595  0.803410  1
  Eu  Eu4  1  0.597938  0.696723  0.196821  1
  Eu  Eu5  1  0.197222  0.401275  0.399558  1
  Eu  Eu6  1  0.402062  0.303277  0.803179  1
  Eu  Eu7  1  0.000000  0.000000  0.000000  1
  Eu  Eu8  1  0.198395  0.896702  0.396817  1
  Eu  Eu9  1  0.801605  0.103298  0.603183  1
  Te  Te10  1  0.706980  0.647661  0.901543  1
  Te  Te11  1  0.498743  0.249300  0.499888  1
  Te  Te12  1  0.705213  0.155685  0.901486  1
  Te  Te13  1  0.294787  0.844315  0.098514  1
  Te  Te14  1  0.501257  0.750700  0.500112  1
  Te  Te15  1  0.099675  0.450921  0.704887  1
  Te  Te16  1  0.293020  0.352339  0.098457  1
  Te  Te17  1  0.898908  0.049672  0.300434  1
  Te  Te18  1  0.101092  0.950328  0.699566  1
  Te  Te19  1  0.900325  0.549079  0.295113  1
