# generated using pymatgen
data_Tb2ThAlGa2Ni3
_symmetry_space_group_name_H-M   'P 1'
_cell_length_a   7.15118037
_cell_length_b   7.03508922
_cell_length_c   3.84228900
_cell_angle_alpha   90.00000000
_cell_angle_beta   90.00000000
_cell_angle_gamma   120.72327915
_symmetry_Int_Tables_number   1
_chemical_formula_structural   Tb2ThAlGa2Ni3
_chemical_formula_sum   'Tb2 Th1 Al1 Ga2 Ni3'
_cell_volume   166.17144407
_cell_formula_units_Z   1
loop_
 _symmetry_equiv_pos_site_id
 _symmetry_equiv_pos_as_xyz
  1  'x, y, z'
loop_
 _atom_site_type_symbol
 _atom_site_label
 _atom_site_symmetry_multiplicity
 _atom_site_fract_x
 _atom_site_fract_y
 _atom_site_fract_z
 _atom_site_occupancy
  Tb  Tb0  1  0.997180  0.415722  0.500000  1
  Tb  Tb1  1  0.587282  0.588453  0.500000  1
  Th  Th2  1  0.420469  0.998320  0.500000  1
  Al  Al3  1  0.235334  0.243989  0.000000  1
  Ga  Ga4  1  0.771766  0.002627  0.000000  1
  Ga  Ga5  1  0.992343  0.751807  0.000000  1
  Ni  Ni6  1  0.333101  0.671984  0.000000  1
  Ni  Ni7  1  0.651248  0.323072  0.000000  1
  Ni  Ni8  1  0.011278  0.004025  0.500000  1
