# generated using pymatgen
data_Y2Tm2BOs2C3
_symmetry_space_group_name_H-M   'P 1'
_cell_length_a   5.10539900
_cell_length_b   6.56136443
_cell_length_c   9.73669502
_cell_angle_alpha   90.33437169
_cell_angle_beta   90.00000000
_cell_angle_gamma   90.00000000
_symmetry_Int_Tables_number   1
_chemical_formula_structural   Y2Tm2BOs2C3
_chemical_formula_sum   'Y4 Tm4 B2 Os4 C6'
_cell_volume   326.15798885
_cell_formula_units_Z   2
loop_
 _symmetry_equiv_pos_site_id
 _symmetry_equiv_pos_as_xyz
  1  'x, y, z'
loop_
 _atom_site_type_symbol
 _atom_site_label
 _atom_site_symmetry_multiplicity
 _atom_site_fract_x
 _atom_site_fract_y
 _atom_site_fract_z
 _atom_site_occupancy
  Y  Y0  1  0.250000  0.525869  0.210078  1
  Y  Y1  1  0.750000  0.474131  0.789922  1
  Y  Y2  1  0.750000  0.971324  0.714673  1
  Y  Y3  1  0.250000  0.028676  0.285327  1
  Tm  Tm4  1  0.250000  0.675855  0.551280  1
  Tm  Tm5  1  0.750000  0.324145  0.448720  1
  Tm  Tm6  1  0.750000  0.829975  0.053833  1
  Tm  Tm7  1  0.250000  0.170025  0.946167  1
  B  B8  1  0.250000  0.451047  0.758914  1
  B  B9  1  0.750000  0.548953  0.241086  1
  Os  Os10  1  0.250000  0.727796  0.863683  1
  Os  Os11  1  0.750000  0.272204  0.136317  1
  Os  Os12  1  0.750000  0.786333  0.371407  1
  Os  Os13  1  0.250000  0.213667  0.628593  1
  C  C14  1  0.750000  0.044664  0.261654  1
  C  C15  1  0.250000  0.955336  0.738346  1
  C  C16  1  0.250000  0.828286  0.051532  1
  C  C17  1  0.750000  0.171714  0.948468  1
  C  C18  1  0.750000  0.669903  0.553431  1
  C  C19  1  0.250000  0.330097  0.446569  1
