# generated using pymatgen
data_Tb2Er3Si3Rh
_symmetry_space_group_name_H-M   'P 1'
_cell_length_a   7.14365700
_cell_length_b   7.91546400
_cell_length_c   14.56113200
_cell_angle_alpha   90.00000000
_cell_angle_beta   90.00000000
_cell_angle_gamma   90.00000000
_symmetry_Int_Tables_number   1
_chemical_formula_structural   Tb2Er3Si3Rh
_chemical_formula_sum   'Tb8 Er12 Si12 Rh4'
_cell_volume   823.36444821
_cell_formula_units_Z   4
loop_
 _symmetry_equiv_pos_site_id
 _symmetry_equiv_pos_as_xyz
  1  'x, y, z'
loop_
 _atom_site_type_symbol
 _atom_site_label
 _atom_site_symmetry_multiplicity
 _atom_site_fract_x
 _atom_site_fract_y
 _atom_site_fract_z
 _atom_site_occupancy
  Tb  Tb0  1  0.511829  0.683737  0.592777  1
  Tb  Tb1  1  0.011829  0.816263  0.907223  1
  Tb  Tb2  1  0.488171  0.316263  0.092777  1
  Tb  Tb3  1  0.988171  0.183737  0.407223  1
  Tb  Tb4  1  0.488171  0.316263  0.407223  1
  Tb  Tb5  1  0.988171  0.183737  0.092777  1
  Tb  Tb6  1  0.511829  0.683737  0.907223  1
  Tb  Tb7  1  0.011829  0.816263  0.592777  1
  Er  Er8  1  0.690029  0.171113  0.627804  1
  Er  Er9  1  0.190029  0.328887  0.872196  1
  Er  Er10  1  0.309971  0.828887  0.127804  1
  Er  Er11  1  0.809971  0.671113  0.372196  1
  Er  Er12  1  0.309971  0.828887  0.372196  1
  Er  Er13  1  0.809971  0.671113  0.127804  1
  Er  Er14  1  0.690029  0.171113  0.872196  1
  Er  Er15  1  0.190029  0.328887  0.627804  1
  Er  Er16  1  0.832676  0.511963  0.750000  1
  Er  Er17  1  0.332676  0.988037  0.750000  1
  Er  Er18  1  0.167324  0.488037  0.250000  1
  Er  Er19  1  0.667324  0.011963  0.250000  1
  Si  Si20  1  0.654168  0.969968  0.461446  1
  Si  Si21  1  0.154168  0.530032  0.038554  1
  Si  Si22  1  0.345832  0.030032  0.961446  1
  Si  Si23  1  0.845832  0.469968  0.538554  1
  Si  Si24  1  0.345832  0.030032  0.538554  1
  Si  Si25  1  0.845832  0.469968  0.961446  1
  Si  Si26  1  0.654168  0.969968  0.038554  1
  Si  Si27  1  0.154168  0.530032  0.461446  1
  Si  Si28  1  0.732952  0.865137  0.750000  1
  Si  Si29  1  0.232952  0.634863  0.750000  1
  Si  Si30  1  0.267048  0.134863  0.250000  1
  Si  Si31  1  0.767048  0.365137  0.250000  1
  Rh  Rh32  1  0.482923  0.404205  0.750000  1
  Rh  Rh33  1  0.982923  0.095795  0.750000  1
  Rh  Rh34  1  0.517077  0.595795  0.250000  1
  Rh  Rh35  1  0.017077  0.904205  0.250000  1
