# generated using pymatgen
data_Zr6Ta3Al13RuRh6
_symmetry_space_group_name_H-M   'P 1'
_cell_length_a   8.82578025
_cell_length_b   8.82578049
_cell_length_c   8.82577914
_cell_angle_alpha   59.81320686
_cell_angle_beta   59.81320501
_cell_angle_gamma   59.81320916
_symmetry_Int_Tables_number   1
_chemical_formula_structural   Zr6Ta3Al13RuRh6
_chemical_formula_sum   'Zr6 Ta3 Al13 Ru1 Rh6'
_cell_volume   484.05973620
_cell_formula_units_Z   1
loop_
 _symmetry_equiv_pos_site_id
 _symmetry_equiv_pos_as_xyz
  1  'x, y, z'
loop_
 _atom_site_type_symbol
 _atom_site_label
 _atom_site_symmetry_multiplicity
 _atom_site_fract_x
 _atom_site_fract_y
 _atom_site_fract_z
 _atom_site_occupancy
  Zr  Zr0  1  0.692770  0.692770  0.304758  1
  Zr  Zr1  1  0.309188  0.688608  0.309188  1
  Zr  Zr2  1  0.688608  0.309188  0.309188  1
  Zr  Zr3  1  0.309188  0.309188  0.688608  1
  Zr  Zr4  1  0.692770  0.304758  0.692770  1
  Zr  Zr5  1  0.304758  0.692770  0.692770  1
  Ta  Ta6  1  0.878877  0.878877  0.360600  1
  Ta  Ta7  1  0.878877  0.360600  0.878877  1
  Ta  Ta8  1  0.360600  0.878877  0.878877  1
  Al  Al9  1  0.881622  0.881622  0.881622  1
  Al  Al10  1  0.118988  0.118988  0.639193  1
  Al  Al11  1  0.118988  0.639193  0.118988  1
  Al  Al12  1  0.639193  0.118988  0.118988  1
  Al  Al13  1  0.121263  0.121263  0.121263  1
  Al  Al14  1  0.666362  0.666362  0.009308  1
  Al  Al15  1  0.666362  0.009308  0.666362  1
  Al  Al16  1  0.009308  0.666362  0.666362  1
  Al  Al17  1  0.659756  0.659756  0.659756  1
  Al  Al18  1  0.336782  0.336782  0.991347  1
  Al  Al19  1  0.336782  0.991347  0.336782  1
  Al  Al20  1  0.991347  0.336782  0.336782  1
  Al  Al21  1  0.335675  0.335675  0.335675  1
  Ru  Ru22  1  0.002053  0.002053  0.002053  1
  Rh  Rh23  1  0.999476  0.999476  0.497225  1
  Rh  Rh24  1  0.502992  0.997725  0.502992  1
  Rh  Rh25  1  0.997725  0.502992  0.502992  1
  Rh  Rh26  1  0.502992  0.502992  0.997725  1
  Rh  Rh27  1  0.999476  0.497225  0.999476  1
  Rh  Rh28  1  0.497225  0.999476  0.999476  1
