# generated using pymatgen
data_Ce2CuBRh5
_symmetry_space_group_name_H-M   'P 1'
_cell_length_a   5.91457681
_cell_length_b   5.81231855
_cell_length_c   5.81231879
_cell_angle_alpha   61.16742161
_cell_angle_beta   59.41628956
_cell_angle_gamma   59.41630093
_symmetry_Int_Tables_number   1
_chemical_formula_structural   Ce2CuBRh5
_chemical_formula_sum   'Ce2 Cu1 B1 Rh5'
_cell_volume   141.19970165
_cell_formula_units_Z   1
loop_
 _symmetry_equiv_pos_site_id
 _symmetry_equiv_pos_as_xyz
  1  'x, y, z'
loop_
 _atom_site_type_symbol
 _atom_site_label
 _atom_site_symmetry_multiplicity
 _atom_site_fract_x
 _atom_site_fract_y
 _atom_site_fract_z
 _atom_site_occupancy
  Ce  Ce0  1  0.251515  0.248483  0.248483  1
  Ce  Ce1  1  0.751515  0.748483  0.748483  1
  Cu  Cu2  1  0.733456  0.266544  0.266544  1
  B  B3  1  0.998816  0.001184  0.001184  1
  Rh  Rh4  1  0.747566  0.744541  0.252434  1
  Rh  Rh5  1  0.255459  0.744541  0.252434  1
  Rh  Rh6  1  0.258647  0.741353  0.741353  1
  Rh  Rh7  1  0.255459  0.252434  0.744541  1
  Rh  Rh8  1  0.747566  0.252434  0.744541  1
