# generated using pymatgen
data_Pr3Nd(SiTc2)8
_symmetry_space_group_name_H-M   'P 1'
_cell_length_a   4.18278900
_cell_length_b   7.28314315
_cell_length_c   15.50121342
_cell_angle_alpha   89.94260903
_cell_angle_beta   90.00000000
_cell_angle_gamma   90.00000000
_symmetry_Int_Tables_number   1
_chemical_formula_structural   Pr3Nd(SiTc2)8
_chemical_formula_sum   'Pr3 Nd1 Si8 Tc16'
_cell_volume   472.22641982
_cell_formula_units_Z   1
loop_
 _symmetry_equiv_pos_site_id
 _symmetry_equiv_pos_as_xyz
  1  'x, y, z'
loop_
 _atom_site_type_symbol
 _atom_site_label
 _atom_site_symmetry_multiplicity
 _atom_site_fract_x
 _atom_site_fract_y
 _atom_site_fract_z
 _atom_site_occupancy
  Pr  Pr0  1  0.000000  0.581770  0.116687  1
  Pr  Pr1  1  0.000000  0.418600  0.882976  1
  Pr  Pr2  1  0.500000  0.081241  0.383565  1
  Nd  Nd3  1  0.500000  0.918091  0.616597  1
  Si  Si4  1  0.000000  0.821221  0.474446  1
  Si  Si5  1  0.000000  0.177279  0.526308  1
  Si  Si6  1  0.500000  0.321279  0.026030  1
  Si  Si7  1  0.500000  0.679050  0.973716  1
  Si  Si8  1  0.000000  0.296407  0.273305  1
  Si  Si9  1  0.000000  0.704969  0.726339  1
  Si  Si10  1  0.500000  0.796465  0.227011  1
  Si  Si11  1  0.500000  0.203567  0.772457  1
  Tc  Tc12  1  0.000000  0.136666  0.052634  1
  Tc  Tc13  1  0.000000  0.863662  0.947190  1
  Tc  Tc14  1  0.500000  0.636244  0.447742  1
  Tc  Tc15  1  0.500000  0.362225  0.553058  1
  Tc  Tc16  1  0.000000  0.729846  0.319812  1
  Tc  Tc17  1  0.000000  0.269365  0.680258  1
  Tc  Tc18  1  0.500000  0.229905  0.180650  1
  Tc  Tc19  1  0.500000  0.770912  0.819106  1
  Tc  Tc20  1  0.000000  0.435607  0.419387  1
  Tc  Tc21  1  0.000000  0.563826  0.581251  1
  Tc  Tc22  1  0.500000  0.936205  0.080921  1
  Tc  Tc23  1  0.500000  0.064260  0.918829  1
  Tc  Tc24  1  0.000000  0.992033  0.206319  1
  Tc  Tc25  1  0.000000  0.008151  0.793445  1
  Tc  Tc26  1  0.500000  0.492010  0.294005  1
  Tc  Tc27  1  0.500000  0.509141  0.705957  1
