# generated using pymatgen
data_Tm8CoAg2Rh
_symmetry_space_group_name_H-M   'P 1'
_cell_length_a   9.31380424
_cell_length_b   9.31380554
_cell_length_c   9.29175700
_cell_angle_alpha   60.07827515
_cell_angle_beta   60.07827055
_cell_angle_gamma   60.25659707
_symmetry_Int_Tables_number   1
_chemical_formula_structural   Tm8CoAg2Rh
_chemical_formula_sum   'Tm16 Co2 Ag4 Rh2'
_cell_volume   571.72481098
_cell_formula_units_Z   2
loop_
 _symmetry_equiv_pos_site_id
 _symmetry_equiv_pos_as_xyz
  1  'x, y, z'
loop_
 _atom_site_type_symbol
 _atom_site_label
 _atom_site_symmetry_multiplicity
 _atom_site_fract_x
 _atom_site_fract_y
 _atom_site_fract_z
 _atom_site_occupancy
  Tm  Tm0  1  0.064287  0.064287  0.435713  1
  Tm  Tm1  1  0.436200  0.064119  0.436117  1
  Tm  Tm2  1  0.064119  0.436200  0.063564  1
  Tm  Tm3  1  0.049697  0.656638  0.646834  1
  Tm  Tm4  1  0.436866  0.436866  0.063134  1
  Tm  Tm5  1  0.656638  0.049697  0.646834  1
  Tm  Tm6  1  0.181904  0.812613  0.193076  1
  Tm  Tm7  1  0.188124  0.188124  0.811876  1
  Tm  Tm8  1  0.812997  0.812997  0.187003  1
  Tm  Tm9  1  0.436200  0.064119  0.063564  1
  Tm  Tm10  1  0.812613  0.181904  0.193076  1
  Tm  Tm11  1  0.064119  0.436200  0.436117  1
  Tm  Tm12  1  0.812613  0.181904  0.812407  1
  Tm  Tm13  1  0.181904  0.812613  0.812407  1
  Tm  Tm14  1  0.650965  0.650965  0.057747  1
  Tm  Tm15  1  0.650965  0.650965  0.640324  1
  Co  Co16  1  0.857644  0.857644  0.427788  1
  Co  Co17  1  0.857644  0.857644  0.856923  1
  Ag  Ag18  1  0.417606  0.417606  0.418163  1
  Ag  Ag19  1  0.745998  0.417656  0.418172  1
  Ag  Ag20  1  0.417656  0.745998  0.418172  1
  Ag  Ag21  1  0.417606  0.417606  0.746624  1
  Rh  Rh22  1  0.429878  0.855756  0.857183  1
  Rh  Rh23  1  0.855756  0.429878  0.857183  1
