# generated using pymatgen
data_NaNdEuI6
_symmetry_space_group_name_H-M   'P 1'
_cell_length_a   8.77016952
_cell_length_b   8.77085330
_cell_length_c   8.77026286
_cell_angle_alpha   54.52638539
_cell_angle_beta   54.52486408
_cell_angle_gamma   54.52532215
_symmetry_Int_Tables_number   1
_chemical_formula_structural   NaNdEuI6
_chemical_formula_sum   'Na1 Nd1 Eu1 I6'
_cell_volume   416.15494184
_cell_formula_units_Z   1
loop_
 _symmetry_equiv_pos_site_id
 _symmetry_equiv_pos_as_xyz
  1  'x, y, z'
loop_
 _atom_site_type_symbol
 _atom_site_label
 _atom_site_symmetry_multiplicity
 _atom_site_fract_x
 _atom_site_fract_y
 _atom_site_fract_z
 _atom_site_occupancy
  Na  Na0  1  0.670209  0.670201  0.670201  1
  Nd  Nd1  1  0.999993  0.999994  0.999997  1
  Eu  Eu2  1  0.330426  0.330419  0.330413  1
  I  I3  1  0.241942  0.599528  0.916339  1
  I  I4  1  0.599515  0.916352  0.241950  1
  I  I5  1  0.916348  0.241947  0.599511  1
  I  I6  1  0.754161  0.396987  0.090424  1
  I  I7  1  0.396988  0.090417  0.754167  1
  I  I8  1  0.090420  0.754154  0.396998  1
