# generated using pymatgen
data_Pr(ErTe2)2
_symmetry_space_group_name_H-M   'P 1'
_cell_length_a   4.35753800
_cell_length_b   7.53069102
_cell_length_c   7.68076828
_cell_angle_alpha   71.78752113
_cell_angle_beta   90.00000000
_cell_angle_gamma   90.00000000
_symmetry_Int_Tables_number   1
_chemical_formula_structural   Pr(ErTe2)2
_chemical_formula_sum   'Pr1 Er2 Te4'
_cell_volume   239.41998181
_cell_formula_units_Z   1
loop_
 _symmetry_equiv_pos_site_id
 _symmetry_equiv_pos_as_xyz
  1  'x, y, z'
loop_
 _atom_site_type_symbol
 _atom_site_label
 _atom_site_symmetry_multiplicity
 _atom_site_fract_x
 _atom_site_fract_y
 _atom_site_fract_z
 _atom_site_occupancy
  Pr  Pr0  1  0.000000  0.500000  0.500000  1
  Er  Er1  1  0.000000  0.000000  0.000000  1
  Er  Er2  1  0.500000  0.500000  0.000000  1
  Te  Te3  1  0.500000  0.764294  0.243035  1
  Te  Te4  1  0.000000  0.249587  0.239066  1
  Te  Te5  1  0.500000  0.235706  0.756965  1
  Te  Te6  1  0.000000  0.750413  0.760934  1
