# generated using pymatgen
data_UAgP2F12
_symmetry_space_group_name_H-M   'P 1'
_cell_length_a   8.79990061
_cell_length_b   9.17107700
_cell_length_c   8.40018415
_cell_angle_alpha   90.00000000
_cell_angle_beta   118.36144637
_cell_angle_gamma   90.00000000
_symmetry_Int_Tables_number   1
_chemical_formula_structural   UAgP2F12
_chemical_formula_sum   'U2 Ag2 P4 F24'
_cell_volume   596.55981838
_cell_formula_units_Z   2
loop_
 _symmetry_equiv_pos_site_id
 _symmetry_equiv_pos_as_xyz
  1  'x, y, z'
loop_
 _atom_site_type_symbol
 _atom_site_label
 _atom_site_symmetry_multiplicity
 _atom_site_fract_x
 _atom_site_fract_y
 _atom_site_fract_z
 _atom_site_occupancy
  U  U0  1  0.000000  0.500000  0.500000  1
  U  U1  1  0.000000  0.000000  0.000000  1
  Ag  Ag2  1  0.000000  0.000000  0.500000  1
  Ag  Ag3  1  0.000000  0.500000  0.000000  1
  P  P4  1  0.687970  0.027475  0.347421  1
  P  P5  1  0.312030  0.527475  0.152579  1
  P  P6  1  0.312030  0.972525  0.652579  1
  P  P7  1  0.687970  0.472525  0.847421  1
  F  F8  1  0.167649  0.419396  0.756435  1
  F  F9  1  0.832351  0.919396  0.743565  1
  F  F10  1  0.832351  0.580604  0.243565  1
  F  F11  1  0.167649  0.080604  0.256435  1
  F  F12  1  0.145945  0.412609  0.386229  1
  F  F13  1  0.854055  0.912609  0.113771  1
  F  F14  1  0.854055  0.587391  0.613771  1
  F  F15  1  0.145945  0.087391  0.886229  1
  F  F16  1  0.136831  0.697817  0.557094  1
  F  F17  1  0.863169  0.197817  0.942906  1
  F  F18  1  0.863169  0.302183  0.442906  1
  F  F19  1  0.136831  0.802183  0.057094  1
  F  F20  1  0.598757  0.111123  0.443005  1
  F  F21  1  0.401243  0.611123  0.056995  1
  F  F22  1  0.401243  0.888877  0.556995  1
  F  F23  1  0.598757  0.388877  0.943005  1
  F  F24  1  0.601644  0.105910  0.159201  1
  F  F25  1  0.398356  0.605910  0.340799  1
  F  F26  1  0.398356  0.894090  0.840799  1
  F  F27  1  0.601644  0.394090  0.659201  1
  F  F28  1  0.581398  0.881843  0.296466  1
  F  F29  1  0.418602  0.381843  0.203534  1
  F  F30  1  0.418602  0.118157  0.703534  1
  F  F31  1  0.581398  0.618157  0.796466  1
