# generated using pymatgen
data_Hf6Zn21SiNi2
_symmetry_space_group_name_H-M   'P 1'
_cell_length_a   8.72105435
_cell_length_b   8.67187462
_cell_length_c   8.67186750
_cell_angle_alpha   59.94150271
_cell_angle_beta   59.81065034
_cell_angle_gamma   59.81063290
_symmetry_Int_Tables_number   1
_chemical_formula_structural   Hf6Zn21SiNi2
_chemical_formula_sum   'Hf6 Zn21 Si1 Ni2'
_cell_volume   462.21006050
_cell_formula_units_Z   1
loop_
 _symmetry_equiv_pos_site_id
 _symmetry_equiv_pos_as_xyz
  1  'x, y, z'
loop_
 _atom_site_type_symbol
 _atom_site_label
 _atom_site_symmetry_multiplicity
 _atom_site_fract_x
 _atom_site_fract_y
 _atom_site_fract_z
 _atom_site_occupancy
  Hf  Hf0  1  0.711134  0.288880  0.288880  1
  Hf  Hf1  1  0.288866  0.711120  0.711120  1
  Hf  Hf2  1  0.289815  0.706417  0.293573  1
  Hf  Hf3  1  0.710185  0.293583  0.706427  1
  Hf  Hf4  1  0.289815  0.293573  0.706417  1
  Hf  Hf5  1  0.710185  0.706427  0.293583  1
  Zn  Zn6  1  0.118482  0.118335  0.118335  1
  Zn  Zn7  1  0.881518  0.881665  0.881665  1
  Zn  Zn8  1  0.115219  0.129449  0.640096  1
  Zn  Zn9  1  0.115219  0.640096  0.129449  1
  Zn  Zn10  1  0.884781  0.870551  0.359904  1
  Zn  Zn11  1  0.884781  0.359904  0.870551  1
  Zn  Zn12  1  0.644832  0.118339  0.118339  1
  Zn  Zn13  1  0.355168  0.881661  0.881661  1
  Zn  Zn14  1  0.500000  0.000000  0.000000  1
  Zn  Zn15  1  0.000000  0.500000  0.000000  1
  Zn  Zn16  1  0.500000  0.000000  0.500000  1
  Zn  Zn17  1  0.000000  0.000000  0.500000  1
  Zn  Zn18  1  0.500000  0.500000  0.000000  1
  Zn  Zn19  1  0.328810  0.340144  0.340144  1
  Zn  Zn20  1  0.671190  0.659856  0.659856  1
  Zn  Zn21  1  0.336315  0.338045  0.989336  1
  Zn  Zn22  1  0.336315  0.989336  0.338045  1
  Zn  Zn23  1  0.663685  0.661955  0.010664  1
  Zn  Zn24  1  0.663685  0.010664  0.661955  1
  Zn  Zn25  1  0.990891  0.340150  0.340150  1
  Zn  Zn26  1  0.009109  0.659850  0.659850  1
  Si  Si27  1  0.500000  0.500000  0.500000  1
  Ni  Ni28  1  0.000000  0.500000  0.500000  1
  Ni  Ni29  1  0.000000  0.000000  0.000000  1
