# generated using pymatgen
data_La15NdCd4Os3Pd
_symmetry_space_group_name_H-M   'P 1'
_cell_length_a   10.07460131
_cell_length_b   10.18029202
_cell_length_c   10.18349000
_cell_angle_alpha   59.98960796
_cell_angle_beta   59.64181764
_cell_angle_gamma   59.56879370
_symmetry_Int_Tables_number   1
_chemical_formula_structural   La15NdCd4Os3Pd
_chemical_formula_sum   'La15 Nd1 Cd4 Os3 Pd1'
_cell_volume   734.03851127
_cell_formula_units_Z   1
loop_
 _symmetry_equiv_pos_site_id
 _symmetry_equiv_pos_as_xyz
  1  'x, y, z'
loop_
 _atom_site_type_symbol
 _atom_site_label
 _atom_site_symmetry_multiplicity
 _atom_site_fract_x
 _atom_site_fract_y
 _atom_site_fract_z
 _atom_site_occupancy
  La  La0  1  0.342019  0.350044  0.351173  1
  La  La1  1  0.342019  0.350044  0.956765  1
  La  La2  1  0.341812  0.955518  0.351335  1
  La  La3  1  0.963856  0.344103  0.346020  1
  La  La4  1  0.816865  0.190903  0.192184  1
  La  La5  1  0.188687  0.810790  0.810059  1
  La  La6  1  0.188687  0.810790  0.190464  1
  La  La7  1  0.816865  0.190903  0.800047  1
  La  La8  1  0.189541  0.189682  0.810388  1
  La  La9  1  0.816925  0.800634  0.191220  1
  La  La10  1  0.939552  0.560444  0.559697  1
  La  La11  1  0.555731  0.940985  0.939277  1
  La  La12  1  0.555731  0.940985  0.564008  1
  La  La13  1  0.939552  0.560444  0.940307  1
  La  La14  1  0.555067  0.564631  0.940151  1
  Nd  Nd15  1  0.938714  0.941570  0.559858  1
  Cd  Cd16  1  0.579438  0.579295  0.579333  1
  Cd  Cd17  1  0.579438  0.579295  0.261936  1
  Cd  Cd18  1  0.580910  0.260231  0.579430  1
  Cd  Cd19  1  0.260280  0.580703  0.579509  1
  Os  Os20  1  0.143240  0.137558  0.137230  1
  Os  Os21  1  0.143240  0.137558  0.581972  1
  Os  Os22  1  0.143273  0.582198  0.137264  1
  Pd  Pd23  1  0.578563  0.140690  0.140373  1
