# generated using pymatgen
data_BaTcAs2Rh
_symmetry_space_group_name_H-M   'P 1'
_cell_length_a   6.94850622
_cell_length_b   6.94850635
_cell_length_c   6.94850577
_cell_angle_alpha   144.69901081
_cell_angle_beta   144.69901914
_cell_angle_gamma   50.78328974
_symmetry_Int_Tables_number   1
_chemical_formula_structural   BaTcAs2Rh
_chemical_formula_sum   'Ba1 Tc1 As2 Rh1'
_cell_volume   111.45505893
_cell_formula_units_Z   1
loop_
 _symmetry_equiv_pos_site_id
 _symmetry_equiv_pos_as_xyz
  1  'x, y, z'
loop_
 _atom_site_type_symbol
 _atom_site_label
 _atom_site_symmetry_multiplicity
 _atom_site_fract_x
 _atom_site_fract_y
 _atom_site_fract_z
 _atom_site_occupancy
  Ba  Ba0  1  0.000000  0.000000  0.000000  1
  Tc  Tc1  1  0.750000  0.250000  0.500000  1
  As  As2  1  0.351216  0.351216  0.000000  1
  As  As3  1  0.648784  0.648784  0.000000  1
  Rh  Rh4  1  0.250000  0.750000  0.500000  1
