# generated using pymatgen
data_La6Hf2Bi7Sb3
_symmetry_space_group_name_H-M   'P 1'
_cell_length_a   9.76112300
_cell_length_b   9.75795904
_cell_length_c   6.58023100
_cell_angle_alpha   90.00000000
_cell_angle_beta   90.00000000
_cell_angle_gamma   120.01073665
_symmetry_Int_Tables_number   1
_chemical_formula_structural   La6Hf2Bi7Sb3
_chemical_formula_sum   'La6 Hf2 Bi7 Sb3'
_cell_volume   542.72965401
_cell_formula_units_Z   1
loop_
 _symmetry_equiv_pos_site_id
 _symmetry_equiv_pos_as_xyz
  1  'x, y, z'
loop_
 _atom_site_type_symbol
 _atom_site_label
 _atom_site_symmetry_multiplicity
 _atom_site_fract_x
 _atom_site_fract_y
 _atom_site_fract_z
 _atom_site_occupancy
  La  La0  1  0.616106  0.000000  0.250000  1
  La  La1  1  0.618856  0.616838  0.750000  1
  La  La2  1  0.377465  0.000000  0.750000  1
  La  La3  1  0.380272  0.378252  0.250000  1
  La  La4  1  0.002019  0.621748  0.250000  1
  La  La5  1  0.002018  0.383162  0.750000  1
  Hf  Hf6  1  0.005464  0.000000  0.998121  1
  Hf  Hf7  1  0.005464  0.000000  0.501879  1
  Bi  Bi8  1  0.333458  0.666646  0.500041  1
  Bi  Bi9  1  0.666812  0.333354  0.999959  1
  Bi  Bi10  1  0.666812  0.333354  0.500041  1
  Bi  Bi11  1  0.333458  0.666646  0.999959  1
  Bi  Bi12  1  0.740465  0.000000  0.750000  1
  Bi  Bi13  1  0.740056  0.740514  0.250000  1
  Bi  Bi14  1  0.999542  0.259486  0.250000  1
  Sb  Sb15  1  0.999552  0.743733  0.750000  1
  Sb  Sb16  1  0.256362  0.000000  0.250000  1
  Sb  Sb17  1  0.255819  0.256267  0.750000  1
