# generated using pymatgen
data_Pr6Zn(P3Rh5)4
_symmetry_space_group_name_H-M   'P 1'
_cell_length_a   13.61774500
_cell_length_b   13.61774329
_cell_length_c   3.94835000
_cell_angle_alpha   90.00000000
_cell_angle_beta   90.00000000
_cell_angle_gamma   119.99999687
_symmetry_Int_Tables_number   1
_chemical_formula_structural   Pr6Zn(P3Rh5)4
_chemical_formula_sum   'Pr6 Zn1 P12 Rh20'
_cell_volume   634.09835909
_cell_formula_units_Z   1
loop_
 _symmetry_equiv_pos_site_id
 _symmetry_equiv_pos_as_xyz
  1  'x, y, z'
loop_
 _atom_site_type_symbol
 _atom_site_label
 _atom_site_symmetry_multiplicity
 _atom_site_fract_x
 _atom_site_fract_y
 _atom_site_fract_z
 _atom_site_occupancy
  Pr  Pr0  1  0.530729  0.717308  0.249995  1
  Pr  Pr1  1  0.282692  0.813421  0.249995  1
  Pr  Pr2  1  0.186579  0.469271  0.249995  1
  Pr  Pr3  1  0.469271  0.282692  0.750005  1
  Pr  Pr4  1  0.717308  0.186579  0.750005  1
  Pr  Pr5  1  0.813421  0.530729  0.750005  1
  Zn  Zn6  1  0.000000  0.000000  0.000000  1
  P  P7  1  0.521914  0.134366  0.250257  1
  P  P8  1  0.865634  0.387549  0.250257  1
  P  P9  1  0.612451  0.478086  0.250257  1
  P  P10  1  0.949734  0.724318  0.247494  1
  P  P11  1  0.275682  0.225417  0.247494  1
  P  P12  1  0.774583  0.050266  0.247494  1
  P  P13  1  0.387549  0.521914  0.749743  1
  P  P14  1  0.478086  0.865634  0.749743  1
  P  P15  1  0.134366  0.612451  0.749743  1
  P  P16  1  0.724318  0.774583  0.752506  1
  P  P17  1  0.225417  0.949734  0.752506  1
  P  P18  1  0.050266  0.275682  0.752506  1
  Rh  Rh19  1  0.333333  0.666667  0.750859  1
  Rh  Rh20  1  0.924053  0.252633  0.247375  1
  Rh  Rh21  1  0.747367  0.671420  0.247375  1
  Rh  Rh22  1  0.328580  0.075947  0.247375  1
  Rh  Rh23  1  0.442101  0.026635  0.749923  1
  Rh  Rh24  1  0.973365  0.415468  0.749923  1
  Rh  Rh25  1  0.584532  0.557899  0.749923  1
  Rh  Rh26  1  0.666667  0.333333  0.249141  1
  Rh  Rh27  1  0.095368  0.200925  0.256755  1
  Rh  Rh28  1  0.799075  0.894442  0.256755  1
  Rh  Rh29  1  0.105558  0.904632  0.256755  1
  Rh  Rh30  1  0.026635  0.584532  0.250077  1
  Rh  Rh31  1  0.415468  0.442101  0.250077  1
  Rh  Rh32  1  0.557899  0.973365  0.250077  1
  Rh  Rh33  1  0.671420  0.924053  0.752625  1
  Rh  Rh34  1  0.075947  0.747367  0.752625  1
  Rh  Rh35  1  0.252633  0.328580  0.752625  1
  Rh  Rh36  1  0.904632  0.799075  0.743245  1
  Rh  Rh37  1  0.200925  0.105558  0.743245  1
  Rh  Rh38  1  0.894442  0.095368  0.743245  1
