# generated using pymatgen
data_Pa4In2TcRh3
_symmetry_space_group_name_H-M   'P 1'
_cell_length_a   7.68816321
_cell_length_b   7.68880321
_cell_length_c   3.61324400
_cell_angle_alpha   90.00000000
_cell_angle_beta   90.00000000
_cell_angle_gamma   90.22030824
_symmetry_Int_Tables_number   1
_chemical_formula_structural   Pa4In2TcRh3
_chemical_formula_sum   'Pa4 In2 Tc1 Rh3'
_cell_volume   213.58729688
_cell_formula_units_Z   1
loop_
 _symmetry_equiv_pos_site_id
 _symmetry_equiv_pos_as_xyz
  1  'x, y, z'
loop_
 _atom_site_type_symbol
 _atom_site_label
 _atom_site_symmetry_multiplicity
 _atom_site_fract_x
 _atom_site_fract_y
 _atom_site_fract_z
 _atom_site_occupancy
  Pa  Pa0  1  0.665799  0.165808  0.500000  1
  Pa  Pa1  1  0.325840  0.825850  0.500000  1
  Pa  Pa2  1  0.169956  0.339229  0.500000  1
  Pa  Pa3  1  0.839250  0.669928  0.500000  1
  In  In4  1  0.999995  0.003233  0.000000  1
  In  In5  1  0.503258  0.500000  0.000000  1
  Tc  Tc6  1  0.135448  0.635460  0.000000  1
  Rh  Rh7  1  0.860393  0.360373  0.000000  1
  Rh  Rh8  1  0.634685  0.865402  0.000000  1
  Rh  Rh9  1  0.365377  0.134717  0.000000  1
