# generated using pymatgen
data_Tb18Nd2Si15Pd
_symmetry_space_group_name_H-M   'P 1'
_cell_length_a   7.45982360
_cell_length_b   7.80574757
_cell_length_c   14.77917999
_cell_angle_alpha   89.76554915
_cell_angle_beta   90.00265983
_cell_angle_gamma   89.86034939
_symmetry_Int_Tables_number   1
_chemical_formula_structural   Tb18Nd2Si15Pd
_chemical_formula_sum   'Tb18 Nd2 Si15 Pd1'
_cell_volume   860.57449841
_cell_formula_units_Z   1
loop_
 _symmetry_equiv_pos_site_id
 _symmetry_equiv_pos_as_xyz
  1  'x, y, z'
loop_
 _atom_site_type_symbol
 _atom_site_label
 _atom_site_symmetry_multiplicity
 _atom_site_fract_x
 _atom_site_fract_y
 _atom_site_fract_z
 _atom_site_occupancy
  Tb  Tb0  1  0.811927  0.575811  0.874884  1
  Tb  Tb1  1  0.315890  0.423941  0.126237  1
  Tb  Tb2  1  0.182475  0.928150  0.373356  1
  Tb  Tb3  1  0.682483  0.070165  0.626801  1
  Tb  Tb4  1  0.182703  0.928565  0.628144  1
  Tb  Tb5  1  0.682719  0.070350  0.371613  1
  Tb  Tb6  1  0.814998  0.572086  0.126669  1
  Tb  Tb7  1  0.317625  0.427466  0.872527  1
  Tb  Tb8  1  0.643901  0.230627  0.999433  1
  Tb  Tb9  1  0.156075  0.759263  0.000703  1
  Tb  Tb10  1  0.351499  0.264698  0.499853  1
  Tb  Tb11  1  0.850706  0.734225  0.499949  1
  Tb  Tb12  1  0.474941  0.933988  0.845193  1
  Tb  Tb13  1  0.973548  0.066385  0.152841  1
  Tb  Tb14  1  0.473450  0.934318  0.154077  1
  Tb  Tb15  1  0.972102  0.066905  0.848027  1
  Tb  Tb16  1  0.528268  0.565305  0.652546  1
  Tb  Tb17  1  0.028465  0.435025  0.347648  1
  Nd  Nd18  1  0.523726  0.568777  0.343150  1
  Nd  Nd19  1  0.023998  0.431376  0.656129  1
  Si  Si20  1  0.019345  0.351779  0.999654  1
  Si  Si21  1  0.476295  0.856528  0.500640  1
  Si  Si22  1  0.977162  0.142985  0.499400  1
  Si  Si23  1  0.649620  0.278151  0.789953  1
  Si  Si24  1  0.151347  0.720977  0.209959  1
  Si  Si25  1  0.352685  0.217864  0.288582  1
  Si  Si26  1  0.852410  0.781667  0.712267  1
  Si  Si27  1  0.359282  0.220528  0.709998  1
  Si  Si28  1  0.858609  0.779295  0.289230  1
  Si  Si29  1  0.644729  0.272569  0.207141  1
  Si  Si30  1  0.145944  0.725730  0.792496  1
  Si  Si31  1  0.772596  0.880901  0.000921  1
  Si  Si32  1  0.258681  0.124867  0.999477  1
  Si  Si33  1  0.235587  0.626986  0.501229  1
  Si  Si34  1  0.734853  0.373506  0.498809  1
  Pd  Pd35  1  0.519354  0.658239  0.000469  1
