# generated using pymatgen
data_Li3B8MoRu10
_symmetry_space_group_name_H-M   'P 1'
_cell_length_a   2.92928000
_cell_length_b   8.27240709
_cell_length_c   9.93497535
_cell_angle_alpha   88.66497063
_cell_angle_beta   90.00000000
_cell_angle_gamma   90.00000000
_symmetry_Int_Tables_number   1
_chemical_formula_structural   Li3B8MoRu10
_chemical_formula_sum   'Li3 B8 Mo1 Ru10'
_cell_volume   240.68092620
_cell_formula_units_Z   1
loop_
 _symmetry_equiv_pos_site_id
 _symmetry_equiv_pos_as_xyz
  1  'x, y, z'
loop_
 _atom_site_type_symbol
 _atom_site_label
 _atom_site_symmetry_multiplicity
 _atom_site_fract_x
 _atom_site_fract_y
 _atom_site_fract_z
 _atom_site_occupancy
  Li  Li0  1  0.500000  0.854065  0.147337  1
  Li  Li1  1  0.500000  0.122509  0.769731  1
  Li  Li2  1  0.500000  0.624051  0.714038  1
  B  B3  1  0.500000  0.952215  0.586667  1
  B  B4  1  0.500000  0.040077  0.405234  1
  B  B5  1  0.500000  0.859189  0.896072  1
  B  B6  1  0.500000  0.147636  0.092401  1
  B  B7  1  0.500000  0.657635  0.408790  1
  B  B8  1  0.500000  0.354321  0.622531  1
  B  B9  1  0.500000  0.463218  0.919607  1
  B  B10  1  0.500000  0.556853  0.097060  1
  Mo  Mo11  1  0.500000  0.350966  0.324533  1
  Ru  Ru12  1  0.000000  0.663972  0.956552  1
  Ru  Ru13  1  0.000000  0.352551  0.068300  1
  Ru  Ru14  1  0.000000  0.848420  0.450642  1
  Ru  Ru15  1  0.000000  0.163841  0.540941  1
  Ru  Ru16  1  0.000000  0.032497  0.971869  1
  Ru  Ru17  1  0.000000  0.366530  0.781157  1
  Ru  Ru18  1  0.000000  0.610012  0.249461  1
  Ru  Ru19  1  0.000000  0.501294  0.510638  1
  Ru  Ru20  1  0.000000  0.880266  0.733207  1
  Ru  Ru21  1  0.000000  0.097883  0.253234  1
