# generated using pymatgen
data_Dy6SbO11F
_symmetry_space_group_name_H-M   'P 1'
_cell_length_a   6.50523255
_cell_length_b   6.53145176
_cell_length_c   6.48531060
_cell_angle_alpha   99.05837039
_cell_angle_beta   98.79870764
_cell_angle_gamma   98.95775290
_symmetry_Int_Tables_number   1
_chemical_formula_structural   Dy6SbO11F
_chemical_formula_sum   'Dy6 Sb1 O11 F1'
_cell_volume   264.31018546
_cell_formula_units_Z   1
loop_
 _symmetry_equiv_pos_site_id
 _symmetry_equiv_pos_as_xyz
  1  'x, y, z'
loop_
 _atom_site_type_symbol
 _atom_site_label
 _atom_site_symmetry_multiplicity
 _atom_site_fract_x
 _atom_site_fract_y
 _atom_site_fract_z
 _atom_site_occupancy
  Dy  Dy0  1  0.702752  0.870607  0.402143  1
  Dy  Dy1  1  0.389544  0.693547  0.843237  1
  Dy  Dy2  1  0.856428  0.393965  0.692112  1
  Dy  Dy3  1  0.310185  0.145801  0.609439  1
  Dy  Dy4  1  0.619418  0.288412  0.135888  1
  Dy  Dy5  1  0.125662  0.609693  0.311406  1
  Sb  Sb6  1  0.003854  0.998632  0.001938  1
  O  O7  1  0.174605  0.434415  0.585730  1
  O  O8  1  0.590578  0.180343  0.436623  1
  O  O9  1  0.565884  0.416974  0.831107  1
  O  O10  1  0.813453  0.566357  0.403932  1
  O  O11  1  0.409675  0.818890  0.557475  1
  O  O12  1  0.928022  0.041955  0.698701  1
  O  O13  1  0.963544  0.302200  0.073923  1
  O  O14  1  0.306102  0.070509  0.957244  1
  O  O15  1  0.068937  0.958686  0.306754  1
  O  O16  1  0.047500  0.696519  0.931119  1
  O  O17  1  0.696036  0.929267  0.044866  1
  F  F18  1  0.427821  0.583228  0.176363  1
