# generated using pymatgen
data_Tm5Th3(CdRu)2
_symmetry_space_group_name_H-M   'P 1'
_cell_length_a   9.63707322
_cell_length_b   9.70348233
_cell_length_c   9.70348170
_cell_angle_alpha   59.54773205
_cell_angle_beta   60.22613274
_cell_angle_gamma   60.22613695
_symmetry_Int_Tables_number   1
_chemical_formula_structural   Tm5Th3(CdRu)2
_chemical_formula_sum   'Tm10 Th6 Cd4 Ru4'
_cell_volume   641.57135980
_cell_formula_units_Z   2
loop_
 _symmetry_equiv_pos_site_id
 _symmetry_equiv_pos_as_xyz
  1  'x, y, z'
loop_
 _atom_site_type_symbol
 _atom_site_label
 _atom_site_symmetry_multiplicity
 _atom_site_fract_x
 _atom_site_fract_y
 _atom_site_fract_z
 _atom_site_occupancy
  Tm  Tm0  1  0.191199  0.808801  0.191199  1
  Tm  Tm1  1  0.808801  0.191199  0.808801  1
  Tm  Tm2  1  0.191199  0.191199  0.808801  1
  Tm  Tm3  1  0.808801  0.808801  0.191199  1
  Tm  Tm4  1  0.932483  0.567517  0.567517  1
  Tm  Tm5  1  0.567517  0.932483  0.932483  1
  Tm  Tm6  1  0.564106  0.935894  0.564106  1
  Tm  Tm7  1  0.935894  0.564106  0.935894  1
  Tm  Tm8  1  0.564106  0.564106  0.935894  1
  Tm  Tm9  1  0.935894  0.935894  0.564106  1
  Th  Th10  1  0.343905  0.350984  0.350984  1
  Th  Th11  1  0.350984  0.343905  0.954127  1
  Th  Th12  1  0.350984  0.954127  0.343905  1
  Th  Th13  1  0.954127  0.350984  0.350984  1
  Th  Th14  1  0.816618  0.183382  0.183382  1
  Th  Th15  1  0.183382  0.816618  0.816618  1
  Cd  Cd16  1  0.584859  0.581935  0.581935  1
  Cd  Cd17  1  0.581935  0.584859  0.251272  1
  Cd  Cd18  1  0.581935  0.251272  0.584859  1
  Cd  Cd19  1  0.251272  0.581935  0.581935  1
  Ru  Ru20  1  0.130137  0.146907  0.146907  1
  Ru  Ru21  1  0.146907  0.130137  0.576050  1
  Ru  Ru22  1  0.146907  0.576050  0.130137  1
  Ru  Ru23  1  0.576050  0.146907  0.146907  1
