# generated using pymatgen
data_Sr4SnPb11
_symmetry_space_group_name_H-M   'P 1'
_cell_length_a   12.32831930
_cell_length_b   12.33506159
_cell_length_c   12.33506067
_cell_angle_alpha   33.64805669
_cell_angle_beta   33.66476315
_cell_angle_gamma   33.66476649
_symmetry_Int_Tables_number   1
_chemical_formula_structural   Sr4SnPb11
_chemical_formula_sum   'Sr4 Sn1 Pb11'
_cell_volume   513.35337435
_cell_formula_units_Z   1
loop_
 _symmetry_equiv_pos_site_id
 _symmetry_equiv_pos_as_xyz
  1  'x, y, z'
loop_
 _atom_site_type_symbol
 _atom_site_label
 _atom_site_symmetry_multiplicity
 _atom_site_fract_x
 _atom_site_fract_y
 _atom_site_fract_z
 _atom_site_occupancy
  Sr  Sr0  1  0.872681  0.872483  0.872483  1
  Sr  Sr1  1  0.126961  0.126330  0.126330  1
  Sr  Sr2  1  0.707439  0.709671  0.709671  1
  Sr  Sr3  1  0.293670  0.292095  0.292095  1
  Sn  Sn4  1  0.711886  0.207815  0.207815  1
  Pb  Pb5  1  0.288637  0.792175  0.792175  1
  Pb  Pb6  1  0.792123  0.794651  0.288661  1
  Pb  Pb7  1  0.856396  0.384347  0.384347  1
  Pb  Pb8  1  0.385619  0.383178  0.855778  1
  Pb  Pb9  1  0.385619  0.855778  0.383178  1
  Pb  Pb10  1  0.615989  0.145344  0.610994  1
  Pb  Pb11  1  0.146788  0.614076  0.614076  1
  Pb  Pb12  1  0.615989  0.610994  0.145344  1
  Pb  Pb13  1  0.792123  0.288661  0.794651  1
  Pb  Pb14  1  0.204041  0.715462  0.206939  1
  Pb  Pb15  1  0.204041  0.206939  0.715462  1
