# generated using pymatgen
data_Yb4CdO5
_symmetry_space_group_name_H-M   'P 1'
_cell_length_a   5.81405636
_cell_length_b   5.81405747
_cell_length_c   5.81405748
_cell_angle_alpha   99.63902815
_cell_angle_beta   99.63901851
_cell_angle_gamma   131.69149114
_symmetry_Int_Tables_number   1
_chemical_formula_structural   Yb4CdO5
_chemical_formula_sum   'Yb4 Cd1 O5'
_cell_volume   133.91006983
_cell_formula_units_Z   1
loop_
 _symmetry_equiv_pos_site_id
 _symmetry_equiv_pos_as_xyz
  1  'x, y, z'
loop_
 _atom_site_type_symbol
 _atom_site_label
 _atom_site_symmetry_multiplicity
 _atom_site_fract_x
 _atom_site_fract_y
 _atom_site_fract_z
 _atom_site_occupancy
  Yb  Yb0  1  0.398118  0.798768  0.196884  1
  Yb  Yb1  1  0.798768  0.601882  0.400650  1
  Yb  Yb2  1  0.201232  0.398118  0.599350  1
  Yb  Yb3  1  0.601882  0.201232  0.803116  1
  Cd  Cd4  1  0.000000  0.000000  0.000000  1
  O  O5  1  0.306513  0.102615  0.409128  1
  O  O6  1  0.102615  0.693487  0.796102  1
  O  O7  1  0.500000  0.500000  0.000000  1
  O  O8  1  0.693487  0.897385  0.590872  1
  O  O9  1  0.897385  0.306513  0.203898  1
