# generated using pymatgen
data_La4Pr(ThTe4)3
_symmetry_space_group_name_H-M   'P 1'
_cell_length_a   4.48572900
_cell_length_b   11.95361817
_cell_length_c   12.28810800
_cell_angle_alpha   90.37437357
_cell_angle_beta   90.00000000
_cell_angle_gamma   90.00000000
_symmetry_Int_Tables_number   1
_chemical_formula_structural   La4Pr(ThTe4)3
_chemical_formula_sum   'La4 Pr1 Th3 Te12'
_cell_volume   658.88278514
_cell_formula_units_Z   1
loop_
 _symmetry_equiv_pos_site_id
 _symmetry_equiv_pos_as_xyz
  1  'x, y, z'
loop_
 _atom_site_type_symbol
 _atom_site_label
 _atom_site_symmetry_multiplicity
 _atom_site_fract_x
 _atom_site_fract_y
 _atom_site_fract_z
 _atom_site_occupancy
  La  La0  1  0.750000  0.502294  0.697599  1
  La  La1  1  0.750000  0.999376  0.196966  1
  La  La2  1  0.250000  0.498545  0.304521  1
  La  La3  1  0.250000  0.998949  0.802769  1
  Pr  Pr4  1  0.750000  0.689423  0.016192  1
  Th  Th5  1  0.250000  0.188802  0.484217  1
  Th  Th6  1  0.250000  0.311222  0.984226  1
  Th  Th7  1  0.750000  0.811271  0.515475  1
  Te  Te8  1  0.250000  0.626448  0.545850  1
  Te  Te9  1  0.250000  0.876494  0.044355  1
  Te  Te10  1  0.750000  0.373515  0.454689  1
  Te  Te11  1  0.750000  0.127158  0.953775  1
  Te  Te12  1  0.250000  0.294741  0.726183  1
  Te  Te13  1  0.250000  0.204796  0.226236  1
  Te  Te14  1  0.750000  0.704018  0.276092  1
  Te  Te15  1  0.750000  0.794856  0.770370  1
  Te  Te16  1  0.750000  0.057622  0.617051  1
  Te  Te17  1  0.750000  0.442446  0.118324  1
  Te  Te18  1  0.250000  0.943509  0.382517  1
  Te  Te19  1  0.250000  0.554516  0.882594  1
