# generated using pymatgen
data_Sm2B3Ru4C
_symmetry_space_group_name_H-M   'P 1'
_cell_length_a   6.71576265
_cell_length_b   5.90253962
_cell_length_c   5.56931471
_cell_angle_alpha   71.59719668
_cell_angle_beta   57.18103553
_cell_angle_gamma   51.89495112
_symmetry_Int_Tables_number   1
_chemical_formula_structural   Sm2B3Ru4C
_chemical_formula_sum   'Sm2 B3 Ru4 C1'
_cell_volume   145.93160724
_cell_formula_units_Z   1
loop_
 _symmetry_equiv_pos_site_id
 _symmetry_equiv_pos_as_xyz
  1  'x, y, z'
loop_
 _atom_site_type_symbol
 _atom_site_label
 _atom_site_symmetry_multiplicity
 _atom_site_fract_x
 _atom_site_fract_y
 _atom_site_fract_z
 _atom_site_occupancy
  Sm  Sm0  1  0.999208  0.000792  0.999208  1
  Sm  Sm1  1  0.250024  0.249976  0.250024  1
  B  B2  1  0.315187  0.684813  0.315187  1
  B  B3  1  0.933763  0.566237  0.933763  1
  B  B4  1  0.565124  0.934876  0.565124  1
  Ru  Ru5  1  0.615427  0.605796  0.882283  1
  Ru  Ru6  1  0.641070  0.627594  0.364549  1
  Ru  Ru7  1  0.364549  0.366787  0.641070  1
  Ru  Ru8  1  0.882283  0.896493  0.615427  1
  C  C9  1  0.683365  0.316635  0.683365  1
