# generated using pymatgen
data_Yb4Al18GaIr5
_symmetry_space_group_name_H-M   'P 1'
_cell_length_a   7.59679491
_cell_length_b   7.59679543
_cell_length_c   9.58587301
_cell_angle_alpha   90.09382686
_cell_angle_beta   90.09382888
_cell_angle_gamma   119.69984063
_symmetry_Int_Tables_number   1
_chemical_formula_structural   Yb4Al18GaIr5
_chemical_formula_sum   'Yb4 Al18 Ga1 Ir5'
_cell_volume   480.53659589
_cell_formula_units_Z   1
loop_
 _symmetry_equiv_pos_site_id
 _symmetry_equiv_pos_as_xyz
  1  'x, y, z'
loop_
 _atom_site_type_symbol
 _atom_site_label
 _atom_site_symmetry_multiplicity
 _atom_site_fract_x
 _atom_site_fract_y
 _atom_site_fract_z
 _atom_site_occupancy
  Yb  Yb0  1  0.997125  0.674115  0.250707  1
  Yb  Yb1  1  0.002875  0.325885  0.749293  1
  Yb  Yb2  1  0.674115  0.997125  0.250707  1
  Yb  Yb3  1  0.325885  0.002875  0.749293  1
  Al  Al4  1  0.138816  0.138816  0.260650  1
  Al  Al5  1  0.861184  0.861184  0.739350  1
  Al  Al6  1  0.001492  0.346350  0.078959  1
  Al  Al7  1  0.998508  0.653650  0.921041  1
  Al  Al8  1  0.001570  0.664655  0.569008  1
  Al  Al9  1  0.335345  0.998430  0.430992  1
  Al  Al10  1  0.998430  0.335345  0.430992  1
  Al  Al11  1  0.664655  0.001570  0.569008  1
  Al  Al12  1  0.653650  0.998508  0.921041  1
  Al  Al13  1  0.346350  0.001492  0.078959  1
  Al  Al14  1  0.333451  0.333451  0.550397  1
  Al  Al15  1  0.666549  0.666549  0.449603  1
  Al  Al16  1  0.654400  0.654400  0.060386  1
  Al  Al17  1  0.345600  0.345600  0.939614  1
  Al  Al18  1  0.338248  0.549770  0.251721  1
  Al  Al19  1  0.661752  0.450230  0.748279  1
  Al  Al20  1  0.549770  0.338248  0.251721  1
  Al  Al21  1  0.450230  0.661752  0.748279  1
  Ga  Ga22  1  0.000000  0.000000  0.000000  1
  Ir  Ir23  1  0.670837  0.329163  0.000000  1
  Ir  Ir24  1  0.329163  0.670837  0.000000  1
  Ir  Ir25  1  0.329553  0.670447  0.500000  1
  Ir  Ir26  1  0.670447  0.329553  0.500000  1
  Ir  Ir27  1  0.000000  0.000000  0.500000  1
