# generated using pymatgen
data_Lu8Tl3Fe
_symmetry_space_group_name_H-M   'P 1'
_cell_length_a   10.11861300
_cell_length_b   10.11861283
_cell_length_c   6.99828000
_cell_angle_alpha   90.00000000
_cell_angle_beta   90.00000000
_cell_angle_gamma   119.99999729
_symmetry_Int_Tables_number   1
_chemical_formula_structural   Lu8Tl3Fe
_chemical_formula_sum   'Lu16 Tl6 Fe2'
_cell_volume   620.53162915
_cell_formula_units_Z   2
loop_
 _symmetry_equiv_pos_site_id
 _symmetry_equiv_pos_as_xyz
  1  'x, y, z'
loop_
 _atom_site_type_symbol
 _atom_site_label
 _atom_site_symmetry_multiplicity
 _atom_site_fract_x
 _atom_site_fract_y
 _atom_site_fract_z
 _atom_site_occupancy
  Lu  Lu0  1  0.538320  0.076639  0.523731  1
  Lu  Lu1  1  0.923361  0.461680  0.523731  1
  Lu  Lu2  1  0.538320  0.461680  0.523731  1
  Lu  Lu3  1  0.461680  0.923361  0.023731  1
  Lu  Lu4  1  0.076639  0.538320  0.023731  1
  Lu  Lu5  1  0.461680  0.538320  0.023731  1
  Lu  Lu6  1  0.179559  0.359119  0.723070  1
  Lu  Lu7  1  0.640881  0.820441  0.723070  1
  Lu  Lu8  1  0.179559  0.820441  0.723070  1
  Lu  Lu9  1  0.820441  0.640881  0.223070  1
  Lu  Lu10  1  0.359119  0.179559  0.223070  1
  Lu  Lu11  1  0.820441  0.179559  0.223070  1
  Lu  Lu12  1  0.666667  0.333333  0.916670  1
  Lu  Lu13  1  0.333333  0.666667  0.416670  1
  Lu  Lu14  1  0.000000  0.000000  0.505728  1
  Lu  Lu15  1  0.000000  0.000000  0.005728  1
  Tl  Tl16  1  0.836623  0.673247  0.773329  1
  Tl  Tl17  1  0.326753  0.163377  0.773329  1
  Tl  Tl18  1  0.836623  0.163377  0.773329  1
  Tl  Tl19  1  0.163377  0.326753  0.273329  1
  Tl  Tl20  1  0.673247  0.836623  0.273329  1
  Tl  Tl21  1  0.163377  0.836623  0.273329  1
  Fe  Fe22  1  0.666667  0.333333  0.295051  1
  Fe  Fe23  1  0.333333  0.666667  0.795051  1
