# generated using pymatgen
data_TbYRh6S
_symmetry_space_group_name_H-M   'P 1'
_cell_length_a   5.96618048
_cell_length_b   5.96617930
_cell_length_c   5.96618100
_cell_angle_alpha   59.99999611
_cell_angle_beta   60.00000267
_cell_angle_gamma   60.00000482
_symmetry_Int_Tables_number   1
_chemical_formula_structural   TbYRh6S
_chemical_formula_sum   'Tb1 Y1 Rh6 S1'
_cell_volume   150.16686927
_cell_formula_units_Z   1
loop_
 _symmetry_equiv_pos_site_id
 _symmetry_equiv_pos_as_xyz
  1  'x, y, z'
loop_
 _atom_site_type_symbol
 _atom_site_label
 _atom_site_symmetry_multiplicity
 _atom_site_fract_x
 _atom_site_fract_y
 _atom_site_fract_z
 _atom_site_occupancy
  Tb  Tb0  1  0.750000  0.750000  0.750000  1
  Y  Y1  1  0.250000  0.250000  0.250000  1
  Rh  Rh2  1  0.735271  0.264730  0.264730  1
  Rh  Rh3  1  0.264730  0.735271  0.264730  1
  Rh  Rh4  1  0.735270  0.735270  0.264731  1
  Rh  Rh5  1  0.264730  0.264730  0.735271  1
  Rh  Rh6  1  0.735270  0.264731  0.735270  1
  Rh  Rh7  1  0.264731  0.735270  0.735270  1
  S  S8  1  0.000000  0.000000  0.000000  1
