# generated using pymatgen
data_HoTm3(CuPt)2
_symmetry_space_group_name_H-M   'P 1'
_cell_length_a   4.42497600
_cell_length_b   5.45949806
_cell_length_c   7.03350621
_cell_angle_alpha   90.28739450
_cell_angle_beta   90.00000000
_cell_angle_gamma   90.00000000
_symmetry_Int_Tables_number   1
_chemical_formula_structural   HoTm3(CuPt)2
_chemical_formula_sum   'Ho1 Tm3 Cu2 Pt2'
_cell_volume   169.91434562
_cell_formula_units_Z   1
loop_
 _symmetry_equiv_pos_site_id
 _symmetry_equiv_pos_as_xyz
  1  'x, y, z'
loop_
 _atom_site_type_symbol
 _atom_site_label
 _atom_site_symmetry_multiplicity
 _atom_site_fract_x
 _atom_site_fract_y
 _atom_site_fract_z
 _atom_site_occupancy
  Ho  Ho0  1  0.000000  0.884005  0.183601  1
  Tm  Tm1  1  0.000000  0.116154  0.682752  1
  Tm  Tm2  1  0.500000  0.393429  0.316980  1
  Tm  Tm3  1  0.500000  0.606015  0.816726  1
  Cu  Cu4  1  0.500000  0.893953  0.466775  1
  Cu  Cu5  1  0.500000  0.107746  0.960829  1
  Pt  Pt6  1  0.000000  0.612636  0.537517  1
  Pt  Pt7  1  0.000000  0.386063  0.034824  1
