# generated using pymatgen
data_Be7V4Ge
_symmetry_space_group_name_H-M   'P 1'
_cell_length_a   4.41385300
_cell_length_b   4.41385340
_cell_length_c   7.24821300
_cell_angle_alpha   90.00000000
_cell_angle_beta   90.00000000
_cell_angle_gamma   120.00000450
_symmetry_Int_Tables_number   1
_chemical_formula_structural   Be7V4Ge
_chemical_formula_sum   'Be7 V4 Ge1'
_cell_volume   122.29179767
_cell_formula_units_Z   1
loop_
 _symmetry_equiv_pos_site_id
 _symmetry_equiv_pos_as_xyz
  1  'x, y, z'
loop_
 _atom_site_type_symbol
 _atom_site_label
 _atom_site_symmetry_multiplicity
 _atom_site_fract_x
 _atom_site_fract_y
 _atom_site_fract_z
 _atom_site_occupancy
  Be  Be0  1  0.000000  0.000000  0.500000  1
  Be  Be1  1  0.825889  0.651778  0.262145  1
  Be  Be2  1  0.174111  0.825889  0.737855  1
  Be  Be3  1  0.651778  0.825889  0.737855  1
  Be  Be4  1  0.348222  0.174111  0.262145  1
  Be  Be5  1  0.825889  0.174111  0.262145  1
  Be  Be6  1  0.174111  0.348222  0.737855  1
  V  V7  1  0.333333  0.666667  0.066768  1
  V  V8  1  0.666667  0.333333  0.567335  1
  V  V9  1  0.666667  0.333333  0.933232  1
  V  V10  1  0.333333  0.666667  0.432665  1
  Ge  Ge11  1  0.000000  0.000000  0.000000  1
