# generated using pymatgen
data_DyErNbB2Ru5
_symmetry_space_group_name_H-M   'P 1'
_cell_length_a   9.66213605
_cell_length_b   9.66213605
_cell_length_c   3.12915800
_cell_angle_alpha   90.00000000
_cell_angle_beta   90.00000000
_cell_angle_gamma   90.18831091
_symmetry_Int_Tables_number   1
_chemical_formula_structural   DyErNbB2Ru5
_chemical_formula_sum   'Dy2 Er2 Nb2 B4 Ru10'
_cell_volume   292.12682814
_cell_formula_units_Z   2
loop_
 _symmetry_equiv_pos_site_id
 _symmetry_equiv_pos_as_xyz
  1  'x, y, z'
loop_
 _atom_site_type_symbol
 _atom_site_label
 _atom_site_symmetry_multiplicity
 _atom_site_fract_x
 _atom_site_fract_y
 _atom_site_fract_z
 _atom_site_occupancy
  Dy  Dy0  1  0.825204  0.674796  0.000000  1
  Dy  Dy1  1  0.174796  0.325204  0.000000  1
  Er  Er2  1  0.325470  0.825470  0.000000  1
  Er  Er3  1  0.674530  0.174530  0.000000  1
  Nb  Nb4  1  0.500000  0.500000  0.000000  1
  Nb  Nb5  1  0.000000  0.000000  0.000000  1
  B  B6  1  0.620087  0.879913  0.000000  1
  B  B7  1  0.379913  0.120087  0.000000  1
  B  B8  1  0.120693  0.620693  0.000000  1
  B  B9  1  0.879307  0.379307  0.000000  1
  Ru  Ru10  1  0.570154  0.718585  0.500000  1
  Ru  Ru11  1  0.429846  0.281415  0.500000  1
  Ru  Ru12  1  0.072452  0.782065  0.500000  1
  Ru  Ru13  1  0.927548  0.217935  0.500000  1
  Ru  Ru14  1  0.282065  0.572452  0.500000  1
  Ru  Ru15  1  0.717935  0.427548  0.500000  1
  Ru  Ru16  1  0.218585  0.070154  0.500000  1
  Ru  Ru17  1  0.781415  0.929846  0.500000  1
  Ru  Ru18  1  0.500000  0.000000  0.500000  1
  Ru  Ru19  1  0.000000  0.500000  0.500000  1
