# generated using pymatgen
data_Gd5Ho(BiO7)2
_symmetry_space_group_name_H-M   'P 1'
_cell_length_a   6.57803562
_cell_length_b   6.61219500
_cell_length_c   7.75895300
_cell_angle_alpha   106.87440334
_cell_angle_beta   89.85652600
_cell_angle_gamma   98.62053647
_symmetry_Int_Tables_number   1
_chemical_formula_structural   Gd5Ho(BiO7)2
_chemical_formula_sum   'Gd5 Ho1 Bi2 O14'
_cell_volume   318.99854254
_cell_formula_units_Z   1
loop_
 _symmetry_equiv_pos_site_id
 _symmetry_equiv_pos_as_xyz
  1  'x, y, z'
loop_
 _atom_site_type_symbol
 _atom_site_label
 _atom_site_symmetry_multiplicity
 _atom_site_fract_x
 _atom_site_fract_y
 _atom_site_fract_z
 _atom_site_occupancy
  Gd  Gd0  1  0.537778  0.994935  0.747365  1
  Gd  Gd1  1  0.269002  0.538286  0.883397  1
  Gd  Gd2  1  0.729544  0.462837  0.117736  1
  Gd  Gd3  1  0.735240  0.476187  0.612812  1
  Gd  Gd4  1  0.262536  0.521240  0.382393  1
  Ho  Ho5  1  0.462364  0.004638  0.252214  1
  Bi  Bi6  1  0.000472  0.000311  0.499203  1
  Bi  Bi7  1  0.000440  0.000279  0.001576  1
  O  O8  1  0.445358  0.651867  0.168201  1
  O  O9  1  0.555460  0.352468  0.833203  1
  O  O10  1  0.303113  0.926924  0.955745  1
  O  O11  1  0.698907  0.072778  0.051981  1
  O  O12  1  0.299645  0.926951  0.509213  1
  O  O13  1  0.701651  0.071934  0.482143  1
  O  O14  1  0.542376  0.358326  0.342815  1
  O  O15  1  0.452909  0.637086  0.654254  1
  O  O16  1  0.925805  0.667099  0.955738  1
  O  O17  1  0.074956  0.334102  0.046393  1
  O  O18  1  0.068682  0.345716  0.619093  1
  O  O19  1  0.927064  0.653293  0.383402  1
  O  O20  1  0.880724  0.910268  0.727106  1
  O  O21  1  0.125977  0.092473  0.274017  1
