# generated using pymatgen
data_Th3Si6IrPd19
_symmetry_space_group_name_H-M   'P 1'
_cell_length_a   8.79362828
_cell_length_b   8.79362859
_cell_length_c   8.79362716
_cell_angle_alpha   59.86491009
_cell_angle_beta   59.86490792
_cell_angle_gamma   59.86490814
_symmetry_Int_Tables_number   1
_chemical_formula_structural   Th3Si6IrPd19
_chemical_formula_sum   'Th3 Si6 Ir1 Pd19'
_cell_volume   479.35351922
_cell_formula_units_Z   1
loop_
 _symmetry_equiv_pos_site_id
 _symmetry_equiv_pos_as_xyz
  1  'x, y, z'
loop_
 _atom_site_type_symbol
 _atom_site_label
 _atom_site_symmetry_multiplicity
 _atom_site_fract_x
 _atom_site_fract_y
 _atom_site_fract_z
 _atom_site_occupancy
  Th  Th0  1  0.252743  0.252743  0.252743  1
  Th  Th1  1  0.749506  0.749506  0.749506  1
  Th  Th2  1  0.000180  0.000180  0.000180  1
  Si  Si3  1  0.725736  0.271024  0.271024  1
  Si  Si4  1  0.269253  0.731387  0.731387  1
  Si  Si5  1  0.271024  0.725736  0.271024  1
  Si  Si6  1  0.731387  0.269253  0.731387  1
  Si  Si7  1  0.271024  0.271024  0.725736  1
  Si  Si8  1  0.731387  0.731387  0.269253  1
  Ir  Ir9  1  0.383841  0.383841  0.383841  1
  Pd  Pd10  1  0.615491  0.615491  0.615491  1
  Pd  Pd11  1  0.383431  0.383431  0.848813  1
  Pd  Pd12  1  0.383431  0.848813  0.383431  1
  Pd  Pd13  1  0.617420  0.617420  0.151346  1
  Pd  Pd14  1  0.617420  0.151346  0.617420  1
  Pd  Pd15  1  0.848813  0.383431  0.383431  1
  Pd  Pd16  1  0.151346  0.617420  0.617420  1
  Pd  Pd17  1  0.346207  0.999154  0.999154  1
  Pd  Pd18  1  0.654253  0.999184  0.999184  1
  Pd  Pd19  1  0.998892  0.346278  0.654545  1
  Pd  Pd20  1  0.998892  0.654545  0.346278  1
  Pd  Pd21  1  0.999154  0.346207  0.999154  1
  Pd  Pd22  1  0.654545  0.998892  0.346278  1
  Pd  Pd23  1  0.999184  0.654253  0.999184  1
  Pd  Pd24  1  0.346278  0.998892  0.654545  1
  Pd  Pd25  1  0.999154  0.999154  0.346207  1
  Pd  Pd26  1  0.999184  0.999184  0.654253  1
  Pd  Pd27  1  0.654545  0.346278  0.998892  1
  Pd  Pd28  1  0.346278  0.654545  0.998892  1
