# generated using pymatgen
data_Dy16In4OsPt3
_symmetry_space_group_name_H-M   'P 1'
_cell_length_a   9.71867202
_cell_length_b   9.71867121
_cell_length_c   9.71867147
_cell_angle_alpha   59.85917836
_cell_angle_beta   59.85917027
_cell_angle_gamma   59.85917594
_symmetry_Int_Tables_number   1
_chemical_formula_structural   Dy16In4OsPt3
_chemical_formula_sum   'Dy16 In4 Os1 Pt3'
_cell_volume   647.01691245
_cell_formula_units_Z   1
loop_
 _symmetry_equiv_pos_site_id
 _symmetry_equiv_pos_as_xyz
  1  'x, y, z'
loop_
 _atom_site_type_symbol
 _atom_site_label
 _atom_site_symmetry_multiplicity
 _atom_site_fract_x
 _atom_site_fract_y
 _atom_site_fract_z
 _atom_site_occupancy
  Dy  Dy0  1  0.350920  0.350920  0.350920  1
  Dy  Dy1  1  0.348587  0.348587  0.950536  1
  Dy  Dy2  1  0.348587  0.950536  0.348587  1
  Dy  Dy3  1  0.950536  0.348587  0.348587  1
  Dy  Dy4  1  0.814215  0.189669  0.189669  1
  Dy  Dy5  1  0.190982  0.808820  0.808820  1
  Dy  Dy6  1  0.189669  0.814215  0.189669  1
  Dy  Dy7  1  0.808820  0.190982  0.808820  1
  Dy  Dy8  1  0.189669  0.189669  0.814215  1
  Dy  Dy9  1  0.808820  0.808820  0.190982  1
  Dy  Dy10  1  0.936029  0.562897  0.562897  1
  Dy  Dy11  1  0.556196  0.939744  0.939744  1
  Dy  Dy12  1  0.562897  0.936029  0.562897  1
  Dy  Dy13  1  0.939744  0.556195  0.939744  1
  Dy  Dy14  1  0.562897  0.562897  0.936029  1
  Dy  Dy15  1  0.939744  0.939744  0.556195  1
  In  In16  1  0.583312  0.583312  0.583312  1
  In  In17  1  0.582779  0.582779  0.251474  1
  In  In18  1  0.582779  0.251474  0.582779  1
  In  In19  1  0.251474  0.582779  0.582779  1
  Os  Os20  1  0.142085  0.142085  0.142085  1
  Pt  Pt21  1  0.142857  0.142857  0.573546  1
  Pt  Pt22  1  0.142857  0.573546  0.142857  1
  Pt  Pt23  1  0.573546  0.142857  0.142857  1
