# generated using pymatgen
data_Dy3Tm5CdHgPt2
_symmetry_space_group_name_H-M   'P 1'
_cell_length_a   9.58791874
_cell_length_b   9.58791825
_cell_length_c   9.58278600
_cell_angle_alpha   60.01770546
_cell_angle_beta   60.01770714
_cell_angle_gamma   60.10777727
_symmetry_Int_Tables_number   1
_chemical_formula_structural   Dy3Tm5CdHgPt2
_chemical_formula_sum   'Dy6 Tm10 Cd2 Hg2 Pt4'
_cell_volume   623.58308153
_cell_formula_units_Z   2
loop_
 _symmetry_equiv_pos_site_id
 _symmetry_equiv_pos_as_xyz
  1  'x, y, z'
loop_
 _atom_site_type_symbol
 _atom_site_label
 _atom_site_symmetry_multiplicity
 _atom_site_fract_x
 _atom_site_fract_y
 _atom_site_fract_z
 _atom_site_occupancy
  Dy  Dy0  1  0.935948  0.562635  0.563704  1
  Dy  Dy1  1  0.562635  0.935948  0.937713  1
  Dy  Dy2  1  0.562635  0.935948  0.563704  1
  Dy  Dy3  1  0.935948  0.562634  0.937713  1
  Dy  Dy4  1  0.563631  0.563631  0.936369  1
  Dy  Dy5  1  0.937646  0.937646  0.562353  1
  Tm  Tm6  1  0.352911  0.352911  0.350294  1
  Tm  Tm7  1  0.352911  0.352911  0.943886  1
  Tm  Tm8  1  0.356499  0.936293  0.353605  1
  Tm  Tm9  1  0.936293  0.356499  0.353605  1
  Tm  Tm10  1  0.811599  0.188169  0.189671  1
  Tm  Tm11  1  0.188169  0.811599  0.810562  1
  Tm  Tm12  1  0.188169  0.811599  0.189671  1
  Tm  Tm13  1  0.811599  0.188169  0.810562  1
  Tm  Tm14  1  0.189125  0.189125  0.810875  1
  Tm  Tm15  1  0.810926  0.810926  0.189074  1
  Cd  Cd16  1  0.580324  0.255793  0.581941  1
  Cd  Cd17  1  0.255793  0.580324  0.581941  1
  Hg  Hg18  1  0.584246  0.584246  0.586933  1
  Hg  Hg19  1  0.584246  0.584246  0.244574  1
  Pt  Pt20  1  0.143230  0.143230  0.145661  1
  Pt  Pt21  1  0.143230  0.143230  0.567882  1
  Pt  Pt22  1  0.141907  0.570384  0.143856  1
  Pt  Pt23  1  0.570384  0.141907  0.143856  1
