# generated using pymatgen
data_RbCe(SbAu)2
_symmetry_space_group_name_H-M   'P 1'
_cell_length_a   4.74195100
_cell_length_b   4.74195072
_cell_length_c   9.58410700
_cell_angle_alpha   90.00000000
_cell_angle_beta   90.00000000
_cell_angle_gamma   119.99999495
_symmetry_Int_Tables_number   1
_chemical_formula_structural   RbCe(SbAu)2
_chemical_formula_sum   'Rb1 Ce1 Sb2 Au2'
_cell_volume   186.63642465
_cell_formula_units_Z   1
loop_
 _symmetry_equiv_pos_site_id
 _symmetry_equiv_pos_as_xyz
  1  'x, y, z'
loop_
 _atom_site_type_symbol
 _atom_site_label
 _atom_site_symmetry_multiplicity
 _atom_site_fract_x
 _atom_site_fract_y
 _atom_site_fract_z
 _atom_site_occupancy
  Rb  Rb0  1  0.000000  0.000000  0.757941  1
  Ce  Ce1  1  0.000000  0.000000  0.257979  1
  Sb  Sb2  1  0.666667  0.333333  0.041648  1
  Sb  Sb3  1  0.333333  0.666667  0.474429  1
  Au  Au4  1  0.333333  0.666667  0.074604  1
  Au  Au5  1  0.666667  0.333333  0.441400  1
