# generated using pymatgen
data_Sm3Y(Rh2O7)2
_symmetry_space_group_name_H-M   'P 1'
_cell_length_a   7.29970070
_cell_length_b   7.29970098
_cell_length_c   7.29970051
_cell_angle_alpha   60.20086422
_cell_angle_beta   60.20086351
_cell_angle_gamma   60.20087089
_symmetry_Int_Tables_number   1
_chemical_formula_structural   Sm3Y(Rh2O7)2
_chemical_formula_sum   'Sm3 Y1 Rh4 O14'
_cell_volume   276.29371615
_cell_formula_units_Z   1
loop_
 _symmetry_equiv_pos_site_id
 _symmetry_equiv_pos_as_xyz
  1  'x, y, z'
loop_
 _atom_site_type_symbol
 _atom_site_label
 _atom_site_symmetry_multiplicity
 _atom_site_fract_x
 _atom_site_fract_y
 _atom_site_fract_z
 _atom_site_occupancy
  Sm  Sm0  1  0.500000  0.000000  0.500000  1
  Sm  Sm1  1  0.000000  0.500000  0.500000  1
  Sm  Sm2  1  0.500000  0.500000  0.000000  1
  Y  Y3  1  0.500000  0.500000  0.500000  1
  Rh  Rh4  1  0.000000  0.000000  0.000000  1
  Rh  Rh5  1  0.000000  0.500000  0.000000  1
  Rh  Rh6  1  0.500000  0.000000  0.000000  1
  Rh  Rh7  1  0.000000  0.000000  0.500000  1
  O  O8  1  0.622537  0.622537  0.622537  1
  O  O9  1  0.377463  0.377463  0.377463  1
  O  O10  1  0.915523  0.915523  0.334679  1
  O  O11  1  0.334679  0.915523  0.915523  1
  O  O12  1  0.915523  0.334679  0.915523  1
  O  O13  1  0.334325  0.334325  0.912952  1
  O  O14  1  0.912952  0.334325  0.334325  1
  O  O15  1  0.334325  0.912952  0.334325  1
  O  O16  1  0.084477  0.084477  0.665321  1
  O  O17  1  0.665321  0.084477  0.084477  1
  O  O18  1  0.084477  0.665321  0.084477  1
  O  O19  1  0.665675  0.665675  0.087048  1
  O  O20  1  0.087048  0.665675  0.665675  1
  O  O21  1  0.665675  0.087048  0.665675  1
