# generated using pymatgen
data_Lu12Rh3I16
_symmetry_space_group_name_H-M   'P 1'
_cell_length_a   9.48885064
_cell_length_b   12.17567678
_cell_length_c   12.86168078
_cell_angle_alpha   117.04899869
_cell_angle_beta   101.33246288
_cell_angle_gamma   100.90144047
_symmetry_Int_Tables_number   1
_chemical_formula_structural   Lu12Rh3I16
_chemical_formula_sum   'Lu12 Rh3 I16'
_cell_volume   1229.86254815
_cell_formula_units_Z   1
loop_
 _symmetry_equiv_pos_site_id
 _symmetry_equiv_pos_as_xyz
  1  'x, y, z'
loop_
 _atom_site_type_symbol
 _atom_site_label
 _atom_site_symmetry_multiplicity
 _atom_site_fract_x
 _atom_site_fract_y
 _atom_site_fract_z
 _atom_site_occupancy
  Lu  Lu0  1  0.084506  0.268654  0.356836  1
  Lu  Lu1  1  0.915464  0.731273  0.643132  1
  Lu  Lu2  1  0.783851  0.533599  0.329834  1
  Lu  Lu3  1  0.216087  0.466390  0.670218  1
  Lu  Lu4  1  0.273848  0.732158  0.642889  1
  Lu  Lu5  1  0.726127  0.267938  0.357147  1
  Lu  Lu6  1  0.141289  0.534175  0.329666  1
  Lu  Lu7  1  0.858738  0.465841  0.670314  1
  Lu  Lu8  1  0.404214  0.356309  0.270299  1
  Lu  Lu9  1  0.595834  0.643672  0.729690  1
  Lu  Lu10  1  0.460033  0.315012  0.520251  1
  Lu  Lu11  1  0.539979  0.684998  0.479729  1
  Rh  Rh12  1  0.000280  0.500131  0.500154  1
  Rh  Rh13  1  0.339478  0.499783  0.497834  1
  Rh  Rh14  1  0.660409  0.500159  0.502061  1
  I  I15  1  0.396634  0.745969  0.892770  1
  I  I16  1  0.603345  0.254015  0.107215  1
  I  I17  1  0.191357  0.972942  0.787389  1
  I  I18  1  0.808621  0.027038  0.212600  1
  I  I19  1  0.334444  0.087476  0.247673  1
  I  I20  1  0.665552  0.912520  0.752323  1
  I  I21  1  0.560232  0.435817  0.804347  1
  I  I22  1  0.439759  0.564180  0.195650  1
  I  I23  1  0.306351  0.833451  0.461554  1
  I  I24  1  0.693641  0.166544  0.538449  1
  I  I25  1  0.162817  0.166777  0.536265  1
  I  I26  1  0.837181  0.833221  0.463753  1
  I  I27  1  0.924998  0.577534  0.154667  1
  I  I28  1  0.074945  0.422418  0.845278  1
  I  I29  1  0.930476  0.744685  0.893189  1
  I  I30  1  0.069512  0.255321  0.106825  1
