# generated using pymatgen
data_Tb3YNp2O12
_symmetry_space_group_name_H-M   'P 1'
_cell_length_a   5.56320100
_cell_length_b   7.87365816
_cell_length_c   11.90530409
_cell_angle_alpha   73.92644203
_cell_angle_beta   90.00000000
_cell_angle_gamma   90.00000000
_symmetry_Int_Tables_number   1
_chemical_formula_structural   Tb3YNp2O12
_chemical_formula_sum   'Tb6 Y2 Np4 O24'
_cell_volume   501.09857965
_cell_formula_units_Z   2
loop_
 _symmetry_equiv_pos_site_id
 _symmetry_equiv_pos_as_xyz
  1  'x, y, z'
loop_
 _atom_site_type_symbol
 _atom_site_label
 _atom_site_symmetry_multiplicity
 _atom_site_fract_x
 _atom_site_fract_y
 _atom_site_fract_z
 _atom_site_occupancy
  Tb  Tb0  1  0.186319  0.794050  0.079177  1
  Tb  Tb1  1  0.255614  0.000000  0.750000  1
  Tb  Tb2  1  0.744315  0.000000  0.250000  1
  Tb  Tb3  1  0.303421  0.500000  0.750000  1
  Tb  Tb4  1  0.186319  0.205950  0.420823  1
  Tb  Tb5  1  0.696611  0.500000  0.250000  1
  Y  Y6  1  0.813577  0.206252  0.920588  1
  Y  Y7  1  0.813577  0.793748  0.579412  1
  Np  Np8  1  0.744263  0.721675  0.885976  1
  Np  Np9  1  0.255654  0.721694  0.386176  1
  Np  Np10  1  0.744263  0.278325  0.614024  1
  Np  Np11  1  0.255654  0.278306  0.113824  1
  O  O12  1  0.871499  0.371543  0.446307  1
  O  O13  1  0.448312  0.848168  0.931100  1
  O  O14  1  0.871499  0.628457  0.053693  1
  O  O15  1  0.034662  0.287732  0.732462  1
  O  O16  1  0.965378  0.287815  0.232370  1
  O  O17  1  0.128009  0.371343  0.946284  1
  O  O18  1  0.613128  0.482650  0.883400  1
  O  O19  1  0.552224  0.151812  0.068493  1
  O  O20  1  0.128009  0.628657  0.553716  1
  O  O21  1  0.034662  0.712268  0.767538  1
  O  O22  1  0.449750  0.199681  0.273138  1
  O  O23  1  0.045076  0.943948  0.395884  1
  O  O24  1  0.448312  0.151832  0.568900  1
  O  O25  1  0.965378  0.712185  0.267630  1
  O  O26  1  0.954735  0.055690  0.603999  1
  O  O27  1  0.550399  0.199580  0.773457  1
  O  O28  1  0.550399  0.800420  0.726543  1
  O  O29  1  0.045076  0.056052  0.104116  1
  O  O30  1  0.613128  0.517350  0.616600  1
  O  O31  1  0.387035  0.517150  0.116631  1
  O  O32  1  0.449750  0.800319  0.226862  1
  O  O33  1  0.387035  0.482850  0.383369  1
  O  O34  1  0.552224  0.848188  0.431507  1
  O  O35  1  0.954735  0.944310  0.896001  1
