# generated using pymatgen
data_Ho3Zr7Pb6
_symmetry_space_group_name_H-M   'P 1'
_cell_length_a   8.79192900
_cell_length_b   8.80032819
_cell_length_c   6.01689500
_cell_angle_alpha   90.00000000
_cell_angle_beta   90.00000000
_cell_angle_gamma   119.96844442
_symmetry_Int_Tables_number   1
_chemical_formula_structural   Ho3Zr7Pb6
_chemical_formula_sum   'Ho3 Zr7 Pb6'
_cell_volume   403.29618336
_cell_formula_units_Z   1
loop_
 _symmetry_equiv_pos_site_id
 _symmetry_equiv_pos_as_xyz
  1  'x, y, z'
loop_
 _atom_site_type_symbol
 _atom_site_label
 _atom_site_symmetry_multiplicity
 _atom_site_fract_x
 _atom_site_fract_y
 _atom_site_fract_z
 _atom_site_occupancy
  Ho  Ho0  1  0.760826  0.758210  0.250000  1
  Ho  Ho1  1  0.002616  0.241790  0.250000  1
  Ho  Ho2  1  0.760482  0.000000  0.750000  1
  Zr  Zr3  1  0.330887  0.666835  0.501229  1
  Zr  Zr4  1  0.244458  0.000000  0.250000  1
  Zr  Zr5  1  0.664053  0.333165  0.501229  1
  Zr  Zr6  1  0.002028  0.755627  0.750000  1
  Zr  Zr7  1  0.330887  0.666835  0.998771  1
  Zr  Zr8  1  0.246401  0.244373  0.750000  1
  Zr  Zr9  1  0.664053  0.333165  0.998771  1
  Pb  Pb10  1  0.606805  0.604927  0.750000  1
  Pb  Pb11  1  0.388499  0.000000  0.750000  1
  Pb  Pb12  1  0.600451  0.000000  0.250000  1
  Pb  Pb13  1  0.001878  0.395073  0.750000  1
  Pb  Pb14  1  0.393721  0.391768  0.250000  1
  Pb  Pb15  1  0.001954  0.608232  0.250000  1
