# generated using pymatgen
data_BaNaCrN3
_symmetry_space_group_name_H-M   'P 1'
_cell_length_a   6.42003594
_cell_length_b   6.42003595
_cell_length_c   12.82905200
_cell_angle_alpha   90.00000000
_cell_angle_beta   90.00000000
_cell_angle_gamma   126.83879141
_symmetry_Int_Tables_number   1
_chemical_formula_structural   BaNaCrN3
_chemical_formula_sum   'Ba4 Na4 Cr4 N12'
_cell_volume   423.19079035
_cell_formula_units_Z   4
loop_
 _symmetry_equiv_pos_site_id
 _symmetry_equiv_pos_as_xyz
  1  'x, y, z'
loop_
 _atom_site_type_symbol
 _atom_site_label
 _atom_site_symmetry_multiplicity
 _atom_site_fract_x
 _atom_site_fract_y
 _atom_site_fract_z
 _atom_site_occupancy
  Ba  Ba0  1  0.857618  0.142382  0.582273  1
  Ba  Ba1  1  0.142382  0.857618  0.417727  1
  Ba  Ba2  1  0.642382  0.357618  0.082273  1
  Ba  Ba3  1  0.357618  0.642382  0.917727  1
  Na  Na4  1  0.553017  0.446983  0.652877  1
  Na  Na5  1  0.446983  0.553017  0.347123  1
  Na  Na6  1  0.946983  0.053017  0.152877  1
  Na  Na7  1  0.053017  0.946983  0.847123  1
  Cr  Cr8  1  0.732305  0.267695  0.828888  1
  Cr  Cr9  1  0.267695  0.732305  0.171112  1
  Cr  Cr10  1  0.767695  0.232305  0.328888  1
  Cr  Cr11  1  0.232305  0.767695  0.671112  1
  N  N12  1  0.819873  0.180127  0.935784  1
  N  N13  1  0.180127  0.819873  0.064216  1
  N  N14  1  0.680127  0.319873  0.435784  1
  N  N15  1  0.319873  0.680127  0.564216  1
  N  N16  1  0.589702  0.410298  0.862799  1
  N  N17  1  0.410298  0.589702  0.137201  1
  N  N18  1  0.910298  0.089702  0.362799  1
  N  N19  1  0.089702  0.910298  0.637201  1
  N  N20  1  0.515841  0.984159  0.750000  1
  N  N21  1  0.984159  0.515841  0.250000  1
  N  N22  1  0.484159  0.015841  0.250000  1
  N  N23  1  0.015841  0.484159  0.750000  1
