# generated using pymatgen
data_Ho4ErTm7Ir4
_symmetry_space_group_name_H-M   'P 1'
_cell_length_a   6.31960127
_cell_length_b   7.21857297
_cell_length_c   9.09219202
_cell_angle_alpha   89.96280314
_cell_angle_beta   90.05692404
_cell_angle_gamma   90.02738244
_symmetry_Int_Tables_number   1
_chemical_formula_structural   Ho4ErTm7Ir4
_chemical_formula_sum   'Ho4 Er1 Tm7 Ir4'
_cell_volume   414.77184900
_cell_formula_units_Z   1
loop_
 _symmetry_equiv_pos_site_id
 _symmetry_equiv_pos_as_xyz
  1  'x, y, z'
loop_
 _atom_site_type_symbol
 _atom_site_label
 _atom_site_symmetry_multiplicity
 _atom_site_fract_x
 _atom_site_fract_y
 _atom_site_fract_z
 _atom_site_occupancy
  Ho  Ho0  1  0.870213  0.533154  0.250236  1
  Ho  Ho1  1  0.629825  0.033567  0.250053  1
  Ho  Ho2  1  0.129564  0.466437  0.749675  1
  Ho  Ho3  1  0.370556  0.966637  0.749758  1
  Er  Er4  1  0.328108  0.677615  0.062117  1
  Tm  Tm5  1  0.171608  0.177539  0.437925  1
  Tm  Tm6  1  0.671515  0.322490  0.561962  1
  Tm  Tm7  1  0.828430  0.822813  0.937378  1
  Tm  Tm8  1  0.671915  0.322525  0.937417  1
  Tm  Tm9  1  0.828718  0.822654  0.561969  1
  Tm  Tm10  1  0.328609  0.677329  0.438233  1
  Tm  Tm11  1  0.171531  0.177336  0.062462  1
  Ir  Ir12  1  0.045585  0.883253  0.250728  1
  Ir  Ir13  1  0.453444  0.382675  0.250600  1
  Ir  Ir14  1  0.953746  0.116991  0.750179  1
  Ir  Ir15  1  0.546634  0.616985  0.749308  1
