# generated using pymatgen
data_Tm5Hg2(PtPb)2
_symmetry_space_group_name_H-M   'P 1'
_cell_length_a   3.63172600
_cell_length_b   8.10248200
_cell_length_c   18.28648300
_cell_angle_alpha   90.00000000
_cell_angle_beta   90.00000000
_cell_angle_gamma   90.00000000
_symmetry_Int_Tables_number   1
_chemical_formula_structural   Tm5Hg2(PtPb)2
_chemical_formula_sum   'Tm10 Hg4 Pt4 Pb4'
_cell_volume   538.09794899
_cell_formula_units_Z   2
loop_
 _symmetry_equiv_pos_site_id
 _symmetry_equiv_pos_as_xyz
  1  'x, y, z'
loop_
 _atom_site_type_symbol
 _atom_site_label
 _atom_site_symmetry_multiplicity
 _atom_site_fract_x
 _atom_site_fract_y
 _atom_site_fract_z
 _atom_site_occupancy
  Tm  Tm0  1  0.000000  0.105124  0.413928  1
  Tm  Tm1  1  0.000000  0.894876  0.586072  1
  Tm  Tm2  1  0.000000  0.394876  0.913928  1
  Tm  Tm3  1  0.000000  0.605124  0.086072  1
  Tm  Tm4  1  0.000000  0.245640  0.216717  1
  Tm  Tm5  1  0.000000  0.754360  0.783283  1
  Tm  Tm6  1  0.000000  0.254360  0.716717  1
  Tm  Tm7  1  0.000000  0.745640  0.283283  1
  Tm  Tm8  1  0.000000  0.000000  0.000000  1
  Tm  Tm9  1  0.000000  0.500000  0.500000  1
  Hg  Hg10  1  0.500000  0.293319  0.061413  1
  Hg  Hg11  1  0.500000  0.706681  0.938587  1
  Hg  Hg12  1  0.500000  0.206681  0.561413  1
  Hg  Hg13  1  0.500000  0.793319  0.438587  1
  Pt  Pt14  1  0.500000  0.027843  0.302579  1
  Pt  Pt15  1  0.500000  0.972157  0.697421  1
  Pt  Pt16  1  0.500000  0.472157  0.802579  1
  Pt  Pt17  1  0.500000  0.527843  0.197421  1
  Pb  Pb18  1  0.500000  0.420573  0.354469  1
  Pb  Pb19  1  0.500000  0.579427  0.645531  1
  Pb  Pb20  1  0.500000  0.079427  0.854469  1
  Pb  Pb21  1  0.500000  0.920573  0.145531  1
