# generated using pymatgen
data_LaPa3(Al3Ir)6
_symmetry_space_group_name_H-M   'P 1'
_cell_length_a   7.63941381
_cell_length_b   7.62760601
_cell_length_c   9.44999500
_cell_angle_alpha   90.00000000
_cell_angle_beta   90.00000000
_cell_angle_gamma   119.57081746
_symmetry_Int_Tables_number   1
_chemical_formula_structural   LaPa3(Al3Ir)6
_chemical_formula_sum   'La1 Pa3 Al18 Ir6'
_cell_volume   478.93051054
_cell_formula_units_Z   1
loop_
 _symmetry_equiv_pos_site_id
 _symmetry_equiv_pos_as_xyz
  1  'x, y, z'
loop_
 _atom_site_type_symbol
 _atom_site_label
 _atom_site_symmetry_multiplicity
 _atom_site_fract_x
 _atom_site_fract_y
 _atom_site_fract_z
 _atom_site_occupancy
  La  La0  1  0.329859  0.004696  0.750000  1
  Pa  Pa1  1  0.995112  0.669359  0.250000  1
  Pa  Pa2  1  0.001523  0.328859  0.750000  1
  Pa  Pa3  1  0.674040  0.997949  0.250000  1
  Al  Al4  1  0.130634  0.130654  0.250000  1
  Al  Al5  1  0.868648  0.871536  0.750000  1
  Al  Al6  1  0.003697  0.335905  0.074752  1
  Al  Al7  1  0.997053  0.664387  0.926500  1
  Al  Al8  1  0.997053  0.664387  0.573500  1
  Al  Al9  1  0.335425  0.003037  0.423748  1
  Al  Al10  1  0.003697  0.335905  0.425248  1
  Al  Al11  1  0.664799  0.996834  0.573816  1
  Al  Al12  1  0.664799  0.996834  0.926184  1
  Al  Al13  1  0.335425  0.003037  0.076252  1
  Al  Al14  1  0.334481  0.335052  0.552097  1
  Al  Al15  1  0.664337  0.664163  0.447760  1
  Al  Al16  1  0.664337  0.664163  0.052240  1
  Al  Al17  1  0.334481  0.335052  0.947903  1
  Al  Al18  1  0.341326  0.548216  0.250000  1
  Al  Al19  1  0.663132  0.455111  0.750000  1
  Al  Al20  1  0.547121  0.341199  0.250000  1
  Al  Al21  1  0.450589  0.655638  0.750000  1
  Ir  Ir22  1  0.674218  0.328513  0.002092  1
  Ir  Ir23  1  0.327598  0.671763  0.002108  1
  Ir  Ir24  1  0.327598  0.671763  0.497892  1
  Ir  Ir25  1  0.674218  0.328513  0.497908  1
  Ir  Ir26  1  0.997403  0.998738  0.002702  1
  Ir  Ir27  1  0.997403  0.998738  0.497298  1
