# generated using pymatgen
data_Li4Pr2DySn4
_symmetry_space_group_name_H-M   'P 1'
_cell_length_a   8.80395308
_cell_length_b   8.80395285
_cell_length_c   8.80395279
_cell_angle_alpha   148.75668760
_cell_angle_beta   133.10053270
_cell_angle_gamma   57.43520635
_symmetry_Int_Tables_number   1
_chemical_formula_structural   Li4Pr2DySn4
_chemical_formula_sum   'Li4 Pr2 Dy1 Sn4'
_cell_volume   256.52203909
_cell_formula_units_Z   1
loop_
 _symmetry_equiv_pos_site_id
 _symmetry_equiv_pos_as_xyz
  1  'x, y, z'
loop_
 _atom_site_type_symbol
 _atom_site_label
 _atom_site_symmetry_multiplicity
 _atom_site_fract_x
 _atom_site_fract_y
 _atom_site_fract_z
 _atom_site_occupancy
  Li  Li0  1  0.638576  0.328566  0.310010  1
  Li  Li1  1  0.361424  0.671434  0.689990  1
  Li  Li2  1  0.018555  0.328566  0.689990  1
  Li  Li3  1  0.981445  0.671434  0.310010  1
  Pr  Pr4  1  0.369593  0.869593  0.500000  1
  Pr  Pr5  1  0.630407  0.130407  0.500000  1
  Dy  Dy6  1  0.000000  0.000000  0.000000  1
  Sn  Sn7  1  0.209949  0.209949  0.000000  1
  Sn  Sn8  1  0.790051  0.790051  0.000000  1
  Sn  Sn9  1  0.705184  0.500000  0.205184  1
  Sn  Sn10  1  0.294816  0.500000  0.794816  1
