# generated using pymatgen
data_Lu12Si12TcRh3
_symmetry_space_group_name_H-M   'P 1'
_cell_length_a   4.16593800
_cell_length_b   10.55837018
_cell_length_c   12.13401443
_cell_angle_alpha   90.12439012
_cell_angle_beta   90.00000000
_cell_angle_gamma   90.00000000
_symmetry_Int_Tables_number   1
_chemical_formula_structural   Lu12Si12TcRh3
_chemical_formula_sum   'Lu12 Si12 Tc1 Rh3'
_cell_volume   533.71962234
_cell_formula_units_Z   1
loop_
 _symmetry_equiv_pos_site_id
 _symmetry_equiv_pos_as_xyz
  1  'x, y, z'
loop_
 _atom_site_type_symbol
 _atom_site_label
 _atom_site_symmetry_multiplicity
 _atom_site_fract_x
 _atom_site_fract_y
 _atom_site_fract_z
 _atom_site_occupancy
  Lu  Lu0  1  0.250000  0.877934  0.020456  1
  Lu  Lu1  1  0.250000  0.620710  0.521333  1
  Lu  Lu2  1  0.750000  0.119201  0.979974  1
  Lu  Lu3  1  0.750000  0.378772  0.480414  1
  Lu  Lu4  1  0.250000  0.921983  0.602159  1
  Lu  Lu5  1  0.250000  0.579202  0.104258  1
  Lu  Lu6  1  0.750000  0.078493  0.395855  1
  Lu  Lu7  1  0.750000  0.421231  0.896105  1
  Lu  Lu8  1  0.250000  0.665579  0.799009  1
  Lu  Lu9  1  0.250000  0.839122  0.299770  1
  Lu  Lu10  1  0.750000  0.338978  0.199377  1
  Lu  Lu11  1  0.750000  0.159874  0.700604  1
  Si  Si12  1  0.250000  0.013770  0.822653  1
  Si  Si13  1  0.250000  0.484712  0.322501  1
  Si  Si14  1  0.750000  0.984601  0.177731  1
  Si  Si15  1  0.750000  0.515400  0.679313  1
  Si  Si16  1  0.250000  0.248813  0.842387  1
  Si  Si17  1  0.250000  0.250025  0.341605  1
  Si  Si18  1  0.750000  0.750751  0.158230  1
  Si  Si19  1  0.750000  0.752067  0.656916  1
  Si  Si20  1  0.250000  0.198293  0.543291  1
  Si  Si21  1  0.250000  0.301064  0.042921  1
  Si  Si22  1  0.750000  0.802679  0.456477  1
  Si  Si23  1  0.750000  0.695835  0.957131  1
  Tc  Tc24  1  0.250000  0.392688  0.679767  1
  Rh  Rh25  1  0.250000  0.108163  0.179285  1
  Rh  Rh26  1  0.750000  0.609568  0.320094  1
  Rh  Rh27  1  0.750000  0.890491  0.820382  1
