# generated using pymatgen
data_YbHo2U(Al3Ir)6
_symmetry_space_group_name_H-M   'P 1'
_cell_length_a   7.56375214
_cell_length_b   7.55671295
_cell_length_c   9.45327600
_cell_angle_alpha   90.00000000
_cell_angle_beta   90.00000000
_cell_angle_gamma   119.41109809
_symmetry_Int_Tables_number   1
_chemical_formula_structural   YbHo2U(Al3Ir)6
_chemical_formula_sum   'Yb1 Ho2 U1 Al18 Ir6'
_cell_volume   470.68449559
_cell_formula_units_Z   1
loop_
 _symmetry_equiv_pos_site_id
 _symmetry_equiv_pos_as_xyz
  1  'x, y, z'
loop_
 _atom_site_type_symbol
 _atom_site_label
 _atom_site_symmetry_multiplicity
 _atom_site_fract_x
 _atom_site_fract_y
 _atom_site_fract_z
 _atom_site_occupancy
  Yb  Yb0  1  0.673246  0.994414  0.250000  1
  Ho  Ho1  1  0.004442  0.328712  0.750000  1
  Ho  Ho2  1  0.328462  0.003482  0.750000  1
  U  U3  1  0.996036  0.673037  0.250000  1
  Al  Al4  1  0.133280  0.130961  0.250000  1
  Al  Al5  1  0.871895  0.872729  0.750000  1
  Al  Al6  1  0.000161  0.333528  0.075449  1
  Al  Al7  1  0.998353  0.664298  0.925731  1
  Al  Al8  1  0.998353  0.664298  0.574269  1
  Al  Al9  1  0.339046  0.002970  0.424498  1
  Al  Al10  1  0.000161  0.333528  0.424551  1
  Al  Al11  1  0.664847  0.999045  0.573590  1
  Al  Al12  1  0.664847  0.999045  0.926410  1
  Al  Al13  1  0.339046  0.002970  0.075502  1
  Al  Al14  1  0.332065  0.332228  0.552369  1
  Al  Al15  1  0.664147  0.666447  0.449710  1
  Al  Al16  1  0.664147  0.666447  0.050290  1
  Al  Al17  1  0.332065  0.332228  0.947631  1
  Al  Al18  1  0.337604  0.547975  0.250000  1
  Al  Al19  1  0.660097  0.449726  0.750000  1
  Al  Al20  1  0.549497  0.344046  0.250000  1
  Al  Al21  1  0.451403  0.661145  0.750000  1
  Ir  Ir22  1  0.672045  0.328788  0.000100  1
  Ir  Ir23  1  0.325855  0.670928  0.000298  1
  Ir  Ir24  1  0.325855  0.670928  0.499702  1
  Ir  Ir25  1  0.672045  0.328788  0.499900  1
  Ir  Ir26  1  0.000500  0.998654  0.001504  1
  Ir  Ir27  1  0.000500  0.998654  0.498496  1
