# generated using pymatgen
data_Hf4CrRe6W
_symmetry_space_group_name_H-M   'P 1'
_cell_length_a   5.26622333
_cell_length_b   5.24184851
_cell_length_c   8.61962000
_cell_angle_alpha   90.00000000
_cell_angle_beta   90.00000000
_cell_angle_gamma   119.62606460
_symmetry_Int_Tables_number   1
_chemical_formula_structural   Hf4CrRe6W
_chemical_formula_sum   'Hf4 Cr1 Re6 W1'
_cell_volume   206.83623304
_cell_formula_units_Z   1
loop_
 _symmetry_equiv_pos_site_id
 _symmetry_equiv_pos_as_xyz
  1  'x, y, z'
loop_
 _atom_site_type_symbol
 _atom_site_label
 _atom_site_symmetry_multiplicity
 _atom_site_fract_x
 _atom_site_fract_y
 _atom_site_fract_z
 _atom_site_occupancy
  Hf  Hf0  1  0.331107  0.666305  0.060037  1
  Hf  Hf1  1  0.667549  0.334616  0.563559  1
  Hf  Hf2  1  0.667549  0.334616  0.936441  1
  Hf  Hf3  1  0.331107  0.666305  0.439963  1
  Cr  Cr4  1  0.172716  0.830436  0.750000  1
  Re  Re5  1  0.003431  0.997239  0.992890  1
  Re  Re6  1  0.003431  0.997239  0.507110  1
  Re  Re7  1  0.651733  0.828583  0.750000  1
  Re  Re8  1  0.342204  0.169689  0.250000  1
  Re  Re9  1  0.828796  0.168666  0.250000  1
  Re  Re10  1  0.170512  0.346068  0.750000  1
  W  W11  1  0.829865  0.660239  0.250000  1
