# generated using pymatgen
data_Y3In2Ga3Ni
_symmetry_space_group_name_H-M   'P 1'
_cell_length_a   7.14580405
_cell_length_b   7.14580494
_cell_length_c   4.31314300
_cell_angle_alpha   90.00000000
_cell_angle_beta   90.00000000
_cell_angle_gamma   120.53558735
_symmetry_Int_Tables_number   1
_chemical_formula_structural   Y3In2Ga3Ni
_chemical_formula_sum   'Y3 In2 Ga3 Ni1'
_cell_volume   189.69570587
_cell_formula_units_Z   1
loop_
 _symmetry_equiv_pos_site_id
 _symmetry_equiv_pos_as_xyz
  1  'x, y, z'
loop_
 _atom_site_type_symbol
 _atom_site_label
 _atom_site_symmetry_multiplicity
 _atom_site_fract_x
 _atom_site_fract_y
 _atom_site_fract_z
 _atom_site_occupancy
  Y  Y0  1  0.596446  0.998487  0.000000  1
  Y  Y1  1  0.414510  0.414510  0.000000  1
  Y  Y2  1  0.998487  0.596447  0.000000  1
  In  In3  1  0.240648  0.997780  0.500000  1
  In  In4  1  0.997780  0.240647  0.500000  1
  Ga  Ga5  1  0.668527  0.343414  0.500000  1
  Ga  Ga6  1  0.343414  0.668527  0.500000  1
  Ga  Ga7  1  0.757918  0.757919  0.500000  1
  Ni  Ni8  1  0.982270  0.982270  0.000000  1
