# generated using pymatgen
data_ZnCd2Co3(AsO4)4
_symmetry_space_group_name_H-M   'P 1'
_cell_length_a   5.34157456
_cell_length_b   8.11631875
_cell_length_c   9.03913860
_cell_angle_alpha   89.94714233
_cell_angle_beta   89.84112637
_cell_angle_gamma   95.19509952
_symmetry_Int_Tables_number   1
_chemical_formula_structural   ZnCd2Co3(AsO4)4
_chemical_formula_sum   'Zn1 Cd2 Co3 As4 O16'
_cell_volume   390.27054180
_cell_formula_units_Z   1
loop_
 _symmetry_equiv_pos_site_id
 _symmetry_equiv_pos_as_xyz
  1  'x, y, z'
loop_
 _atom_site_type_symbol
 _atom_site_label
 _atom_site_symmetry_multiplicity
 _atom_site_fract_x
 _atom_site_fract_y
 _atom_site_fract_z
 _atom_site_occupancy
  Zn  Zn0  1  0.912749  0.391401  0.866638  1
  Cd  Cd1  1  0.999997  0.499902  0.500395  1
  Cd  Cd2  1  0.500282  0.000304  0.999650  1
  Co  Co3  1  0.091905  0.607128  0.135182  1
  Co  Co4  1  0.409559  0.893073  0.635279  1
  Co  Co5  1  0.590376  0.106443  0.365397  1
  As  As6  1  0.461056  0.298918  0.699713  1
  As  As7  1  0.960990  0.797456  0.799807  1
  As  As8  1  0.539328  0.701989  0.299339  1
  As  As9  1  0.039618  0.201918  0.201272  1
  O  O10  1  0.463185  0.134239  0.576709  1
  O  O11  1  0.961670  0.634683  0.924894  1
  O  O12  1  0.536635  0.865193  0.423885  1
  O  O13  1  0.040735  0.365773  0.076995  1
  O  O14  1  0.584970  0.246234  0.869460  1
  O  O15  1  0.084952  0.743848  0.630209  1
  O  O16  1  0.416448  0.755774  0.129726  1
  O  O17  1  0.915348  0.255316  0.370727  1
  O  O18  1  0.158726  0.355196  0.707927  1
  O  O19  1  0.661488  0.858132  0.793367  1
  O  O20  1  0.839364  0.642329  0.293023  1
  O  O21  1  0.339350  0.141806  0.207148  1
  O  O22  1  0.665709  0.464700  0.651835  1
  O  O23  1  0.174288  0.961422  0.842173  1
  O  O24  1  0.325259  0.538017  0.341671  1
  O  O25  1  0.826015  0.038806  0.157581  1
