# generated using pymatgen
data_Ce3Y13(CdIr)4
_symmetry_space_group_name_H-M   'P 1'
_cell_length_a   9.67777951
_cell_length_b   9.71974701
_cell_length_c   9.71974800
_cell_angle_alpha   59.99999664
_cell_angle_beta   59.85644303
_cell_angle_gamma   59.85644398
_symmetry_Int_Tables_number   1
_chemical_formula_structural   Ce3Y13(CdIr)4
_chemical_formula_sum   'Ce3 Y13 Cd4 Ir4'
_cell_volume   645.09683176
_cell_formula_units_Z   1
loop_
 _symmetry_equiv_pos_site_id
 _symmetry_equiv_pos_as_xyz
  1  'x, y, z'
loop_
 _atom_site_type_symbol
 _atom_site_label
 _atom_site_symmetry_multiplicity
 _atom_site_fract_x
 _atom_site_fract_y
 _atom_site_fract_z
 _atom_site_occupancy
  Ce  Ce0  1  0.345932  0.348596  0.348596  1
  Ce  Ce1  1  0.345932  0.348596  0.956876  1
  Ce  Ce2  1  0.345932  0.956876  0.348596  1
  Y  Y3  1  0.947137  0.350955  0.350955  1
  Y  Y4  1  0.811713  0.189280  0.189280  1
  Y  Y5  1  0.189361  0.811095  0.811095  1
  Y  Y6  1  0.189361  0.811095  0.188448  1
  Y  Y7  1  0.811713  0.189280  0.809727  1
  Y  Y8  1  0.189361  0.188448  0.811095  1
  Y  Y9  1  0.811713  0.809727  0.189280  1
  Y  Y10  1  0.937552  0.563161  0.563161  1
  Y  Y11  1  0.561912  0.937588  0.937588  1
  Y  Y12  1  0.561912  0.937588  0.562913  1
  Y  Y13  1  0.937552  0.563161  0.936125  1
  Y  Y14  1  0.561912  0.562913  0.937588  1
  Y  Y15  1  0.937552  0.936125  0.563161  1
  Cd  Cd16  1  0.581238  0.581511  0.581511  1
  Cd  Cd17  1  0.581238  0.581511  0.255740  1
  Cd  Cd18  1  0.581238  0.255740  0.581511  1
  Cd  Cd19  1  0.255190  0.581603  0.581603  1
  Ir  Ir20  1  0.148133  0.140424  0.140424  1
  Ir  Ir21  1  0.148133  0.140424  0.571020  1
  Ir  Ir22  1  0.148133  0.571020  0.140424  1
  Ir  Ir23  1  0.570150  0.143283  0.143283  1
