# generated using pymatgen
data_Y6Lu10Cd4Pt3Rh
_symmetry_space_group_name_H-M   'P 1'
_cell_length_a   9.56158317
_cell_length_b   9.56158352
_cell_length_c   9.56158304
_cell_angle_alpha   59.89479021
_cell_angle_beta   59.89478910
_cell_angle_gamma   59.89479298
_symmetry_Int_Tables_number   1
_chemical_formula_structural   Y6Lu10Cd4Pt3Rh
_chemical_formula_sum   'Y6 Lu10 Cd4 Pt3 Rh1'
_cell_volume   616.64691533
_cell_formula_units_Z   1
loop_
 _symmetry_equiv_pos_site_id
 _symmetry_equiv_pos_as_xyz
  1  'x, y, z'
loop_
 _atom_site_type_symbol
 _atom_site_label
 _atom_site_symmetry_multiplicity
 _atom_site_fract_x
 _atom_site_fract_y
 _atom_site_fract_z
 _atom_site_occupancy
  Y  Y0  1  0.937090  0.563103  0.563103  1
  Y  Y1  1  0.561889  0.937727  0.937727  1
  Y  Y2  1  0.563103  0.937090  0.563103  1
  Y  Y3  1  0.937727  0.561889  0.937727  1
  Y  Y4  1  0.563103  0.563103  0.937090  1
  Y  Y5  1  0.937727  0.937727  0.561889  1
  Lu  Lu6  1  0.351074  0.351074  0.351074  1
  Lu  Lu7  1  0.350878  0.350878  0.946715  1
  Lu  Lu8  1  0.350878  0.946715  0.350878  1
  Lu  Lu9  1  0.946715  0.350878  0.350878  1
  Lu  Lu10  1  0.813901  0.187819  0.187819  1
  Lu  Lu11  1  0.188011  0.811795  0.811795  1
  Lu  Lu12  1  0.187819  0.813901  0.187819  1
  Lu  Lu13  1  0.811795  0.188011  0.811795  1
  Lu  Lu14  1  0.187819  0.187819  0.813901  1
  Lu  Lu15  1  0.811795  0.811795  0.188011  1
  Cd  Cd16  1  0.580815  0.580815  0.580815  1
  Cd  Cd17  1  0.580909  0.580909  0.256604  1
  Cd  Cd18  1  0.580909  0.256604  0.580909  1
  Cd  Cd19  1  0.256604  0.580909  0.580909  1
  Pt  Pt20  1  0.142724  0.142724  0.571115  1
  Pt  Pt21  1  0.142724  0.571115  0.142724  1
  Pt  Pt22  1  0.571115  0.142724  0.142724  1
  Rh  Rh23  1  0.142880  0.142880  0.142880  1
