# generated using pymatgen
data_Lu8Ta3Ti4Si16Mo5
_symmetry_space_group_name_H-M   'P 1'
_cell_length_a   6.71525125
_cell_length_b   6.92786035
_cell_length_c   13.13165851
_cell_angle_alpha   90.03154918
_cell_angle_beta   89.91293735
_cell_angle_gamma   89.99530697
_symmetry_Int_Tables_number   1
_chemical_formula_structural   Lu8Ta3Ti4Si16Mo5
_chemical_formula_sum   'Lu8 Ta3 Ti4 Si16 Mo5'
_cell_volume   610.91445653
_cell_formula_units_Z   1
loop_
 _symmetry_equiv_pos_site_id
 _symmetry_equiv_pos_as_xyz
  1  'x, y, z'
loop_
 _atom_site_type_symbol
 _atom_site_label
 _atom_site_symmetry_multiplicity
 _atom_site_fract_x
 _atom_site_fract_y
 _atom_site_fract_z
 _atom_site_occupancy
  Lu  Lu0  1  0.501386  0.328818  0.095722  1
  Lu  Lu1  1  0.001199  0.172617  0.404104  1
  Lu  Lu2  1  0.499284  0.673357  0.594602  1
  Lu  Lu3  1  0.999570  0.828958  0.905572  1
  Lu  Lu4  1  0.497347  0.672070  0.904706  1
  Lu  Lu5  1  0.000241  0.829200  0.594181  1
  Lu  Lu6  1  0.501469  0.327762  0.405722  1
  Lu  Lu7  1  0.002448  0.173223  0.095926  1
  Ta  Ta8  1  0.836252  0.327406  0.625697  1
  Ta  Ta9  1  0.332013  0.171714  0.873267  1
  Ta  Ta10  1  0.167705  0.672080  0.125907  1
  Ti  Ti11  1  0.665516  0.829013  0.374178  1
  Ti  Ti12  1  0.169313  0.671126  0.375432  1
  Ti  Ti13  1  0.666404  0.827735  0.125935  1
  Ti  Ti14  1  0.832773  0.327816  0.873402  1
  Si  Si15  1  0.659639  0.036498  0.542132  1
  Si  Si16  1  0.162969  0.461947  0.958611  1
  Si  Si17  1  0.336415  0.962783  0.042121  1
  Si  Si18  1  0.836133  0.540312  0.457068  1
  Si  Si19  1  0.333978  0.959678  0.458280  1
  Si  Si20  1  0.834812  0.536841  0.041748  1
  Si  Si21  1  0.664691  0.037044  0.958606  1
  Si  Si22  1  0.167348  0.460530  0.541489  1
  Si  Si23  1  0.532959  0.377358  0.748094  1
  Si  Si24  1  0.036078  0.120660  0.750192  1
  Si  Si25  1  0.466241  0.622772  0.251391  1
  Si  Si26  1  0.963185  0.877231  0.251442  1
  Si  Si27  1  0.796707  0.632260  0.750045  1
  Si  Si28  1  0.299250  0.868481  0.749026  1
  Si  Si29  1  0.203702  0.369007  0.251112  1
  Si  Si30  1  0.702512  0.130561  0.250027  1
  Mo  Mo31  1  0.331097  0.169760  0.624578  1
  Mo  Mo32  1  0.663126  0.009269  0.749700  1
  Mo  Mo33  1  0.159120  0.492478  0.749563  1
  Mo  Mo34  1  0.338811  0.993758  0.250412  1
  Mo  Mo35  1  0.838307  0.507877  0.250009  1
