# generated using pymatgen
data_Rb2Zn(CO3)2
_symmetry_space_group_name_H-M   'P 1'
_cell_length_a   6.57953650
_cell_length_b   6.93896091
_cell_length_c   9.69294982
_cell_angle_alpha   99.25966635
_cell_angle_beta   70.15979795
_cell_angle_gamma   118.30083486
_symmetry_Int_Tables_number   1
_chemical_formula_structural   Rb2Zn(CO3)2
_chemical_formula_sum   'Rb4 Zn2 C4 O12'
_cell_volume   366.50951283
_cell_formula_units_Z   2
loop_
 _symmetry_equiv_pos_site_id
 _symmetry_equiv_pos_as_xyz
  1  'x, y, z'
loop_
 _atom_site_type_symbol
 _atom_site_label
 _atom_site_symmetry_multiplicity
 _atom_site_fract_x
 _atom_site_fract_y
 _atom_site_fract_z
 _atom_site_occupancy
  Rb  Rb0  1  0.671497  0.343630  0.100368  1
  Rb  Rb1  1  0.021866  0.843629  0.399632  1
  Rb  Rb2  1  0.577868  0.156371  0.600368  1
  Rb  Rb3  1  0.428235  0.656372  0.899633  1
  Zn  Zn4  1  0.981443  0.000000  0.000000  1
  Zn  Zn5  1  0.231444  0.500001  0.500000  1
  C  C6  1  0.092779  0.335769  0.246664  1
  C  C7  1  0.589444  0.835770  0.253337  1
  C  C8  1  0.007010  0.164230  0.746664  1
  C  C9  1  0.003673  0.664230  0.753336  1
  O  O10  1  0.140243  0.289497  0.106125  1
  O  O11  1  0.487299  0.884722  0.183304  1
  O  O12  1  0.800602  0.834789  0.186543  1
  O  O13  1  0.237145  0.334788  0.313457  1
  O  O14  1  0.920601  0.384721  0.316696  1
  O  O15  1  0.496367  0.789498  0.393875  1
  O  O16  1  0.100744  0.210503  0.606125  1
  O  O17  1  0.852576  0.615279  0.683304  1
  O  O18  1  0.215813  0.665212  0.686543  1
  O  O19  1  0.152356  0.165211  0.813457  1
  O  O20  1  0.785880  0.115278  0.816697  1
  O  O21  1  0.956869  0.710502  0.893875  1
