# generated using pymatgen
data_Ho4MgPb3N
_symmetry_space_group_name_H-M   'P 1'
_cell_length_a   9.28863364
_cell_length_b   9.28863428
_cell_length_c   9.28863500
_cell_angle_alpha   129.74400686
_cell_angle_beta   129.74401013
_cell_angle_gamma   73.81634985
_symmetry_Int_Tables_number   1
_chemical_formula_structural   Ho4MgPb3N
_chemical_formula_sum   'Ho8 Mg2 Pb6 N2'
_cell_volume   462.20368591
_cell_formula_units_Z   2
loop_
 _symmetry_equiv_pos_site_id
 _symmetry_equiv_pos_as_xyz
  1  'x, y, z'
loop_
 _atom_site_type_symbol
 _atom_site_label
 _atom_site_symmetry_multiplicity
 _atom_site_fract_x
 _atom_site_fract_y
 _atom_site_fract_z
 _atom_site_occupancy
  Ho  Ho0  1  0.995729  0.192642  0.500000  1
  Ho  Ho1  1  0.807358  0.307358  0.803088  1
  Ho  Ho2  1  0.495729  0.995729  0.803088  1
  Ho  Ho3  1  0.504271  0.004271  0.196912  1
  Ho  Ho4  1  0.004271  0.807358  0.500000  1
  Ho  Ho5  1  0.192642  0.692642  0.196912  1
  Ho  Ho6  1  0.692642  0.495729  0.500000  1
  Ho  Ho7  1  0.307358  0.504271  0.500000  1
  Mg  Mg8  1  0.500000  0.500000  0.000000  1
  Mg  Mg9  1  0.000000  0.000000  0.000000  1
  Pb  Pb10  1  0.857689  0.357689  0.215378  1
  Pb  Pb11  1  0.142311  0.642311  0.784622  1
  Pb  Pb12  1  0.357689  0.142311  0.500000  1
  Pb  Pb13  1  0.750000  0.750000  0.000000  1
  Pb  Pb14  1  0.642311  0.857689  0.500000  1
  Pb  Pb15  1  0.250000  0.250000  0.000000  1
  N  N16  1  0.750000  0.250000  0.500000  1
  N  N17  1  0.250000  0.750000  0.500000  1
