# generated using pymatgen
data_La2TmSn3Hg2
_symmetry_space_group_name_H-M   'P 1'
_cell_length_a   6.61310443
_cell_length_b   6.61310387
_cell_length_c   10.41684900
_cell_angle_alpha   90.00000000
_cell_angle_beta   90.00000000
_cell_angle_gamma   102.61182291
_symmetry_Int_Tables_number   1
_chemical_formula_structural   La2TmSn3Hg2
_chemical_formula_sum   'La4 Tm2 Sn6 Hg4'
_cell_volume   444.56966956
_cell_formula_units_Z   2
loop_
 _symmetry_equiv_pos_site_id
 _symmetry_equiv_pos_as_xyz
  1  'x, y, z'
loop_
 _atom_site_type_symbol
 _atom_site_label
 _atom_site_symmetry_multiplicity
 _atom_site_fract_x
 _atom_site_fract_y
 _atom_site_fract_z
 _atom_site_occupancy
  La  La0  1  0.205306  0.794694  0.500000  1
  La  La1  1  0.205306  0.794694  0.000000  1
  La  La2  1  0.794694  0.205306  0.500000  1
  La  La3  1  0.794694  0.205306  0.000000  1
  Tm  Tm4  1  0.632179  0.632179  0.250000  1
  Tm  Tm5  1  0.367821  0.367821  0.750000  1
  Sn  Sn6  1  0.015268  0.015268  0.250000  1
  Sn  Sn7  1  0.984732  0.984732  0.750000  1
  Sn  Sn8  1  0.489634  0.064941  0.250000  1
  Sn  Sn9  1  0.935059  0.510366  0.750000  1
  Sn  Sn10  1  0.510366  0.935059  0.750000  1
  Sn  Sn11  1  0.064941  0.489634  0.250000  1
  Hg  Hg12  1  0.317753  0.317753  0.041260  1
  Hg  Hg13  1  0.682247  0.682247  0.958740  1
  Hg  Hg14  1  0.317753  0.317753  0.458740  1
  Hg  Hg15  1  0.682247  0.682247  0.541260  1
