# generated using pymatgen
data_K8ZnFe7P8(O7F2)4
_symmetry_space_group_name_H-M   'P 1'
_cell_length_a   6.94419900
_cell_length_b   10.57902200
_cell_length_c   11.41415900
_cell_angle_alpha   90.00000000
_cell_angle_beta   90.00000000
_cell_angle_gamma   90.00000000
_symmetry_Int_Tables_number   1
_chemical_formula_structural   K8ZnFe7P8(O7F2)4
_chemical_formula_sum   'K8 Zn1 Fe7 P8 O28 F8'
_cell_volume   838.51646779
_cell_formula_units_Z   1
loop_
 _symmetry_equiv_pos_site_id
 _symmetry_equiv_pos_as_xyz
  1  'x, y, z'
loop_
 _atom_site_type_symbol
 _atom_site_label
 _atom_site_symmetry_multiplicity
 _atom_site_fract_x
 _atom_site_fract_y
 _atom_site_fract_z
 _atom_site_occupancy
  K  K0  1  0.500852  0.064508  0.826520  1
  K  K1  1  0.998265  0.565029  0.674308  1
  K  K2  1  0.000919  0.934385  0.674136  1
  K  K3  1  0.499142  0.435267  0.826205  1
  K  K4  1  0.499148  0.935492  0.173480  1
  K  K5  1  0.001735  0.434971  0.325692  1
  K  K6  1  0.999081  0.065615  0.325864  1
  K  K7  1  0.500858  0.564733  0.173795  1
  Zn  Zn8  1  0.000000  0.000000  0.000000  1
  Fe  Fe9  1  0.000626  0.249290  0.836118  1
  Fe  Fe10  1  0.499894  0.750015  0.664757  1
  Fe  Fe11  1  0.999374  0.750710  0.163882  1
  Fe  Fe12  1  0.500106  0.249985  0.335243  1
  Fe  Fe13  1  0.500000  0.500000  0.500000  1
  Fe  Fe14  1  0.500000  0.000000  0.500000  1
  Fe  Fe15  1  0.000000  0.500000  0.000000  1
  P  P16  1  0.217864  0.248244  0.579339  1
  P  P17  1  0.282278  0.749356  0.921185  1
  P  P18  1  0.718495  0.752803  0.921428  1
  P  P19  1  0.782370  0.251466  0.579557  1
  P  P20  1  0.782136  0.751756  0.420661  1
  P  P21  1  0.717722  0.250644  0.078815  1
  P  P22  1  0.281505  0.247197  0.078572  1
  P  P23  1  0.217630  0.748534  0.420443  1
  O  O24  1  0.000114  0.250190  0.521316  1
  O  O25  1  0.500070  0.750834  0.979224  1
  O  O26  1  0.999886  0.749810  0.478684  1
  O  O27  1  0.499930  0.249166  0.020776  1
  O  O28  1  0.173311  0.327505  0.986775  1
  O  O29  1  0.326484  0.828590  0.511900  1
  O  O30  1  0.673394  0.671360  0.511966  1
  O  O31  1  0.827405  0.169687  0.988102  1
  O  O32  1  0.826689  0.672495  0.013225  1
  O  O33  1  0.673516  0.171410  0.488100  1
  O  O34  1  0.326606  0.328640  0.488034  1
  O  O35  1  0.172595  0.830313  0.011898  1
  O  O36  1  0.279803  0.109270  0.583028  1
  O  O37  1  0.220467  0.610282  0.917573  1
  O  O38  1  0.779818  0.891787  0.916754  1
  O  O39  1  0.719943  0.390346  0.583587  1
  O  O40  1  0.720197  0.890730  0.416972  1
  O  O41  1  0.779533  0.389718  0.082427  1
  O  O42  1  0.220182  0.108213  0.083246  1
  O  O43  1  0.280057  0.609654  0.416413  1
  O  O44  1  0.205174  0.308354  0.701059  1
  O  O45  1  0.295428  0.809504  0.799599  1
  O  O46  1  0.705470  0.690933  0.800398  1
  O  O47  1  0.795970  0.190519  0.700846  1
  O  O48  1  0.794826  0.691646  0.298941  1
  O  O49  1  0.704572  0.190496  0.200401  1
  O  O50  1  0.294530  0.309067  0.199602  1
  O  O51  1  0.204030  0.809481  0.299154  1
  F  F52  1  0.111532  0.072876  0.846379  1
  F  F53  1  0.383407  0.576022  0.655270  1
  F  F54  1  0.616290  0.923845  0.655257  1
  F  F55  1  0.884151  0.423585  0.845413  1
  F  F56  1  0.888468  0.927124  0.153621  1
  F  F57  1  0.616593  0.423978  0.344730  1
  F  F58  1  0.383710  0.076155  0.344743  1
  F  F59  1  0.115849  0.576415  0.154587  1
