# generated using pymatgen
data_Ca2LaRuO6
_symmetry_space_group_name_H-M   'P 1'
_cell_length_a   5.92073101
_cell_length_b   5.63487514
_cell_length_c   9.94405150
_cell_angle_alpha   55.18286555
_cell_angle_beta   89.38903884
_cell_angle_gamma   90.00342490
_symmetry_Int_Tables_number   1
_chemical_formula_structural   Ca2LaRuO6
_chemical_formula_sum   'Ca4 La2 Ru2 O12'
_cell_volume   272.34405897
_cell_formula_units_Z   2
loop_
 _symmetry_equiv_pos_site_id
 _symmetry_equiv_pos_as_xyz
  1  'x, y, z'
loop_
 _atom_site_type_symbol
 _atom_site_label
 _atom_site_symmetry_multiplicity
 _atom_site_fract_x
 _atom_site_fract_y
 _atom_site_fract_z
 _atom_site_occupancy
  Ca  Ca0  1  0.553831  0.275134  0.742053  1
  Ca  Ca1  1  0.446169  0.724866  0.257947  1
  Ca  Ca2  1  0.500000  0.500000  0.000000  1
  Ca  Ca3  1  0.000000  0.500000  0.500000  1
  La  La4  1  0.059324  0.732900  0.752816  1
  La  La5  1  0.940676  0.267100  0.247184  1
  Ru  Ru6  1  0.500000  0.000000  0.500000  1
  Ru  Ru7  1  0.000000  0.000000  0.000000  1
  O  O8  1  0.454709  0.888165  0.728469  1
  O  O9  1  0.545291  0.111835  0.271531  1
  O  O10  1  0.942839  0.123714  0.771116  1
  O  O11  1  0.057161  0.876286  0.228884  1
  O  O12  1  0.782136  0.765565  0.561967  1
  O  O13  1  0.217864  0.234435  0.438033  1
  O  O14  1  0.275673  0.249148  0.926239  1
  O  O15  1  0.724327  0.750852  0.073761  1
  O  O16  1  0.315264  0.661432  0.558448  1
  O  O17  1  0.684736  0.338568  0.441552  1
  O  O18  1  0.824955  0.336162  0.958222  1
  O  O19  1  0.175045  0.663838  0.041778  1
