# generated using pymatgen
data_La16Cd4CoOs3
_symmetry_space_group_name_H-M   'P 1'
_cell_length_a   10.03699401
_cell_length_b   10.03699382
_cell_length_c   10.03699497
_cell_angle_alpha   60.59164775
_cell_angle_beta   60.59164980
_cell_angle_gamma   60.59164872
_symmetry_Int_Tables_number   1
_chemical_formula_structural   La16Cd4CoOs3
_chemical_formula_sum   'La16 Cd4 Co1 Os3'
_cell_volume   724.53796418
_cell_formula_units_Z   1
loop_
 _symmetry_equiv_pos_site_id
 _symmetry_equiv_pos_as_xyz
  1  'x, y, z'
loop_
 _atom_site_type_symbol
 _atom_site_label
 _atom_site_symmetry_multiplicity
 _atom_site_fract_x
 _atom_site_fract_y
 _atom_site_fract_z
 _atom_site_occupancy
  La  La0  1  0.941142  0.941142  0.557204  1
  La  La1  1  0.557446  0.937272  0.557446  1
  La  La2  1  0.557204  0.941142  0.941142  1
  La  La3  1  0.688552  0.688552  0.308764  1
  La  La4  1  0.156933  0.156933  0.537480  1
  La  La5  1  0.308764  0.688552  0.688552  1
  La  La6  1  0.156534  0.156534  0.156534  1
  La  La7  1  0.537480  0.156933  0.156933  1
  La  La8  1  0.309440  0.687054  0.309440  1
  La  La9  1  0.309440  0.309440  0.687054  1
  La  La10  1  0.688552  0.308764  0.688552  1
  La  La11  1  0.937272  0.557446  0.557446  1
  La  La12  1  0.557446  0.557446  0.937272  1
  La  La13  1  0.156933  0.537480  0.156933  1
  La  La14  1  0.687054  0.309440  0.309440  1
  La  La15  1  0.941142  0.557204  0.941142  1
  Cd  Cd16  1  0.236462  0.920667  0.920667  1
  Cd  Cd17  1  0.921644  0.921644  0.921644  1
  Cd  Cd18  1  0.920667  0.920667  0.236462  1
  Cd  Cd19  1  0.920667  0.236462  0.920667  1
  Co  Co20  1  0.362915  0.362915  0.362915  1
  Os  Os21  1  0.915759  0.365275  0.365275  1
  Os  Os22  1  0.365275  0.365275  0.915759  1
  Os  Os23  1  0.365275  0.915759  0.365275  1
