# generated using pymatgen
data_Pr2Lu3(GaSn)2
_symmetry_space_group_name_H-M   'P 1'
_cell_length_a   7.69008600
_cell_length_b   8.13628400
_cell_length_c   15.36205400
_cell_angle_alpha   90.00000000
_cell_angle_beta   90.00000000
_cell_angle_gamma   90.00000000
_symmetry_Int_Tables_number   1
_chemical_formula_structural   Pr2Lu3(GaSn)2
_chemical_formula_sum   'Pr8 Lu12 Ga8 Sn8'
_cell_volume   961.18411189
_cell_formula_units_Z   4
loop_
 _symmetry_equiv_pos_site_id
 _symmetry_equiv_pos_as_xyz
  1  'x, y, z'
loop_
 _atom_site_type_symbol
 _atom_site_label
 _atom_site_symmetry_multiplicity
 _atom_site_fract_x
 _atom_site_fract_y
 _atom_site_fract_z
 _atom_site_occupancy
  Pr  Pr0  1  0.502197  0.319248  0.900032  1
  Pr  Pr1  1  0.002197  0.180752  0.599968  1
  Pr  Pr2  1  0.497803  0.680752  0.400032  1
  Pr  Pr3  1  0.997803  0.819248  0.099968  1
  Pr  Pr4  1  0.497803  0.680752  0.099968  1
  Pr  Pr5  1  0.997803  0.819248  0.400032  1
  Pr  Pr6  1  0.502197  0.319248  0.599968  1
  Pr  Pr7  1  0.002197  0.180752  0.900032  1
  Lu  Lu8  1  0.338274  0.831097  0.867678  1
  Lu  Lu9  1  0.838274  0.668903  0.632322  1
  Lu  Lu10  1  0.661726  0.168903  0.367678  1
  Lu  Lu11  1  0.161726  0.331097  0.132322  1
  Lu  Lu12  1  0.661726  0.168903  0.132322  1
  Lu  Lu13  1  0.161726  0.331097  0.367678  1
  Lu  Lu14  1  0.338274  0.831097  0.632322  1
  Lu  Lu15  1  0.838274  0.668903  0.867678  1
  Lu  Lu16  1  0.180331  0.492402  0.750000  1
  Lu  Lu17  1  0.680331  0.007598  0.750000  1
  Lu  Lu18  1  0.819669  0.507598  0.250000  1
  Lu  Lu19  1  0.319669  0.992402  0.250000  1
  Ga  Ga20  1  0.541302  0.614178  0.750000  1
  Ga  Ga21  1  0.041302  0.885822  0.750000  1
  Ga  Ga22  1  0.458698  0.385822  0.250000  1
  Ga  Ga23  1  0.958698  0.114178  0.250000  1
  Ga  Ga24  1  0.294596  0.126351  0.750000  1
  Ga  Ga25  1  0.794596  0.373649  0.750000  1
  Ga  Ga26  1  0.705404  0.873649  0.250000  1
  Ga  Ga27  1  0.205404  0.626351  0.250000  1
  Sn  Sn28  1  0.322765  0.041382  0.038728  1
  Sn  Sn29  1  0.822765  0.458618  0.461272  1
  Sn  Sn30  1  0.677235  0.958618  0.538728  1
  Sn  Sn31  1  0.177235  0.541382  0.961272  1
  Sn  Sn32  1  0.677235  0.958618  0.961272  1
  Sn  Sn33  1  0.177235  0.541382  0.538728  1
  Sn  Sn34  1  0.322765  0.041382  0.461272  1
  Sn  Sn35  1  0.822765  0.458618  0.038728  1
