# generated using pymatgen
data_Tb2Ho4GaNiRu
_symmetry_space_group_name_H-M   'P 1'
_cell_length_a   8.33497053
_cell_length_b   8.33488849
_cell_length_c   8.33497149
_cell_angle_alpha   113.11544368
_cell_angle_beta   110.10683669
_cell_angle_gamma   105.28672720
_symmetry_Int_Tables_number   1
_chemical_formula_structural   Tb2Ho4GaNiRu
_chemical_formula_sum   'Tb4 Ho8 Ga2 Ni2 Ru2'
_cell_volume   443.64485403
_cell_formula_units_Z   2
loop_
 _symmetry_equiv_pos_site_id
 _symmetry_equiv_pos_as_xyz
  1  'x, y, z'
loop_
 _atom_site_type_symbol
 _atom_site_label
 _atom_site_symmetry_multiplicity
 _atom_site_fract_x
 _atom_site_fract_y
 _atom_site_fract_z
 _atom_site_occupancy
  Tb  Tb0  1  0.435778  0.242095  0.193686  1
  Tb  Tb1  1  0.564222  0.757905  0.806314  1
  Tb  Tb2  1  0.048409  0.242095  0.806317  1
  Tb  Tb3  1  0.951591  0.757905  0.193683  1
  Ho  Ho4  1  0.179530  0.279111  0.458636  1
  Ho  Ho5  1  0.820470  0.720889  0.541364  1
  Ho  Ho6  1  0.179526  0.720889  0.900420  1
  Ho  Ho7  1  0.820474  0.279111  0.099580  1
  Ho  Ho8  1  0.329736  0.642186  0.312451  1
  Ho  Ho9  1  0.670264  0.357814  0.687549  1
  Ho  Ho10  1  0.329733  0.017284  0.687551  1
  Ho  Ho11  1  0.670267  0.982716  0.312449  1
  Ga  Ga12  1  0.500000  0.500000  0.000000  1
  Ga  Ga13  1  0.000000  0.000000  0.000000  1
  Ni  Ni14  1  0.117285  0.617285  0.500001  1
  Ni  Ni15  1  0.882715  0.382715  0.499999  1
  Ru  Ru16  1  0.330041  0.000000  0.330041  1
  Ru  Ru17  1  0.669959  0.000000  0.669959  1
