# generated using pymatgen
data_Dy12GaFe4Sn
_symmetry_space_group_name_H-M   'P 1'
_cell_length_a   8.37332792
_cell_length_b   8.37332835
_cell_length_c   8.37332800
_cell_angle_alpha   110.88283654
_cell_angle_beta   110.58325725
_cell_angle_gamma   106.97615472
_symmetry_Int_Tables_number   1
_chemical_formula_structural   Dy12GaFe4Sn
_chemical_formula_sum   'Dy12 Ga1 Fe4 Sn1'
_cell_volume   451.28885717
_cell_formula_units_Z   1
loop_
 _symmetry_equiv_pos_site_id
 _symmetry_equiv_pos_as_xyz
  1  'x, y, z'
loop_
 _atom_site_type_symbol
 _atom_site_label
 _atom_site_symmetry_multiplicity
 _atom_site_fract_x
 _atom_site_fract_y
 _atom_site_fract_z
 _atom_site_occupancy
  Dy  Dy0  1  0.310954  0.611165  0.300209  1
  Dy  Dy1  1  0.689046  0.388836  0.699791  1
  Dy  Dy2  1  0.310954  0.010745  0.699791  1
  Dy  Dy3  1  0.689046  0.989255  0.300209  1
  Dy  Dy4  1  0.430965  0.222916  0.208049  1
  Dy  Dy5  1  0.569035  0.777084  0.791951  1
  Dy  Dy6  1  0.014867  0.222916  0.791951  1
  Dy  Dy7  1  0.985133  0.777084  0.208049  1
  Dy  Dy8  1  0.187007  0.287711  0.474718  1
  Dy  Dy9  1  0.812993  0.712289  0.525282  1
  Dy  Dy10  1  0.187007  0.712289  0.899296  1
  Dy  Dy11  1  0.812993  0.287711  0.100704  1
  Ga  Ga12  1  0.000000  0.000000  0.000000  1
  Fe  Fe13  1  0.107748  0.607748  0.500000  1
  Fe  Fe14  1  0.892253  0.392253  0.500000  1
  Fe  Fe15  1  0.386180  0.000000  0.386180  1
  Fe  Fe16  1  0.613820  0.000000  0.613820  1
  Sn  Sn17  1  0.500000  0.500000  0.000000  1
