# generated using pymatgen
data_Hf5Mg(TaB5)4
_symmetry_space_group_name_H-M   'P 1'
_cell_length_a   6.21657323
_cell_length_b   7.08442620
_cell_length_c   7.50011100
_cell_angle_alpha   94.21500566
_cell_angle_beta   101.99415572
_cell_angle_gamma   115.96780521
_symmetry_Int_Tables_number   1
_chemical_formula_structural   Hf5Mg(TaB5)4
_chemical_formula_sum   'Hf5 Mg1 Ta4 B20'
_cell_volume   285.35328869
_cell_formula_units_Z   1
loop_
 _symmetry_equiv_pos_site_id
 _symmetry_equiv_pos_as_xyz
  1  'x, y, z'
loop_
 _atom_site_type_symbol
 _atom_site_label
 _atom_site_symmetry_multiplicity
 _atom_site_fract_x
 _atom_site_fract_y
 _atom_site_fract_z
 _atom_site_occupancy
  Hf  Hf0  1  0.501064  0.801341  0.399956  1
  Hf  Hf1  1  0.000537  0.399021  0.199134  1
  Hf  Hf2  1  0.500032  0.199226  0.600779  1
  Hf  Hf3  1  0.998859  0.798764  0.400505  1
  Hf  Hf4  1  0.500727  0.599532  0.800692  1
  Mg  Mg5  1  0.999757  0.000112  0.000991  1
  Ta  Ta6  1  0.500145  0.000066  0.999191  1
  Ta  Ta7  1  0.498696  0.399920  0.199476  1
  Ta  Ta8  1  0.000516  0.201882  0.599725  1
  Ta  Ta9  1  0.998358  0.600401  0.799999  1
  B  B10  1  0.332141  0.231530  0.869161  1
  B  B11  1  0.333132  0.633351  0.065882  1
  B  B12  1  0.165064  0.363281  0.935013  1
  B  B13  1  0.332874  0.034750  0.263679  1
  B  B14  1  0.166158  0.768127  0.129333  1
  B  B15  1  0.835559  0.232013  0.869104  1
  B  B16  1  0.165555  0.166453  0.329818  1
  B  B17  1  0.833815  0.635696  0.063791  1
  B  B18  1  0.333242  0.432141  0.466095  1
  B  B19  1  0.666237  0.366275  0.933324  1
  B  B20  1  0.833958  0.034452  0.263566  1
  B  B21  1  0.667050  0.768204  0.130078  1
  B  B22  1  0.333575  0.834630  0.668566  1
  B  B23  1  0.165873  0.565967  0.533347  1
  B  B24  1  0.665834  0.166310  0.332281  1
  B  B25  1  0.833104  0.432410  0.466818  1
  B  B26  1  0.166237  0.966837  0.737208  1
  B  B27  1  0.835442  0.834429  0.671102  1
  B  B28  1  0.667397  0.566264  0.534609  1
  B  B29  1  0.669062  0.966617  0.736777  1
