# generated using pymatgen
data_TbPrNb3P7Rh9
_symmetry_space_group_name_H-M   'P 1'
_cell_length_a   3.94163000
_cell_length_b   9.69647923
_cell_length_c   9.69830202
_cell_angle_alpha   119.98520193
_cell_angle_beta   89.99804369
_cell_angle_gamma   89.99964218
_symmetry_Int_Tables_number   1
_chemical_formula_structural   TbPrNb3P7Rh9
_chemical_formula_sum   'Tb1 Pr1 Nb3 P7 Rh9'
_cell_volume   321.05615707
_cell_formula_units_Z   1
loop_
 _symmetry_equiv_pos_site_id
 _symmetry_equiv_pos_as_xyz
  1  'x, y, z'
loop_
 _atom_site_type_symbol
 _atom_site_label
 _atom_site_symmetry_multiplicity
 _atom_site_fract_x
 _atom_site_fract_y
 _atom_site_fract_z
 _atom_site_occupancy
  Tb  Tb0  1  0.762056  0.333276  0.666606  1
  Pr  Pr1  1  0.261670  0.666784  0.333507  1
  Nb  Nb2  1  0.761998  0.095691  0.875662  1
  Nb  Nb3  1  0.761994  0.124173  0.220144  1
  Nb  Nb4  1  0.761996  0.779696  0.904147  1
  P  P5  1  0.262177  0.000000  0.999947  1
  P  P6  1  0.761788  0.881803  0.594159  1
  P  P7  1  0.761782  0.405882  0.287451  1
  P  P8  1  0.761776  0.712384  0.118330  1
  P  P9  1  0.262133  0.116094  0.416275  1
  P  P10  1  0.262153  0.583835  0.699829  1
  P  P11  1  0.262135  0.300369  0.884037  1
  Rh  Rh12  1  0.261878  0.883828  0.162022  1
  Rh  Rh13  1  0.261884  0.838088  0.721680  1
  Rh  Rh14  1  0.261885  0.278266  0.116492  1
  Rh  Rh15  1  0.761832  0.609082  0.560533  1
  Rh  Rh16  1  0.761827  0.439241  0.048389  1
  Rh  Rh17  1  0.761826  0.951363  0.390790  1
  Rh  Rh18  1  0.261735  0.366405  0.438539  1
  Rh  Rh19  1  0.261738  0.561594  0.927769  1
  Rh  Rh20  1  0.261738  0.072149  0.633690  1
