# generated using pymatgen
data_CeDy3TiAl3Ir4
_symmetry_space_group_name_H-M   'P 1'
_cell_length_a   6.96012519
_cell_length_b   4.26683800
_cell_length_c   7.95519246
_cell_angle_alpha   90.00000000
_cell_angle_beta   90.67760204
_cell_angle_gamma   90.00000000
_symmetry_Int_Tables_number   1
_chemical_formula_structural   CeDy3TiAl3Ir4
_chemical_formula_sum   'Ce1 Dy3 Ti1 Al3 Ir4'
_cell_volume   236.23460972
_cell_formula_units_Z   1
loop_
 _symmetry_equiv_pos_site_id
 _symmetry_equiv_pos_as_xyz
  1  'x, y, z'
loop_
 _atom_site_type_symbol
 _atom_site_label
 _atom_site_symmetry_multiplicity
 _atom_site_fract_x
 _atom_site_fract_y
 _atom_site_fract_z
 _atom_site_occupancy
  Ce  Ce0  1  0.528553  0.750000  0.681281  1
  Dy  Dy1  1  0.965785  0.250000  0.174907  1
  Dy  Dy2  1  0.462702  0.250000  0.313234  1
  Dy  Dy3  1  0.034408  0.750000  0.826165  1
  Ti  Ti4  1  0.882649  0.250000  0.562588  1
  Al  Al5  1  0.356043  0.250000  0.940442  1
  Al  Al6  1  0.139371  0.750000  0.435686  1
  Al  Al7  1  0.637513  0.750000  0.064456  1
  Ir  Ir8  1  0.726738  0.250000  0.871203  1
  Ir  Ir9  1  0.233904  0.250000  0.619863  1
  Ir  Ir10  1  0.265840  0.750000  0.119779  1
  Ir  Ir11  1  0.766496  0.750000  0.390394  1
