# generated using pymatgen
data_Dy5Y3(HoBi)12
_symmetry_space_group_name_H-M   'P 1'
_cell_length_a   8.24937504
_cell_length_b   9.50318500
_cell_length_c   12.05961906
_cell_angle_alpha   90.00000000
_cell_angle_beta   89.98842765
_cell_angle_gamma   90.00000000
_symmetry_Int_Tables_number   1
_chemical_formula_structural   Dy5Y3(HoBi)12
_chemical_formula_sum   'Dy5 Y3 Ho12 Bi12'
_cell_volume   945.41788305
_cell_formula_units_Z   1
loop_
 _symmetry_equiv_pos_site_id
 _symmetry_equiv_pos_as_xyz
  1  'x, y, z'
loop_
 _atom_site_type_symbol
 _atom_site_label
 _atom_site_symmetry_multiplicity
 _atom_site_fract_x
 _atom_site_fract_y
 _atom_site_fract_z
 _atom_site_occupancy
  Dy  Dy0  1  0.186366  0.750000  0.718967  1
  Dy  Dy1  1  0.686328  0.750000  0.781026  1
  Dy  Dy2  1  0.813648  0.250000  0.281043  1
  Dy  Dy3  1  0.313647  0.250000  0.218971  1
  Dy  Dy4  1  0.353916  0.750000  0.215578  1
  Y  Y5  1  0.853817  0.750000  0.284633  1
  Y  Y6  1  0.646192  0.250000  0.784644  1
  Y  Y7  1  0.146171  0.250000  0.715351  1
  Ho  Ho8  1  0.025948  0.750000  0.988779  1
  Ho  Ho9  1  0.525947  0.750000  0.511212  1
  Ho  Ho10  1  0.974053  0.250000  0.011231  1
  Ho  Ho11  1  0.474083  0.250000  0.488755  1
  Ho  Ho12  1  0.306305  0.436535  0.940286  1
  Ho  Ho13  1  0.806303  0.063496  0.559723  1
  Ho  Ho14  1  0.693610  0.936520  0.059718  1
  Ho  Ho15  1  0.193734  0.563510  0.440191  1
  Ho  Ho16  1  0.693610  0.563480  0.059718  1
  Ho  Ho17  1  0.193734  0.936490  0.440191  1
  Ho  Ho18  1  0.306305  0.063465  0.940286  1
  Ho  Ho19  1  0.806303  0.436504  0.559723  1
  Bi  Bi20  1  0.433516  0.003670  0.673491  1
  Bi  Bi21  1  0.933511  0.496341  0.826518  1
  Bi  Bi22  1  0.566396  0.503761  0.326463  1
  Bi  Bi23  1  0.066609  0.996241  0.173485  1
  Bi  Bi24  1  0.566396  0.996239  0.326463  1
  Bi  Bi25  1  0.066609  0.503759  0.173485  1
  Bi  Bi26  1  0.433516  0.496330  0.673491  1
  Bi  Bi27  1  0.933511  0.003659  0.826518  1
  Bi  Bi28  1  0.409030  0.750000  0.957984  1
  Bi  Bi29  1  0.909110  0.750000  0.542060  1
  Bi  Bi30  1  0.590868  0.250000  0.042043  1
  Bi  Bi31  1  0.090909  0.250000  0.457975  1
