# generated using pymatgen
data_TbTm2AlSi2Ag3
_symmetry_space_group_name_H-M   'P 1'
_cell_length_a   7.10613331
_cell_length_b   7.10613198
_cell_length_c   4.18682600
_cell_angle_alpha   90.00000000
_cell_angle_beta   90.00000000
_cell_angle_gamma   120.28262745
_symmetry_Int_Tables_number   1
_chemical_formula_structural   TbTm2AlSi2Ag3
_chemical_formula_sum   'Tb1 Tm2 Al1 Si2 Ag3'
_cell_volume   182.57371816
_cell_formula_units_Z   1
loop_
 _symmetry_equiv_pos_site_id
 _symmetry_equiv_pos_as_xyz
  1  'x, y, z'
loop_
 _atom_site_type_symbol
 _atom_site_label
 _atom_site_symmetry_multiplicity
 _atom_site_fract_x
 _atom_site_fract_y
 _atom_site_fract_z
 _atom_site_occupancy
  Tb  Tb0  1  0.429927  0.429927  0.500000  1
  Tm  Tm1  1  0.569946  0.001244  0.500000  1
  Tm  Tm2  1  0.001244  0.569946  0.500000  1
  Al  Al3  1  0.997164  0.997164  0.500000  1
  Si  Si4  1  0.668555  0.333213  0.000000  1
  Si  Si5  1  0.333213  0.668555  0.000000  1
  Ag  Ag6  1  0.752701  0.752701  0.000000  1
  Ag  Ag7  1  0.249025  0.998223  0.000000  1
  Ag  Ag8  1  0.998223  0.249025  0.000000  1
