# generated using pymatgen
data_KZn3(In3Ir)2
_symmetry_space_group_name_H-M   'P 1'
_cell_length_a   8.74617700
_cell_length_b   8.74617548
_cell_length_c   4.13870500
_cell_angle_alpha   90.00000000
_cell_angle_beta   90.00000000
_cell_angle_gamma   120.00000197
_symmetry_Int_Tables_number   1
_chemical_formula_structural   KZn3(In3Ir)2
_chemical_formula_sum   'K1 Zn3 In6 Ir2'
_cell_volume   274.17733036
_cell_formula_units_Z   1
loop_
 _symmetry_equiv_pos_site_id
 _symmetry_equiv_pos_as_xyz
  1  'x, y, z'
loop_
 _atom_site_type_symbol
 _atom_site_label
 _atom_site_symmetry_multiplicity
 _atom_site_fract_x
 _atom_site_fract_y
 _atom_site_fract_z
 _atom_site_occupancy
  K  K0  1  0.000000  0.000000  0.000000  1
  Zn  Zn1  1  0.000000  0.500000  0.000000  1
  Zn  Zn2  1  0.500000  0.500000  0.000000  1
  Zn  Zn3  1  0.500000  0.000000  0.000000  1
  In  In4  1  0.588902  0.794451  0.500000  1
  In  In5  1  0.205549  0.794451  0.500000  1
  In  In6  1  0.205549  0.411098  0.500000  1
  In  In7  1  0.794451  0.588902  0.500000  1
  In  In8  1  0.794451  0.205549  0.500000  1
  In  In9  1  0.411098  0.205549  0.500000  1
  Ir  Ir10  1  0.333333  0.666667  0.000000  1
  Ir  Ir11  1  0.666667  0.333333  0.000000  1
