# generated using pymatgen
data_Ho2Tm6Cd2OsPt
_symmetry_space_group_name_H-M   'P 1'
_cell_length_a   9.55594001
_cell_length_b   9.55427599
_cell_length_c   9.62239615
_cell_angle_alpha   59.77534248
_cell_angle_beta   59.75821381
_cell_angle_gamma   59.52164515
_symmetry_Int_Tables_number   1
_chemical_formula_structural   Ho2Tm6Cd2OsPt
_chemical_formula_sum   'Ho4 Tm12 Cd4 Os2 Pt2'
_cell_volume   616.75945899
_cell_formula_units_Z   2
loop_
 _symmetry_equiv_pos_site_id
 _symmetry_equiv_pos_as_xyz
  1  'x, y, z'
loop_
 _atom_site_type_symbol
 _atom_site_label
 _atom_site_symmetry_multiplicity
 _atom_site_fract_x
 _atom_site_fract_y
 _atom_site_fract_z
 _atom_site_occupancy
  Ho  Ho0  1  0.806520  0.188469  0.816735  1
  Ho  Ho1  1  0.188469  0.806520  0.188276  1
  Ho  Ho2  1  0.814281  0.814281  0.185719  1
  Ho  Ho3  1  0.190380  0.190380  0.809620  1
  Tm  Tm4  1  0.599939  0.600050  0.601405  1
  Tm  Tm5  1  0.600050  0.599939  0.198606  1
  Tm  Tm6  1  0.596782  0.204241  0.599384  1
  Tm  Tm7  1  0.204241  0.596782  0.599593  1
  Tm  Tm8  1  0.064631  0.437681  0.440446  1
  Tm  Tm9  1  0.437681  0.064631  0.057241  1
  Tm  Tm10  1  0.437685  0.064676  0.440526  1
  Tm  Tm11  1  0.064676  0.437685  0.057112  1
  Tm  Tm12  1  0.438129  0.438129  0.061871  1
  Tm  Tm13  1  0.058423  0.058423  0.441577  1
  Tm  Tm14  1  0.188743  0.806203  0.816497  1
  Tm  Tm15  1  0.806203  0.188743  0.188557  1
  Cd  Cd16  1  0.830056  0.829785  0.831721  1
  Cd  Cd17  1  0.829785  0.830056  0.508437  1
  Cd  Cd18  1  0.830677  0.505094  0.832228  1
  Cd  Cd19  1  0.505094  0.830677  0.832001  1
  Os  Os20  1  0.394566  0.394292  0.387830  1
  Os  Os21  1  0.394292  0.394566  0.823313  1
  Pt  Pt22  1  0.394017  0.824677  0.390738  1
  Pt  Pt23  1  0.824677  0.394017  0.390567  1
