# generated using pymatgen
data_La3ZnNi2Ir
_symmetry_space_group_name_H-M   'P 1'
_cell_length_a   5.73647269
_cell_length_b   5.73647257
_cell_length_c   13.35483100
_cell_angle_alpha   90.00000000
_cell_angle_beta   90.00000000
_cell_angle_gamma   136.16665856
_symmetry_Int_Tables_number   1
_chemical_formula_structural   La3ZnNi2Ir
_chemical_formula_sum   'La6 Zn2 Ni4 Ir2'
_cell_volume   304.35999789
_cell_formula_units_Z   2
loop_
 _symmetry_equiv_pos_site_id
 _symmetry_equiv_pos_as_xyz
  1  'x, y, z'
loop_
 _atom_site_type_symbol
 _atom_site_label
 _atom_site_symmetry_multiplicity
 _atom_site_fract_x
 _atom_site_fract_y
 _atom_site_fract_z
 _atom_site_occupancy
  La  La0  1  0.288006  0.711994  0.394843  1
  La  La1  1  0.711994  0.288006  0.605157  1
  La  La2  1  0.992387  0.007613  0.750000  1
  La  La3  1  0.007613  0.992387  0.250000  1
  La  La4  1  0.711994  0.288006  0.894843  1
  La  La5  1  0.288006  0.711994  0.105157  1
  Zn  Zn6  1  0.000000  0.000000  0.500000  1
  Zn  Zn7  1  0.000000  0.000000  0.000000  1
  Ni  Ni8  1  0.431232  0.568768  0.915260  1
  Ni  Ni9  1  0.568768  0.431232  0.084740  1
  Ni  Ni10  1  0.568768  0.431232  0.415260  1
  Ni  Ni11  1  0.431232  0.568768  0.584740  1
  Ir  Ir12  1  0.723551  0.276449  0.250000  1
  Ir  Ir13  1  0.276449  0.723551  0.750000  1
