# generated using pymatgen
data_LaMn(InIr4)2
_symmetry_space_group_name_H-M   'P 1'
_cell_length_a   8.83471500
_cell_length_b   8.83471500
_cell_length_c   5.27500200
_cell_angle_alpha   90.00000000
_cell_angle_beta   90.00000000
_cell_angle_gamma   90.00000000
_symmetry_Int_Tables_number   1
_chemical_formula_structural   LaMn(InIr4)2
_chemical_formula_sum   'La2 Mn2 In4 Ir16'
_cell_volume   411.72545377
_cell_formula_units_Z   2
loop_
 _symmetry_equiv_pos_site_id
 _symmetry_equiv_pos_as_xyz
  1  'x, y, z'
loop_
 _atom_site_type_symbol
 _atom_site_label
 _atom_site_symmetry_multiplicity
 _atom_site_fract_x
 _atom_site_fract_y
 _atom_site_fract_z
 _atom_site_occupancy
  La  La0  1  0.000000  0.000000  0.000000  1
  La  La1  1  0.500000  0.500000  0.000000  1
  Mn  Mn2  1  0.500000  0.000000  0.500000  1
  Mn  Mn3  1  0.000000  0.500000  0.500000  1
  In  In4  1  0.123882  0.623882  0.000000  1
  In  In5  1  0.876118  0.376118  0.000000  1
  In  In6  1  0.623882  0.876118  0.000000  1
  In  In7  1  0.376118  0.123882  0.000000  1
  Ir  Ir8  1  0.207303  0.063751  0.500000  1
  Ir  Ir9  1  0.792697  0.936249  0.500000  1
  Ir  Ir10  1  0.063751  0.792697  0.500000  1
  Ir  Ir11  1  0.707303  0.436249  0.500000  1
  Ir  Ir12  1  0.936249  0.207303  0.500000  1
  Ir  Ir13  1  0.292697  0.563751  0.500000  1
  Ir  Ir14  1  0.563751  0.707303  0.500000  1
  Ir  Ir15  1  0.436249  0.292697  0.500000  1
  Ir  Ir16  1  0.673681  0.173681  0.244055  1
  Ir  Ir17  1  0.326319  0.826319  0.755945  1
  Ir  Ir18  1  0.326319  0.826319  0.244055  1
  Ir  Ir19  1  0.173681  0.326319  0.244055  1
  Ir  Ir20  1  0.173681  0.326319  0.755945  1
  Ir  Ir21  1  0.673681  0.173681  0.755945  1
  Ir  Ir22  1  0.826319  0.673681  0.755945  1
  Ir  Ir23  1  0.826319  0.673681  0.244055  1
