# generated using pymatgen
data_Cr2RuSe4
_symmetry_space_group_name_H-M   'P 1'
_cell_length_a   6.50271583
_cell_length_b   6.51629275
_cell_length_c   6.57317236
_cell_angle_alpha   92.11753049
_cell_angle_beta   94.58286447
_cell_angle_gamma   93.67106300
_symmetry_Int_Tables_number   1
_chemical_formula_structural   Cr2RuSe4
_chemical_formula_sum   'Cr4 Ru2 Se8'
_cell_volume   276.82094034
_cell_formula_units_Z   2
loop_
 _symmetry_equiv_pos_site_id
 _symmetry_equiv_pos_as_xyz
  1  'x, y, z'
loop_
 _atom_site_type_symbol
 _atom_site_label
 _atom_site_symmetry_multiplicity
 _atom_site_fract_x
 _atom_site_fract_y
 _atom_site_fract_z
 _atom_site_occupancy
  Cr  Cr0  1  0.240857  0.545644  0.412229  1
  Cr  Cr1  1  0.413488  0.242589  0.548400  1
  Cr  Cr2  1  0.759143  0.454356  0.587771  1
  Cr  Cr3  1  0.586512  0.757411  0.451600  1
  Ru  Ru4  1  0.548102  0.411125  0.233606  1
  Ru  Ru5  1  0.451898  0.588875  0.766394  1
  Se  Se6  1  0.208174  0.220414  0.222891  1
  Se  Se7  1  0.791826  0.779586  0.777109  1
  Se  Se8  1  0.373164  0.732546  0.127842  1
  Se  Se9  1  0.124107  0.369276  0.718811  1
  Se  Se10  1  0.726536  0.125282  0.390564  1
  Se  Se11  1  0.626836  0.267454  0.872158  1
  Se  Se12  1  0.875893  0.630724  0.281189  1
  Se  Se13  1  0.273464  0.874718  0.609436  1
