# generated using pymatgen
data_Cs6SmDyI12
_symmetry_space_group_name_H-M   'P 1'
_cell_length_a   10.71816377
_cell_length_b   10.71770980
_cell_length_c   8.89386300
_cell_angle_alpha   90.00000000
_cell_angle_beta   90.00000000
_cell_angle_gamma   89.87102757
_symmetry_Int_Tables_number   1
_chemical_formula_structural   Cs6SmDyI12
_chemical_formula_sum   'Cs6 Sm1 Dy1 I12'
_cell_volume   1021.67253248
_cell_formula_units_Z   1
loop_
 _symmetry_equiv_pos_site_id
 _symmetry_equiv_pos_as_xyz
  1  'x, y, z'
loop_
 _atom_site_type_symbol
 _atom_site_label
 _atom_site_symmetry_multiplicity
 _atom_site_fract_x
 _atom_site_fract_y
 _atom_site_fract_z
 _atom_site_occupancy
  Cs  Cs0  1  0.000000  0.000000  0.500000  1
  Cs  Cs1  1  0.000000  0.000000  0.000000  1
  Cs  Cs2  1  0.233525  0.585961  0.500000  1
  Cs  Cs3  1  0.766475  0.414039  0.500000  1
  Cs  Cs4  1  0.413906  0.234135  0.000000  1
  Cs  Cs5  1  0.586094  0.765865  0.000000  1
  Sm  Sm6  1  0.500000  0.000000  0.500000  1
  Dy  Dy7  1  0.000000  0.500000  0.000000  1
  I  I8  1  0.697291  0.058758  0.746961  1
  I  I9  1  0.302709  0.941242  0.746961  1
  I  I10  1  0.942183  0.693732  0.242798  1
  I  I11  1  0.057817  0.306268  0.242798  1
  I  I12  1  0.302709  0.941242  0.253039  1
  I  I13  1  0.697291  0.058758  0.253039  1
  I  I14  1  0.057817  0.306268  0.757202  1
  I  I15  1  0.942183  0.693732  0.757202  1
  I  I16  1  0.571674  0.720840  0.500000  1
  I  I17  1  0.428326  0.279160  0.500000  1
  I  I18  1  0.274359  0.570439  0.000000  1
  I  I19  1  0.725641  0.429561  0.000000  1
