# generated using pymatgen
data_Zr2Si7(Ni5Pd)2
_symmetry_space_group_name_H-M   'P 1'
_cell_length_a   9.23505334
_cell_length_b   9.25721810
_cell_length_c   3.67292600
_cell_angle_alpha   90.00000000
_cell_angle_beta   90.00000000
_cell_angle_gamma   120.33807345
_symmetry_Int_Tables_number   1
_chemical_formula_structural   Zr2Si7(Ni5Pd)2
_chemical_formula_sum   'Zr2 Si7 Ni10 Pd2'
_cell_volume   271.00238980
_cell_formula_units_Z   1
loop_
 _symmetry_equiv_pos_site_id
 _symmetry_equiv_pos_as_xyz
  1  'x, y, z'
loop_
 _atom_site_type_symbol
 _atom_site_label
 _atom_site_symmetry_multiplicity
 _atom_site_fract_x
 _atom_site_fract_y
 _atom_site_fract_z
 _atom_site_occupancy
  Zr  Zr0  1  0.997936  0.999845  0.000000  1
  Zr  Zr1  1  0.334472  0.669906  0.500000  1
  Si  Si2  1  0.661851  0.324545  0.000000  1
  Si  Si3  1  0.078612  0.453564  0.000000  1
  Si  Si4  1  0.249135  0.209632  0.500000  1
  Si  Si5  1  0.781712  0.041006  0.500000  1
  Si  Si6  1  0.961770  0.749700  0.500000  1
  Si  Si7  1  0.547335  0.625543  0.000000  1
  Si  Si8  1  0.384281  0.929315  0.000000  1
  Ni  Ni9  1  0.284936  0.390732  0.000000  1
  Ni  Ni10  1  0.110189  0.717562  0.000000  1
  Ni  Ni11  1  0.378683  0.170224  0.000000  1
  Ni  Ni12  1  0.791870  0.619271  0.000000  1
  Ni  Ni13  1  0.824476  0.206742  0.000000  1
  Ni  Ni14  1  0.236867  0.950094  0.500000  1
  Ni  Ni15  1  0.050091  0.281950  0.500000  1
  Ni  Ni16  1  0.718105  0.770018  0.500000  1
  Ni  Ni17  1  0.571631  0.112873  0.500000  1
  Ni  Ni18  1  0.609902  0.895160  0.000000  1
  Pd  Pd19  1  0.884131  0.456233  0.500000  1
  Pd  Pd20  1  0.542014  0.426086  0.500000  1
