# generated using pymatgen
data_Cs6As4W
_symmetry_space_group_name_H-M   'P 1'
_cell_length_a   11.09934857
_cell_length_b   11.09934940
_cell_length_c   9.04132996
_cell_angle_alpha   89.81234016
_cell_angle_beta   89.81234478
_cell_angle_gamma   119.74114091
_symmetry_Int_Tables_number   1
_chemical_formula_structural   Cs6As4W
_chemical_formula_sum   'Cs12 As8 W2'
_cell_volume   967.10949833
_cell_formula_units_Z   2
loop_
 _symmetry_equiv_pos_site_id
 _symmetry_equiv_pos_as_xyz
  1  'x, y, z'
loop_
 _atom_site_type_symbol
 _atom_site_label
 _atom_site_symmetry_multiplicity
 _atom_site_fract_x
 _atom_site_fract_y
 _atom_site_fract_z
 _atom_site_occupancy
  Cs  Cs0  1  0.464454  0.535229  0.607399  1
  Cs  Cs1  1  0.069277  0.534364  0.608044  1
  Cs  Cs2  1  0.535229  0.464454  0.107399  1
  Cs  Cs3  1  0.534364  0.069277  0.108044  1
  Cs  Cs4  1  0.853491  0.144009  0.787362  1
  Cs  Cs5  1  0.298523  0.149076  0.796936  1
  Cs  Cs6  1  0.852916  0.708113  0.780966  1
  Cs  Cs7  1  0.144009  0.853491  0.287362  1
  Cs  Cs8  1  0.708113  0.852916  0.280966  1
  Cs  Cs9  1  0.149076  0.298523  0.296936  1
  Cs  Cs10  1  0.463800  0.927870  0.603712  1
  Cs  Cs11  1  0.927870  0.463800  0.103712  1
  As  As12  1  0.669748  0.334508  0.769949  1
  As  As13  1  0.334508  0.669748  0.269949  1
  As  As14  1  0.211172  0.786842  0.916451  1
  As  As15  1  0.572456  0.785938  0.913991  1
  As  As16  1  0.212921  0.425864  0.920861  1
  As  As17  1  0.786842  0.211172  0.416451  1
  As  As18  1  0.425864  0.212921  0.420861  1
  As  As19  1  0.785938  0.572456  0.413991  1
  W  W20  1  0.666931  0.332494  0.501530  1
  W  W21  1  0.332494  0.666931  0.001530  1
