# generated using pymatgen
data_Th14Tc5Pt
_symmetry_space_group_name_H-M   'P 1'
_cell_length_a   10.01809807
_cell_length_b   10.01809701
_cell_length_c   6.34825846
_cell_angle_alpha   90.08453960
_cell_angle_beta   89.91546409
_cell_angle_gamma   119.71258545
_symmetry_Int_Tables_number   1
_chemical_formula_structural   Th14Tc5Pt
_chemical_formula_sum   'Th14 Tc5 Pt1'
_cell_volume   553.35728868
_cell_formula_units_Z   1
loop_
 _symmetry_equiv_pos_site_id
 _symmetry_equiv_pos_as_xyz
  1  'x, y, z'
loop_
 _atom_site_type_symbol
 _atom_site_label
 _atom_site_symmetry_multiplicity
 _atom_site_fract_x
 _atom_site_fract_y
 _atom_site_fract_z
 _atom_site_occupancy
  Th  Th0  1  0.664401  0.335599  0.534406  1
  Th  Th1  1  0.333875  0.666125  0.026631  1
  Th  Th2  1  0.873508  0.750178  0.757204  1
  Th  Th3  1  0.249822  0.126492  0.757204  1
  Th  Th4  1  0.874949  0.125051  0.761136  1
  Th  Th5  1  0.136028  0.257245  0.257569  1
  Th  Th6  1  0.742755  0.863972  0.257569  1
  Th  Th7  1  0.124523  0.875477  0.256559  1
  Th  Th8  1  0.454860  0.917701  0.547653  1
  Th  Th9  1  0.082299  0.545140  0.547653  1
  Th  Th10  1  0.458901  0.541099  0.549414  1
  Th  Th11  1  0.531712  0.072916  0.047360  1
  Th  Th12  1  0.927084  0.468288  0.047360  1
  Th  Th13  1  0.541672  0.458328  0.050508  1
  Tc  Tc14  1  0.181615  0.369179  0.797926  1
  Tc  Tc15  1  0.630821  0.818385  0.797926  1
  Tc  Tc16  1  0.184684  0.815316  0.796396  1
  Tc  Tc17  1  0.816366  0.623888  0.297342  1
  Tc  Tc18  1  0.376112  0.183634  0.297342  1
  Pt  Pt19  1  0.814012  0.185988  0.302941  1
