# generated using pymatgen
data_Lu3ScS4
_symmetry_space_group_name_H-M   'P 1'
_cell_length_a   12.31579748
_cell_length_b   12.31579752
_cell_length_c   12.31579633
_cell_angle_alpha   17.81984198
_cell_angle_beta   17.81983910
_cell_angle_gamma   17.81984744
_symmetry_Int_Tables_number   1
_chemical_formula_structural   Lu3ScS4
_chemical_formula_sum   'Lu3 Sc1 S4'
_cell_volume   152.72785734
_cell_formula_units_Z   1
loop_
 _symmetry_equiv_pos_site_id
 _symmetry_equiv_pos_as_xyz
  1  'x, y, z'
loop_
 _atom_site_type_symbol
 _atom_site_label
 _atom_site_symmetry_multiplicity
 _atom_site_fract_x
 _atom_site_fract_y
 _atom_site_fract_z
 _atom_site_occupancy
  Lu  Lu0  1  0.252475  0.252475  0.252475  1
  Lu  Lu1  1  0.500000  0.500000  0.500000  1
  Lu  Lu2  1  0.747525  0.747525  0.747525  1
  Sc  Sc3  1  0.000000  0.000000  0.000000  1
  S  S4  1  0.372859  0.372859  0.372859  1
  S  S5  1  0.123996  0.123996  0.123996  1
  S  S6  1  0.627141  0.627141  0.627141  1
  S  S7  1  0.876004  0.876004  0.876004  1
