# generated using pymatgen
data_Yb(TiPd4)3
_symmetry_space_group_name_H-M   'P 1'
_cell_length_a   5.62386900
_cell_length_b   5.62386888
_cell_length_c   9.09689700
_cell_angle_alpha   90.00000000
_cell_angle_beta   90.00000000
_cell_angle_gamma   120.00000656
_symmetry_Int_Tables_number   1
_chemical_formula_structural   Yb(TiPd4)3
_chemical_formula_sum   'Yb1 Ti3 Pd12'
_cell_volume   249.16914574
_cell_formula_units_Z   1
loop_
 _symmetry_equiv_pos_site_id
 _symmetry_equiv_pos_as_xyz
  1  'x, y, z'
loop_
 _atom_site_type_symbol
 _atom_site_label
 _atom_site_symmetry_multiplicity
 _atom_site_fract_x
 _atom_site_fract_y
 _atom_site_fract_z
 _atom_site_occupancy
  Yb  Yb0  1  0.333333  0.666667  0.250000  1
  Ti  Ti1  1  0.000000  0.000000  0.496751  1
  Ti  Ti2  1  0.000000  0.000000  0.003249  1
  Ti  Ti3  1  0.666667  0.333333  0.750000  1
  Pd  Pd4  1  0.503428  0.496572  0.507803  1
  Pd  Pd5  1  0.503428  0.006855  0.507803  1
  Pd  Pd6  1  0.993145  0.496572  0.507803  1
  Pd  Pd7  1  0.503428  0.496572  0.992197  1
  Pd  Pd8  1  0.503428  0.006855  0.992197  1
  Pd  Pd9  1  0.993145  0.496572  0.992197  1
  Pd  Pd10  1  0.832926  0.665852  0.250000  1
  Pd  Pd11  1  0.334148  0.167074  0.250000  1
  Pd  Pd12  1  0.832926  0.167074  0.250000  1
  Pd  Pd13  1  0.165002  0.330003  0.750000  1
  Pd  Pd14  1  0.669997  0.834998  0.750000  1
  Pd  Pd15  1  0.165002  0.834998  0.750000  1
