# generated using pymatgen
data_NaAc2(PIr)6
_symmetry_space_group_name_H-M   'P 1'
_cell_length_a   6.82127054
_cell_length_b   6.82127042
_cell_length_c   7.18832381
_cell_angle_alpha   89.54920695
_cell_angle_beta   90.45079736
_cell_angle_gamma   120.74998358
_symmetry_Int_Tables_number   1
_chemical_formula_structural   NaAc2(PIr)6
_chemical_formula_sum   'Na1 Ac2 P6 Ir6'
_cell_volume   287.43460186
_cell_formula_units_Z   1
loop_
 _symmetry_equiv_pos_site_id
 _symmetry_equiv_pos_as_xyz
  1  'x, y, z'
loop_
 _atom_site_type_symbol
 _atom_site_label
 _atom_site_symmetry_multiplicity
 _atom_site_fract_x
 _atom_site_fract_y
 _atom_site_fract_z
 _atom_site_occupancy
  Na  Na0  1  0.393409  0.393409  0.500000  1
  Ac  Ac1  1  0.597247  0.995643  0.169847  1
  Ac  Ac2  1  0.995643  0.597247  0.830153  1
  P  P3  1  0.882543  0.214300  0.542098  1
  P  P4  1  0.214300  0.882543  0.457902  1
  P  P5  1  0.134418  0.341503  0.126013  1
  P  P6  1  0.782603  0.652236  0.218720  1
  P  P7  1  0.341503  0.134418  0.873987  1
  P  P8  1  0.652236  0.782603  0.781280  1
  Ir  Ir9  1  0.864123  0.864123  0.500000  1
  Ir  Ir10  1  0.127443  0.996438  0.166726  1
  Ir  Ir11  1  0.499869  0.499869  0.000000  1
  Ir  Ir12  1  0.009982  0.508243  0.331624  1
  Ir  Ir13  1  0.508243  0.009982  0.668376  1
  Ir  Ir14  1  0.996438  0.127443  0.833274  1
