# generated using pymatgen
data_Pr16Lu4Ir7Pt5
_symmetry_space_group_name_H-M   'P 1'
_cell_length_a   11.35772106
_cell_length_b   11.35772106
_cell_length_c   6.50969494
_cell_angle_alpha   90.06281152
_cell_angle_beta   90.06281152
_cell_angle_gamma   89.86965906
_symmetry_Int_Tables_number   1
_chemical_formula_structural   Pr16Lu4Ir7Pt5
_chemical_formula_sum   'Pr16 Lu4 Ir7 Pt5'
_cell_volume   839.73332655
_cell_formula_units_Z   1
loop_
 _symmetry_equiv_pos_site_id
 _symmetry_equiv_pos_as_xyz
  1  'x, y, z'
loop_
 _atom_site_type_symbol
 _atom_site_label
 _atom_site_symmetry_multiplicity
 _atom_site_fract_x
 _atom_site_fract_y
 _atom_site_fract_z
 _atom_site_occupancy
  Pr  Pr0  1  0.291390  0.088813  0.378160  1
  Pr  Pr1  1  0.291778  0.910514  0.877569  1
  Pr  Pr2  1  0.708782  0.086079  0.877850  1
  Pr  Pr3  1  0.708433  0.910726  0.377830  1
  Pr  Pr4  1  0.585072  0.786190  0.882399  1
  Pr  Pr5  1  0.583613  0.211108  0.377983  1
  Pr  Pr6  1  0.414594  0.787116  0.382415  1
  Pr  Pr7  1  0.411928  0.211686  0.883742  1
  Pr  Pr8  1  0.213810  0.414928  0.617601  1
  Pr  Pr9  1  0.212884  0.585406  0.117585  1
  Pr  Pr10  1  0.788892  0.416387  0.122017  1
  Pr  Pr11  1  0.788314  0.588072  0.616258  1
  Pr  Pr12  1  0.911187  0.708610  0.121840  1
  Pr  Pr13  1  0.913921  0.291218  0.622150  1
  Pr  Pr14  1  0.089486  0.708222  0.622431  1
  Pr  Pr15  1  0.089274  0.291567  0.122170  1
  Lu  Lu16  1  0.999982  0.999822  0.499861  1
  Lu  Lu17  1  0.000178  0.000018  0.000139  1
  Lu  Lu18  1  0.498377  0.501275  0.001454  1
  Lu  Lu19  1  0.498725  0.501623  0.498546  1
  Ir  Ir20  1  0.645982  0.645145  0.250037  1
  Ir  Ir21  1  0.354855  0.354018  0.249963  1
  Ir  Ir22  1  0.354151  0.645849  0.750000  1
  Ir  Ir23  1  0.500328  0.000293  0.118349  1
  Ir  Ir24  1  0.500177  0.000856  0.619174  1
  Ir  Ir25  1  0.999144  0.499823  0.880826  1
  Ir  Ir26  1  0.999707  0.499672  0.381651  1
  Pt  Pt27  1  0.855738  0.144262  0.250000  1
  Pt  Pt28  1  0.856093  0.856301  0.749822  1
  Pt  Pt29  1  0.143699  0.143907  0.750178  1
  Pt  Pt30  1  0.143859  0.856141  0.250000  1
  Pt  Pt31  1  0.645647  0.354353  0.750000  1
