# generated using pymatgen
data_BaCa(GaSn)2
_symmetry_space_group_name_H-M   'P 1'
_cell_length_a   4.64028400
_cell_length_b   4.64028415
_cell_length_c   18.69149500
_cell_angle_alpha   90.00000000
_cell_angle_beta   90.00000000
_cell_angle_gamma   119.99999892
_symmetry_Int_Tables_number   1
_chemical_formula_structural   BaCa(GaSn)2
_chemical_formula_sum   'Ba2 Ca2 Ga4 Sn4'
_cell_volume   348.54897719
_cell_formula_units_Z   2
loop_
 _symmetry_equiv_pos_site_id
 _symmetry_equiv_pos_as_xyz
  1  'x, y, z'
loop_
 _atom_site_type_symbol
 _atom_site_label
 _atom_site_symmetry_multiplicity
 _atom_site_fract_x
 _atom_site_fract_y
 _atom_site_fract_z
 _atom_site_occupancy
  Ba  Ba0  1  0.000000  0.000000  0.500000  1
  Ba  Ba1  1  0.000000  0.000000  0.000000  1
  Ca  Ca2  1  0.000000  0.000000  0.250000  1
  Ca  Ca3  1  0.000000  0.000000  0.750000  1
  Ga  Ga4  1  0.333333  0.666667  0.327716  1
  Ga  Ga5  1  0.666667  0.333333  0.672284  1
  Ga  Ga6  1  0.666667  0.333333  0.827716  1
  Ga  Ga7  1  0.333333  0.666667  0.172284  1
  Sn  Sn8  1  0.333333  0.666667  0.875121  1
  Sn  Sn9  1  0.666667  0.333333  0.124879  1
  Sn  Sn10  1  0.666667  0.333333  0.375121  1
  Sn  Sn11  1  0.333333  0.666667  0.624879  1
