# generated using pymatgen
data_Nd6DyCoI12
_symmetry_space_group_name_H-M   'P 1'
_cell_length_a   9.97899168
_cell_length_b   9.97899240
_cell_length_c   9.97899265
_cell_angle_alpha   106.92073028
_cell_angle_beta   106.92071941
_cell_angle_gamma   106.92072754
_symmetry_Int_Tables_number   1
_chemical_formula_structural   Nd6DyCoI12
_chemical_formula_sum   'Nd6 Dy1 Co1 I12'
_cell_volume   829.35507789
_cell_formula_units_Z   1
loop_
 _symmetry_equiv_pos_site_id
 _symmetry_equiv_pos_as_xyz
  1  'x, y, z'
loop_
 _atom_site_type_symbol
 _atom_site_label
 _atom_site_symmetry_multiplicity
 _atom_site_fract_x
 _atom_site_fract_y
 _atom_site_fract_z
 _atom_site_occupancy
  Nd  Nd0  1  0.022879  0.095482  0.295750  1
  Nd  Nd1  1  0.095482  0.295750  0.022879  1
  Nd  Nd2  1  0.295750  0.022879  0.095482  1
  Nd  Nd3  1  0.977121  0.904518  0.704250  1
  Nd  Nd4  1  0.904518  0.704250  0.977121  1
  Nd  Nd5  1  0.704250  0.977121  0.904518  1
  Dy  Dy6  1  0.500000  0.500000  0.500000  1
  Co  Co7  1  0.000000  0.000000  0.000000  1
  I  I8  1  0.168091  0.466481  0.389748  1
  I  I9  1  0.466481  0.389748  0.168091  1
  I  I10  1  0.389748  0.168091  0.466481  1
  I  I11  1  0.831909  0.533519  0.610252  1
  I  I12  1  0.533519  0.610252  0.831909  1
  I  I13  1  0.610252  0.831909  0.533519  1
  I  I14  1  0.678393  0.072129  0.226711  1
  I  I15  1  0.072129  0.226711  0.678393  1
  I  I16  1  0.226711  0.678393  0.072129  1
  I  I17  1  0.321607  0.927871  0.773289  1
  I  I18  1  0.927871  0.773289  0.321607  1
  I  I19  1  0.773289  0.321607  0.927871  1
