# generated using pymatgen
data_Lu6PuO12
_symmetry_space_group_name_H-M   'P 1'
_cell_length_a   6.41250343
_cell_length_b   6.41250296
_cell_length_c   6.41250249
_cell_angle_alpha   99.06033828
_cell_angle_beta   99.06034315
_cell_angle_gamma   99.06033966
_symmetry_Int_Tables_number   1
_chemical_formula_structural   Lu6PuO12
_chemical_formula_sum   'Lu6 Pu1 O12'
_cell_volume   252.61294791
_cell_formula_units_Z   1
loop_
 _symmetry_equiv_pos_site_id
 _symmetry_equiv_pos_as_xyz
  1  'x, y, z'
loop_
 _atom_site_type_symbol
 _atom_site_label
 _atom_site_symmetry_multiplicity
 _atom_site_fract_x
 _atom_site_fract_y
 _atom_site_fract_z
 _atom_site_occupancy
  Lu  Lu0  1  0.390745  0.674328  0.854428  1
  Lu  Lu1  1  0.854428  0.390745  0.674328  1
  Lu  Lu2  1  0.674328  0.854428  0.390745  1
  Lu  Lu3  1  0.609255  0.325672  0.145572  1
  Lu  Lu4  1  0.145572  0.609255  0.325672  1
  Lu  Lu5  1  0.325672  0.145572  0.609255  1
  Pu  Pu6  1  0.000000  0.000000  0.000000  1
  O  O7  1  0.178092  0.423851  0.586337  1
  O  O8  1  0.586337  0.178092  0.423851  1
  O  O9  1  0.423851  0.586337  0.178091  1
  O  O10  1  0.821909  0.576149  0.413663  1
  O  O11  1  0.413663  0.821909  0.576149  1
  O  O12  1  0.576149  0.413663  0.821909  1
  O  O13  1  0.913155  0.047944  0.689230  1
  O  O14  1  0.952056  0.310770  0.086845  1
  O  O15  1  0.310770  0.086845  0.952056  1
  O  O16  1  0.086845  0.952056  0.310770  1
  O  O17  1  0.047944  0.689230  0.913155  1
  O  O18  1  0.689230  0.913155  0.047944  1
