# generated using pymatgen
data_Tm12Ni5Hg
_symmetry_space_group_name_H-M   'P 1'
_cell_length_a   8.15886635
_cell_length_b   8.15888628
_cell_length_c   8.15887800
_cell_angle_alpha   107.20799576
_cell_angle_beta   110.11453397
_cell_angle_gamma   111.11657842
_symmetry_Int_Tables_number   1
_chemical_formula_structural   Tm12Ni5Hg
_chemical_formula_sum   'Tm12 Ni5 Hg1'
_cell_volume   417.56738650
_cell_formula_units_Z   1
loop_
 _symmetry_equiv_pos_site_id
 _symmetry_equiv_pos_as_xyz
  1  'x, y, z'
loop_
 _atom_site_type_symbol
 _atom_site_label
 _atom_site_symmetry_multiplicity
 _atom_site_fract_x
 _atom_site_fract_y
 _atom_site_fract_z
 _atom_site_occupancy
  Tm  Tm0  1  0.689575  0.275574  0.965148  1
  Tm  Tm1  1  0.310403  0.724447  0.034852  1
  Tm  Tm2  1  0.689578  0.724423  0.414006  1
  Tm  Tm3  1  0.310415  0.275562  0.585974  1
  Tm  Tm4  1  0.804633  0.129087  0.324470  1
  Tm  Tm5  1  0.804646  0.480187  0.675557  1
  Tm  Tm6  1  0.195367  0.870906  0.675556  1
  Tm  Tm7  1  0.195385  0.519839  0.324469  1
  Tm  Tm8  1  0.603322  0.784270  0.819033  1
  Tm  Tm9  1  0.965223  0.784273  0.180938  1
  Tm  Tm10  1  0.034765  0.215722  0.819035  1
  Tm  Tm11  1  0.396655  0.215715  0.180939  1
  Ni  Ni12  1  0.855391  0.500008  0.355384  1
  Ni  Ni13  1  0.144632  0.499993  0.644639  1
  Ni  Ni14  1  0.000002  0.122449  0.122450  1
  Ni  Ni15  1  0.000011  0.877537  0.877548  1
  Ni  Ni16  1  0.499967  0.500008  0.999972  1
  Hg  Hg17  1  0.500028  0.000001  0.500028  1
