# generated using pymatgen
data_YbI27
_symmetry_space_group_name_H-M   'P 1'
_cell_length_a   12.69429867
_cell_length_b   11.08854663
_cell_length_c   14.70766600
_cell_angle_alpha   118.75751824
_cell_angle_beta   91.50252392
_cell_angle_gamma   102.24945279
_symmetry_Int_Tables_number   1
_chemical_formula_structural   YbI27
_chemical_formula_sum   'Yb1 I27'
_cell_volume   1753.60977239
_cell_formula_units_Z   1
loop_
 _symmetry_equiv_pos_site_id
 _symmetry_equiv_pos_as_xyz
  1  'x, y, z'
loop_
 _atom_site_type_symbol
 _atom_site_label
 _atom_site_symmetry_multiplicity
 _atom_site_fract_x
 _atom_site_fract_y
 _atom_site_fract_z
 _atom_site_occupancy
  Yb  Yb0  1  0.313782  0.887164  0.949514  1
  I  I1  1  0.659978  0.119895  0.068103  1
  I  I2  1  0.401367  0.682214  0.000672  1
  I  I3  1  0.539350  0.346969  0.938629  1
  I  I4  1  0.574140  0.812110  0.403754  1
  I  I5  1  0.432718  0.188000  0.602684  1
  I  I6  1  0.784041  0.672680  0.038019  1
  I  I7  1  0.237766  0.306666  0.986577  1
  I  I8  1  0.823925  0.918466  0.229036  1
  I  I9  1  0.234949  0.029659  0.828333  1
  I  I10  1  0.446594  0.154031  0.153996  1
  I  I11  1  0.538580  0.892843  0.861970  1
  I  I12  1  0.232287  0.661309  0.711135  1
  I  I13  1  0.784207  0.344634  0.280972  1
  I  I14  1  0.090684  0.852339  0.023054  1
  I  I15  1  0.865460  0.098194  0.980066  1
  I  I16  1  0.095246  0.115009  0.231184  1
  I  I17  1  0.880677  0.862291  0.754499  1
  I  I18  1  0.272081  0.923420  0.460804  1
  I  I19  1  0.744990  0.083279  0.538303  1
  I  I20  1  0.334764  0.426416  0.658423  1
  I  I21  1  0.676919  0.581923  0.340516  1
  I  I22  1  0.892383  0.354855  0.683009  1
  I  I23  1  0.129499  0.641360  0.308595  1
  I  I24  1  0.953301  0.685099  0.571842  1
  I  I25  1  0.080310  0.350231  0.422879  1
  I  I26  1  0.263163  0.641132  0.142192  1
  I  I27  1  0.716839  0.367811  0.831242  1
