# generated using pymatgen
data_KCrF5
_symmetry_space_group_name_H-M   'P 1'
_cell_length_a   5.58614200
_cell_length_b   7.63752600
_cell_length_c   10.25579900
_cell_angle_alpha   90.00000000
_cell_angle_beta   90.00000000
_cell_angle_gamma   90.00000000
_symmetry_Int_Tables_number   1
_chemical_formula_structural   KCrF5
_chemical_formula_sum   'K4 Cr4 F20'
_cell_volume   437.55653414
_cell_formula_units_Z   4
loop_
 _symmetry_equiv_pos_site_id
 _symmetry_equiv_pos_as_xyz
  1  'x, y, z'
loop_
 _atom_site_type_symbol
 _atom_site_label
 _atom_site_symmetry_multiplicity
 _atom_site_fract_x
 _atom_site_fract_y
 _atom_site_fract_z
 _atom_site_occupancy
  K  K0  1  0.500000  0.885694  0.977553  1
  K  K1  1  0.500000  0.114306  0.477553  1
  K  K2  1  0.000000  0.372757  0.122284  1
  K  K3  1  0.000000  0.627243  0.622284  1
  Cr  Cr4  1  0.000000  0.884957  0.241880  1
  Cr  Cr5  1  0.500000  0.573656  0.339661  1
  Cr  Cr6  1  0.500000  0.426344  0.839661  1
  Cr  Cr7  1  0.000000  0.115043  0.741880  1
  F  F8  1  0.268800  0.550434  0.923214  1
  F  F9  1  0.749714  0.699981  0.238955  1
  F  F10  1  0.231009  0.052897  0.235651  1
  F  F11  1  0.749714  0.300019  0.738955  1
  F  F12  1  0.500000  0.243021  0.951145  1
  F  F13  1  0.768991  0.947103  0.735651  1
  F  F14  1  0.500000  0.570865  0.698958  1
  F  F15  1  0.231009  0.947103  0.735651  1
  F  F16  1  0.000000  0.846928  0.067573  1
  F  F17  1  0.768991  0.052897  0.235651  1
  F  F18  1  0.500000  0.429135  0.198958  1
  F  F19  1  0.731200  0.449566  0.423214  1
  F  F20  1  0.250286  0.699981  0.238955  1
  F  F21  1  0.000000  0.859968  0.416815  1
  F  F22  1  0.000000  0.153072  0.567573  1
  F  F23  1  0.250286  0.300019  0.738955  1
  F  F24  1  0.000000  0.140032  0.916815  1
  F  F25  1  0.268800  0.449566  0.423214  1
  F  F26  1  0.500000  0.756979  0.451145  1
  F  F27  1  0.731200  0.550434  0.923214  1
