# generated using pymatgen
data_AcEu2(GaNi2)2
_symmetry_space_group_name_H-M   'P 1'
_cell_length_a   4.19271700
_cell_length_b   5.64019242
_cell_length_c   8.34867988
_cell_angle_alpha   99.94666476
_cell_angle_beta   90.00000000
_cell_angle_gamma   111.81939900
_symmetry_Int_Tables_number   1
_chemical_formula_structural   AcEu2(GaNi2)2
_chemical_formula_sum   'Ac1 Eu2 Ga2 Ni4'
_cell_volume   180.08319128
_cell_formula_units_Z   1
loop_
 _symmetry_equiv_pos_site_id
 _symmetry_equiv_pos_as_xyz
  1  'x, y, z'
loop_
 _atom_site_type_symbol
 _atom_site_label
 _atom_site_symmetry_multiplicity
 _atom_site_fract_x
 _atom_site_fract_y
 _atom_site_fract_z
 _atom_site_occupancy
  Ac  Ac0  1  0.000000  0.000000  0.500000  1
  Eu  Eu1  1  0.625833  0.251665  0.888275  1
  Eu  Eu2  1  0.374167  0.748335  0.111725  1
  Ga  Ga3  1  0.322642  0.645284  0.718595  1
  Ga  Ga4  1  0.677358  0.354716  0.281405  1
  Ni  Ni5  1  0.914774  0.829549  0.860604  1
  Ni  Ni6  1  0.085226  0.170451  0.139396  1
  Ni  Ni7  1  0.738880  0.477759  0.585797  1
  Ni  Ni8  1  0.261120  0.522241  0.414203  1
