# generated using pymatgen
data_Li4Ac16Si15As
_symmetry_space_group_name_H-M   'P 1'
_cell_length_a   7.76755262
_cell_length_b   8.39629595
_cell_length_c   16.04757600
_cell_angle_alpha   90.10345091
_cell_angle_beta   89.60283483
_cell_angle_gamma   90.15955423
_symmetry_Int_Tables_number   1
_chemical_formula_structural   Li4Ac16Si15As
_chemical_formula_sum   'Li4 Ac16 Si15 As1'
_cell_volume   1046.57070038
_cell_formula_units_Z   1
loop_
 _symmetry_equiv_pos_site_id
 _symmetry_equiv_pos_as_xyz
  1  'x, y, z'
loop_
 _atom_site_type_symbol
 _atom_site_label
 _atom_site_symmetry_multiplicity
 _atom_site_fract_x
 _atom_site_fract_y
 _atom_site_fract_z
 _atom_site_occupancy
  Li  Li0  1  0.672711  0.958317  0.248879  1
  Li  Li1  1  0.172067  0.539528  0.248150  1
  Li  Li2  1  0.828090  0.458360  0.744452  1
  Li  Li3  1  0.327618  0.042771  0.751281  1
  Ac  Ac4  1  0.977361  0.803870  0.101795  1
  Ac  Ac5  1  0.471035  0.693030  0.395892  1
  Ac  Ac6  1  0.518246  0.313202  0.898478  1
  Ac  Ac7  1  0.028342  0.191377  0.602889  1
  Ac  Ac8  1  0.023264  0.195053  0.899245  1
  Ac  Ac9  1  0.527410  0.307018  0.603762  1
  Ac  Ac10  1  0.478279  0.691363  0.102552  1
  Ac  Ac11  1  0.971332  0.806263  0.397032  1
  Ac  Ac12  1  0.667195  0.818743  0.868619  1
  Ac  Ac13  1  0.173707  0.686306  0.630980  1
  Ac  Ac14  1  0.832714  0.317274  0.126747  1
  Ac  Ac15  1  0.325481  0.183902  0.370772  1
  Ac  Ac16  1  0.331835  0.181375  0.130835  1
  Ac  Ac17  1  0.826915  0.314948  0.370348  1
  Ac  Ac18  1  0.167605  0.681835  0.873413  1
  Ac  Ac19  1  0.674963  0.816146  0.629327  1
  Si  Si20  1  0.762470  0.624049  0.249690  1
  Si  Si21  1  0.257027  0.873828  0.250467  1
  Si  Si22  1  0.741437  0.126518  0.750186  1
  Si  Si23  1  0.236218  0.375044  0.750434  1
  Si  Si24  1  0.022025  0.066487  0.248831  1
  Si  Si25  1  0.526082  0.432092  0.251456  1
  Si  Si26  1  0.474508  0.567235  0.749030  1
  Si  Si27  1  0.977308  0.933366  0.752199  1
  Si  Si28  1  0.357158  0.972018  0.533060  1
  Si  Si29  1  0.647524  0.030097  0.029455  1
  Si  Si30  1  0.143674  0.472031  0.468437  1
  Si  Si31  1  0.181301  0.467623  0.034987  1
  Si  Si32  1  0.643320  0.028176  0.467400  1
  Si  Si33  1  0.353300  0.970688  0.968633  1
  Si  Si34  1  0.857574  0.526804  0.533659  1
  As  As35  1  0.822904  0.533266  0.966629  1
