# generated using pymatgen
data_Ho10In8RuAu3
_symmetry_space_group_name_H-M   'P 1'
_cell_length_a   8.23185037
_cell_length_b   18.38581826
_cell_length_c   3.60653000
_cell_angle_alpha   90.00000000
_cell_angle_beta   90.00000000
_cell_angle_gamma   89.94327227
_symmetry_Int_Tables_number   1
_chemical_formula_structural   Ho10In8RuAu3
_chemical_formula_sum   'Ho10 In8 Ru1 Au3'
_cell_volume   545.84554066
_cell_formula_units_Z   1
loop_
 _symmetry_equiv_pos_site_id
 _symmetry_equiv_pos_as_xyz
  1  'x, y, z'
loop_
 _atom_site_type_symbol
 _atom_site_label
 _atom_site_symmetry_multiplicity
 _atom_site_fract_x
 _atom_site_fract_y
 _atom_site_fract_z
 _atom_site_occupancy
  Ho  Ho0  1  0.503446  0.497796  0.000000  1
  Ho  Ho1  1  0.003272  0.001755  0.000000  1
  Ho  Ho2  1  0.762493  0.281613  0.000000  1
  Ho  Ho3  1  0.260895  0.716723  0.000000  1
  Ho  Ho4  1  0.759879  0.782437  0.000000  1
  Ho  Ho5  1  0.224211  0.223311  0.000000  1
  Ho  Ho6  1  0.622498  0.081618  0.000000  1
  Ho  Ho7  1  0.378449  0.920683  0.000000  1
  Ho  Ho8  1  0.876729  0.579272  0.000000  1
  Ho  Ho9  1  0.115359  0.413962  0.000000  1
  In  In10  1  0.710413  0.934791  0.500000  1
  In  In11  1  0.292762  0.068034  0.500000  1
  In  In12  1  0.794565  0.429587  0.500000  1
  In  In13  1  0.207944  0.564067  0.500000  1
  In  In14  1  0.576076  0.645995  0.500000  1
  In  In15  1  0.419009  0.351826  0.500000  1
  In  In16  1  0.927511  0.150229  0.500000  1
  In  In17  1  0.077983  0.853652  0.500000  1
  Ru  Ru18  1  0.022535  0.304864  0.500000  1
  Au  Au19  1  0.523846  0.198413  0.500000  1
  Au  Au20  1  0.469526  0.803217  0.500000  1
  Au  Au21  1  0.970602  0.696156  0.500000  1
