# generated using pymatgen
data_Ce3Tm2Zn2Os3
_symmetry_space_group_name_H-M   'P 1'
_cell_length_a   8.40805578
_cell_length_b   8.40805478
_cell_length_c   8.40805600
_cell_angle_alpha   110.16255830
_cell_angle_beta   110.16256306
_cell_angle_gamma   110.16255494
_symmetry_Int_Tables_number   1
_chemical_formula_structural   Ce3Tm2Zn2Os3
_chemical_formula_sum   'Ce6 Tm4 Zn4 Os6'
_cell_volume   445.48094970
_cell_formula_units_Z   2
loop_
 _symmetry_equiv_pos_site_id
 _symmetry_equiv_pos_as_xyz
  1  'x, y, z'
loop_
 _atom_site_type_symbol
 _atom_site_label
 _atom_site_symmetry_multiplicity
 _atom_site_fract_x
 _atom_site_fract_y
 _atom_site_fract_z
 _atom_site_occupancy
  Ce  Ce0  1  0.718567  0.510637  0.999622  1
  Ce  Ce1  1  0.999622  0.718567  0.510637  1
  Ce  Ce2  1  0.510637  0.999622  0.718567  1
  Ce  Ce3  1  0.246701  0.184929  0.935185  1
  Ce  Ce4  1  0.935185  0.246701  0.184929  1
  Ce  Ce5  1  0.184929  0.935185  0.246701  1
  Tm  Tm6  1  0.766341  0.766341  0.766341  1
  Tm  Tm7  1  0.319305  0.571305  0.750918  1
  Tm  Tm8  1  0.750918  0.319305  0.571305  1
  Tm  Tm9  1  0.571305  0.750918  0.319305  1
  Zn  Zn10  1  0.407707  0.407707  0.407707  1
  Zn  Zn11  1  0.097394  0.499101  0.001521  1
  Zn  Zn12  1  0.001521  0.097394  0.499101  1
  Zn  Zn13  1  0.499101  0.001521  0.097394  1
  Os  Os14  1  0.876489  0.110833  0.747267  1
  Os  Os15  1  0.747267  0.876489  0.110833  1
  Os  Os16  1  0.110833  0.747267  0.876489  1
  Os  Os17  1  0.243142  0.625861  0.387177  1
  Os  Os18  1  0.387177  0.243142  0.625861  1
  Os  Os19  1  0.625861  0.387177  0.243142  1
