# generated using pymatgen
data_Rb8MnSiS8
_symmetry_space_group_name_H-M   'P 1'
_cell_length_a   8.11177695
_cell_length_b   9.54955800
_cell_length_c   14.19887100
_cell_angle_alpha   90.00000000
_cell_angle_beta   89.68325957
_cell_angle_gamma   90.00000000
_symmetry_Int_Tables_number   1
_chemical_formula_structural   Rb8MnSiS8
_chemical_formula_sum   'Rb16 Mn2 Si2 S16'
_cell_volume   1099.88289596
_cell_formula_units_Z   2
loop_
 _symmetry_equiv_pos_site_id
 _symmetry_equiv_pos_as_xyz
  1  'x, y, z'
loop_
 _atom_site_type_symbol
 _atom_site_label
 _atom_site_symmetry_multiplicity
 _atom_site_fract_x
 _atom_site_fract_y
 _atom_site_fract_z
 _atom_site_occupancy
  Rb  Rb0  1  0.000000  0.000000  0.000000  1
  Rb  Rb1  1  0.500000  0.000000  0.500000  1
  Rb  Rb2  1  0.000000  0.500000  0.000000  1
  Rb  Rb3  1  0.500000  0.500000  0.500000  1
  Rb  Rb4  1  0.999731  0.750000  0.420505  1
  Rb  Rb5  1  0.499068  0.250000  0.077558  1
  Rb  Rb6  1  0.000269  0.250000  0.579495  1
  Rb  Rb7  1  0.500932  0.750000  0.922442  1
  Rb  Rb8  1  0.828703  0.055629  0.281196  1
  Rb  Rb9  1  0.329986  0.945029  0.218433  1
  Rb  Rb10  1  0.171297  0.555629  0.718804  1
  Rb  Rb11  1  0.670014  0.445029  0.781567  1
  Rb  Rb12  1  0.171297  0.944371  0.718804  1
  Rb  Rb13  1  0.670014  0.054971  0.781567  1
  Rb  Rb14  1  0.828703  0.444371  0.281196  1
  Rb  Rb15  1  0.329986  0.554971  0.218433  1
  Mn  Mn16  1  0.734666  0.750000  0.163658  1
  Mn  Mn17  1  0.265334  0.250000  0.836342  1
  Si  Si18  1  0.766441  0.750000  0.664612  1
  Si  Si19  1  0.233559  0.250000  0.335388  1
  S  S20  1  0.994818  0.250000  0.826457  1
  S  S21  1  0.499699  0.250000  0.325657  1
  S  S22  1  0.500301  0.750000  0.674343  1
  S  S23  1  0.005182  0.750000  0.173543  1
  S  S24  1  0.650064  0.564257  0.088665  1
  S  S25  1  0.152082  0.432498  0.408798  1
  S  S26  1  0.349936  0.064257  0.911335  1
  S  S27  1  0.847918  0.932498  0.591202  1
  S  S28  1  0.349936  0.435743  0.911335  1
  S  S29  1  0.847918  0.567502  0.591202  1
  S  S30  1  0.650064  0.935743  0.088665  1
  S  S31  1  0.152082  0.067502  0.408798  1
  S  S32  1  0.632578  0.750000  0.308740  1
  S  S33  1  0.134071  0.250000  0.193310  1
  S  S34  1  0.367422  0.250000  0.691260  1
  S  S35  1  0.865929  0.750000  0.806690  1
