# generated using pymatgen
data_ErBeOs2C
_symmetry_space_group_name_H-M   'P 1'
_cell_length_a   5.62320512
_cell_length_b   5.62320471
_cell_length_c   7.02373500
_cell_angle_alpha   90.00000000
_cell_angle_beta   90.00000000
_cell_angle_gamma   140.26891148
_symmetry_Int_Tables_number   1
_chemical_formula_structural   ErBeOs2C
_chemical_formula_sum   'Er2 Be2 Os4 C2'
_cell_volume   141.95890691
_cell_formula_units_Z   2
loop_
 _symmetry_equiv_pos_site_id
 _symmetry_equiv_pos_as_xyz
  1  'x, y, z'
loop_
 _atom_site_type_symbol
 _atom_site_label
 _atom_site_symmetry_multiplicity
 _atom_site_fract_x
 _atom_site_fract_y
 _atom_site_fract_z
 _atom_site_occupancy
  Er  Er0  1  0.544575  0.455425  0.250000  1
  Er  Er1  1  0.455425  0.544575  0.750000  1
  Be  Be2  1  0.269702  0.730298  0.250000  1
  Be  Be3  1  0.730298  0.269702  0.750000  1
  Os  Os4  1  0.823773  0.176227  0.058893  1
  Os  Os5  1  0.176227  0.823773  0.941107  1
  Os  Os6  1  0.176227  0.823773  0.558893  1
  Os  Os7  1  0.823773  0.176227  0.441107  1
  C  C8  1  0.000000  0.000000  0.000000  1
  C  C9  1  0.000000  0.000000  0.500000  1
