# generated using pymatgen
data_NdErTm2(WO6)2
_symmetry_space_group_name_H-M   'P 1'
_cell_length_a   5.41590800
_cell_length_b   7.73002437
_cell_length_c   11.47205230
_cell_angle_alpha   75.48546919
_cell_angle_beta   90.00000000
_cell_angle_gamma   90.00000000
_symmetry_Int_Tables_number   1
_chemical_formula_structural   NdErTm2(WO6)2
_chemical_formula_sum   'Nd2 Er2 Tm4 W4 O24'
_cell_volume   464.95010678
_cell_formula_units_Z   2
loop_
 _symmetry_equiv_pos_site_id
 _symmetry_equiv_pos_as_xyz
  1  'x, y, z'
loop_
 _atom_site_type_symbol
 _atom_site_label
 _atom_site_symmetry_multiplicity
 _atom_site_fract_x
 _atom_site_fract_y
 _atom_site_fract_z
 _atom_site_occupancy
  Nd  Nd0  1  0.685340  0.500000  0.250000  1
  Nd  Nd1  1  0.314660  0.500000  0.750000  1
  Er  Er2  1  0.743312  0.000000  0.250000  1
  Er  Er3  1  0.256688  0.000000  0.750000  1
  Tm  Tm4  1  0.183908  0.203534  0.422590  1
  Tm  Tm5  1  0.183908  0.796466  0.077410  1
  Tm  Tm6  1  0.816092  0.796466  0.577410  1
  Tm  Tm7  1  0.816092  0.203534  0.922590  1
  W  W8  1  0.254719  0.271442  0.115850  1
  W  W9  1  0.254719  0.728558  0.384150  1
  W  W10  1  0.745281  0.728558  0.884150  1
  W  W11  1  0.745281  0.271442  0.615850  1
  O  O12  1  0.454608  0.202647  0.274780  1
  O  O13  1  0.454608  0.797353  0.225220  1
  O  O14  1  0.545392  0.797353  0.725220  1
  O  O15  1  0.545392  0.202647  0.774780  1
  O  O16  1  0.044166  0.057210  0.103473  1
  O  O17  1  0.044166  0.942790  0.396527  1
  O  O18  1  0.955834  0.942790  0.896527  1
  O  O19  1  0.955834  0.057210  0.603473  1
  O  O20  1  0.984221  0.278521  0.231414  1
  O  O21  1  0.984221  0.721479  0.268586  1
  O  O22  1  0.015779  0.721479  0.768586  1
  O  O23  1  0.015779  0.278521  0.731414  1
  O  O24  1  0.854910  0.358537  0.453594  1
  O  O25  1  0.854910  0.641463  0.046406  1
  O  O26  1  0.145090  0.641463  0.546406  1
  O  O27  1  0.145090  0.358537  0.953594  1
  O  O28  1  0.654049  0.507942  0.613297  1
  O  O29  1  0.654049  0.492058  0.886703  1
  O  O30  1  0.345951  0.492058  0.386703  1
  O  O31  1  0.345951  0.507942  0.113297  1
  O  O32  1  0.460337  0.156438  0.569180  1
  O  O33  1  0.460337  0.843562  0.930820  1
  O  O34  1  0.539663  0.843562  0.430820  1
  O  O35  1  0.539663  0.156438  0.069180  1
