# generated using pymatgen
data_Pr11In2Hg7Pt4
_symmetry_space_group_name_H-M   'P 1'
_cell_length_a   13.58975111
_cell_length_b   13.55110010
_cell_length_c   3.82737800
_cell_angle_alpha   90.00000000
_cell_angle_beta   90.00000000
_cell_angle_gamma   111.94239115
_symmetry_Int_Tables_number   1
_chemical_formula_structural   Pr11In2Hg7Pt4
_chemical_formula_sum   'Pr11 In2 Hg7 Pt4'
_cell_volume   653.77670626
_cell_formula_units_Z   1
loop_
 _symmetry_equiv_pos_site_id
 _symmetry_equiv_pos_as_xyz
  1  'x, y, z'
loop_
 _atom_site_type_symbol
 _atom_site_label
 _atom_site_symmetry_multiplicity
 _atom_site_fract_x
 _atom_site_fract_y
 _atom_site_fract_z
 _atom_site_occupancy
  Pr  Pr0  1  0.503709  0.500761  0.500000  1
  Pr  Pr1  1  0.802384  0.804033  0.500000  1
  Pr  Pr2  1  0.194027  0.192886  0.500000  1
  Pr  Pr3  1  0.577001  0.919213  0.500000  1
  Pr  Pr4  1  0.423122  0.083986  0.500000  1
  Pr  Pr5  1  0.918016  0.578234  0.500000  1
  Pr  Pr6  1  0.078776  0.423604  0.500000  1
  Pr  Pr7  1  0.129963  0.869136  0.500000  1
  Pr  Pr8  1  0.871555  0.129656  0.500000  1
  Pr  Pr9  1  0.334128  0.662851  0.500000  1
  Pr  Pr10  1  0.666088  0.333905  0.500000  1
  In  In11  1  0.285334  0.429222  0.000000  1
  In  In12  1  0.998989  0.998950  0.000000  1
  Hg  Hg13  1  0.344694  0.866485  0.000000  1
  Hg  Hg14  1  0.657796  0.134223  0.000000  1
  Hg  Hg15  1  0.864684  0.342483  0.000000  1
  Hg  Hg16  1  0.134678  0.657432  0.000000  1
  Hg  Hg17  1  0.567088  0.714929  0.000000  1
  Hg  Hg18  1  0.428099  0.286753  0.000000  1
  Hg  Hg19  1  0.716346  0.568577  0.000000  1
  Pt  Pt20  1  0.751720  0.950542  0.000000  1
  Pt  Pt21  1  0.248394  0.048093  0.000000  1
  Pt  Pt22  1  0.950079  0.752457  0.000000  1
  Pt  Pt23  1  0.053329  0.251590  0.000000  1
