# generated using pymatgen
data_Dy8Zr12Si15As
_symmetry_space_group_name_H-M   'P 1'
_cell_length_a   7.15868798
_cell_length_b   7.27874514
_cell_length_c   13.96325987
_cell_angle_alpha   90.08425194
_cell_angle_beta   89.42834891
_cell_angle_gamma   90.13896343
_symmetry_Int_Tables_number   1
_chemical_formula_structural   Dy8Zr12Si15As
_chemical_formula_sum   'Dy8 Zr12 Si15 As1'
_cell_volume   727.53421080
_cell_formula_units_Z   1
loop_
 _symmetry_equiv_pos_site_id
 _symmetry_equiv_pos_as_xyz
  1  'x, y, z'
loop_
 _atom_site_type_symbol
 _atom_site_label
 _atom_site_symmetry_multiplicity
 _atom_site_fract_x
 _atom_site_fract_y
 _atom_site_fract_z
 _atom_site_occupancy
  Dy  Dy0  1  0.013640  0.176771  0.096932  1
  Dy  Dy1  1  0.986298  0.823824  0.903044  1
  Dy  Dy2  1  0.486184  0.676190  0.902850  1
  Dy  Dy3  1  0.988874  0.822313  0.596977  1
  Dy  Dy4  1  0.513755  0.323656  0.097582  1
  Dy  Dy5  1  0.010166  0.177551  0.403354  1
  Dy  Dy6  1  0.508533  0.322592  0.402197  1
  Dy  Dy7  1  0.494807  0.677196  0.598127  1
  Zr  Zr8  1  0.159235  0.496822  0.750837  1
  Zr  Zr9  1  0.841215  0.501860  0.251047  1
  Zr  Zr10  1  0.340892  0.999152  0.250078  1
  Zr  Zr11  1  0.659492  0.000343  0.750334  1
  Zr  Zr12  1  0.334133  0.173239  0.625770  1
  Zr  Zr13  1  0.667140  0.825048  0.374669  1
  Zr  Zr14  1  0.164022  0.677226  0.374999  1
  Zr  Zr15  1  0.669611  0.823316  0.124880  1
  Zr  Zr16  1  0.833116  0.324475  0.623758  1
  Zr  Zr17  1  0.329464  0.177028  0.875205  1
  Zr  Zr18  1  0.830054  0.322479  0.875088  1
  Zr  Zr19  1  0.170287  0.677379  0.125009  1
  Si  Si20  1  0.034566  0.116548  0.749379  1
  Si  Si21  1  0.964924  0.883876  0.249622  1
  Si  Si22  1  0.463425  0.618096  0.249944  1
  Si  Si23  1  0.536578  0.381338  0.749956  1
  Si  Si24  1  0.286043  0.871549  0.750005  1
  Si  Si25  1  0.714346  0.127974  0.249809  1
  Si  Si26  1  0.213776  0.373495  0.250026  1
  Si  Si27  1  0.787030  0.626662  0.749978  1
  Si  Si28  1  0.824525  0.534995  0.458116  1
  Si  Si29  1  0.340755  0.966216  0.459895  1
  Si  Si30  1  0.845282  0.532090  0.040486  1
  Si  Si31  1  0.660015  0.033853  0.539961  1
  Si  Si32  1  0.154240  0.468801  0.959493  1
  Si  Si33  1  0.654138  0.031503  0.959473  1
  Si  Si34  1  0.345615  0.968589  0.040620  1
  As  As35  1  0.173824  0.465958  0.540503  1
