# generated using pymatgen
data_Dy2NiRu3
_symmetry_space_group_name_H-M   'P 1'
_cell_length_a   5.30791800
_cell_length_b   5.30791782
_cell_length_c   5.30791842
_cell_angle_alpha   59.36442521
_cell_angle_beta   59.36442797
_cell_angle_gamma   59.36442344
_symmetry_Int_Tables_number   1
_chemical_formula_structural   Dy2NiRu3
_chemical_formula_sum   'Dy2 Ni1 Ru3'
_cell_volume   104.21471062
_cell_formula_units_Z   1
loop_
 _symmetry_equiv_pos_site_id
 _symmetry_equiv_pos_as_xyz
  1  'x, y, z'
loop_
 _atom_site_type_symbol
 _atom_site_label
 _atom_site_symmetry_multiplicity
 _atom_site_fract_x
 _atom_site_fract_y
 _atom_site_fract_z
 _atom_site_occupancy
  Dy  Dy0  1  0.123018  0.123018  0.123018  1
  Dy  Dy1  1  0.876982  0.876982  0.876982  1
  Ni  Ni2  1  0.500000  0.500000  0.500000  1
  Ru  Ru3  1  0.500000  0.000000  0.500000  1
  Ru  Ru4  1  0.000000  0.500000  0.500000  1
  Ru  Ru5  1  0.500000  0.500000  0.000000  1
