# generated using pymatgen
data_YPa5(Ni3As4)2
_symmetry_space_group_name_H-M   'P 1'
_cell_length_a   7.77269649
_cell_length_b   7.77120361
_cell_length_c   7.77170890
_cell_angle_alpha   109.30589370
_cell_angle_beta   109.56870403
_cell_angle_gamma   109.52713492
_symmetry_Int_Tables_number   1
_chemical_formula_structural   YPa5(Ni3As4)2
_chemical_formula_sum   'Y1 Pa5 Ni6 As8'
_cell_volume   361.42365553
_cell_formula_units_Z   1
loop_
 _symmetry_equiv_pos_site_id
 _symmetry_equiv_pos_as_xyz
  1  'x, y, z'
loop_
 _atom_site_type_symbol
 _atom_site_label
 _atom_site_symmetry_multiplicity
 _atom_site_fract_x
 _atom_site_fract_y
 _atom_site_fract_z
 _atom_site_occupancy
  Y  Y0  1  0.750003  0.374986  0.625014  1
  Pa  Pa1  1  0.127863  0.876233  0.250631  1
  Pa  Pa2  1  0.372114  0.622760  0.748370  1
  Pa  Pa3  1  0.874385  0.251617  0.123740  1
  Pa  Pa4  1  0.625605  0.749355  0.377228  1
  Pa  Pa5  1  0.249988  0.124998  0.874997  1
  Ni  Ni6  1  0.621437  0.372528  0.241305  1
  Ni  Ni7  1  0.878513  0.119764  0.750932  1
  Ni  Ni8  1  0.368867  0.249173  0.627636  1
  Ni  Ni9  1  0.131259  0.758700  0.880090  1
  Ni  Ni10  1  0.250084  0.624991  0.375105  1
  Ni  Ni11  1  0.749865  0.874909  0.124926  1
  As  As12  1  0.337411  0.334388  0.335219  1
  As  As13  1  0.162623  0.497743  0.996920  1
  As  As14  1  0.999244  0.164007  0.498264  1
  As  As15  1  0.834247  0.835227  0.836012  1
  As  As16  1  0.500784  0.999036  0.164725  1
  As  As17  1  0.665675  0.501731  0.000942  1
  As  As18  1  0.500820  0.003046  0.665690  1
  As  As19  1  0.999214  0.664810  0.502250  1
