# generated using pymatgen
data_Ho20IrRh7Au4
_symmetry_space_group_name_H-M   'P 1'
_cell_length_a   11.09543593
_cell_length_b   11.06413719
_cell_length_c   6.32561858
_cell_angle_alpha   90.09556449
_cell_angle_beta   89.70168068
_cell_angle_gamma   90.46090726
_symmetry_Int_Tables_number   1
_chemical_formula_structural   Ho20IrRh7Au4
_chemical_formula_sum   'Ho20 Ir1 Rh7 Au4'
_cell_volume   776.50527565
_cell_formula_units_Z   1
loop_
 _symmetry_equiv_pos_site_id
 _symmetry_equiv_pos_as_xyz
  1  'x, y, z'
loop_
 _atom_site_type_symbol
 _atom_site_label
 _atom_site_symmetry_multiplicity
 _atom_site_fract_x
 _atom_site_fract_y
 _atom_site_fract_z
 _atom_site_occupancy
  Ho  Ho0  1  0.296662  0.086081  0.366554  1
  Ho  Ho1  1  0.291506  0.904330  0.879381  1
  Ho  Ho2  1  0.707722  0.088376  0.875918  1
  Ho  Ho3  1  0.703192  0.920448  0.364598  1
  Ho  Ho4  1  0.575105  0.791728  0.861153  1
  Ho  Ho5  1  0.586136  0.206346  0.365444  1
  Ho  Ho6  1  0.403382  0.793907  0.379924  1
  Ho  Ho7  1  0.411650  0.204859  0.876611  1
  Ho  Ho8  1  0.210918  0.419029  0.627707  1
  Ho  Ho9  1  0.209861  0.591368  0.123042  1
  Ho  Ho10  1  0.800511  0.406978  0.131570  1
  Ho  Ho11  1  0.800056  0.583612  0.635038  1
  Ho  Ho12  1  0.923517  0.704442  0.135634  1
  Ho  Ho13  1  0.913677  0.290804  0.623128  1
  Ho  Ho14  1  0.097495  0.707719  0.623296  1
  Ho  Ho15  1  0.090274  0.297067  0.135779  1
  Ho  Ho16  1  0.999454  0.998789  0.497191  1
  Ho  Ho17  1  0.999760  0.001506  0.001850  1
  Ho  Ho18  1  0.490485  0.498821  0.000657  1
  Ho  Ho19  1  0.493319  0.502180  0.498696  1
  Ir  Ir20  1  0.345633  0.653399  0.748858  1
  Rh  Rh21  1  0.847138  0.151233  0.250078  1
  Rh  Rh22  1  0.150939  0.848480  0.249734  1
  Rh  Rh23  1  0.344271  0.344471  0.249567  1
  Rh  Rh24  1  0.499790  0.999564  0.117310  1
  Rh  Rh25  1  0.499876  0.001199  0.621091  1
  Rh  Rh26  1  0.999919  0.500547  0.878619  1
  Rh  Rh27  1  0.000274  0.499641  0.382788  1
  Au  Au28  1  0.840947  0.843291  0.751866  1
  Au  Au29  1  0.155799  0.157590  0.747999  1
  Au  Au30  1  0.653375  0.345855  0.750176  1
  Au  Au31  1  0.657358  0.656337  0.248742  1
