# generated using pymatgen
data_GdI31
_symmetry_space_group_name_H-M   'P 1'
_cell_length_a   9.16918000
_cell_length_b   10.38510117
_cell_length_c   20.67628600
_cell_angle_alpha   85.30545102
_cell_angle_beta   90.00000000
_cell_angle_gamma   90.00000000
_symmetry_Int_Tables_number   1
_chemical_formula_structural   GdI31
_chemical_formula_sum   'Gd1 I31'
_cell_volume   1962.24996806
_cell_formula_units_Z   1
loop_
 _symmetry_equiv_pos_site_id
 _symmetry_equiv_pos_as_xyz
  1  'x, y, z'
loop_
 _atom_site_type_symbol
 _atom_site_label
 _atom_site_symmetry_multiplicity
 _atom_site_fract_x
 _atom_site_fract_y
 _atom_site_fract_z
 _atom_site_occupancy
  Gd  Gd0  1  0.750000  0.902280  0.174455  1
  I  I1  1  0.750000  0.423505  0.349824  1
  I  I2  1  0.250000  0.647479  0.664927  1
  I  I3  1  0.250000  0.109968  0.838334  1
  I  I4  1  0.250000  0.328613  0.162305  1
  I  I5  1  0.750000  0.956204  0.748031  1
  I  I6  1  0.750000  0.912880  0.314016  1
  I  I7  1  0.478465  0.777139  0.137806  1
  I  I8  1  0.250000  0.560479  0.316673  1
  I  I9  1  0.504087  0.781982  0.598718  1
  I  I10  1  0.250000  0.682350  0.810626  1
  I  I11  1  0.250000  0.076654  0.414214  1
  I  I12  1  0.750000  0.512544  0.483756  1
  I  I13  1  0.503131  0.249296  0.888572  1
  I  I14  1  0.250000  0.718427  0.945712  1
  I  I15  1  0.750000  0.336395  0.219099  1
  I  I16  1  0.496354  0.245494  0.382888  1
  I  I17  1  0.750000  0.213254  0.670097  1
  I  I18  1  0.250000  0.813705  0.344179  1
  I  I19  1  0.003646  0.245494  0.382888  1
  I  I20  1  0.750000  0.903915  0.532141  1
  I  I21  1  0.021535  0.777139  0.137806  1
  I  I22  1  0.250000  0.065165  0.146935  1
  I  I23  1  0.750000  0.141011  0.089207  1
  I  I24  1  0.750000  0.691635  0.806815  1
  I  I25  1  0.750000  0.453789  0.729845  1
  I  I26  1  0.250000  0.490992  0.041094  1
  I  I27  1  0.995913  0.781982  0.598718  1
  I  I28  1  0.750000  0.389052  0.934935  1
  I  I29  1  0.250000  0.332225  0.560100  1
  I  I30  1  0.250000  0.229652  0.686713  1
  I  I31  1  0.996869  0.249296  0.888572  1
