# generated using pymatgen
data_K3Tm(VS4)2
_symmetry_space_group_name_H-M   'P 1'
_cell_length_a   8.76030847
_cell_length_b   9.86177243
_cell_length_c   10.55922600
_cell_angle_alpha   107.28122616
_cell_angle_beta   102.92688813
_cell_angle_gamma   114.16558186
_symmetry_Int_Tables_number   1
_chemical_formula_structural   K3Tm(VS4)2
_chemical_formula_sum   'K6 Tm2 V4 S16'
_cell_volume   729.62282786
_cell_formula_units_Z   2
loop_
 _symmetry_equiv_pos_site_id
 _symmetry_equiv_pos_as_xyz
  1  'x, y, z'
loop_
 _atom_site_type_symbol
 _atom_site_label
 _atom_site_symmetry_multiplicity
 _atom_site_fract_x
 _atom_site_fract_y
 _atom_site_fract_z
 _atom_site_occupancy
  K  K0  1  0.999998  0.499998  0.999995  1
  K  K1  1  0.499998  0.499996  0.999997  1
  K  K2  1  0.757171  0.007078  0.014230  1
  K  K3  1  0.986860  0.736905  0.473961  1
  K  K4  1  0.013139  0.263096  0.526034  1
  K  K5  1  0.242826  0.992916  0.985766  1
  Tm  Tm6  1  0.492288  0.242295  0.484604  1
  Tm  Tm7  1  0.507714  0.757706  0.515397  1
  V  V8  1  0.248021  0.347050  0.252401  1
  V  V9  1  0.504363  0.905419  0.252467  1
  V  V10  1  0.495636  0.094582  0.747534  1
  V  V11  1  0.751979  0.652950  0.747599  1
  S  S12  1  0.144021  0.268714  0.025278  1
  S  S13  1  0.381182  0.756622  0.025301  1
  S  S14  1  0.157006  0.128722  0.292481  1
  S  S15  1  0.635411  0.163785  0.292479  1
  S  S16  1  0.540255  0.481644  0.346526  1
  S  S17  1  0.306296  0.864954  0.346570  1
  S  S18  1  0.151615  0.500992  0.354146  1
  S  S19  1  0.702573  0.853293  0.354222  1
  S  S20  1  0.297429  0.146709  0.645780  1
  S  S21  1  0.848383  0.499010  0.645856  1
  S  S22  1  0.693702  0.135047  0.653432  1
  S  S23  1  0.459744  0.518357  0.653475  1
  S  S24  1  0.364590  0.836217  0.707521  1
  S  S25  1  0.842994  0.871278  0.707519  1
  S  S26  1  0.618821  0.243380  0.974704  1
  S  S27  1  0.855980  0.731285  0.974724  1
