# generated using pymatgen
data_PmSi2PtAu
_symmetry_space_group_name_H-M   'P 1'
_cell_length_a   5.86293850
_cell_length_b   5.86293766
_cell_length_c   5.86293790
_cell_angle_alpha   136.96422002
_cell_angle_beta   136.96421185
_cell_angle_gamma   62.49311472
_symmetry_Int_Tables_number   1
_chemical_formula_structural   PmSi2PtAu
_chemical_formula_sum   'Pm1 Si2 Pt1 Au1'
_cell_volume   92.72187621
_cell_formula_units_Z   1
loop_
 _symmetry_equiv_pos_site_id
 _symmetry_equiv_pos_as_xyz
  1  'x, y, z'
loop_
 _atom_site_type_symbol
 _atom_site_label
 _atom_site_symmetry_multiplicity
 _atom_site_fract_x
 _atom_site_fract_y
 _atom_site_fract_z
 _atom_site_occupancy
  Pm  Pm0  1  0.000000  0.000000  0.000000  1
  Si  Si1  1  0.382205  0.382205  0.000000  1
  Si  Si2  1  0.617794  0.617794  0.000000  1
  Pt  Pt3  1  0.250000  0.750000  0.500000  1
  Au  Au4  1  0.750000  0.250000  0.500000  1
