# generated using pymatgen
data_La2Mn3Co9As7
_symmetry_space_group_name_H-M   'P 1'
_cell_length_a   9.55358700
_cell_length_b   9.55358772
_cell_length_c   3.81625600
_cell_angle_alpha   90.00000000
_cell_angle_beta   90.00000000
_cell_angle_gamma   120.00000791
_symmetry_Int_Tables_number   1
_chemical_formula_structural   La2Mn3Co9As7
_chemical_formula_sum   'La2 Mn3 Co9 As7'
_cell_volume   301.64842043
_cell_formula_units_Z   1
loop_
 _symmetry_equiv_pos_site_id
 _symmetry_equiv_pos_as_xyz
  1  'x, y, z'
loop_
 _atom_site_type_symbol
 _atom_site_label
 _atom_site_symmetry_multiplicity
 _atom_site_fract_x
 _atom_site_fract_y
 _atom_site_fract_z
 _atom_site_occupancy
  La  La0  1  0.666667  0.333333  0.000000  1
  La  La1  1  0.333333  0.666667  0.500000  1
  Mn  Mn2  1  0.219165  0.107396  0.000000  1
  Mn  Mn3  1  0.892604  0.111770  0.000000  1
  Mn  Mn4  1  0.888230  0.780835  0.000000  1
  Co  Co5  1  0.427212  0.058310  0.500000  1
  Co  Co6  1  0.941690  0.368903  0.500000  1
  Co  Co7  1  0.631097  0.572788  0.500000  1
  Co  Co8  1  0.154957  0.274433  0.500000  1
  Co  Co9  1  0.725567  0.880523  0.500000  1
  Co  Co10  1  0.119477  0.845043  0.500000  1
  Co  Co11  1  0.382278  0.432811  0.000000  1
  Co  Co12  1  0.567189  0.949467  0.000000  1
  Co  Co13  1  0.050533  0.617722  0.000000  1
  As  As14  1  0.110766  0.402007  0.000000  1
  As  As15  1  0.597993  0.708758  0.000000  1
  As  As16  1  0.291242  0.889234  0.000000  1
  As  As17  1  0.000000  0.000000  0.500000  1
  As  As18  1  0.409603  0.302476  0.500000  1
  As  As19  1  0.697524  0.107125  0.500000  1
  As  As20  1  0.892875  0.590397  0.500000  1
