# generated using pymatgen
data_TbHo2In3CuHgPd
_symmetry_space_group_name_H-M   'P 1'
_cell_length_a   7.80007568
_cell_length_b   7.79345267
_cell_length_c   3.86862300
_cell_angle_alpha   90.00000000
_cell_angle_beta   90.00000000
_cell_angle_gamma   119.93300101
_symmetry_Int_Tables_number   1
_chemical_formula_structural   TbHo2In3CuHgPd
_chemical_formula_sum   'Tb1 Ho2 In3 Cu1 Hg1 Pd1'
_cell_volume   203.80205927
_cell_formula_units_Z   1
loop_
 _symmetry_equiv_pos_site_id
 _symmetry_equiv_pos_as_xyz
  1  'x, y, z'
loop_
 _atom_site_type_symbol
 _atom_site_label
 _atom_site_symmetry_multiplicity
 _atom_site_fract_x
 _atom_site_fract_y
 _atom_site_fract_z
 _atom_site_occupancy
  Tb  Tb0  1  0.981607  0.586639  0.000000  1
  Ho  Ho1  1  0.413482  0.393612  0.000000  1
  Ho  Ho2  1  0.605943  0.019640  0.000000  1
  In  In3  1  0.753192  0.749919  0.500000  1
  In  In4  1  0.996389  0.246376  0.500000  1
  In  In5  1  0.250605  0.004261  0.500000  1
  Cu  Cu6  1  0.998938  0.000746  0.000000  1
  Hg  Hg7  1  0.335111  0.667226  0.500000  1
  Pd  Pd8  1  0.664730  0.331583  0.500000  1
