# generated using pymatgen
data_Y10SiSn6Hg
_symmetry_space_group_name_H-M   'P 1'
_cell_length_a   9.18008800
_cell_length_b   9.18008900
_cell_length_c   6.73433500
_cell_angle_alpha   90.00000000
_cell_angle_beta   90.00000000
_cell_angle_gamma   120.00000359
_symmetry_Int_Tables_number   1
_chemical_formula_structural   Y10SiSn6Hg
_chemical_formula_sum   'Y10 Si1 Sn6 Hg1'
_cell_volume   491.49496012
_cell_formula_units_Z   1
loop_
 _symmetry_equiv_pos_site_id
 _symmetry_equiv_pos_as_xyz
  1  'x, y, z'
loop_
 _atom_site_type_symbol
 _atom_site_label
 _atom_site_symmetry_multiplicity
 _atom_site_fract_x
 _atom_site_fract_y
 _atom_site_fract_z
 _atom_site_occupancy
  Y  Y0  1  0.666667  0.333333  0.000000  1
  Y  Y1  1  0.333333  0.666667  0.000000  1
  Y  Y2  1  0.333333  0.666667  0.500000  1
  Y  Y3  1  0.666667  0.333333  0.500000  1
  Y  Y4  1  0.738702  0.738702  0.724901  1
  Y  Y5  1  0.261298  0.000000  0.724901  1
  Y  Y6  1  0.000000  0.261298  0.724901  1
  Y  Y7  1  0.261298  0.261298  0.275099  1
  Y  Y8  1  0.738702  0.000000  0.275099  1
  Y  Y9  1  0.000000  0.738702  0.275099  1
  Si  Si10  1  0.000000  0.000000  0.500000  1
  Sn  Sn11  1  0.389716  0.389716  0.751691  1
  Sn  Sn12  1  0.610284  0.000000  0.751691  1
  Sn  Sn13  1  0.000000  0.610284  0.751691  1
  Sn  Sn14  1  0.610284  0.610284  0.248309  1
  Sn  Sn15  1  0.389716  0.000000  0.248309  1
  Sn  Sn16  1  0.000000  0.389716  0.248309  1
  Hg  Hg17  1  0.000000  0.000000  0.000000  1
