# generated using pymatgen
data_Pr(HoS2)2
_symmetry_space_group_name_H-M   'P 1'
_cell_length_a   3.89253500
_cell_length_b   13.10949200
_cell_length_c   13.07345100
_cell_angle_alpha   90.00000000
_cell_angle_beta   90.00000000
_cell_angle_gamma   90.00000000
_symmetry_Int_Tables_number   1
_chemical_formula_structural   Pr(HoS2)2
_chemical_formula_sum   'Pr4 Ho8 S16'
_cell_volume   667.12717632
_cell_formula_units_Z   4
loop_
 _symmetry_equiv_pos_site_id
 _symmetry_equiv_pos_as_xyz
  1  'x, y, z'
loop_
 _atom_site_type_symbol
 _atom_site_label
 _atom_site_symmetry_multiplicity
 _atom_site_fract_x
 _atom_site_fract_y
 _atom_site_fract_z
 _atom_site_occupancy
  Pr  Pr0  1  0.250000  0.369889  0.588279  1
  Pr  Pr1  1  0.250000  0.869889  0.911721  1
  Pr  Pr2  1  0.750000  0.630111  0.411721  1
  Pr  Pr3  1  0.750000  0.130111  0.088279  1
  Ho  Ho4  1  0.250000  0.110760  0.424953  1
  Ho  Ho5  1  0.250000  0.610760  0.075047  1
  Ho  Ho6  1  0.750000  0.889240  0.575047  1
  Ho  Ho7  1  0.750000  0.389240  0.924953  1
  Ho  Ho8  1  0.250000  0.147904  0.795395  1
  Ho  Ho9  1  0.250000  0.647904  0.704605  1
  Ho  Ho10  1  0.750000  0.852096  0.204605  1
  Ho  Ho11  1  0.750000  0.352096  0.295395  1
  S  S12  1  0.250000  0.214962  0.237886  1
  S  S13  1  0.250000  0.714962  0.262114  1
  S  S14  1  0.750000  0.785038  0.762113  1
  S  S15  1  0.750000  0.285038  0.737887  1
  S  S16  1  0.250000  0.253777  0.976152  1
  S  S17  1  0.250000  0.753777  0.523848  1
  S  S18  1  0.750000  0.746223  0.023848  1
  S  S19  1  0.750000  0.246223  0.476152  1
  S  S20  1  0.250000  0.467010  0.383067  1
  S  S21  1  0.250000  0.967010  0.116933  1
  S  S22  1  0.750000  0.532990  0.616933  1
  S  S23  1  0.750000  0.032990  0.883067  1
  S  S24  1  0.250000  0.028452  0.621763  1
  S  S25  1  0.250000  0.528452  0.878237  1
  S  S26  1  0.750000  0.971548  0.378237  1
  S  S27  1  0.750000  0.471548  0.121763  1
