# generated using pymatgen
data_DyCl19
_symmetry_space_group_name_H-M   'P 1'
_cell_length_a   8.75352240
_cell_length_b   11.04364406
_cell_length_c   8.33317700
_cell_angle_alpha   72.01688111
_cell_angle_beta   81.02450991
_cell_angle_gamma   90.05718931
_symmetry_Int_Tables_number   1
_chemical_formula_structural   DyCl19
_chemical_formula_sum   'Dy1 Cl19'
_cell_volume   755.80119070
_cell_formula_units_Z   1
loop_
 _symmetry_equiv_pos_site_id
 _symmetry_equiv_pos_as_xyz
  1  'x, y, z'
loop_
 _atom_site_type_symbol
 _atom_site_label
 _atom_site_symmetry_multiplicity
 _atom_site_fract_x
 _atom_site_fract_y
 _atom_site_fract_z
 _atom_site_occupancy
  Dy  Dy0  1  0.883653  0.585295  0.351162  1
  Cl  Cl1  1  0.410057  0.464227  0.581056  1
  Cl  Cl2  1  0.855036  0.523495  0.079816  1
  Cl  Cl3  1  0.671252  0.391776  0.575079  1
  Cl  Cl4  1  0.108398  0.638695  0.050396  1
  Cl  Cl5  1  0.090077  0.645293  0.496094  1
  Cl  Cl6  1  0.564767  0.302022  0.094129  1
  Cl  Cl7  1  0.916665  0.341455  0.555755  1
  Cl  Cl8  1  0.325937  0.734205  0.040373  1
  Cl  Cl9  1  0.152285  0.877577  0.540262  1
  Cl  Cl10  1  0.704390  0.094661  0.945155  1
  Cl  Cl11  1  0.836671  0.131139  0.392736  1
  Cl  Cl12  1  0.226063  0.960533  0.022931  1
  Cl  Cl13  1  0.205161  0.046366  0.574198  1
  Cl  Cl14  1  0.800183  0.953799  0.864275  1
  Cl  Cl15  1  0.763247  0.959653  0.385984  1
  Cl  Cl16  1  0.131760  0.133314  0.012798  1
  Cl  Cl17  1  0.658081  0.719692  0.367772  1
  Cl  Cl18  1  0.284984  0.306740  0.774799  1
  Cl  Cl19  1  0.411335  0.190063  0.295231  1
