# generated using pymatgen
data_AgHg2IO6
_symmetry_space_group_name_H-M   'P 1'
_cell_length_a   5.69387959
_cell_length_b   5.72605800
_cell_length_c   8.72849095
_cell_angle_alpha   90.00000000
_cell_angle_beta   87.85407838
_cell_angle_gamma   90.00000000
_symmetry_Int_Tables_number   1
_chemical_formula_structural   AgHg2IO6
_chemical_formula_sum   'Ag2 Hg4 I2 O12'
_cell_volume   284.37964742
_cell_formula_units_Z   2
loop_
 _symmetry_equiv_pos_site_id
 _symmetry_equiv_pos_as_xyz
  1  'x, y, z'
loop_
 _atom_site_type_symbol
 _atom_site_label
 _atom_site_symmetry_multiplicity
 _atom_site_fract_x
 _atom_site_fract_y
 _atom_site_fract_z
 _atom_site_occupancy
  Ag  Ag0  1  0.500000  0.500000  0.000000  1
  Ag  Ag1  1  0.000000  0.000000  0.500000  1
  Hg  Hg2  1  0.494727  0.970223  0.759923  1
  Hg  Hg3  1  0.005273  0.470223  0.740077  1
  Hg  Hg4  1  0.505273  0.029777  0.240077  1
  Hg  Hg5  1  0.994727  0.529777  0.259923  1
  I  I6  1  0.500000  0.500000  0.500000  1
  I  I7  1  0.000000  0.000000  0.000000  1
  O  O8  1  0.337653  0.233294  0.592969  1
  O  O9  1  0.162347  0.733294  0.907031  1
  O  O10  1  0.662347  0.766706  0.407031  1
  O  O11  1  0.837653  0.266706  0.092969  1
  O  O12  1  0.612107  0.593042  0.700686  1
  O  O13  1  0.887893  0.093042  0.799314  1
  O  O14  1  0.387893  0.406958  0.299314  1
  O  O15  1  0.112107  0.906958  0.200686  1
  O  O16  1  0.217067  0.676706  0.539838  1
  O  O17  1  0.282933  0.176706  0.960162  1
  O  O18  1  0.782933  0.323294  0.460162  1
  O  O19  1  0.717067  0.823294  0.039838  1
