# generated using pymatgen
data_Yb3YOs5Ru3
_symmetry_space_group_name_H-M   'P 1'
_cell_length_a   5.26630823
_cell_length_b   5.18930277
_cell_length_c   8.96759047
_cell_angle_alpha   90.00256945
_cell_angle_beta   89.96639423
_cell_angle_gamma   119.57414808
_symmetry_Int_Tables_number   1
_chemical_formula_structural   Yb3YOs5Ru3
_chemical_formula_sum   'Yb3 Y1 Os5 Ru3'
_cell_volume   213.14211559
_cell_formula_units_Z   1
loop_
 _symmetry_equiv_pos_site_id
 _symmetry_equiv_pos_as_xyz
  1  'x, y, z'
loop_
 _atom_site_type_symbol
 _atom_site_label
 _atom_site_symmetry_multiplicity
 _atom_site_fract_x
 _atom_site_fract_y
 _atom_site_fract_z
 _atom_site_occupancy
  Yb  Yb0  1  0.332041  0.666026  0.430502  1
  Yb  Yb1  1  0.332063  0.665979  0.065516  1
  Yb  Yb2  1  0.666084  0.333080  0.939341  1
  Y  Y3  1  0.666775  0.333453  0.566669  1
  Os  Os4  1  0.173832  0.344436  0.749927  1
  Os  Os5  1  0.174014  0.829033  0.749915  1
  Os  Os6  1  0.660845  0.830275  0.750882  1
  Os  Os7  1  0.835903  0.661901  0.249422  1
  Os  Os8  1  0.834803  0.174558  0.249402  1
  Ru  Ru9  1  0.987847  0.993829  0.498880  1
  Ru  Ru10  1  0.986483  0.993213  0.999093  1
  Ru  Ru11  1  0.349307  0.174219  0.250453  1
