# generated using pymatgen
data_Dy2Si4Ni17Rh
_symmetry_space_group_name_H-M   'P 1'
_cell_length_a   7.59839282
_cell_length_b   7.59839089
_cell_length_c   7.59839142
_cell_angle_alpha   99.47734064
_cell_angle_beta   99.47734760
_cell_angle_gamma   132.11993684
_symmetry_Int_Tables_number   1
_chemical_formula_structural   Dy2Si4Ni17Rh
_chemical_formula_sum   'Dy2 Si4 Ni17 Rh1'
_cell_volume   297.40651381
_cell_formula_units_Z   1
loop_
 _symmetry_equiv_pos_site_id
 _symmetry_equiv_pos_as_xyz
  1  'x, y, z'
loop_
 _atom_site_type_symbol
 _atom_site_label
 _atom_site_symmetry_multiplicity
 _atom_site_fract_x
 _atom_site_fract_y
 _atom_site_fract_z
 _atom_site_occupancy
  Dy  Dy0  1  0.500000  0.500000  0.000000  1
  Dy  Dy1  1  0.750000  0.250000  0.500000  1
  Si  Si2  1  0.626389  0.875048  0.751341  1
  Si  Si3  1  0.124952  0.373611  0.248659  1
  Si  Si4  1  0.124952  0.876293  0.751341  1
  Si  Si5  1  0.123707  0.875048  0.248659  1
  Ni  Ni6  1  0.000000  0.000000  0.000000  1
  Ni  Ni7  1  0.687246  0.013137  0.078980  1
  Ni  Ni8  1  0.687246  0.608267  0.674109  1
  Ni  Ni9  1  0.264436  0.433780  0.581108  1
  Ni  Ni10  1  0.264436  0.683328  0.830656  1
  Ni  Ni11  1  0.934157  0.013137  0.325891  1
  Ni  Ni12  1  0.934157  0.608267  0.921020  1
  Ni  Ni13  1  0.852673  0.433780  0.169344  1
  Ni  Ni14  1  0.852673  0.683328  0.418892  1
  Ni  Ni15  1  0.566220  0.735564  0.418892  1
  Ni  Ni16  1  0.566220  0.147327  0.830656  1
  Ni  Ni17  1  0.986863  0.312754  0.921020  1
  Ni  Ni18  1  0.986863  0.065843  0.674109  1
  Ni  Ni19  1  0.316672  0.735564  0.169344  1
  Ni  Ni20  1  0.316672  0.147327  0.581108  1
  Ni  Ni21  1  0.391733  0.312754  0.325891  1
  Ni  Ni22  1  0.391733  0.065843  0.078980  1
  Rh  Rh23  1  0.250000  0.750000  0.500000  1
