# generated using pymatgen
data_CsK8Rb3(AsSe4)4
_symmetry_space_group_name_H-M   'P 1'
_cell_length_a   9.79011769
_cell_length_b   10.31914320
_cell_length_c   11.06767700
_cell_angle_alpha   90.00000000
_cell_angle_beta   90.00000000
_cell_angle_gamma   90.37196949
_symmetry_Int_Tables_number   1
_chemical_formula_structural   CsK8Rb3(AsSe4)4
_chemical_formula_sum   'Cs1 K8 Rb3 As4 Se16'
_cell_volume   1118.09543951
_cell_formula_units_Z   1
loop_
 _symmetry_equiv_pos_site_id
 _symmetry_equiv_pos_as_xyz
  1  'x, y, z'
loop_
 _atom_site_type_symbol
 _atom_site_label
 _atom_site_symmetry_multiplicity
 _atom_site_fract_x
 _atom_site_fract_y
 _atom_site_fract_z
 _atom_site_occupancy
  Cs  Cs0  1  0.841175  0.907128  0.250000  1
  K  K1  1  0.568270  0.196161  0.046149  1
  K  K2  1  0.068888  0.305196  0.450226  1
  K  K3  1  0.429229  0.806849  0.548381  1
  K  K4  1  0.931594  0.694002  0.951137  1
  K  K5  1  0.429229  0.806849  0.951619  1
  K  K6  1  0.931594  0.694002  0.548863  1
  K  K7  1  0.568270  0.196161  0.453851  1
  K  K8  1  0.068888  0.305196  0.049774  1
  Rb  Rb9  1  0.648235  0.418945  0.750000  1
  Rb  Rb10  1  0.150210  0.084293  0.750000  1
  Rb  Rb11  1  0.353839  0.582011  0.250000  1
  As  As12  1  0.727216  0.975776  0.750000  1
  As  As13  1  0.226528  0.525204  0.750000  1
  As  As14  1  0.271378  0.025718  0.250000  1
  As  As15  1  0.775814  0.473851  0.250000  1
  Se  Se16  1  0.852833  0.026927  0.574359  1
  Se  Se17  1  0.352007  0.474997  0.925898  1
  Se  Se18  1  0.147697  0.975880  0.072421  1
  Se  Se19  1  0.652199  0.528181  0.426078  1
  Se  Se20  1  0.147697  0.975880  0.427579  1
  Se  Se21  1  0.652199  0.528181  0.073922  1
  Se  Se22  1  0.852833  0.026927  0.925641  1
  Se  Se23  1  0.352007  0.474997  0.574102  1
  Se  Se24  1  0.677289  0.752040  0.750000  1
  Se  Se25  1  0.177279  0.748343  0.750000  1
  Se  Se26  1  0.323955  0.248681  0.250000  1
  Se  Se27  1  0.818024  0.250057  0.250000  1
  Se  Se28  1  0.517382  0.090380  0.750000  1
  Se  Se29  1  0.016456  0.409906  0.750000  1
  Se  Se30  1  0.479286  0.910414  0.250000  1
  Se  Se31  1  0.990503  0.580868  0.250000  1
