# generated using pymatgen
data_Ti8Al15Ir3Pt4
_symmetry_space_group_name_H-M   'P 1'
_cell_length_a   8.68160078
_cell_length_b   8.68202057
_cell_length_c   8.69444276
_cell_angle_alpha   120.01707670
_cell_angle_beta   119.92969569
_cell_angle_gamma   90.08524450
_symmetry_Int_Tables_number   1
_chemical_formula_structural   Ti8Al15Ir3Pt4
_chemical_formula_sum   'Ti8 Al15 Ir3 Pt4'
_cell_volume   463.41802442
_cell_formula_units_Z   1
loop_
 _symmetry_equiv_pos_site_id
 _symmetry_equiv_pos_as_xyz
  1  'x, y, z'
loop_
 _atom_site_type_symbol
 _atom_site_label
 _atom_site_symmetry_multiplicity
 _atom_site_fract_x
 _atom_site_fract_y
 _atom_site_fract_z
 _atom_site_occupancy
  Ti  Ti0  1  0.791468  0.290901  0.077138  1
  Ti  Ti1  1  0.213330  0.289352  0.499783  1
  Ti  Ti2  1  0.209037  0.709263  0.498914  1
  Ti  Ti3  1  0.212152  0.712908  0.922440  1
  Ti  Ti4  1  0.791386  0.714338  0.501721  1
  Ti  Ti5  1  0.785333  0.285525  0.501443  1
  Ti  Ti6  1  0.379930  0.122051  0.741354  1
  Ti  Ti7  1  0.373927  0.636594  0.254160  1
  Al  Al8  1  0.997372  0.497182  0.500045  1
  Al  Al9  1  0.153915  0.342870  0.186818  1
  Al  Al10  1  0.155305  0.968408  0.812705  1
  Al  Al11  1  0.151836  0.345060  0.807924  1
  Al  Al12  1  0.537638  0.345622  0.192427  1
  Al  Al13  1  0.847332  0.654642  0.810909  1
  Al  Al14  1  0.846957  0.037678  0.191052  1
  Al  Al15  1  0.845157  0.654411  0.187394  1
  Al  Al16  1  0.465607  0.654646  0.810155  1
  Al  Al17  1  0.374747  0.118616  0.256841  1
  Al  Al18  1  0.863240  0.123605  0.746731  1
  Al  Al19  1  0.620912  0.878656  0.258735  1
  Al  Al20  1  0.625256  0.363783  0.744819  1
  Al  Al21  1  0.626424  0.880626  0.744490  1
  Al  Al22  1  0.134317  0.876707  0.252180  1
  Ir  Ir23  1  0.001025  0.500067  0.001107  1
  Ir  Ir24  1  0.000488  0.000092  0.999705  1
  Ir  Ir25  1  0.498127  0.998479  0.499793  1
  Pt  Pt26  1  0.998432  0.998631  0.498495  1
  Pt  Pt27  1  0.500123  0.999008  0.000252  1
  Pt  Pt28  1  0.499654  0.500408  0.000394  1
  Pt  Pt29  1  0.499571  0.499871  0.500077  1
