# generated using pymatgen
data_LiTb4Ho12In3Ir4
_symmetry_space_group_name_H-M   'P 1'
_cell_length_a   9.65189868
_cell_length_b   9.64316516
_cell_length_c   9.64316583
_cell_angle_alpha   59.90917147
_cell_angle_beta   59.87136641
_cell_angle_gamma   59.87136472
_symmetry_Int_Tables_number   1
_chemical_formula_structural   LiTb4Ho12In3Ir4
_chemical_formula_sum   'Li1 Tb4 Ho12 In3 Ir4'
_cell_volume   632.98295078
_cell_formula_units_Z   1
loop_
 _symmetry_equiv_pos_site_id
 _symmetry_equiv_pos_as_xyz
  1  'x, y, z'
loop_
 _atom_site_type_symbol
 _atom_site_label
 _atom_site_symmetry_multiplicity
 _atom_site_fract_x
 _atom_site_fract_y
 _atom_site_fract_z
 _atom_site_occupancy
  Li  Li0  1  0.821311  0.820958  0.820958  1
  Tb  Tb1  1  0.811104  0.189046  0.811108  1
  Tb  Tb2  1  0.189828  0.809873  0.190100  1
  Tb  Tb3  1  0.811104  0.811108  0.189046  1
  Tb  Tb4  1  0.189828  0.190100  0.809873  1
  Ho  Ho5  1  0.599734  0.599326  0.599326  1
  Ho  Ho6  1  0.598488  0.598698  0.205342  1
  Ho  Ho7  1  0.598488  0.205342  0.598698  1
  Ho  Ho8  1  0.204731  0.598766  0.598766  1
  Ho  Ho9  1  0.058539  0.441809  0.441809  1
  Ho  Ho10  1  0.436135  0.062141  0.062141  1
  Ho  Ho11  1  0.441892  0.058492  0.441851  1
  Ho  Ho12  1  0.061892  0.436490  0.061847  1
  Ho  Ho13  1  0.441892  0.441851  0.058492  1
  Ho  Ho14  1  0.061892  0.061847  0.436490  1
  Ho  Ho15  1  0.190737  0.809826  0.809826  1
  Ho  Ho16  1  0.809022  0.190962  0.190962  1
  In  In17  1  0.832589  0.833307  0.504446  1
  In  In18  1  0.832589  0.504446  0.833307  1
  In  In19  1  0.505105  0.832488  0.832488  1
  Ir  Ir20  1  0.392597  0.391973  0.391973  1
  Ir  Ir21  1  0.392018  0.392984  0.826297  1
  Ir  Ir22  1  0.392018  0.826297  0.392984  1
  Ir  Ir23  1  0.826466  0.391869  0.391869  1
