# generated using pymatgen
data_Ce4Er4Sc11Si16Hg
_symmetry_space_group_name_H-M   'P 1'
_cell_length_a   7.03511434
_cell_length_b   7.38311608
_cell_length_c   13.99437100
_cell_angle_alpha   90.00592893
_cell_angle_beta   90.01792551
_cell_angle_gamma   89.89650568
_symmetry_Int_Tables_number   1
_chemical_formula_structural   Ce4Er4Sc11Si16Hg
_chemical_formula_sum   'Ce4 Er4 Sc11 Si16 Hg1'
_cell_volume   726.88132063
_cell_formula_units_Z   1
loop_
 _symmetry_equiv_pos_site_id
 _symmetry_equiv_pos_as_xyz
  1  'x, y, z'
loop_
 _atom_site_type_symbol
 _atom_site_label
 _atom_site_symmetry_multiplicity
 _atom_site_fract_x
 _atom_site_fract_y
 _atom_site_fract_z
 _atom_site_occupancy
  Ce  Ce0  1  0.007345  0.169425  0.096463  1
  Ce  Ce1  1  0.993240  0.821279  0.903844  1
  Ce  Ce2  1  0.484370  0.673155  0.903856  1
  Ce  Ce3  1  0.990788  0.819243  0.595813  1
  Er  Er4  1  0.508322  0.324677  0.098195  1
  Er  Er5  1  0.010042  0.174256  0.401128  1
  Er  Er6  1  0.509851  0.324339  0.403188  1
  Er  Er7  1  0.486135  0.673093  0.596896  1
  Sc  Sc8  1  0.837886  0.495051  0.249545  1
  Sc  Sc9  1  0.337449  0.005302  0.250434  1
  Sc  Sc10  1  0.659371  0.999367  0.750551  1
  Sc  Sc11  1  0.326641  0.184379  0.624092  1
  Sc  Sc12  1  0.669267  0.823038  0.375778  1
  Sc  Sc13  1  0.169730  0.680845  0.373472  1
  Sc  Sc14  1  0.669188  0.824594  0.125602  1
  Sc  Sc15  1  0.839177  0.323589  0.623481  1
  Sc  Sc16  1  0.326237  0.182498  0.875248  1
  Sc  Sc17  1  0.842463  0.326743  0.874652  1
  Sc  Sc18  1  0.169826  0.680003  0.127638  1
  Si  Si19  1  0.030409  0.097773  0.748808  1
  Si  Si20  1  0.964631  0.886023  0.250968  1
  Si  Si21  1  0.467610  0.614087  0.251628  1
  Si  Si22  1  0.546561  0.378369  0.749434  1
  Si  Si23  1  0.294347  0.890977  0.748692  1
  Si  Si24  1  0.710919  0.127534  0.251707  1
  Si  Si25  1  0.214261  0.373734  0.250053  1
  Si  Si26  1  0.767247  0.631208  0.748317  1
  Si  Si27  1  0.163956  0.458244  0.527003  1
  Si  Si28  1  0.841602  0.532148  0.460017  1
  Si  Si29  1  0.340972  0.967154  0.460891  1
  Si  Si30  1  0.839328  0.533276  0.040321  1
  Si  Si31  1  0.657464  0.034266  0.539939  1
  Si  Si32  1  0.163061  0.457836  0.974103  1
  Si  Si33  1  0.659910  0.037235  0.960356  1
  Si  Si34  1  0.342925  0.967862  0.039034  1
  Hg  Hg35  1  0.157469  0.507395  0.748854  1
