# generated using pymatgen
data_Yb2CuB2Rh5
_symmetry_space_group_name_H-M   'P 1'
_cell_length_a   9.59584300
_cell_length_b   9.59584300
_cell_length_c   2.99495100
_cell_angle_alpha   90.00000000
_cell_angle_beta   90.00000000
_cell_angle_gamma   90.00000000
_symmetry_Int_Tables_number   1
_chemical_formula_structural   Yb2CuB2Rh5
_chemical_formula_sum   'Yb4 Cu2 B4 Rh10'
_cell_volume   275.77569570
_cell_formula_units_Z   2
loop_
 _symmetry_equiv_pos_site_id
 _symmetry_equiv_pos_as_xyz
  1  'x, y, z'
loop_
 _atom_site_type_symbol
 _atom_site_label
 _atom_site_symmetry_multiplicity
 _atom_site_fract_x
 _atom_site_fract_y
 _atom_site_fract_z
 _atom_site_occupancy
  Yb  Yb0  1  0.824121  0.324121  0.000000  1
  Yb  Yb1  1  0.324121  0.175879  0.000000  1
  Yb  Yb2  1  0.675879  0.824121  0.000000  1
  Yb  Yb3  1  0.175879  0.675879  0.000000  1
  Cu  Cu4  1  0.000000  0.000000  0.000000  1
  Cu  Cu5  1  0.500000  0.500000  0.000000  1
  B  B6  1  0.625161  0.125161  0.000000  1
  B  B7  1  0.125161  0.374839  0.000000  1
  B  B8  1  0.874839  0.625161  0.000000  1
  B  B9  1  0.374839  0.874839  0.000000  1
  Rh  Rh10  1  0.070027  0.219261  0.500000  1
  Rh  Rh11  1  0.219261  0.929973  0.500000  1
  Rh  Rh12  1  0.780739  0.070027  0.500000  1
  Rh  Rh13  1  0.929973  0.780739  0.500000  1
  Rh  Rh14  1  0.429973  0.719261  0.500000  1
  Rh  Rh15  1  0.570027  0.280739  0.500000  1
  Rh  Rh16  1  0.719261  0.570027  0.500000  1
  Rh  Rh17  1  0.280739  0.429973  0.500000  1
  Rh  Rh18  1  0.500000  0.000000  0.500000  1
  Rh  Rh19  1  0.000000  0.500000  0.500000  1
