# generated using pymatgen
data_U4Re7SiGe4P
_symmetry_space_group_name_H-M   'P 1'
_cell_length_a   7.20646411
_cell_length_b   7.19748945
_cell_length_c   7.21412754
_cell_angle_alpha   109.33509279
_cell_angle_beta   109.55624019
_cell_angle_gamma   109.53279231
_symmetry_Int_Tables_number   1
_chemical_formula_structural   U4Re7SiGe4P
_chemical_formula_sum   'U4 Re7 Si1 Ge4 P1'
_cell_volume   288.01004349
_cell_formula_units_Z   1
loop_
 _symmetry_equiv_pos_site_id
 _symmetry_equiv_pos_as_xyz
  1  'x, y, z'
loop_
 _atom_site_type_symbol
 _atom_site_label
 _atom_site_symmetry_multiplicity
 _atom_site_fract_x
 _atom_site_fract_y
 _atom_site_fract_z
 _atom_site_occupancy
  U  U0  1  0.495511  0.493072  0.497373  1
  U  U1  1  0.000638  0.998384  0.483968  1
  U  U2  1  0.495523  0.998124  0.002374  1
  U  U3  1  0.000615  0.516660  0.002239  1
  Re  Re4  1  0.748018  0.249526  0.498807  1
  Re  Re5  1  0.500608  0.250677  0.747791  1
  Re  Re6  1  0.500456  0.752475  0.250016  1
  Re  Re7  1  0.249250  0.501704  0.747417  1
  Re  Re8  1  0.746047  0.501410  0.244809  1
  Re  Re9  1  0.253656  0.754507  0.498880  1
  Re  Re10  1  0.009153  0.988578  0.020649  1
  Si  Si11  1  0.679984  0.684021  0.995998  1
  Ge  Ge12  1  0.298080  0.302742  0.995211  1
  Ge  Ge13  1  0.997463  0.310160  0.302931  1
  Ge  Ge14  1  0.997358  0.694602  0.687253  1
  Ge  Ge15  1  0.706341  0.001951  0.704350  1
  P  P16  1  0.321300  0.001411  0.319933  1
