# generated using pymatgen
data_Nd2P6Rh12Pb
_symmetry_space_group_name_H-M   'P 1'
_cell_length_a   9.89194000
_cell_length_b   9.89193985
_cell_length_c   3.89161100
_cell_angle_alpha   90.00000000
_cell_angle_beta   90.00000000
_cell_angle_gamma   120.00001389
_symmetry_Int_Tables_number   1
_chemical_formula_structural   Nd2P6Rh12Pb
_chemical_formula_sum   'Nd2 P6 Rh12 Pb1'
_cell_volume   329.77895187
_cell_formula_units_Z   1
loop_
 _symmetry_equiv_pos_site_id
 _symmetry_equiv_pos_as_xyz
  1  'x, y, z'
loop_
 _atom_site_type_symbol
 _atom_site_label
 _atom_site_symmetry_multiplicity
 _atom_site_fract_x
 _atom_site_fract_y
 _atom_site_fract_z
 _atom_site_occupancy
  Nd  Nd0  1  0.333333  0.666667  0.753834  1
  Nd  Nd1  1  0.666667  0.333333  0.246166  1
  P  P2  1  0.886318  0.596397  0.744940  1
  P  P3  1  0.403603  0.289920  0.744940  1
  P  P4  1  0.710080  0.113682  0.744940  1
  P  P5  1  0.113682  0.403603  0.255060  1
  P  P6  1  0.596397  0.710080  0.255060  1
  P  P7  1  0.289920  0.886318  0.255060  1
  Rh  Rh8  1  0.613337  0.549223  0.746320  1
  Rh  Rh9  1  0.450777  0.064115  0.746320  1
  Rh  Rh10  1  0.935885  0.386663  0.746320  1
  Rh  Rh11  1  0.386663  0.450777  0.253680  1
  Rh  Rh12  1  0.549223  0.935885  0.253680  1
  Rh  Rh13  1  0.064115  0.613337  0.253680  1
  Rh  Rh14  1  0.129268  0.837266  0.763357  1
  Rh  Rh15  1  0.162734  0.292002  0.763357  1
  Rh  Rh16  1  0.707998  0.870732  0.763357  1
  Rh  Rh17  1  0.870732  0.162734  0.236643  1
  Rh  Rh18  1  0.837266  0.707998  0.236643  1
  Rh  Rh19  1  0.292002  0.129268  0.236643  1
  Pb  Pb20  1  0.000000  0.000000  0.500000  1
