# generated using pymatgen
data_YbSm7TlPt8Pb3
_symmetry_space_group_name_H-M   'P 1'
_cell_length_a   7.97921330
_cell_length_b   7.98013173
_cell_length_c   7.45060472
_cell_angle_alpha   89.98690087
_cell_angle_beta   89.95125986
_cell_angle_gamma   90.21225375
_symmetry_Int_Tables_number   1
_chemical_formula_structural   YbSm7TlPt8Pb3
_chemical_formula_sum   'Yb1 Sm7 Tl1 Pt8 Pb3'
_cell_volume   474.41510668
_cell_formula_units_Z   1
loop_
 _symmetry_equiv_pos_site_id
 _symmetry_equiv_pos_as_xyz
  1  'x, y, z'
loop_
 _atom_site_type_symbol
 _atom_site_label
 _atom_site_symmetry_multiplicity
 _atom_site_fract_x
 _atom_site_fract_y
 _atom_site_fract_z
 _atom_site_occupancy
  Yb  Yb0  1  0.165514  0.837306  0.999526  1
  Sm  Sm1  1  0.673944  0.677272  0.000116  1
  Sm  Sm2  1  0.334883  0.333159  0.500078  1
  Sm  Sm3  1  0.823868  0.172595  0.500037  1
  Sm  Sm4  1  0.663681  0.668343  0.500223  1
  Sm  Sm5  1  0.326160  0.322672  0.000251  1
  Sm  Sm6  1  0.178230  0.825717  0.499683  1
  Sm  Sm7  1  0.832740  0.164258  0.000111  1
  Tl  Tl8  1  0.497306  0.997838  0.752639  1
  Pt  Pt9  1  0.873261  0.873369  0.740056  1
  Pt  Pt10  1  0.127238  0.126182  0.739452  1
  Pt  Pt11  1  0.626580  0.372016  0.759031  1
  Pt  Pt12  1  0.627369  0.373371  0.241001  1
  Pt  Pt13  1  0.372903  0.626328  0.236926  1
  Pt  Pt14  1  0.126506  0.126520  0.260662  1
  Pt  Pt15  1  0.874302  0.872546  0.260971  1
  Pt  Pt16  1  0.373954  0.627181  0.762303  1
  Pb  Pb17  1  0.497848  0.998212  0.246740  1
  Pb  Pb18  1  0.001751  0.502562  0.752529  1
  Pb  Pb19  1  0.001963  0.502552  0.247667  1
