# generated using pymatgen
data_Lu2GaP6BrN12
_symmetry_space_group_name_H-M   'P 1'
_cell_length_a   7.49742124
_cell_length_b   7.55361928
_cell_length_c   7.49742100
_cell_angle_alpha   110.60956117
_cell_angle_beta   108.00254662
_cell_angle_gamma   110.60955998
_symmetry_Int_Tables_number   1
_chemical_formula_structural   Lu2GaP6BrN12
_chemical_formula_sum   'Lu2 Ga1 P6 Br1 N12'
_cell_volume   323.39028175
_cell_formula_units_Z   1
loop_
 _symmetry_equiv_pos_site_id
 _symmetry_equiv_pos_as_xyz
  1  'x, y, z'
loop_
 _atom_site_type_symbol
 _atom_site_label
 _atom_site_symmetry_multiplicity
 _atom_site_fract_x
 _atom_site_fract_y
 _atom_site_fract_z
 _atom_site_occupancy
  Lu  Lu0  1  0.024685  0.014959  0.398595  1
  Lu  Lu1  1  0.398595  0.014959  0.024685  1
  Ga  Ga2  1  0.994720  0.339384  0.994720  1
  P  P3  1  0.504120  0.265315  0.748973  1
  P  P4  1  0.253512  0.749213  0.497387  1
  P  P5  1  0.746885  0.508805  0.253888  1
  P  P6  1  0.748973  0.265315  0.504120  1
  P  P7  1  0.497387  0.749213  0.253512  1
  P  P8  1  0.253888  0.508805  0.746885  1
  Br  Br9  1  0.998432  0.899624  0.998432  1
  N  N10  1  0.401098  0.696240  0.401098  1
  N  N11  1  0.672170  0.378705  0.373084  1
  N  N12  1  0.373084  0.378705  0.672170  1
  N  N13  1  0.715726  0.315357  0.715726  1
  N  N14  1  0.997780  0.607977  0.301398  1
  N  N15  1  0.301398  0.607977  0.997780  1
  N  N16  1  0.301378  0.003956  0.593318  1
  N  N17  1  0.996133  0.305004  0.576162  1
  N  N18  1  0.712565  0.720761  0.297990  1
  N  N19  1  0.593318  0.003956  0.301378  1
  N  N20  1  0.297990  0.720761  0.712565  1
  N  N21  1  0.576162  0.305004  0.996133  1
