# generated using pymatgen
data_Yb4Al18Pd2PtRh3
_symmetry_space_group_name_H-M   'P 1'
_cell_length_a   7.58059696
_cell_length_b   7.58058814
_cell_length_c   9.56237069
_cell_angle_alpha   89.96335957
_cell_angle_beta   89.96320443
_cell_angle_gamma   119.25794919
_symmetry_Int_Tables_number   1
_chemical_formula_structural   Yb4Al18Pd2PtRh3
_chemical_formula_sum   'Yb4 Al18 Pd2 Pt1 Rh3'
_cell_volume   479.40353721
_cell_formula_units_Z   1
loop_
 _symmetry_equiv_pos_site_id
 _symmetry_equiv_pos_as_xyz
  1  'x, y, z'
loop_
 _atom_site_type_symbol
 _atom_site_label
 _atom_site_symmetry_multiplicity
 _atom_site_fract_x
 _atom_site_fract_y
 _atom_site_fract_z
 _atom_site_occupancy
  Yb  Yb0  1  0.994489  0.671373  0.749827  1
  Yb  Yb1  1  0.003336  0.327099  0.250416  1
  Yb  Yb2  1  0.672900  0.996664  0.749584  1
  Yb  Yb3  1  0.328624  0.005508  0.250173  1
  Al  Al4  1  0.133814  0.133138  0.750158  1
  Al  Al5  1  0.866861  0.866184  0.249842  1
  Al  Al6  1  0.005530  0.339016  0.574792  1
  Al  Al7  1  0.001851  0.664819  0.425108  1
  Al  Al8  1  0.999751  0.661305  0.073221  1
  Al  Al9  1  0.338697  0.000251  0.926781  1
  Al  Al10  1  0.001464  0.338671  0.926478  1
  Al  Al11  1  0.661328  0.998539  0.073522  1
  Al  Al12  1  0.660982  0.994468  0.425208  1
  Al  Al13  1  0.335179  0.998147  0.574892  1
  Al  Al14  1  0.336335  0.336471  0.049732  1
  Al  Al15  1  0.663528  0.663667  0.950268  1
  Al  Al16  1  0.662632  0.665913  0.552719  1
  Al  Al17  1  0.334085  0.337366  0.447282  1
  Al  Al18  1  0.339150  0.549738  0.750272  1
  Al  Al19  1  0.661609  0.453776  0.246994  1
  Al  Al20  1  0.546223  0.338390  0.753005  1
  Al  Al21  1  0.450261  0.660848  0.249729  1
  Pd  Pd22  1  0.999934  0.000066  0.500000  1
  Pd  Pd23  1  0.000222  0.999779  0.000001  1
  Pt  Pt24  1  0.672375  0.327624  0.500000  1
  Rh  Rh25  1  0.328325  0.671683  0.500001  1
  Rh  Rh26  1  0.328553  0.671449  0.999998  1
  Rh  Rh27  1  0.671963  0.328049  0.999997  1
