# generated using pymatgen
data_Ho8Lu2IrRh5
_symmetry_space_group_name_H-M   'P 1'
_cell_length_a   10.81900010
_cell_length_b   10.82030300
_cell_length_c   6.31431506
_cell_angle_alpha   90.00000000
_cell_angle_beta   90.01563842
_cell_angle_gamma   90.00000000
_symmetry_Int_Tables_number   1
_chemical_formula_structural   Ho8Lu2IrRh5
_chemical_formula_sum   'Ho16 Lu4 Ir2 Rh10'
_cell_volume   739.18437607
_cell_formula_units_Z   2
loop_
 _symmetry_equiv_pos_site_id
 _symmetry_equiv_pos_as_xyz
  1  'x, y, z'
loop_
 _atom_site_type_symbol
 _atom_site_label
 _atom_site_symmetry_multiplicity
 _atom_site_fract_x
 _atom_site_fract_y
 _atom_site_fract_z
 _atom_site_occupancy
  Ho  Ho0  1  0.290307  0.089496  0.378438  1
  Ho  Ho1  1  0.290307  0.910504  0.878438  1
  Ho  Ho2  1  0.709724  0.087734  0.878118  1
  Ho  Ho3  1  0.709724  0.912266  0.378118  1
  Ho  Ho4  1  0.586068  0.789204  0.878322  1
  Ho  Ho5  1  0.586068  0.210796  0.378322  1
  Ho  Ho6  1  0.411563  0.789575  0.379196  1
  Ho  Ho7  1  0.411563  0.210425  0.879196  1
  Ho  Ho8  1  0.211324  0.413580  0.620999  1
  Ho  Ho9  1  0.211324  0.586420  0.120999  1
  Ho  Ho10  1  0.790151  0.411885  0.121410  1
  Ho  Ho11  1  0.790151  0.588115  0.621410  1
  Ho  Ho12  1  0.912452  0.709931  0.121669  1
  Ho  Ho13  1  0.912452  0.290069  0.621669  1
  Ho  Ho14  1  0.089776  0.709469  0.621852  1
  Ho  Ho15  1  0.089776  0.290531  0.121852  1
  Lu  Lu16  1  0.999952  0.999754  0.500028  1
  Lu  Lu17  1  0.999952  0.000246  0.000028  1
  Lu  Lu18  1  0.499563  0.499800  0.999932  1
  Lu  Lu19  1  0.499563  0.500200  0.499932  1
  Ir  Ir20  1  0.347929  0.347149  0.250042  1
  Ir  Ir21  1  0.347929  0.652851  0.750042  1
  Rh  Rh22  1  0.847818  0.151929  0.250100  1
  Rh  Rh23  1  0.847818  0.848071  0.750100  1
  Rh  Rh24  1  0.151158  0.151404  0.749875  1
  Rh  Rh25  1  0.151158  0.848596  0.249875  1
  Rh  Rh26  1  0.652908  0.347898  0.749998  1
  Rh  Rh27  1  0.652908  0.652102  0.249998  1
  Rh  Rh28  1  0.500504  0.999775  0.123757  1
  Rh  Rh29  1  0.500504  0.000225  0.623757  1
  Rh  Rh30  1  0.998802  0.499895  0.876264  1
  Rh  Rh31  1  0.998802  0.500105  0.376264  1
