# generated using pymatgen
data_Tc5(NiP)4
_symmetry_space_group_name_H-M   'P 1'
_cell_length_a   6.76435949
_cell_length_b   6.76435877
_cell_length_c   6.76435877
_cell_angle_alpha   94.46910250
_cell_angle_beta   94.46910888
_cell_angle_gamma   147.58173246
_symmetry_Int_Tables_number   1
_chemical_formula_structural   Tc5(NiP)4
_chemical_formula_sum   'Tc5 Ni4 P4'
_cell_volume   159.33324798
_cell_formula_units_Z   1
loop_
 _symmetry_equiv_pos_site_id
 _symmetry_equiv_pos_as_xyz
  1  'x, y, z'
loop_
 _atom_site_type_symbol
 _atom_site_label
 _atom_site_symmetry_multiplicity
 _atom_site_fract_x
 _atom_site_fract_y
 _atom_site_fract_z
 _atom_site_occupancy
  Tc  Tc0  1  0.810484  0.123989  0.934474  1
  Tc  Tc1  1  0.123989  0.189516  0.313505  1
  Tc  Tc2  1  0.876011  0.810484  0.686495  1
  Tc  Tc3  1  0.189516  0.876011  0.065526  1
  Tc  Tc4  1  0.500000  0.500000  0.000000  1
  Ni  Ni5  1  0.907701  0.395775  0.303476  1
  Ni  Ni6  1  0.092299  0.604225  0.696524  1
  Ni  Ni7  1  0.604225  0.907701  0.511926  1
  Ni  Ni8  1  0.395775  0.092299  0.488074  1
  P  P9  1  0.574624  0.249583  0.824207  1
  P  P10  1  0.249583  0.425376  0.674958  1
  P  P11  1  0.750417  0.574624  0.325042  1
  P  P12  1  0.425376  0.750417  0.175793  1
