# generated using pymatgen
data_YEr9(GaSb)3
_symmetry_space_group_name_H-M   'P 1'
_cell_length_a   8.69906400
_cell_length_b   8.71232252
_cell_length_c   6.42382300
_cell_angle_alpha   90.00000000
_cell_angle_beta   90.00000000
_cell_angle_gamma   119.94968679
_symmetry_Int_Tables_number   1
_chemical_formula_structural   YEr9(GaSb)3
_chemical_formula_sum   'Y1 Er9 Ga3 Sb3'
_cell_volume   421.84278673
_cell_formula_units_Z   1
loop_
 _symmetry_equiv_pos_site_id
 _symmetry_equiv_pos_as_xyz
  1  'x, y, z'
loop_
 _atom_site_type_symbol
 _atom_site_label
 _atom_site_symmetry_multiplicity
 _atom_site_fract_x
 _atom_site_fract_y
 _atom_site_fract_z
 _atom_site_occupancy
  Y  Y0  1  0.754326  0.000000  0.750000  1
  Er  Er1  1  0.327013  0.666592  0.003201  1
  Er  Er2  1  0.660422  0.333408  0.496799  1
  Er  Er3  1  0.660422  0.333408  0.003201  1
  Er  Er4  1  0.327013  0.666592  0.496799  1
  Er  Er5  1  0.234564  0.000000  0.250000  1
  Er  Er6  1  0.242983  0.231198  0.750000  1
  Er  Er7  1  0.011785  0.768802  0.750000  1
  Er  Er8  1  0.012671  0.248890  0.250000  1
  Er  Er9  1  0.763780  0.751110  0.250000  1
  Ga  Ga10  1  0.998527  0.602409  0.250000  1
  Ga  Ga11  1  0.396119  0.397591  0.250000  1
  Ga  Ga12  1  0.398087  0.000000  0.750000  1
  Sb  Sb13  1  0.609351  0.000000  0.250000  1
  Sb  Sb14  1  0.604871  0.606801  0.750000  1
  Sb  Sb15  1  0.998070  0.393199  0.750000  1
