# generated using pymatgen
data_Nb2In(Ni10B3)2
_symmetry_space_group_name_H-M   'P 1'
_cell_length_a   7.51853138
_cell_length_b   7.51853138
_cell_length_c   7.51853100
_cell_angle_alpha   59.99999729
_cell_angle_beta   59.99999729
_cell_angle_gamma   59.99999819
_symmetry_Int_Tables_number   1
_chemical_formula_structural   Nb2In(Ni10B3)2
_chemical_formula_sum   'Nb2 In1 Ni20 B6'
_cell_volume   300.52735352
_cell_formula_units_Z   1
loop_
 _symmetry_equiv_pos_site_id
 _symmetry_equiv_pos_as_xyz
  1  'x, y, z'
loop_
 _atom_site_type_symbol
 _atom_site_label
 _atom_site_symmetry_multiplicity
 _atom_site_fract_x
 _atom_site_fract_y
 _atom_site_fract_z
 _atom_site_occupancy
  Nb  Nb0  1  0.750000  0.750000  0.750000  1
  Nb  Nb1  1  0.000000  0.000000  0.000000  1
  In  In2  1  0.250000  0.250000  0.250000  1
  Ni  Ni3  1  0.387336  0.387336  0.387336  1
  Ni  Ni4  1  0.616283  0.616283  0.616283  1
  Ni  Ni5  1  0.387336  0.387336  0.837993  1
  Ni  Ni6  1  0.387336  0.837993  0.387336  1
  Ni  Ni7  1  0.616283  0.616283  0.151150  1
  Ni  Ni8  1  0.616283  0.151150  0.616283  1
  Ni  Ni9  1  0.837993  0.387336  0.387336  1
  Ni  Ni10  1  0.151150  0.616283  0.616283  1
  Ni  Ni11  1  0.344427  0.997487  0.997487  1
  Ni  Ni12  1  0.660599  0.997487  0.997487  1
  Ni  Ni13  1  0.997487  0.344427  0.660599  1
  Ni  Ni14  1  0.997487  0.660599  0.344427  1
  Ni  Ni15  1  0.997487  0.344427  0.997487  1
  Ni  Ni16  1  0.660599  0.997487  0.344427  1
  Ni  Ni17  1  0.997487  0.660599  0.997487  1
  Ni  Ni18  1  0.344427  0.997487  0.660599  1
  Ni  Ni19  1  0.997487  0.997487  0.344427  1
  Ni  Ni20  1  0.997487  0.997487  0.660599  1
  Ni  Ni21  1  0.660599  0.344427  0.997487  1
  Ni  Ni22  1  0.344427  0.660599  0.997487  1
  B  B23  1  0.730761  0.269239  0.269239  1
  B  B24  1  0.269239  0.730761  0.730761  1
  B  B25  1  0.269239  0.730761  0.269239  1
  B  B26  1  0.730761  0.269239  0.730761  1
  B  B27  1  0.269239  0.269239  0.730761  1
  B  B28  1  0.730761  0.730761  0.269239  1
