# generated using pymatgen
data_TbNd3(GePd14)2
_symmetry_space_group_name_H-M   'P 1'
_cell_length_a   8.99470700
_cell_length_b   8.99470700
_cell_length_c   7.20687700
_cell_angle_alpha   90.00000000
_cell_angle_beta   90.00000000
_cell_angle_gamma   90.00000000
_symmetry_Int_Tables_number   1
_chemical_formula_structural   TbNd3(GePd14)2
_chemical_formula_sum   'Tb1 Nd3 Ge2 Pd28'
_cell_volume   583.07061091
_cell_formula_units_Z   1
loop_
 _symmetry_equiv_pos_site_id
 _symmetry_equiv_pos_as_xyz
  1  'x, y, z'
loop_
 _atom_site_type_symbol
 _atom_site_label
 _atom_site_symmetry_multiplicity
 _atom_site_fract_x
 _atom_site_fract_y
 _atom_site_fract_z
 _atom_site_occupancy
  Tb  Tb0  1  0.000000  0.000000  0.500000  1
  Nd  Nd1  1  0.500000  0.000000  0.936315  1
  Nd  Nd2  1  0.000000  0.500000  0.063685  1
  Nd  Nd3  1  0.500000  0.500000  0.500000  1
  Ge  Ge4  1  0.500000  0.000000  0.449867  1
  Ge  Ge5  1  0.000000  0.500000  0.550133  1
  Pd  Pd6  1  0.329853  0.830877  0.621106  1
  Pd  Pd7  1  0.329853  0.169123  0.621106  1
  Pd  Pd8  1  0.670147  0.830877  0.621106  1
  Pd  Pd9  1  0.670147  0.169123  0.621106  1
  Pd  Pd10  1  0.169123  0.670147  0.378894  1
  Pd  Pd11  1  0.169123  0.329853  0.378894  1
  Pd  Pd12  1  0.830877  0.670147  0.378894  1
  Pd  Pd13  1  0.830877  0.329853  0.378894  1
  Pd  Pd14  1  0.500000  0.766948  0.253004  1
  Pd  Pd15  1  0.500000  0.233052  0.253004  1
  Pd  Pd16  1  0.265000  0.000000  0.255129  1
  Pd  Pd17  1  0.735000  0.000000  0.255129  1
  Pd  Pd18  1  0.000000  0.735000  0.744871  1
  Pd  Pd19  1  0.000000  0.265000  0.744871  1
  Pd  Pd20  1  0.233052  0.500000  0.746996  1
  Pd  Pd21  1  0.766948  0.500000  0.746996  1
  Pd  Pd22  1  0.500000  0.348624  0.856830  1
  Pd  Pd23  1  0.500000  0.651376  0.856830  1
  Pd  Pd24  1  0.849779  0.000000  0.854513  1
  Pd  Pd25  1  0.150221  0.000000  0.854513  1
  Pd  Pd26  1  0.000000  0.150221  0.145487  1
  Pd  Pd27  1  0.000000  0.849779  0.145487  1
  Pd  Pd28  1  0.651376  0.500000  0.143170  1
  Pd  Pd29  1  0.348624  0.500000  0.143170  1
  Pd  Pd30  1  0.249573  0.750427  0.000000  1
  Pd  Pd31  1  0.249573  0.249573  0.000000  1
  Pd  Pd32  1  0.750427  0.750427  0.000000  1
  Pd  Pd33  1  0.750427  0.249573  0.000000  1
