# generated using pymatgen
data_Y15HoIn3HgRh4
_symmetry_space_group_name_H-M   'P 1'
_cell_length_a   9.68630510
_cell_length_b   9.68630593
_cell_length_c   9.68630613
_cell_angle_alpha   59.99031462
_cell_angle_beta   59.99031377
_cell_angle_gamma   59.99031180
_symmetry_Int_Tables_number   1
_chemical_formula_structural   Y15HoIn3HgRh4
_chemical_formula_sum   'Y15 Ho1 In3 Hg1 Rh4'
_cell_volume   642.48667211
_cell_formula_units_Z   1
loop_
 _symmetry_equiv_pos_site_id
 _symmetry_equiv_pos_as_xyz
  1  'x, y, z'
loop_
 _atom_site_type_symbol
 _atom_site_label
 _atom_site_symmetry_multiplicity
 _atom_site_fract_x
 _atom_site_fract_y
 _atom_site_fract_z
 _atom_site_occupancy
  Y  Y0  1  0.188138  0.188138  0.811968  1
  Y  Y1  1  0.602053  0.602053  0.197449  1
  Y  Y2  1  0.440013  0.059005  0.440013  1
  Y  Y3  1  0.440013  0.440013  0.059005  1
  Y  Y4  1  0.813075  0.185034  0.813075  1
  Y  Y5  1  0.188138  0.811968  0.188138  1
  Y  Y6  1  0.436715  0.060869  0.060869  1
  Y  Y7  1  0.185034  0.813075  0.813075  1
  Y  Y8  1  0.060869  0.436715  0.060869  1
  Y  Y9  1  0.813075  0.813075  0.185034  1
  Y  Y10  1  0.197449  0.602053  0.602053  1
  Y  Y11  1  0.059005  0.440013  0.440013  1
  Y  Y12  1  0.060869  0.060869  0.436715  1
  Y  Y13  1  0.811968  0.188138  0.188138  1
  Y  Y14  1  0.602053  0.197449  0.602053  1
  Ho  Ho15  1  0.598178  0.598178  0.598178  1
  In  In16  1  0.832142  0.832142  0.502777  1
  In  In17  1  0.502777  0.832142  0.832142  1
  In  In18  1  0.832142  0.502777  0.832142  1
  Hg  Hg19  1  0.835921  0.835921  0.835921  1
  Rh  Rh20  1  0.392523  0.822074  0.392523  1
  Rh  Rh21  1  0.393252  0.393252  0.393252  1
  Rh  Rh22  1  0.822074  0.392523  0.392523  1
  Rh  Rh23  1  0.392523  0.392523  0.822074  1
