# generated using pymatgen
data_CrCl(OF3)2
_symmetry_space_group_name_H-M   'P 1'
_cell_length_a   5.84375400
_cell_length_b   6.99184301
_cell_length_c   7.86281100
_cell_angle_alpha   90.00000000
_cell_angle_beta   90.00000000
_cell_angle_gamma   90.00571643
_symmetry_Int_Tables_number   1
_chemical_formula_structural   CrCl(OF3)2
_chemical_formula_sum   'Cr2 Cl2 O4 F12'
_cell_volume   321.26353131
_cell_formula_units_Z   2
loop_
 _symmetry_equiv_pos_site_id
 _symmetry_equiv_pos_as_xyz
  1  'x, y, z'
loop_
 _atom_site_type_symbol
 _atom_site_label
 _atom_site_symmetry_multiplicity
 _atom_site_fract_x
 _atom_site_fract_y
 _atom_site_fract_z
 _atom_site_occupancy
  Cr  Cr0  1  0.005655  0.999477  0.500000  1
  Cr  Cr1  1  0.994345  0.500523  0.000000  1
  Cl  Cl2  1  0.660684  0.000449  0.000000  1
  Cl  Cl3  1  0.339316  0.499551  0.500000  1
  O  O4  1  0.466758  0.499640  0.654726  1
  O  O5  1  0.533242  0.000360  0.154726  1
  O  O6  1  0.533242  0.000360  0.845274  1
  O  O7  1  0.466758  0.499640  0.345274  1
  F  F8  1  0.795394  0.182196  0.500000  1
  F  F9  1  0.241819  0.182387  0.500000  1
  F  F10  1  0.978828  0.500549  0.776037  1
  F  F11  1  0.795083  0.816698  0.500000  1
  F  F12  1  0.021172  0.999451  0.276037  1
  F  F13  1  0.758181  0.317613  0.000000  1
  F  F14  1  0.021172  0.999451  0.723963  1
  F  F15  1  0.241510  0.816486  0.500000  1
  F  F16  1  0.978828  0.500549  0.223963  1
  F  F17  1  0.758490  0.683514  0.000000  1
  F  F18  1  0.204606  0.317804  0.000000  1
  F  F19  1  0.204917  0.683302  0.000000  1
