# generated using pymatgen
data_Lu3HfAl7Tc
_symmetry_space_group_name_H-M   'P 1'
_cell_length_a   5.42866800
_cell_length_b   5.42866889
_cell_length_c   8.77757200
_cell_angle_alpha   90.00000000
_cell_angle_beta   90.00000000
_cell_angle_gamma   119.99998240
_symmetry_Int_Tables_number   1
_chemical_formula_structural   Lu3HfAl7Tc
_chemical_formula_sum   'Lu3 Hf1 Al7 Tc1'
_cell_volume   224.02255452
_cell_formula_units_Z   1
loop_
 _symmetry_equiv_pos_site_id
 _symmetry_equiv_pos_as_xyz
  1  'x, y, z'
loop_
 _atom_site_type_symbol
 _atom_site_label
 _atom_site_symmetry_multiplicity
 _atom_site_fract_x
 _atom_site_fract_y
 _atom_site_fract_z
 _atom_site_occupancy
  Lu  Lu0  1  0.333333  0.666667  0.443180  1
  Lu  Lu1  1  0.666667  0.333333  0.554687  1
  Lu  Lu2  1  0.666667  0.333333  0.938169  1
  Hf  Hf3  1  0.333333  0.666667  0.061477  1
  Al  Al4  1  0.000000  0.000000  0.499147  1
  Al  Al5  1  0.831538  0.168462  0.240254  1
  Al  Al6  1  0.831538  0.663077  0.240254  1
  Al  Al7  1  0.336923  0.168462  0.240254  1
  Al  Al8  1  0.169293  0.830707  0.760702  1
  Al  Al9  1  0.169293  0.338586  0.760702  1
  Al  Al10  1  0.661414  0.830707  0.760702  1
  Tc  Tc11  1  0.000000  0.000000  0.000472  1
