# generated using pymatgen
data_Fe2B2MoW
_symmetry_space_group_name_H-M   'P 1'
_cell_length_a   5.86755800
_cell_length_b   3.15552400
_cell_length_c   6.79967200
_cell_angle_alpha   90.00000000
_cell_angle_beta   90.00000000
_cell_angle_gamma   90.00000000
_symmetry_Int_Tables_number   1
_chemical_formula_structural   Fe2B2MoW
_chemical_formula_sum   'Fe4 B4 Mo2 W2'
_cell_volume   125.89742362
_cell_formula_units_Z   2
loop_
 _symmetry_equiv_pos_site_id
 _symmetry_equiv_pos_as_xyz
  1  'x, y, z'
loop_
 _atom_site_type_symbol
 _atom_site_label
 _atom_site_symmetry_multiplicity
 _atom_site_fract_x
 _atom_site_fract_y
 _atom_site_fract_z
 _atom_site_occupancy
  Fe  Fe0  1  0.142442  0.250000  0.442690  1
  Fe  Fe1  1  0.642442  0.250000  0.057310  1
  Fe  Fe2  1  0.856783  0.750000  0.556472  1
  Fe  Fe3  1  0.356783  0.750000  0.943528  1
  B  B4  1  0.265337  0.250000  0.133627  1
  B  B5  1  0.765337  0.250000  0.366373  1
  B  B6  1  0.735197  0.750000  0.866856  1
  B  B7  1  0.235197  0.750000  0.633144  1
  Mo  Mo8  1  0.030188  0.250000  0.827006  1
  Mo  Mo9  1  0.530188  0.250000  0.672994  1
  W  W10  1  0.970054  0.750000  0.172446  1
  W  W11  1  0.470054  0.750000  0.327554  1
