# generated using pymatgen
data_Y19Er(Bi2Sb)4
_symmetry_space_group_name_H-M   'P 1'
_cell_length_a   8.21029164
_cell_length_b   9.48413600
_cell_length_c   12.05293894
_cell_angle_alpha   90.00000000
_cell_angle_beta   90.04516502
_cell_angle_gamma   90.00000000
_symmetry_Int_Tables_number   1
_chemical_formula_structural   Y19Er(Bi2Sb)4
_chemical_formula_sum   'Y19 Er1 Bi8 Sb4'
_cell_volume   938.53220211
_cell_formula_units_Z   1
loop_
 _symmetry_equiv_pos_site_id
 _symmetry_equiv_pos_as_xyz
  1  'x, y, z'
loop_
 _atom_site_type_symbol
 _atom_site_label
 _atom_site_symmetry_multiplicity
 _atom_site_fract_x
 _atom_site_fract_y
 _atom_site_fract_z
 _atom_site_occupancy
  Y  Y0  1  0.529662  0.750000  0.511560  1
  Y  Y1  1  0.970473  0.250000  0.011679  1
  Y  Y2  1  0.470464  0.250000  0.488355  1
  Y  Y3  1  0.182557  0.750000  0.718638  1
  Y  Y4  1  0.683320  0.750000  0.782219  1
  Y  Y5  1  0.817069  0.250000  0.281830  1
  Y  Y6  1  0.317210  0.250000  0.218142  1
  Y  Y7  1  0.309722  0.439353  0.941414  1
  Y  Y8  1  0.810021  0.060896  0.558597  1
  Y  Y9  1  0.690912  0.938729  0.058484  1
  Y  Y10  1  0.189949  0.560823  0.441325  1
  Y  Y11  1  0.690912  0.561271  0.058484  1
  Y  Y12  1  0.189949  0.939177  0.441325  1
  Y  Y13  1  0.309722  0.060647  0.941414  1
  Y  Y14  1  0.810021  0.439104  0.558597  1
  Y  Y15  1  0.353623  0.750000  0.212600  1
  Y  Y16  1  0.854025  0.750000  0.286876  1
  Y  Y17  1  0.646077  0.250000  0.787431  1
  Y  Y18  1  0.146208  0.250000  0.712688  1
  Er  Er19  1  0.028624  0.750000  0.988478  1
  Bi  Bi20  1  0.433499  0.003900  0.673798  1
  Bi  Bi21  1  0.934085  0.497062  0.826806  1
  Bi  Bi22  1  0.566444  0.503922  0.326181  1
  Bi  Bi23  1  0.066481  0.995507  0.173166  1
  Bi  Bi24  1  0.566444  0.996078  0.326181  1
  Bi  Bi25  1  0.066481  0.504493  0.173166  1
  Bi  Bi26  1  0.433499  0.496100  0.673798  1
  Bi  Bi27  1  0.934085  0.002938  0.826806  1
  Sb  Sb28  1  0.409097  0.750000  0.959233  1
  Sb  Sb29  1  0.910466  0.750000  0.540830  1
  Sb  Sb30  1  0.589416  0.250000  0.040772  1
  Sb  Sb31  1  0.089482  0.250000  0.459128  1
