# generated using pymatgen
data_ScGaCu3Au
_symmetry_space_group_name_H-M   'P 1'
_cell_length_a   5.00366780
_cell_length_b   5.00366810
_cell_length_c   4.94706100
_cell_angle_alpha   59.62076156
_cell_angle_beta   59.62075953
_cell_angle_gamma   60.00000496
_symmetry_Int_Tables_number   1
_chemical_formula_structural   ScGaCu3Au
_chemical_formula_sum   'Sc1 Ga1 Cu3 Au1'
_cell_volume   87.07547518
_cell_formula_units_Z   1
loop_
 _symmetry_equiv_pos_site_id
 _symmetry_equiv_pos_as_xyz
  1  'x, y, z'
loop_
 _atom_site_type_symbol
 _atom_site_label
 _atom_site_symmetry_multiplicity
 _atom_site_fract_x
 _atom_site_fract_y
 _atom_site_fract_z
 _atom_site_occupancy
  Sc  Sc0  1  0.002184  0.002184  0.993449  1
  Ga  Ga1  1  0.623265  0.623265  0.130205  1
  Cu  Cu2  1  0.624341  0.124008  0.627308  1
  Cu  Cu3  1  0.124008  0.624341  0.627308  1
  Cu  Cu4  1  0.624341  0.624341  0.627308  1
  Au  Au5  1  0.251859  0.251859  0.244421  1
