# generated using pymatgen
data_Sr8Mn2CuN8
_symmetry_space_group_name_H-M   'P 1'
_cell_length_a   9.78568590
_cell_length_b   9.78568594
_cell_length_c   7.50472440
_cell_angle_alpha   75.15000862
_cell_angle_beta   75.15000666
_cell_angle_gamma   31.68033710
_symmetry_Int_Tables_number   1
_chemical_formula_structural   Sr8Mn2CuN8
_chemical_formula_sum   'Sr8 Mn2 Cu1 N8'
_cell_volume   363.78065409
_cell_formula_units_Z   1
loop_
 _symmetry_equiv_pos_site_id
 _symmetry_equiv_pos_as_xyz
  1  'x, y, z'
loop_
 _atom_site_type_symbol
 _atom_site_label
 _atom_site_symmetry_multiplicity
 _atom_site_fract_x
 _atom_site_fract_y
 _atom_site_fract_z
 _atom_site_occupancy
  Sr  Sr0  1  0.405743  0.405743  0.972217  1
  Sr  Sr1  1  0.334458  0.334458  0.466138  1
  Sr  Sr2  1  0.971206  0.971206  0.259061  1
  Sr  Sr3  1  0.201510  0.201510  0.191779  1
  Sr  Sr4  1  0.798490  0.798490  0.808221  1
  Sr  Sr5  1  0.028794  0.028794  0.740939  1
  Sr  Sr6  1  0.665542  0.665542  0.533862  1
  Sr  Sr7  1  0.594257  0.594257  0.027783  1
  Mn  Mn8  1  0.812328  0.812328  0.207844  1
  Mn  Mn9  1  0.187672  0.187672  0.792156  1
  Cu  Cu10  1  0.500000  0.500000  0.500000  1
  N  N11  1  0.275743  0.275743  0.826340  1
  N  N12  1  0.823789  0.823789  0.429449  1
  N  N13  1  0.108878  0.108878  0.984510  1
  N  N14  1  0.891122  0.891122  0.015490  1
  N  N15  1  0.176211  0.176211  0.570551  1
  N  N16  1  0.474219  0.474219  0.274384  1
  N  N17  1  0.724257  0.724257  0.173660  1
  N  N18  1  0.525781  0.525781  0.725616  1
