# generated using pymatgen
data_Tb7Th7(IrRh)3
_symmetry_space_group_name_H-M   'P 1'
_cell_length_a   9.98435900
_cell_length_b   9.87057942
_cell_length_c   6.35226053
_cell_angle_alpha   90.07355041
_cell_angle_beta   90.00000000
_cell_angle_gamma   120.38205642
_symmetry_Int_Tables_number   1
_chemical_formula_structural   Tb7Th7(IrRh)3
_chemical_formula_sum   'Tb7 Th7 Ir3 Rh3'
_cell_volume   540.05303514
_cell_formula_units_Z   1
loop_
 _symmetry_equiv_pos_site_id
 _symmetry_equiv_pos_as_xyz
  1  'x, y, z'
loop_
 _atom_site_type_symbol
 _atom_site_label
 _atom_site_symmetry_multiplicity
 _atom_site_fract_x
 _atom_site_fract_y
 _atom_site_fract_z
 _atom_site_occupancy
  Tb  Tb0  1  0.872644  0.745289  0.741720  1
  Tb  Tb1  1  0.538719  0.462313  0.444269  1
  Tb  Tb2  1  0.923594  0.462313  0.444269  1
  Tb  Tb3  1  0.538388  0.076777  0.446514  1
  Tb  Tb4  1  0.463291  0.538698  0.942855  1
  Tb  Tb5  1  0.075407  0.538698  0.942855  1
  Tb  Tb6  1  0.463405  0.926808  0.945478  1
  Th  Th7  1  0.333652  0.667305  0.465719  1
  Th  Th8  1  0.666584  0.333167  0.964942  1
  Th  Th9  1  0.126218  0.870602  0.240672  1
  Th  Th10  1  0.744384  0.870602  0.240672  1
  Th  Th11  1  0.127733  0.255467  0.239079  1
  Th  Th12  1  0.869152  0.125013  0.740434  1
  Th  Th13  1  0.255861  0.125013  0.740434  1
  Ir  Ir14  1  0.813091  0.185307  0.190485  1
  Ir  Ir15  1  0.372217  0.185307  0.190485  1
  Ir  Ir16  1  0.813385  0.626769  0.196833  1
  Rh  Rh17  1  0.193843  0.816703  0.687653  1
  Rh  Rh18  1  0.622859  0.816703  0.687653  1
  Rh  Rh19  1  0.185572  0.371145  0.693544  1
