# generated using pymatgen
data_Nd3Er(Si5Os3)2
_symmetry_space_group_name_H-M   'P 1'
_cell_length_a   8.29081721
_cell_length_b   8.33708975
_cell_length_c   8.33708955
_cell_angle_alpha   139.65800318
_cell_angle_beta   108.11220625
_cell_angle_gamma   85.88573130
_symmetry_Int_Tables_number   1
_chemical_formula_structural   Nd3Er(Si5Os3)2
_chemical_formula_sum   'Nd3 Er1 Si10 Os6'
_cell_volume   341.54287634
_cell_formula_units_Z   1
loop_
 _symmetry_equiv_pos_site_id
 _symmetry_equiv_pos_as_xyz
  1  'x, y, z'
loop_
 _atom_site_type_symbol
 _atom_site_label
 _atom_site_symmetry_multiplicity
 _atom_site_fract_x
 _atom_site_fract_y
 _atom_site_fract_z
 _atom_site_occupancy
  Nd  Nd0  1  0.905898  0.135767  0.770131  1
  Nd  Nd1  1  0.092291  0.862318  0.229973  1
  Nd  Nd2  1  0.634242  0.369174  0.265068  1
  Er  Er3  1  0.368264  0.632150  0.736114  1
  Si  Si4  1  0.002335  0.751103  0.753875  1
  Si  Si5  1  0.002335  0.248461  0.251232  1
  Si  Si6  1  0.713418  0.475518  0.769826  1
  Si  Si7  1  0.284851  0.055027  0.759646  1
  Si  Si8  1  0.284851  0.525205  0.229824  1
  Si  Si9  1  0.713418  0.943592  0.237900  1
  Si  Si10  1  0.231513  0.401363  0.830150  1
  Si  Si11  1  0.568464  0.907340  0.661124  1
  Si  Si12  1  0.427241  0.091702  0.335537  1
  Si  Si13  1  0.770667  0.601164  0.169504  1
  Os  Os14  1  0.751611  0.856358  0.895254  1
  Os  Os15  1  0.499612  0.253797  0.751385  1
  Os  Os16  1  0.939256  0.349933  0.589322  1
  Os  Os17  1  0.062719  0.648812  0.413907  1
  Os  Os18  1  0.247404  0.142988  0.104414  1
  Os  Os19  1  0.499612  0.748227  0.245815  1
