# generated using pymatgen
data_TiAlPt6
_symmetry_space_group_name_H-M   'P 1'
_cell_length_a   5.57898012
_cell_length_b   5.57898012
_cell_length_c   3.92338200
_cell_angle_alpha   90.00000000
_cell_angle_beta   90.00000000
_cell_angle_gamma   89.97637914
_symmetry_Int_Tables_number   1
_chemical_formula_structural   TiAlPt6
_chemical_formula_sum   'Ti1 Al1 Pt6'
_cell_volume   122.11532956
_cell_formula_units_Z   1
loop_
 _symmetry_equiv_pos_site_id
 _symmetry_equiv_pos_as_xyz
  1  'x, y, z'
loop_
 _atom_site_type_symbol
 _atom_site_label
 _atom_site_symmetry_multiplicity
 _atom_site_fract_x
 _atom_site_fract_y
 _atom_site_fract_z
 _atom_site_occupancy
  Ti  Ti0  1  0.000000  0.500000  0.500000  1
  Al  Al1  1  0.500000  0.000000  0.500000  1
  Pt  Pt2  1  0.753522  0.253522  0.000000  1
  Pt  Pt3  1  0.246478  0.746478  0.000000  1
  Pt  Pt4  1  0.248801  0.251199  0.000000  1
  Pt  Pt5  1  0.751199  0.748801  0.000000  1
  Pt  Pt6  1  0.500000  0.500000  0.500000  1
  Pt  Pt7  1  0.000000  0.000000  0.500000  1
