# generated using pymatgen
data_Ho3Al3CuNi2
_symmetry_space_group_name_H-M   'P 1'
_cell_length_a   7.02443900
_cell_length_b   7.02443871
_cell_length_c   3.85254000
_cell_angle_alpha   90.00000000
_cell_angle_beta   90.00000000
_cell_angle_gamma   120.00000607
_symmetry_Int_Tables_number   1
_chemical_formula_structural   Ho3Al3CuNi2
_chemical_formula_sum   'Ho3 Al3 Cu1 Ni2'
_cell_volume   164.62698891
_cell_formula_units_Z   1
loop_
 _symmetry_equiv_pos_site_id
 _symmetry_equiv_pos_as_xyz
  1  'x, y, z'
loop_
 _atom_site_type_symbol
 _atom_site_label
 _atom_site_symmetry_multiplicity
 _atom_site_fract_x
 _atom_site_fract_y
 _atom_site_fract_z
 _atom_site_occupancy
  Ho  Ho0  1  0.418181  0.410782  0.500000  1
  Ho  Ho1  1  0.589218  0.007399  0.500000  1
  Ho  Ho2  1  0.992601  0.581819  0.500000  1
  Al  Al3  1  0.766686  0.763108  0.000000  1
  Al  Al4  1  0.236892  0.003578  0.000000  1
  Al  Al5  1  0.996422  0.233314  0.000000  1
  Cu  Cu6  1  0.333333  0.666667  0.000000  1
  Ni  Ni7  1  0.000000  0.000000  0.500000  1
  Ni  Ni8  1  0.666667  0.333333  0.000000  1
