# generated using pymatgen
data_Sr3Li4P4PbO16
_symmetry_space_group_name_H-M   'P 1'
_cell_length_a   7.87534303
_cell_length_b   18.69479200
_cell_length_c   5.02032702
_cell_angle_alpha   90.00000000
_cell_angle_beta   90.01092294
_cell_angle_gamma   90.00000000
_symmetry_Int_Tables_number   1
_chemical_formula_structural   Sr3Li4P4PbO16
_chemical_formula_sum   'Sr6 Li8 P8 Pb2 O32'
_cell_volume   739.13219137
_cell_formula_units_Z   2
loop_
 _symmetry_equiv_pos_site_id
 _symmetry_equiv_pos_as_xyz
  1  'x, y, z'
loop_
 _atom_site_type_symbol
 _atom_site_label
 _atom_site_symmetry_multiplicity
 _atom_site_fract_x
 _atom_site_fract_y
 _atom_site_fract_z
 _atom_site_occupancy
  Sr  Sr0  1  0.490935  0.239307  0.198281  1
  Sr  Sr1  1  0.990934  0.260693  0.198281  1
  Sr  Sr2  1  0.191999  0.052316  0.193237  1
  Sr  Sr3  1  0.691999  0.447684  0.193237  1
  Sr  Sr4  1  0.012168  0.737553  0.696256  1
  Sr  Sr5  1  0.512168  0.762447  0.696256  1
  Li  Li6  1  0.994255  0.557212  0.148808  1
  Li  Li7  1  0.494256  0.942788  0.148808  1
  Li  Li8  1  0.684977  0.649588  0.156079  1
  Li  Li9  1  0.184977  0.850412  0.156079  1
  Li  Li10  1  0.511262  0.056726  0.645437  1
  Li  Li11  1  0.011262  0.443274  0.645437  1
  Li  Li12  1  0.817369  0.150479  0.657862  1
  Li  Li13  1  0.317369  0.349521  0.657862  1
  P  P14  1  0.281566  0.681596  0.142726  1
  P  P15  1  0.781565  0.818405  0.142726  1
  P  P16  1  0.728338  0.074757  0.146975  1
  P  P17  1  0.228337  0.425244  0.146975  1
  P  P18  1  0.219318  0.178944  0.639987  1
  P  P19  1  0.719319  0.321055  0.639987  1
  P  P20  1  0.765829  0.572264  0.649104  1
  P  P21  1  0.265829  0.927735  0.649104  1
  Pb  Pb22  1  0.322654  0.551682  0.700762  1
  Pb  Pb23  1  0.822654  0.948318  0.700762  1
  O  O24  1  0.448144  0.649277  0.023651  1
  O  O25  1  0.948145  0.850723  0.023651  1
  O  O26  1  0.566246  0.039697  0.023749  1
  O  O27  1  0.066246  0.460303  0.023749  1
  O  O28  1  0.761867  0.741614  0.026395  1
  O  O29  1  0.261868  0.758386  0.026395  1
  O  O30  1  0.746408  0.153089  0.044468  1
  O  O31  1  0.246408  0.346910  0.044468  1
  O  O32  1  0.127634  0.636826  0.043959  1
  O  O33  1  0.627634  0.863174  0.043959  1
  O  O34  1  0.887925  0.030600  0.055328  1
  O  O35  1  0.387924  0.469400  0.055328  1
  O  O36  1  0.288138  0.685038  0.451763  1
  O  O37  1  0.788139  0.814962  0.451763  1
  O  O38  1  0.719344  0.072515  0.456072  1
  O  O39  1  0.219344  0.427485  0.456072  1
  O  O40  1  0.050011  0.150364  0.522459  1
  O  O41  1  0.550010  0.349636  0.522459  1
  O  O42  1  0.916862  0.533484  0.510408  1
  O  O43  1  0.416863  0.966516  0.510408  1
  O  O44  1  0.743177  0.243353  0.535128  1
  O  O45  1  0.243177  0.256647  0.535128  1
  O  O46  1  0.751656  0.650442  0.547098  1
  O  O47  1  0.251656  0.849559  0.547098  1
  O  O48  1  0.367199  0.133014  0.525335  1
  O  O49  1  0.867199  0.366986  0.525335  1
  O  O50  1  0.603335  0.528702  0.566814  1
  O  O51  1  0.103336  0.971298  0.566814  1
  O  O52  1  0.219142  0.177488  0.950706  1
  O  O53  1  0.719142  0.322512  0.950706  1
  O  O54  1  0.782241  0.568462  0.957551  1
  O  O55  1  0.282242  0.931538  0.957551  1
