# generated using pymatgen
data_Y11Ho9Sn16
_symmetry_space_group_name_H-M   'P 1'
_cell_length_a   8.04366102
_cell_length_b   8.18194903
_cell_length_c   15.47395803
_cell_angle_alpha   90.00708024
_cell_angle_beta   89.99890718
_cell_angle_gamma   89.99221019
_symmetry_Int_Tables_number   1
_chemical_formula_structural   Y11Ho9Sn16
_chemical_formula_sum   'Y11 Ho9 Sn16'
_cell_volume   1018.38486692
_cell_formula_units_Z   1
loop_
 _symmetry_equiv_pos_site_id
 _symmetry_equiv_pos_as_xyz
  1  'x, y, z'
loop_
 _atom_site_type_symbol
 _atom_site_label
 _atom_site_symmetry_multiplicity
 _atom_site_fract_x
 _atom_site_fract_y
 _atom_site_fract_z
 _atom_site_occupancy
  Y  Y0  1  0.367308  0.836390  0.622021  1
  Y  Y1  1  0.867246  0.663533  0.878070  1
  Y  Y2  1  0.522484  0.320808  0.902145  1
  Y  Y3  1  0.022423  0.179222  0.597875  1
  Y  Y4  1  0.477626  0.678972  0.402012  1
  Y  Y5  1  0.977468  0.820837  0.097978  1
  Y  Y6  1  0.477726  0.679048  0.097833  1
  Y  Y7  1  0.977561  0.820756  0.402173  1
  Y  Y8  1  0.522430  0.320811  0.597886  1
  Y  Y9  1  0.022374  0.179235  0.902118  1
  Y  Y10  1  0.301379  0.003018  0.249957  1
  Ho  Ho11  1  0.367359  0.836253  0.877827  1
  Ho  Ho12  1  0.867313  0.663662  0.622088  1
  Ho  Ho13  1  0.632864  0.163809  0.378044  1
  Ho  Ho14  1  0.132633  0.336465  0.121967  1
  Ho  Ho15  1  0.632783  0.163793  0.122096  1
  Ho  Ho16  1  0.132537  0.336472  0.377899  1
  Ho  Ho17  1  0.198614  0.502928  0.749976  1
  Ho  Ho18  1  0.698613  0.997092  0.750019  1
  Ho  Ho19  1  0.801387  0.496765  0.250036  1
  Sn  Sn20  1  0.292617  0.035285  0.041717  1
  Sn  Sn21  1  0.792583  0.464843  0.458046  1
  Sn  Sn22  1  0.707965  0.964992  0.541872  1
  Sn  Sn23  1  0.207999  0.535010  0.958138  1
  Sn  Sn24  1  0.707030  0.965500  0.958165  1
  Sn  Sn25  1  0.207106  0.534539  0.541827  1
  Sn  Sn26  1  0.292453  0.035669  0.457919  1
  Sn  Sn27  1  0.792424  0.464464  0.042292  1
  Sn  Sn28  1  0.565085  0.619851  0.750045  1
  Sn  Sn29  1  0.065056  0.880198  0.749930  1
  Sn  Sn30  1  0.434923  0.380269  0.250046  1
  Sn  Sn31  1  0.934414  0.120128  0.249988  1
  Sn  Sn32  1  0.330551  0.147102  0.750173  1
  Sn  Sn33  1  0.830626  0.352906  0.749824  1
  Sn  Sn34  1  0.669817  0.853161  0.249994  1
  Sn  Sn35  1  0.169225  0.646214  0.250004  1
