# generated using pymatgen
data_TbHfSbRh5
_symmetry_space_group_name_H-M   'P 1'
_cell_length_a   4.20880800
_cell_length_b   5.73460153
_cell_length_c   11.27519276
_cell_angle_alpha   89.69454125
_cell_angle_beta   90.00000000
_cell_angle_gamma   90.00000000
_symmetry_Int_Tables_number   1
_chemical_formula_structural   TbHfSbRh5
_chemical_formula_sum   'Tb2 Hf2 Sb2 Rh10'
_cell_volume   272.13234475
_cell_formula_units_Z   2
loop_
 _symmetry_equiv_pos_site_id
 _symmetry_equiv_pos_as_xyz
  1  'x, y, z'
loop_
 _atom_site_type_symbol
 _atom_site_label
 _atom_site_symmetry_multiplicity
 _atom_site_fract_x
 _atom_site_fract_y
 _atom_site_fract_z
 _atom_site_occupancy
  Tb  Tb0  1  0.500000  0.178355  0.643351  1
  Tb  Tb1  1  0.500000  0.821645  0.356649  1
  Hf  Hf2  1  0.500000  0.672653  0.857628  1
  Hf  Hf3  1  0.500000  0.327347  0.142372  1
  Sb  Sb4  1  0.000000  0.500000  0.500000  1
  Sb  Sb5  1  0.000000  0.000000  0.000000  1
  Rh  Rh6  1  0.500000  0.200947  0.897632  1
  Rh  Rh7  1  0.500000  0.799053  0.102368  1
  Rh  Rh8  1  0.500000  0.691101  0.618746  1
  Rh  Rh9  1  0.500000  0.308899  0.381254  1
  Rh  Rh10  1  0.000000  0.440348  0.754616  1
  Rh  Rh11  1  0.000000  0.559652  0.245384  1
  Rh  Rh12  1  0.000000  0.000000  0.500000  1
  Rh  Rh13  1  0.000000  0.500000  0.000000  1
  Rh  Rh14  1  0.000000  0.071864  0.237711  1
  Rh  Rh15  1  0.000000  0.928136  0.762289  1
