# generated using pymatgen
data_Tb6Fe14Co(P4Ir)3
_symmetry_space_group_name_H-M   'P 1'
_cell_length_a   3.76451700
_cell_length_b   10.64978500
_cell_length_c   12.23245100
_cell_angle_alpha   90.00000000
_cell_angle_beta   90.00000000
_cell_angle_gamma   90.00000000
_symmetry_Int_Tables_number   1
_chemical_formula_structural   Tb6Fe14Co(P4Ir)3
_chemical_formula_sum   'Tb6 Fe14 Co1 P12 Ir3'
_cell_volume   490.41482215
_cell_formula_units_Z   1
loop_
 _symmetry_equiv_pos_site_id
 _symmetry_equiv_pos_as_xyz
  1  'x, y, z'
loop_
 _atom_site_type_symbol
 _atom_site_label
 _atom_site_symmetry_multiplicity
 _atom_site_fract_x
 _atom_site_fract_y
 _atom_site_fract_z
 _atom_site_occupancy
  Tb  Tb0  1  0.000000  0.500000  0.521896  1
  Tb  Tb1  1  0.500000  0.000000  0.471466  1
  Tb  Tb2  1  0.500000  0.819897  0.205287  1
  Tb  Tb3  1  0.500000  0.180103  0.205287  1
  Tb  Tb4  1  0.000000  0.684625  0.796254  1
  Tb  Tb5  1  0.000000  0.315375  0.796254  1
  Fe  Fe6  1  0.000000  0.500000  0.991936  1
  Fe  Fe7  1  0.500000  0.000000  0.011211  1
  Fe  Fe8  1  0.500000  0.330492  0.995444  1
  Fe  Fe9  1  0.500000  0.669508  0.995444  1
  Fe  Fe10  1  0.000000  0.167357  0.007157  1
  Fe  Fe11  1  0.000000  0.832643  0.007157  1
  Fe  Fe12  1  0.500000  0.297417  0.428372  1
  Fe  Fe13  1  0.500000  0.702583  0.428372  1
  Fe  Fe14  1  0.000000  0.198312  0.568898  1
  Fe  Fe15  1  0.000000  0.801688  0.568898  1
  Fe  Fe16  1  0.500000  0.883305  0.710992  1
  Fe  Fe17  1  0.500000  0.116695  0.710992  1
  Fe  Fe18  1  0.000000  0.618187  0.289126  1
  Fe  Fe19  1  0.000000  0.381813  0.289126  1
  Co  Co20  1  0.000000  0.000000  0.300507  1
  P  P21  1  0.500000  0.500000  0.892220  1
  P  P22  1  0.000000  0.000000  0.115697  1
  P  P23  1  0.500000  0.500000  0.345302  1
  P  P24  1  0.000000  0.000000  0.653135  1
  P  P25  1  0.500000  0.295251  0.611649  1
  P  P26  1  0.500000  0.704749  0.611649  1
  P  P27  1  0.000000  0.195767  0.384001  1
  P  P28  1  0.000000  0.804233  0.384001  1
  P  P29  1  0.500000  0.843978  0.897576  1
  P  P30  1  0.500000  0.156022  0.897576  1
  P  P31  1  0.000000  0.657651  0.104273  1
  P  P32  1  0.000000  0.342349  0.104273  1
  Ir  Ir33  1  0.500000  0.500000  0.155902  1
  Ir  Ir34  1  0.000000  0.000000  0.844699  1
  Ir  Ir35  1  0.500000  0.500000  0.697973  1
