# generated using pymatgen
data_Ho8Re2B24IrRu
_symmetry_space_group_name_H-M   'P 1'
_cell_length_a   3.66199500
_cell_length_b   9.14018782
_cell_length_c   11.52183301
_cell_angle_alpha   90.04249589
_cell_angle_beta   90.00000000
_cell_angle_gamma   90.00000000
_symmetry_Int_Tables_number   1
_chemical_formula_structural   Ho8Re2B24IrRu
_chemical_formula_sum   'Ho8 Re2 B24 Ir1 Ru1'
_cell_volume   385.65087788
_cell_formula_units_Z   1
loop_
 _symmetry_equiv_pos_site_id
 _symmetry_equiv_pos_as_xyz
  1  'x, y, z'
loop_
 _atom_site_type_symbol
 _atom_site_label
 _atom_site_symmetry_multiplicity
 _atom_site_fract_x
 _atom_site_fract_y
 _atom_site_fract_z
 _atom_site_occupancy
  Ho  Ho0  1  0.000000  0.317589  0.415075  1
  Ho  Ho1  1  0.000000  0.676224  0.589422  1
  Ho  Ho2  1  0.000000  0.826959  0.083523  1
  Ho  Ho3  1  0.000000  0.179480  0.913106  1
  Ho  Ho4  1  0.000000  0.944735  0.372251  1
  Ho  Ho5  1  0.000000  0.055923  0.628220  1
  Ho  Ho6  1  0.000000  0.441907  0.126500  1
  Ho  Ho7  1  0.000000  0.556939  0.872213  1
  Re  Re8  1  0.000000  0.362466  0.678132  1
  Re  Re9  1  0.000000  0.137748  0.178922  1
  B  B10  1  0.500000  0.553564  0.433585  1
  B  B11  1  0.500000  0.447067  0.566323  1
  B  B12  1  0.500000  0.052810  0.066306  1
  B  B13  1  0.500000  0.946582  0.932223  1
  B  B14  1  0.500000  0.748837  0.421061  1
  B  B15  1  0.500000  0.251129  0.580622  1
  B  B16  1  0.500000  0.248567  0.080583  1
  B  B17  1  0.500000  0.752319  0.919418  1
  B  B18  1  0.500000  0.791606  0.266288  1
  B  B19  1  0.500000  0.208634  0.734133  1
  B  B20  1  0.500000  0.291583  0.234382  1
  B  B21  1  0.500000  0.708612  0.766765  1
  B  B22  1  0.500000  0.632743  0.183870  1
  B  B23  1  0.500000  0.369171  0.814414  1
  B  B24  1  0.500000  0.131029  0.314772  1
  B  B25  1  0.500000  0.867422  0.685688  1
  B  B26  1  0.500000  0.982248  0.212259  1
  B  B27  1  0.500000  0.016663  0.787001  1
  B  B28  1  0.500000  0.482857  0.286739  1
  B  B29  1  0.500000  0.518050  0.712487  1
  B  B30  1  0.500000  0.608543  0.029951  1
  B  B31  1  0.500000  0.395034  0.970724  1
  B  B32  1  0.500000  0.104762  0.470720  1
  B  B33  1  0.500000  0.891046  0.529833  1
  Ir  Ir34  1  0.000000  0.637144  0.321466  1
  Ru  Ru35  1  0.000000  0.862006  0.821024  1
