# generated using pymatgen
data_La2Nd3Ir2
_symmetry_space_group_name_H-M   'P 1'
_cell_length_a   9.12170628
_cell_length_b   9.12170552
_cell_length_c   7.33141648
_cell_angle_alpha   84.17718330
_cell_angle_beta   84.17718218
_cell_angle_gamma   43.28735129
_symmetry_Int_Tables_number   1
_chemical_formula_structural   La2Nd3Ir2
_chemical_formula_sum   'La4 Nd6 Ir4'
_cell_volume   415.76210025
_cell_formula_units_Z   2
loop_
 _symmetry_equiv_pos_site_id
 _symmetry_equiv_pos_as_xyz
  1  'x, y, z'
loop_
 _atom_site_type_symbol
 _atom_site_label
 _atom_site_symmetry_multiplicity
 _atom_site_fract_x
 _atom_site_fract_y
 _atom_site_fract_z
 _atom_site_occupancy
  La  La0  1  0.016494  0.796153  0.915207  1
  La  La1  1  0.203847  0.983506  0.584793  1
  La  La2  1  0.983506  0.203847  0.084793  1
  La  La3  1  0.796153  0.016494  0.415207  1
  Nd  Nd4  1  0.353922  0.213373  0.818302  1
  Nd  Nd5  1  0.786627  0.646078  0.681698  1
  Nd  Nd6  1  0.646078  0.786627  0.181698  1
  Nd  Nd7  1  0.213373  0.353922  0.318302  1
  Nd  Nd8  1  0.569022  0.430978  0.750000  1
  Nd  Nd9  1  0.430978  0.569022  0.250000  1
  Ir  Ir10  1  0.177785  0.598783  0.578387  1
  Ir  Ir11  1  0.401217  0.822215  0.921613  1
  Ir  Ir12  1  0.822215  0.401217  0.421613  1
  Ir  Ir13  1  0.598783  0.177785  0.078387  1
