# generated using pymatgen
data_ZrTc3P4Rh3
_symmetry_space_group_name_H-M   'P 1'
_cell_length_a   6.89202500
_cell_length_b   6.89202461
_cell_length_c   3.79632200
_cell_angle_alpha   90.00000000
_cell_angle_beta   90.00000000
_cell_angle_gamma   120.00000665
_symmetry_Int_Tables_number   1
_chemical_formula_structural   ZrTc3P4Rh3
_chemical_formula_sum   'Zr1 Tc3 P4 Rh3'
_cell_volume   156.16629550
_cell_formula_units_Z   1
loop_
 _symmetry_equiv_pos_site_id
 _symmetry_equiv_pos_as_xyz
  1  'x, y, z'
loop_
 _atom_site_type_symbol
 _atom_site_label
 _atom_site_symmetry_multiplicity
 _atom_site_fract_x
 _atom_site_fract_y
 _atom_site_fract_z
 _atom_site_occupancy
  Zr  Zr0  1  0.000000  0.000000  0.000000  1
  Tc  Tc1  1  0.469002  0.933320  0.000000  1
  Tc  Tc2  1  0.464318  0.530998  0.000000  1
  Tc  Tc3  1  0.066680  0.535682  0.000000  1
  P  P4  1  0.666667  0.333333  0.000000  1
  P  P5  1  0.194054  0.386494  0.500000  1
  P  P6  1  0.192439  0.805946  0.500000  1
  P  P7  1  0.613506  0.807561  0.500000  1
  Rh  Rh8  1  0.806917  0.616462  0.500000  1
  Rh  Rh9  1  0.809545  0.193083  0.500000  1
  Rh  Rh10  1  0.383538  0.190455  0.500000  1
