# generated using pymatgen
data_Pr3Hf(Co4P3)2
_symmetry_space_group_name_H-M   'P 1'
_cell_length_a   3.78799800
_cell_length_b   10.83172500
_cell_length_c   12.64613700
_cell_angle_alpha   90.00000000
_cell_angle_beta   90.00000000
_cell_angle_gamma   90.00000000
_symmetry_Int_Tables_number   1
_chemical_formula_structural   Pr3Hf(Co4P3)2
_chemical_formula_sum   'Pr6 Hf2 Co16 P12'
_cell_volume   518.87798983
_cell_formula_units_Z   2
loop_
 _symmetry_equiv_pos_site_id
 _symmetry_equiv_pos_as_xyz
  1  'x, y, z'
loop_
 _atom_site_type_symbol
 _atom_site_label
 _atom_site_symmetry_multiplicity
 _atom_site_fract_x
 _atom_site_fract_y
 _atom_site_fract_z
 _atom_site_occupancy
  Pr  Pr0  1  0.000000  0.500000  0.527655  1
  Pr  Pr1  1  0.500000  0.000000  0.472345  1
  Pr  Pr2  1  0.500000  0.820747  0.205585  1
  Pr  Pr3  1  0.500000  0.179253  0.205585  1
  Pr  Pr4  1  0.000000  0.679253  0.794415  1
  Pr  Pr5  1  0.000000  0.320747  0.794415  1
  Hf  Hf6  1  0.500000  0.500000  0.154325  1
  Hf  Hf7  1  0.000000  0.000000  0.845675  1
  Co  Co8  1  0.500000  0.500000  0.703899  1
  Co  Co9  1  0.000000  0.000000  0.296101  1
  Co  Co10  1  0.000000  0.500000  0.986914  1
  Co  Co11  1  0.500000  0.000000  0.013086  1
  Co  Co12  1  0.500000  0.332430  0.994004  1
  Co  Co13  1  0.500000  0.667570  0.994004  1
  Co  Co14  1  0.000000  0.167570  0.005996  1
  Co  Co15  1  0.000000  0.832430  0.005996  1
  Co  Co16  1  0.500000  0.295715  0.432602  1
  Co  Co17  1  0.500000  0.704285  0.432602  1
  Co  Co18  1  0.000000  0.204285  0.567398  1
  Co  Co19  1  0.000000  0.795715  0.567398  1
  Co  Co20  1  0.500000  0.881022  0.703568  1
  Co  Co21  1  0.500000  0.118978  0.703568  1
  Co  Co22  1  0.000000  0.618978  0.296432  1
  Co  Co23  1  0.000000  0.381022  0.296432  1
  P  P24  1  0.500000  0.500000  0.886565  1
  P  P25  1  0.000000  0.000000  0.113435  1
  P  P26  1  0.500000  0.500000  0.355791  1
  P  P27  1  0.000000  0.000000  0.644209  1
  P  P28  1  0.500000  0.303633  0.612821  1
  P  P29  1  0.500000  0.696367  0.612821  1
  P  P30  1  0.000000  0.196367  0.387179  1
  P  P31  1  0.000000  0.803633  0.387179  1
  P  P32  1  0.500000  0.841380  0.897935  1
  P  P33  1  0.500000  0.158620  0.897935  1
  P  P34  1  0.000000  0.658620  0.102065  1
  P  P35  1  0.000000  0.341380  0.102065  1
