# generated using pymatgen
data_Ac2HoEr(PPt)4
_symmetry_space_group_name_H-M   'P 1'
_cell_length_a   4.20232900
_cell_length_b   4.20232817
_cell_length_c   16.36981500
_cell_angle_alpha   90.00000000
_cell_angle_beta   90.00000000
_cell_angle_gamma   119.99999866
_symmetry_Int_Tables_number   1
_chemical_formula_structural   Ac2HoEr(PPt)4
_chemical_formula_sum   'Ac2 Ho1 Er1 P4 Pt4'
_cell_volume   250.35393607
_cell_formula_units_Z   1
loop_
 _symmetry_equiv_pos_site_id
 _symmetry_equiv_pos_as_xyz
  1  'x, y, z'
loop_
 _atom_site_type_symbol
 _atom_site_label
 _atom_site_symmetry_multiplicity
 _atom_site_fract_x
 _atom_site_fract_y
 _atom_site_fract_z
 _atom_site_occupancy
  Ac  Ac0  1  0.000000  0.000000  0.500630  1
  Ac  Ac1  1  0.000000  0.000000  0.999370  1
  Ho  Ho2  1  0.000000  0.000000  0.250000  1
  Er  Er3  1  0.000000  0.000000  0.750000  1
  P  P4  1  0.333333  0.666667  0.870632  1
  P  P5  1  0.666667  0.333333  0.129160  1
  P  P6  1  0.666667  0.333333  0.370840  1
  P  P7  1  0.333333  0.666667  0.629368  1
  Pt  Pt8  1  0.333333  0.666667  0.357845  1
  Pt  Pt9  1  0.666667  0.333333  0.643541  1
  Pt  Pt10  1  0.666667  0.333333  0.856459  1
  Pt  Pt11  1  0.333333  0.666667  0.142155  1
