# generated using pymatgen
data_Lu8Ti5Si16Mo4W3
_symmetry_space_group_name_H-M   'P 1'
_cell_length_a   6.69143104
_cell_length_b   6.89175835
_cell_length_c   13.02444548
_cell_angle_alpha   90.02853133
_cell_angle_beta   89.98792190
_cell_angle_gamma   89.99112493
_symmetry_Int_Tables_number   1
_chemical_formula_structural   Lu8Ti5Si16Mo4W3
_chemical_formula_sum   'Lu8 Ti5 Si16 Mo4 W3'
_cell_volume   600.63166046
_cell_formula_units_Z   1
loop_
 _symmetry_equiv_pos_site_id
 _symmetry_equiv_pos_as_xyz
  1  'x, y, z'
loop_
 _atom_site_type_symbol
 _atom_site_label
 _atom_site_symmetry_multiplicity
 _atom_site_fract_x
 _atom_site_fract_y
 _atom_site_fract_z
 _atom_site_occupancy
  Lu  Lu0  1  0.500414  0.326676  0.095186  1
  Lu  Lu1  1  0.999707  0.170000  0.405035  1
  Lu  Lu2  1  0.499551  0.672227  0.594673  1
  Lu  Lu3  1  0.000054  0.827585  0.905041  1
  Lu  Lu4  1  0.500737  0.669563  0.905732  1
  Lu  Lu5  1  0.000847  0.830593  0.595458  1
  Lu  Lu6  1  0.501041  0.328439  0.405168  1
  Lu  Lu7  1  0.999541  0.170202  0.094301  1
  Ti  Ti8  1  0.834706  0.329671  0.626325  1
  Ti  Ti9  1  0.335412  0.169610  0.874069  1
  Ti  Ti10  1  0.163628  0.670389  0.125435  1
  Ti  Ti11  1  0.667079  0.830516  0.373669  1
  Ti  Ti12  1  0.168114  0.672077  0.373446  1
  Si  Si13  1  0.662187  0.039603  0.543631  1
  Si  Si14  1  0.161230  0.460613  0.956555  1
  Si  Si15  1  0.338053  0.960914  0.043699  1
  Si  Si16  1  0.836354  0.538780  0.457383  1
  Si  Si17  1  0.335844  0.960635  0.458505  1
  Si  Si18  1  0.834550  0.539834  0.042825  1
  Si  Si19  1  0.664407  0.040686  0.957333  1
  Si  Si20  1  0.163861  0.460932  0.542830  1
  Si  Si21  1  0.534998  0.375969  0.748993  1
  Si  Si22  1  0.034905  0.124240  0.751629  1
  Si  Si23  1  0.466145  0.625494  0.248474  1
  Si  Si24  1  0.962536  0.876930  0.249772  1
  Si  Si25  1  0.799101  0.631573  0.749032  1
  Si  Si26  1  0.299556  0.867553  0.750850  1
  Si  Si27  1  0.203070  0.367799  0.250092  1
  Si  Si28  1  0.700498  0.131186  0.250215  1
  Mo  Mo29  1  0.670545  0.831733  0.123262  1
  Mo  Mo30  1  0.829511  0.331588  0.874919  1
  Mo  Mo31  1  0.330430  0.169421  0.626558  1
  Mo  Mo32  1  0.839464  0.506267  0.249781  1
  W  W33  1  0.662884  0.006802  0.749778  1
  W  W34  1  0.162718  0.491597  0.750726  1
  W  W35  1  0.336323  0.992299  0.249620  1
