# generated using pymatgen
data_TcSb12IrPd2
_symmetry_space_group_name_H-M   'P 1'
_cell_length_a   8.19452387
_cell_length_b   8.20562371
_cell_length_c   8.17341026
_cell_angle_alpha   109.33511964
_cell_angle_beta   109.33300796
_cell_angle_gamma   109.51337101
_symmetry_Int_Tables_number   1
_chemical_formula_structural   TcSb12IrPd2
_chemical_formula_sum   'Tc1 Sb12 Ir1 Pd2'
_cell_volume   424.28120860
_cell_formula_units_Z   1
loop_
 _symmetry_equiv_pos_site_id
 _symmetry_equiv_pos_as_xyz
  1  'x, y, z'
loop_
 _atom_site_type_symbol
 _atom_site_label
 _atom_site_symmetry_multiplicity
 _atom_site_fract_x
 _atom_site_fract_y
 _atom_site_fract_z
 _atom_site_occupancy
  Tc  Tc0  1  0.000000  0.000000  0.500000  1
  Sb  Sb1  1  0.846151  0.667338  0.510119  1
  Sb  Sb2  1  0.846262  0.346365  0.194402  1
  Sb  Sb3  1  0.153738  0.653635  0.805598  1
  Sb  Sb4  1  0.344402  0.495607  0.155539  1
  Sb  Sb5  1  0.153849  0.332662  0.489881  1
  Sb  Sb6  1  0.664639  0.814432  0.159480  1
  Sb  Sb7  1  0.185279  0.849711  0.344718  1
  Sb  Sb8  1  0.655598  0.504393  0.844461  1
  Sb  Sb9  1  0.814721  0.150289  0.655282  1
  Sb  Sb10  1  0.335361  0.185568  0.840520  1
  Sb  Sb11  1  0.503286  0.842391  0.654148  1
  Sb  Sb12  1  0.496714  0.157609  0.345852  1
  Ir  Ir13  1  0.500000  0.500000  0.500000  1
  Pd  Pd14  1  0.000000  0.500000  0.000000  1
  Pd  Pd15  1  0.500000  0.000000  0.000000  1
