# generated using pymatgen
data_Tb3DyEr6(CoBi2)2
_symmetry_space_group_name_H-M   'P 1'
_cell_length_a   7.96111609
_cell_length_b   8.87041200
_cell_length_c   12.37611310
_cell_angle_alpha   90.00000000
_cell_angle_beta   90.00791814
_cell_angle_gamma   90.00000000
_symmetry_Int_Tables_number   1
_chemical_formula_structural   Tb3DyEr6(CoBi2)2
_chemical_formula_sum   'Tb6 Dy2 Er12 Co4 Bi8'
_cell_volume   873.98104588
_cell_formula_units_Z   2
loop_
 _symmetry_equiv_pos_site_id
 _symmetry_equiv_pos_as_xyz
  1  'x, y, z'
loop_
 _atom_site_type_symbol
 _atom_site_label
 _atom_site_symmetry_multiplicity
 _atom_site_fract_x
 _atom_site_fract_y
 _atom_site_fract_z
 _atom_site_occupancy
  Tb  Tb0  1  0.153566  0.250000  0.801035  1
  Tb  Tb1  1  0.846434  0.750000  0.198965  1
  Tb  Tb2  1  0.120112  0.750000  0.813011  1
  Tb  Tb3  1  0.879888  0.250000  0.186989  1
  Tb  Tb4  1  0.619958  0.250000  0.686999  1
  Tb  Tb5  1  0.380042  0.750000  0.313001  1
  Dy  Dy6  1  0.654111  0.750000  0.699577  1
  Dy  Dy7  1  0.345889  0.250000  0.300423  1
  Er  Er8  1  0.552397  0.750000  0.996869  1
  Er  Er9  1  0.447603  0.250000  0.003131  1
  Er  Er10  1  0.052585  0.250000  0.502537  1
  Er  Er11  1  0.947415  0.750000  0.497463  1
  Er  Er12  1  0.825474  0.463439  0.936111  1
  Er  Er13  1  0.174526  0.536561  0.063889  1
  Er  Er14  1  0.325804  0.536535  0.563724  1
  Er  Er15  1  0.174526  0.963439  0.063889  1
  Er  Er16  1  0.674196  0.463465  0.436276  1
  Er  Er17  1  0.825474  0.036561  0.936111  1
  Er  Er18  1  0.674196  0.036535  0.436276  1
  Er  Er19  1  0.325804  0.963465  0.563724  1
  Co  Co20  1  0.936356  0.750000  0.992488  1
  Co  Co21  1  0.063644  0.250000  0.007512  1
  Co  Co22  1  0.436456  0.250000  0.506811  1
  Co  Co23  1  0.563544  0.750000  0.493189  1
  Bi  Bi24  1  0.932312  0.007680  0.672513  1
  Bi  Bi25  1  0.067688  0.992320  0.327487  1
  Bi  Bi26  1  0.432275  0.992248  0.827486  1
  Bi  Bi27  1  0.067688  0.507680  0.327487  1
  Bi  Bi28  1  0.567725  0.007752  0.172514  1
  Bi  Bi29  1  0.932312  0.492320  0.672513  1
  Bi  Bi30  1  0.567725  0.492248  0.172514  1
  Bi  Bi31  1  0.432275  0.507752  0.827486  1
