# generated using pymatgen
data_Nd2W(SeO4)3
_symmetry_space_group_name_H-M   'P 1'
_cell_length_a   6.77868051
_cell_length_b   7.33520919
_cell_length_c   11.09897290
_cell_angle_alpha   85.53600437
_cell_angle_beta   73.55018089
_cell_angle_gamma   86.01406364
_symmetry_Int_Tables_number   1
_chemical_formula_structural   Nd2W(SeO4)3
_chemical_formula_sum   'Nd4 W2 Se6 O24'
_cell_volume   527.02903366
_cell_formula_units_Z   2
loop_
 _symmetry_equiv_pos_site_id
 _symmetry_equiv_pos_as_xyz
  1  'x, y, z'
loop_
 _atom_site_type_symbol
 _atom_site_label
 _atom_site_symmetry_multiplicity
 _atom_site_fract_x
 _atom_site_fract_y
 _atom_site_fract_z
 _atom_site_occupancy
  Nd  Nd0  1  0.732316  0.638755  0.508719  1
  Nd  Nd1  1  0.267684  0.361245  0.491281  1
  Nd  Nd2  1  0.208565  0.178474  0.162909  1
  Nd  Nd3  1  0.791435  0.821526  0.837091  1
  W  W4  1  0.722821  0.896448  0.211666  1
  W  W5  1  0.277179  0.103552  0.788334  1
  Se  Se6  1  0.196750  0.661067  0.216322  1
  Se  Se7  1  0.803250  0.338933  0.783678  1
  Se  Se8  1  0.657567  0.359288  0.142538  1
  Se  Se9  1  0.342433  0.640712  0.857462  1
  Se  Se10  1  0.790950  0.140101  0.489766  1
  Se  Se11  1  0.209050  0.859899  0.510234  1
  O  O12  1  0.691987  0.675135  0.299660  1
  O  O13  1  0.308013  0.324865  0.700340  1
  O  O14  1  0.720563  0.966179  0.410680  1
  O  O15  1  0.279437  0.033821  0.589320  1
  O  O16  1  0.453422  0.974639  0.235537  1
  O  O17  1  0.546578  0.025361  0.764463  1
  O  O18  1  0.817991  0.166587  0.179722  1
  O  O19  1  0.182009  0.833413  0.820278  1
  O  O20  1  0.782376  0.835520  0.050360  1
  O  O21  1  0.217624  0.164480  0.949640  1
  O  O22  1  0.049102  0.869509  0.198244  1
  O  O23  1  0.950898  0.130491  0.801756  1
  O  O24  1  0.099144  0.500888  0.150468  1
  O  O25  1  0.900856  0.499112  0.849532  1
  O  O26  1  0.086912  0.605859  0.379427  1
  O  O27  1  0.913088  0.394141  0.620573  1
  O  O28  1  0.558391  0.273148  0.035920  1
  O  O29  1  0.441609  0.726852  0.964080  1
  O  O30  1  0.431078  0.350266  0.266348  1
  O  O31  1  0.568922  0.649734  0.733652  1
  O  O32  1  0.037621  0.188343  0.394360  1
  O  O33  1  0.962379  0.811657  0.605640  1
  O  O34  1  0.645926  0.333275  0.458116  1
  O  O35  1  0.354074  0.666725  0.541884  1
