# generated using pymatgen
data_SrAl5CuPd
_symmetry_space_group_name_H-M   'P 1'
_cell_length_a   6.49792968
_cell_length_b   6.49793006
_cell_length_c   6.49792948
_cell_angle_alpha   143.30082689
_cell_angle_beta   110.79332059
_cell_angle_gamma   80.97983385
_symmetry_Int_Tables_number   1
_chemical_formula_structural   SrAl5CuPd
_chemical_formula_sum   'Sr1 Al5 Cu1 Pd1'
_cell_volume   149.21600390
_cell_formula_units_Z   1
loop_
 _symmetry_equiv_pos_site_id
 _symmetry_equiv_pos_as_xyz
  1  'x, y, z'
loop_
 _atom_site_type_symbol
 _atom_site_label
 _atom_site_symmetry_multiplicity
 _atom_site_fract_x
 _atom_site_fract_y
 _atom_site_fract_z
 _atom_site_occupancy
  Sr  Sr0  1  0.003683  0.003683  0.000000  1
  Al  Al1  1  0.534448  0.348045  0.186403  1
  Al  Al2  1  0.844226  0.654129  0.190098  1
  Al  Al3  1  0.495689  0.995688  0.500001  1
  Al  Al4  1  0.161643  0.348045  0.813598  1
  Al  Al5  1  0.464033  0.654130  0.809903  1
  Cu  Cu6  1  0.256278  0.756278  0.500000  1
  Pd  Pd7  1  0.740002  0.240001  0.500001  1
