# generated using pymatgen
data_RbTlSnSe3
_symmetry_space_group_name_H-M   'P 1'
_cell_length_a   7.31056273
_cell_length_b   8.07394664
_cell_length_c   9.07807800
_cell_angle_alpha   75.23280991
_cell_angle_beta   71.23644543
_cell_angle_gamma   65.63302031
_symmetry_Int_Tables_number   1
_chemical_formula_structural   RbTlSnSe3
_chemical_formula_sum   'Rb2 Tl2 Sn2 Se6'
_cell_volume   457.50190500
_cell_formula_units_Z   2
loop_
 _symmetry_equiv_pos_site_id
 _symmetry_equiv_pos_as_xyz
  1  'x, y, z'
loop_
 _atom_site_type_symbol
 _atom_site_label
 _atom_site_symmetry_multiplicity
 _atom_site_fract_x
 _atom_site_fract_y
 _atom_site_fract_z
 _atom_site_occupancy
  Rb  Rb0  1  0.655836  0.459391  0.688969  1
  Rb  Rb1  1  0.344164  0.540609  0.311031  1
  Tl  Tl2  1  0.897055  0.800346  0.903715  1
  Tl  Tl3  1  0.102945  0.199654  0.096285  1
  Sn  Sn4  1  0.639955  0.938941  0.310070  1
  Sn  Sn5  1  0.360045  0.061059  0.689930  1
  Se  Se6  1  0.263979  0.967376  0.474784  1
  Se  Se7  1  0.736021  0.032624  0.525216  1
  Se  Se8  1  0.357072  0.825721  0.932444  1
  Se  Se9  1  0.642928  0.174279  0.067556  1
  Se  Se10  1  0.157403  0.390106  0.738553  1
  Se  Se11  1  0.842597  0.609894  0.261447  1
