# generated using pymatgen
data_TbDy3(GaPd2)4
_symmetry_space_group_name_H-M   'P 1'
_cell_length_a   5.63977605
_cell_length_b   7.14861400
_cell_length_c   7.41110706
_cell_angle_alpha   90.00000000
_cell_angle_beta   90.01451847
_cell_angle_gamma   90.00000000
_symmetry_Int_Tables_number   1
_chemical_formula_structural   TbDy3(GaPd2)4
_chemical_formula_sum   'Tb1 Dy3 Ga4 Pd8'
_cell_volume   298.79049584
_cell_formula_units_Z   1
loop_
 _symmetry_equiv_pos_site_id
 _symmetry_equiv_pos_as_xyz
  1  'x, y, z'
loop_
 _atom_site_type_symbol
 _atom_site_label
 _atom_site_symmetry_multiplicity
 _atom_site_fract_x
 _atom_site_fract_y
 _atom_site_fract_z
 _atom_site_occupancy
  Tb  Tb0  1  0.852143  0.250000  0.468447  1
  Dy  Dy1  1  0.351622  0.750000  0.031513  1
  Dy  Dy2  1  0.148789  0.750000  0.531388  1
  Dy  Dy3  1  0.648504  0.250000  0.968730  1
  Ga  Ga4  1  0.647135  0.750000  0.383862  1
  Ga  Ga5  1  0.853076  0.750000  0.883720  1
  Ga  Ga6  1  0.353478  0.250000  0.616445  1
  Ga  Ga7  1  0.146944  0.250000  0.115669  1
  Pd  Pd8  1  0.911914  0.551206  0.181453  1
  Pd  Pd9  1  0.587448  0.948784  0.682243  1
  Pd  Pd10  1  0.088459  0.050730  0.818396  1
  Pd  Pd11  1  0.411335  0.449259  0.318022  1
  Pd  Pd12  1  0.088459  0.449270  0.818396  1
  Pd  Pd13  1  0.411335  0.050741  0.318022  1
  Pd  Pd14  1  0.911914  0.948794  0.181453  1
  Pd  Pd15  1  0.587448  0.551216  0.682243  1
