# generated using pymatgen
data_Yb4Ga2TcOs5
_symmetry_space_group_name_H-M   'P 1'
_cell_length_a   5.34625191
_cell_length_b   5.39465451
_cell_length_c   8.64414595
_cell_angle_alpha   90.00000233
_cell_angle_beta   89.72499287
_cell_angle_gamma   120.29995597
_symmetry_Int_Tables_number   1
_chemical_formula_structural   Yb4Ga2TcOs5
_chemical_formula_sum   'Yb4 Ga2 Tc1 Os5'
_cell_volume   215.24765897
_cell_formula_units_Z   1
loop_
 _symmetry_equiv_pos_site_id
 _symmetry_equiv_pos_as_xyz
  1  'x, y, z'
loop_
 _atom_site_type_symbol
 _atom_site_label
 _atom_site_symmetry_multiplicity
 _atom_site_fract_x
 _atom_site_fract_y
 _atom_site_fract_z
 _atom_site_occupancy
  Yb  Yb0  1  0.338385  0.669193  0.442547  1
  Yb  Yb1  1  0.672629  0.336314  0.569034  1
  Yb  Yb2  1  0.673265  0.336632  0.933507  1
  Yb  Yb3  1  0.339509  0.669755  0.055609  1
  Ga  Ga4  1  0.805959  0.154862  0.250893  1
  Ga  Ga5  1  0.805959  0.651098  0.250893  1
  Tc  Tc6  1  0.032149  0.016074  0.494999  1
  Os  Os7  1  0.027366  0.013683  0.003438  1
  Os  Os8  1  0.317031  0.158516  0.248833  1
  Os  Os9  1  0.169640  0.831981  0.750176  1
  Os  Os10  1  0.169640  0.337658  0.750176  1
  Os  Os11  1  0.648468  0.824234  0.749893  1
