# generated using pymatgen
data_Y10CoRh3
_symmetry_space_group_name_H-M   'P 1'
_cell_length_a   6.42462023
_cell_length_b   7.13538520
_cell_length_c   8.66822888
_cell_angle_alpha   96.59488855
_cell_angle_beta   112.06015699
_cell_angle_gamma   89.90928909
_symmetry_Int_Tables_number   1
_chemical_formula_structural   Y10CoRh3
_chemical_formula_sum   'Y10 Co1 Rh3'
_cell_volume   365.46902093
_cell_formula_units_Z   1
loop_
 _symmetry_equiv_pos_site_id
 _symmetry_equiv_pos_as_xyz
  1  'x, y, z'
loop_
 _atom_site_type_symbol
 _atom_site_label
 _atom_site_symmetry_multiplicity
 _atom_site_fract_x
 _atom_site_fract_y
 _atom_site_fract_z
 _atom_site_occupancy
  Y  Y0  1  0.979225  0.908191  0.189826  1
  Y  Y1  1  0.791825  0.583628  0.811136  1
  Y  Y2  1  0.019253  0.083220  0.811247  1
  Y  Y3  1  0.196398  0.417153  0.188030  1
  Y  Y4  1  0.651169  0.809650  0.433402  1
  Y  Y5  1  0.210538  0.685084  0.560993  1
  Y  Y6  1  0.352555  0.185904  0.562352  1
  Y  Y7  1  0.788434  0.320453  0.433453  1
  Y  Y8  1  0.429986  0.746735  0.002227  1
  Y  Y9  1  0.577291  0.256687  0.004420  1
  Co  Co10  1  0.825399  0.575981  0.225523  1
  Rh  Rh11  1  0.597795  0.928282  0.779794  1
  Rh  Rh12  1  0.179911  0.426489  0.776792  1
  Rh  Rh13  1  0.400220  0.072545  0.220805  1
