# generated using pymatgen
data_Tb13Dy3Cd4Ru3Pt
_symmetry_space_group_name_H-M   'P 1'
_cell_length_a   9.64356578
_cell_length_b   9.69982347
_cell_length_c   9.69982500
_cell_angle_alpha   59.99999820
_cell_angle_beta   59.80683252
_cell_angle_gamma   59.80683125
_symmetry_Int_Tables_number   1
_chemical_formula_structural   Tb13Dy3Cd4Ru3Pt
_chemical_formula_sum   'Tb13 Dy3 Cd4 Ru3 Pt1'
_cell_volume   639.69971715
_cell_formula_units_Z   1
loop_
 _symmetry_equiv_pos_site_id
 _symmetry_equiv_pos_as_xyz
  1  'x, y, z'
loop_
 _atom_site_type_symbol
 _atom_site_label
 _atom_site_symmetry_multiplicity
 _atom_site_fract_x
 _atom_site_fract_y
 _atom_site_fract_z
 _atom_site_occupancy
  Tb  Tb0  1  0.962135  0.345955  0.345955  1
  Tb  Tb1  1  0.815270  0.189132  0.189132  1
  Tb  Tb2  1  0.189699  0.810916  0.810916  1
  Tb  Tb3  1  0.189699  0.810916  0.188468  1
  Tb  Tb4  1  0.815270  0.189132  0.806468  1
  Tb  Tb5  1  0.189699  0.188468  0.810916  1
  Tb  Tb6  1  0.815270  0.806468  0.189132  1
  Tb  Tb7  1  0.935387  0.563010  0.563010  1
  Tb  Tb8  1  0.558506  0.937979  0.937979  1
  Tb  Tb9  1  0.558506  0.937979  0.565537  1
  Tb  Tb10  1  0.935387  0.563010  0.938593  1
  Tb  Tb11  1  0.558506  0.565537  0.937979  1
  Tb  Tb12  1  0.935387  0.938593  0.563010  1
  Dy  Dy13  1  0.344911  0.350666  0.350666  1
  Dy  Dy14  1  0.344911  0.350666  0.953757  1
  Dy  Dy15  1  0.344911  0.953757  0.350666  1
  Cd  Cd16  1  0.580440  0.579676  0.579676  1
  Cd  Cd17  1  0.580440  0.579676  0.260206  1
  Cd  Cd18  1  0.580440  0.260206  0.579676  1
  Cd  Cd19  1  0.257775  0.580741  0.580741  1
  Ru  Ru20  1  0.145194  0.138677  0.138677  1
  Ru  Ru21  1  0.145194  0.138677  0.577454  1
  Ru  Ru22  1  0.145194  0.577454  0.138677  1
  Pt  Pt23  1  0.571867  0.142711  0.142711  1
