# generated using pymatgen
data_Nd8MgSc10Si16Tc
_symmetry_space_group_name_H-M   'P 1'
_cell_length_a   7.13373883
_cell_length_b   7.49438862
_cell_length_c   14.13417700
_cell_angle_alpha   90.00000000
_cell_angle_beta   90.00000000
_cell_angle_gamma   89.96401038
_symmetry_Int_Tables_number   1
_chemical_formula_structural   Nd8MgSc10Si16Tc
_chemical_formula_sum   'Nd8 Mg1 Sc10 Si16 Tc1'
_cell_volume   755.65551261
_cell_formula_units_Z   1
loop_
 _symmetry_equiv_pos_site_id
 _symmetry_equiv_pos_as_xyz
  1  'x, y, z'
loop_
 _atom_site_type_symbol
 _atom_site_label
 _atom_site_symmetry_multiplicity
 _atom_site_fract_x
 _atom_site_fract_y
 _atom_site_fract_z
 _atom_site_occupancy
  Nd  Nd0  1  0.012160  0.178560  0.096277  1
  Nd  Nd1  1  0.991881  0.823495  0.899362  1
  Nd  Nd2  1  0.485175  0.669720  0.899809  1
  Nd  Nd3  1  0.991881  0.823495  0.600638  1
  Nd  Nd4  1  0.516729  0.327604  0.097765  1
  Nd  Nd5  1  0.012160  0.178560  0.403723  1
  Nd  Nd6  1  0.516729  0.327604  0.402235  1
  Nd  Nd7  1  0.485175  0.669720  0.600191  1
  Mg  Mg8  1  0.845539  0.498635  0.250000  1
  Sc  Sc9  1  0.345646  0.998169  0.250000  1
  Sc  Sc10  1  0.657471  0.001588  0.750000  1
  Sc  Sc11  1  0.324600  0.178734  0.626421  1
  Sc  Sc12  1  0.675728  0.820464  0.376271  1
  Sc  Sc13  1  0.169419  0.673449  0.377674  1
  Sc  Sc14  1  0.675728  0.820464  0.123729  1
  Sc  Sc15  1  0.826496  0.328469  0.627938  1
  Sc  Sc16  1  0.324600  0.178734  0.873579  1
  Sc  Sc17  1  0.826496  0.328469  0.872062  1
  Sc  Sc18  1  0.169419  0.673449  0.122326  1
  Si  Si19  1  0.031665  0.131812  0.750000  1
  Si  Si20  1  0.972615  0.885771  0.250000  1
  Si  Si21  1  0.460808  0.625379  0.250000  1
  Si  Si22  1  0.520051  0.383592  0.750000  1
  Si  Si23  1  0.288187  0.881468  0.750000  1
  Si  Si24  1  0.713667  0.106302  0.250000  1
  Si  Si25  1  0.222828  0.382337  0.250000  1
  Si  Si26  1  0.795909  0.617601  0.750000  1
  Si  Si27  1  0.149110  0.463462  0.548752  1
  Si  Si28  1  0.846270  0.539729  0.467534  1
  Si  Si29  1  0.349677  0.964881  0.461422  1
  Si  Si30  1  0.846270  0.539729  0.032466  1
  Si  Si31  1  0.652137  0.034627  0.540013  1
  Si  Si32  1  0.149110  0.463462  0.951248  1
  Si  Si33  1  0.652137  0.034627  0.959987  1
  Si  Si34  1  0.349677  0.964881  0.038578  1
  Tc  Tc35  1  0.146849  0.480961  0.750000  1
