# generated using pymatgen
data_Eu2YNbO6
_symmetry_space_group_name_H-M   'P 1'
_cell_length_a   5.97474600
_cell_length_b   5.79414712
_cell_length_c   10.09079693
_cell_angle_alpha   55.27288889
_cell_angle_beta   90.00000000
_cell_angle_gamma   90.00000000
_symmetry_Int_Tables_number   1
_chemical_formula_structural   Eu2YNbO6
_chemical_formula_sum   'Eu4 Y2 Nb2 O12'
_cell_volume   287.10448635
_cell_formula_units_Z   2
loop_
 _symmetry_equiv_pos_site_id
 _symmetry_equiv_pos_as_xyz
  1  'x, y, z'
loop_
 _atom_site_type_symbol
 _atom_site_label
 _atom_site_symmetry_multiplicity
 _atom_site_fract_x
 _atom_site_fract_y
 _atom_site_fract_z
 _atom_site_occupancy
  Eu  Eu0  1  0.450654  0.262913  0.750653  1
  Eu  Eu1  1  0.950654  0.737087  0.749347  1
  Eu  Eu2  1  0.049346  0.262913  0.250653  1
  Eu  Eu3  1  0.549346  0.737087  0.249347  1
  Y  Y4  1  0.500000  0.000000  0.500000  1
  Y  Y5  1  0.000000  0.000000  0.000000  1
  Nb  Nb6  1  0.000000  0.500000  0.500000  1
  Nb  Nb7  1  0.500000  0.500000  0.000000  1
  O  O8  1  0.191578  0.732783  0.551271  1
  O  O9  1  0.691578  0.267217  0.948729  1
  O  O10  1  0.808422  0.267217  0.448729  1
  O  O11  1  0.308422  0.732783  0.051271  1
  O  O12  1  0.717055  0.630628  0.556708  1
  O  O13  1  0.217055  0.369372  0.943292  1
  O  O14  1  0.282945  0.369372  0.443292  1
  O  O15  1  0.782945  0.630628  0.056708  1
  O  O16  1  0.035314  0.162874  0.735744  1
  O  O17  1  0.535314  0.837126  0.764256  1
  O  O18  1  0.964686  0.837126  0.264256  1
  O  O19  1  0.464686  0.162874  0.235744  1
