# generated using pymatgen
data_DyYCo3P7Ru9
_symmetry_space_group_name_H-M   'P 1'
_cell_length_a   9.33191800
_cell_length_b   9.33191759
_cell_length_c   3.83309700
_cell_angle_alpha   90.00000000
_cell_angle_beta   90.00000000
_cell_angle_gamma   120.00000855
_symmetry_Int_Tables_number   1
_chemical_formula_structural   DyYCo3P7Ru9
_chemical_formula_sum   'Dy1 Y1 Co3 P7 Ru9'
_cell_volume   289.08277341
_cell_formula_units_Z   1
loop_
 _symmetry_equiv_pos_site_id
 _symmetry_equiv_pos_as_xyz
  1  'x, y, z'
loop_
 _atom_site_type_symbol
 _atom_site_label
 _atom_site_symmetry_multiplicity
 _atom_site_fract_x
 _atom_site_fract_y
 _atom_site_fract_z
 _atom_site_occupancy
  Dy  Dy0  1  0.666667  0.333333  0.500000  1
  Y  Y1  1  0.333333  0.666667  0.000000  1
  Co  Co2  1  0.157950  0.888917  0.000000  1
  Co  Co3  1  0.111083  0.269033  0.000000  1
  Co  Co4  1  0.730967  0.842050  0.000000  1
  P  P5  1  0.411085  0.109786  0.000000  1
  P  P6  1  0.890214  0.301300  0.000000  1
  P  P7  1  0.698700  0.588915  0.000000  1
  P  P8  1  0.115196  0.714362  0.500000  1
  P  P9  1  0.285638  0.400833  0.500000  1
  P  P10  1  0.599167  0.884804  0.500000  1
  P  P11  1  0.000000  0.000000  0.000000  1
  Ru  Ru12  1  0.425112  0.363842  0.000000  1
  Ru  Ru13  1  0.636158  0.061270  0.000000  1
  Ru  Ru14  1  0.938730  0.574888  0.000000  1
  Ru  Ru15  1  0.382360  0.947515  0.500000  1
  Ru  Ru16  1  0.052485  0.434845  0.500000  1
  Ru  Ru17  1  0.565155  0.617640  0.500000  1
  Ru  Ru18  1  0.205722  0.120747  0.500000  1
  Ru  Ru19  1  0.879253  0.084975  0.500000  1
  Ru  Ru20  1  0.915025  0.794278  0.500000  1
