# generated using pymatgen
data_Ba8Nb2FeCoO16
_symmetry_space_group_name_H-M   'P 1'
_cell_length_a   6.11514800
_cell_length_b   7.63662753
_cell_length_c   21.23600701
_cell_angle_alpha   81.99818032
_cell_angle_beta   90.00000000
_cell_angle_gamma   90.00000000
_symmetry_Int_Tables_number   1
_chemical_formula_structural   Ba8Nb2FeCoO16
_chemical_formula_sum   'Ba16 Nb4 Fe2 Co2 O32'
_cell_volume   982.04701022
_cell_formula_units_Z   2
loop_
 _symmetry_equiv_pos_site_id
 _symmetry_equiv_pos_as_xyz
  1  'x, y, z'
loop_
 _atom_site_type_symbol
 _atom_site_label
 _atom_site_symmetry_multiplicity
 _atom_site_fract_x
 _atom_site_fract_y
 _atom_site_fract_z
 _atom_site_occupancy
  Ba  Ba0  1  0.763850  0.030287  0.098963  1
  Ba  Ba1  1  0.263850  0.969713  0.401037  1
  Ba  Ba2  1  0.238611  0.968324  0.902034  1
  Ba  Ba3  1  0.738611  0.031676  0.597966  1
  Ba  Ba4  1  0.759751  0.513522  0.138390  1
  Ba  Ba5  1  0.259751  0.486478  0.361610  1
  Ba  Ba6  1  0.241980  0.487791  0.861183  1
  Ba  Ba7  1  0.741980  0.512209  0.638817  1
  Ba  Ba8  1  0.274328  0.302219  0.047667  1
  Ba  Ba9  1  0.774328  0.697781  0.452333  1
  Ba  Ba10  1  0.725607  0.703149  0.953159  1
  Ba  Ba11  1  0.225607  0.296851  0.546841  1
  Ba  Ba12  1  0.280506  0.844107  0.212246  1
  Ba  Ba13  1  0.780506  0.155893  0.287754  1
  Ba  Ba14  1  0.718681  0.153547  0.788327  1
  Ba  Ba15  1  0.218681  0.846453  0.711673  1
  Nb  Nb16  1  0.266001  0.343802  0.210985  1
  Nb  Nb17  1  0.766001  0.656198  0.289015  1
  Nb  Nb18  1  0.734638  0.658057  0.788382  1
  Nb  Nb19  1  0.234638  0.341943  0.711618  1
  Fe  Fe20  1  0.778593  0.264701  0.940895  1
  Fe  Fe21  1  0.278593  0.735299  0.559105  1
  Co  Co22  1  0.225081  0.738845  0.058286  1
  Co  Co23  1  0.725081  0.261155  0.441714  1
  O  O24  1  0.495688  0.498863  0.251631  1
  O  O25  1  0.995688  0.501137  0.248369  1
  O  O26  1  0.503784  0.501195  0.748305  1
  O  O27  1  0.003784  0.498805  0.751695  1
  O  O28  1  0.495437  0.211098  0.177665  1
  O  O29  1  0.995437  0.788902  0.322335  1
  O  O30  1  0.504114  0.788046  0.821975  1
  O  O31  1  0.004114  0.211954  0.678025  1
  O  O32  1  0.236000  0.190729  0.292205  1
  O  O33  1  0.736000  0.809271  0.207795  1
  O  O34  1  0.763762  0.810298  0.707537  1
  O  O35  1  0.263762  0.189702  0.792463  1
  O  O36  1  0.032328  0.224615  0.168269  1
  O  O37  1  0.532328  0.775385  0.331731  1
  O  O38  1  0.967887  0.775258  0.831282  1
  O  O39  1  0.467887  0.224742  0.668718  1
  O  O40  1  0.273990  0.549422  0.131891  1
  O  O41  1  0.773990  0.450578  0.368109  1
  O  O42  1  0.726084  0.451134  0.868538  1
  O  O43  1  0.226084  0.548866  0.631462  1
  O  O44  1  0.342648  0.936157  0.082953  1
  O  O45  1  0.842648  0.063843  0.417047  1
  O  O46  1  0.654544  0.057609  0.917609  1
  O  O47  1  0.154544  0.942391  0.582391  1
  O  O48  1  0.297318  0.655569  0.981892  1
  O  O49  1  0.797318  0.344431  0.518108  1
  O  O50  1  0.695554  0.341398  0.019402  1
  O  O51  1  0.195554  0.658602  0.480598  1
  O  O52  1  0.917282  0.761181  0.054073  1
  O  O53  1  0.417282  0.238819  0.445927  1
  O  O54  1  0.085952  0.239481  0.944997  1
  O  O55  1  0.585952  0.760519  0.555003  1
