# generated using pymatgen
data_Tb3Y2Er15Sn16
_symmetry_space_group_name_H-M   'P 1'
_cell_length_a   8.00913248
_cell_length_b   8.12526680
_cell_length_c   15.37271664
_cell_angle_alpha   90.02060626
_cell_angle_beta   89.90506548
_cell_angle_gamma   89.93959970
_symmetry_Int_Tables_number   1
_chemical_formula_structural   Tb3Y2Er15Sn16
_chemical_formula_sum   'Tb3 Y2 Er15 Sn16'
_cell_volume   1000.39811385
_cell_formula_units_Z   1
loop_
 _symmetry_equiv_pos_site_id
 _symmetry_equiv_pos_as_xyz
  1  'x, y, z'
loop_
 _atom_site_type_symbol
 _atom_site_label
 _atom_site_symmetry_multiplicity
 _atom_site_fract_x
 _atom_site_fract_y
 _atom_site_fract_z
 _atom_site_occupancy
  Tb  Tb0  1  0.979620  0.821035  0.096605  1
  Tb  Tb1  1  0.479280  0.678110  0.096305  1
  Tb  Tb2  1  0.978754  0.821419  0.403482  1
  Y  Y3  1  0.521145  0.321672  0.596643  1
  Y  Y4  1  0.020055  0.178766  0.903645  1
  Er  Er5  1  0.366485  0.837503  0.876891  1
  Er  Er6  1  0.867348  0.661977  0.622417  1
  Er  Er7  1  0.632110  0.162134  0.377391  1
  Er  Er8  1  0.132981  0.337787  0.122877  1
  Er  Er9  1  0.632380  0.162764  0.122986  1
  Er  Er10  1  0.131695  0.337642  0.377745  1
  Er  Er11  1  0.368524  0.837740  0.622622  1
  Er  Er12  1  0.867433  0.662249  0.877100  1
  Er  Er13  1  0.521881  0.321475  0.902729  1
  Er  Er14  1  0.022117  0.178667  0.597187  1
  Er  Er15  1  0.477686  0.678372  0.402878  1
  Er  Er16  1  0.198912  0.504047  0.749743  1
  Er  Er17  1  0.698793  0.996274  0.749890  1
  Er  Er18  1  0.801129  0.495797  0.250224  1
  Er  Er19  1  0.301234  0.003996  0.250394  1
  Sn  Sn20  1  0.294684  0.038658  0.041475  1
  Sn  Sn21  1  0.792065  0.462890  0.458191  1
  Sn  Sn22  1  0.707922  0.963542  0.542005  1
  Sn  Sn23  1  0.207171  0.536954  0.958142  1
  Sn  Sn24  1  0.704522  0.961929  0.958355  1
  Sn  Sn25  1  0.206429  0.538475  0.541298  1
  Sn  Sn26  1  0.293249  0.038181  0.458842  1
  Sn  Sn27  1  0.794023  0.460818  0.040960  1
  Sn  Sn28  1  0.565357  0.618117  0.749949  1
  Sn  Sn29  1  0.064587  0.881571  0.749411  1
  Sn  Sn30  1  0.434881  0.381201  0.250602  1
  Sn  Sn31  1  0.935124  0.118864  0.250173  1
  Sn  Sn32  1  0.331799  0.149130  0.750457  1
  Sn  Sn33  1  0.832181  0.350981  0.749641  1
  Sn  Sn34  1  0.667458  0.850865  0.250376  1
  Sn  Sn35  1  0.168988  0.648401  0.250366  1
