# generated using pymatgen
data_Ca4Yb6SnSb5
_symmetry_space_group_name_H-M   'P 1'
_cell_length_a   9.11465900
_cell_length_b   9.13075814
_cell_length_c   6.91652600
_cell_angle_alpha   90.00000000
_cell_angle_beta   90.00000000
_cell_angle_gamma   119.94316221
_symmetry_Int_Tables_number   1
_chemical_formula_structural   Ca4Yb6SnSb5
_chemical_formula_sum   'Ca4 Yb6 Sn1 Sb5'
_cell_volume   498.78612150
_cell_formula_units_Z   1
loop_
 _symmetry_equiv_pos_site_id
 _symmetry_equiv_pos_as_xyz
  1  'x, y, z'
loop_
 _atom_site_type_symbol
 _atom_site_label
 _atom_site_symmetry_multiplicity
 _atom_site_fract_x
 _atom_site_fract_y
 _atom_site_fract_z
 _atom_site_occupancy
  Ca  Ca0  1  0.003642  0.736562  0.750000  1
  Ca  Ca1  1  0.000282  0.262460  0.250000  1
  Ca  Ca2  1  0.737756  0.737527  0.250000  1
  Ca  Ca3  1  0.260596  0.000062  0.250000  1
  Yb  Yb4  1  0.732155  0.000031  0.750000  1
  Yb  Yb5  1  0.267829  0.263721  0.750000  1
  Yb  Yb6  1  0.333190  0.669083  0.501596  1
  Yb  Yb7  1  0.663896  0.330832  0.998353  1
  Yb  Yb8  1  0.663896  0.330832  0.501647  1
  Yb  Yb9  1  0.333190  0.669083  0.998404  1
  Sn  Sn10  1  0.384357  0.000309  0.750000  1
  Sb  Sb11  1  0.384996  0.387295  0.250000  1
  Sb  Sb12  1  0.997684  0.612483  0.250000  1
  Sb  Sb13  1  0.000879  0.380904  0.750000  1
  Sb  Sb14  1  0.619845  0.618881  0.750000  1
  Sb  Sb15  1  0.615808  0.999935  0.250000  1
