# generated using pymatgen
data_TbDy3TiAlIr6
_symmetry_space_group_name_H-M   'P 1'
_cell_length_a   9.72304621
_cell_length_b   9.51951972
_cell_length_c   9.51951960
_cell_angle_alpha   34.45542771
_cell_angle_beta   31.04582443
_cell_angle_gamma   31.04583467
_symmetry_Int_Tables_number   1
_chemical_formula_structural   TbDy3TiAlIr6
_chemical_formula_sum   'Tb1 Dy3 Ti1 Al1 Ir6'
_cell_volume   220.35520041
_cell_formula_units_Z   1
loop_
 _symmetry_equiv_pos_site_id
 _symmetry_equiv_pos_as_xyz
  1  'x, y, z'
loop_
 _atom_site_type_symbol
 _atom_site_label
 _atom_site_symmetry_multiplicity
 _atom_site_fract_x
 _atom_site_fract_y
 _atom_site_fract_z
 _atom_site_occupancy
  Tb  Tb0  1  0.816264  0.810855  0.810855  1
  Dy  Dy1  1  0.316166  0.308687  0.308687  1
  Dy  Dy2  1  0.682721  0.689651  0.689651  1
  Dy  Dy3  1  0.183578  0.191580  0.191580  1
  Ti  Ti4  1  0.749987  0.249890  0.249890  1
  Al  Al5  1  0.250155  0.749985  0.749985  1
  Ir  Ir6  1  0.503876  0.498313  0.498313  1
  Ir  Ir7  1  0.996498  0.001479  0.001479  1
  Ir  Ir8  1  0.250232  0.249754  0.749588  1
  Ir  Ir9  1  0.750147  0.749916  0.250302  1
  Ir  Ir10  1  0.250232  0.749588  0.249754  1
  Ir  Ir11  1  0.750147  0.250302  0.749916  1
