# generated using pymatgen
data_Tb3AlIn2HgPd2
_symmetry_space_group_name_H-M   'P 1'
_cell_length_a   7.68191487
_cell_length_b   7.69501861
_cell_length_c   3.98775100
_cell_angle_alpha   90.00000000
_cell_angle_beta   90.00000000
_cell_angle_gamma   120.88673505
_symmetry_Int_Tables_number   1
_chemical_formula_structural   Tb3AlIn2HgPd2
_chemical_formula_sum   'Tb3 Al1 In2 Hg1 Pd2'
_cell_volume   202.29609394
_cell_formula_units_Z   1
loop_
 _symmetry_equiv_pos_site_id
 _symmetry_equiv_pos_as_xyz
  1  'x, y, z'
loop_
 _atom_site_type_symbol
 _atom_site_label
 _atom_site_symmetry_multiplicity
 _atom_site_fract_x
 _atom_site_fract_y
 _atom_site_fract_z
 _atom_site_occupancy
  Tb  Tb0  1  0.587782  0.984014  0.500000  1
  Tb  Tb1  1  0.406341  0.422488  0.500000  1
  Tb  Tb2  1  0.014475  0.600471  0.500000  1
  Al  Al3  1  0.751487  0.760248  0.000000  1
  In  In4  1  0.245390  0.992928  0.000000  1
  In  In5  1  0.005471  0.251589  0.000000  1
  Hg  Hg6  1  0.667973  0.343952  0.000000  1
  Pd  Pd7  1  0.974426  0.974342  0.500000  1
  Pd  Pd8  1  0.346655  0.669969  0.000000  1
