# generated using pymatgen
data_Zr16Ti4(Ga3Se)3
_symmetry_space_group_name_H-M   'P 1'
_cell_length_a   7.13901950
_cell_length_b   8.39405400
_cell_length_c   10.52450307
_cell_angle_alpha   90.00000000
_cell_angle_beta   89.95870381
_cell_angle_gamma   90.00000000
_symmetry_Int_Tables_number   1
_chemical_formula_structural   Zr16Ti4(Ga3Se)3
_chemical_formula_sum   'Zr16 Ti4 Ga9 Se3'
_cell_volume   630.68399963
_cell_formula_units_Z   1
loop_
 _symmetry_equiv_pos_site_id
 _symmetry_equiv_pos_as_xyz
  1  'x, y, z'
loop_
 _atom_site_type_symbol
 _atom_site_label
 _atom_site_symmetry_multiplicity
 _atom_site_fract_x
 _atom_site_fract_y
 _atom_site_fract_z
 _atom_site_occupancy
  Zr  Zr0  1  0.839171  0.750000  0.213433  1
  Zr  Zr1  1  0.657860  0.750000  0.711101  1
  Zr  Zr2  1  0.157558  0.250000  0.786370  1
  Zr  Zr3  1  0.339444  0.250000  0.290299  1
  Zr  Zr4  1  0.330296  0.750000  0.275817  1
  Zr  Zr5  1  0.167953  0.750000  0.773961  1
  Zr  Zr6  1  0.668854  0.250000  0.723727  1
  Zr  Zr7  1  0.828076  0.250000  0.225754  1
  Zr  Zr8  1  0.685486  0.944253  0.437341  1
  Zr  Zr9  1  0.813999  0.558298  0.937414  1
  Zr  Zr10  1  0.314167  0.444186  0.561615  1
  Zr  Zr11  1  0.192059  0.057174  0.063331  1
  Zr  Zr12  1  0.314167  0.055814  0.561615  1
  Zr  Zr13  1  0.192059  0.442826  0.063331  1
  Zr  Zr14  1  0.685486  0.555747  0.437341  1
  Zr  Zr15  1  0.813999  0.941702  0.937414  1
  Ti  Ti16  1  0.016742  0.750000  0.496646  1
  Ti  Ti17  1  0.481172  0.750000  0.997743  1
  Ti  Ti18  1  0.983595  0.250000  0.502752  1
  Ti  Ti19  1  0.518469  0.250000  0.002452  1
  Ga  Ga20  1  0.562356  0.505960  0.168263  1
  Ga  Ga21  1  0.937563  0.994447  0.664768  1
  Ga  Ga22  1  0.436130  0.004607  0.832532  1
  Ga  Ga23  1  0.060402  0.494807  0.331915  1
  Ga  Ga24  1  0.436130  0.495393  0.832532  1
  Ga  Ga25  1  0.060402  0.005193  0.331915  1
  Ga  Ga26  1  0.562356  0.994040  0.168263  1
  Ga  Ga27  1  0.937563  0.505553  0.664768  1
  Ga  Ga28  1  0.113116  0.750000  0.034271  1
  Se  Se29  1  0.389787  0.750000  0.529720  1
  Se  Se30  1  0.893386  0.250000  0.971742  1
  Se  Se31  1  0.610198  0.250000  0.469850  1
