# generated using pymatgen
data_Ho4TcOs4Ru3
_symmetry_space_group_name_H-M   'P 1'
_cell_length_a   5.17448742
_cell_length_b   5.36410793
_cell_length_c   9.01637500
_cell_angle_alpha   90.00000000
_cell_angle_beta   90.00000000
_cell_angle_gamma   120.15446400
_symmetry_Int_Tables_number   1
_chemical_formula_structural   Ho4TcOs4Ru3
_chemical_formula_sum   'Ho4 Tc1 Os4 Ru3'
_cell_volume   216.39606710
_cell_formula_units_Z   1
loop_
 _symmetry_equiv_pos_site_id
 _symmetry_equiv_pos_as_xyz
  1  'x, y, z'
loop_
 _atom_site_type_symbol
 _atom_site_label
 _atom_site_symmetry_multiplicity
 _atom_site_fract_x
 _atom_site_fract_y
 _atom_site_fract_z
 _atom_site_occupancy
  Ho  Ho0  1  0.330139  0.666331  0.433972  1
  Ho  Ho1  1  0.659040  0.328380  0.566041  1
  Ho  Ho2  1  0.659040  0.328380  0.933959  1
  Ho  Ho3  1  0.330139  0.666331  0.066028  1
  Tc  Tc4  1  0.675800  0.840198  0.750000  1
  Os  Os5  1  0.834795  0.169363  0.250000  1
  Os  Os6  1  0.830656  0.661112  0.250000  1
  Os  Os7  1  0.347952  0.175470  0.250000  1
  Os  Os8  1  0.176869  0.831747  0.750000  1
  Ru  Ru9  1  0.989539  0.990342  0.499892  1
  Ru  Ru10  1  0.989539  0.990342  0.000108  1
  Ru  Ru11  1  0.176493  0.352002  0.750000  1
