# generated using pymatgen
data_Ce6FeCo3Si4
_symmetry_space_group_name_H-M   'P 1'
_cell_length_a   5.55921300
_cell_length_b   7.90351268
_cell_length_c   12.22802300
_cell_angle_alpha   90.23710703
_cell_angle_beta   90.00000000
_cell_angle_gamma   90.00000000
_symmetry_Int_Tables_number   1
_chemical_formula_structural   Ce6FeCo3Si4
_chemical_formula_sum   'Ce12 Fe2 Co6 Si8'
_cell_volume   537.26184181
_cell_formula_units_Z   2
loop_
 _symmetry_equiv_pos_site_id
 _symmetry_equiv_pos_as_xyz
  1  'x, y, z'
loop_
 _atom_site_type_symbol
 _atom_site_label
 _atom_site_symmetry_multiplicity
 _atom_site_fract_x
 _atom_site_fract_y
 _atom_site_fract_z
 _atom_site_occupancy
  Ce  Ce0  1  0.353678  0.742171  0.749484  1
  Ce  Ce1  1  0.353678  0.757829  0.250516  1
  Ce  Ce2  1  0.649765  0.246020  0.749077  1
  Ce  Ce3  1  0.649765  0.253980  0.250923  1
  Ce  Ce4  1  0.162823  0.403695  0.413365  1
  Ce  Ce5  1  0.162823  0.096305  0.586635  1
  Ce  Ce6  1  0.841080  0.901100  0.090282  1
  Ce  Ce7  1  0.841080  0.598900  0.909718  1
  Ce  Ce8  1  0.837981  0.598902  0.594863  1
  Ce  Ce9  1  0.837981  0.901098  0.405137  1
  Ce  Ce10  1  0.158652  0.099049  0.910527  1
  Ce  Ce11  1  0.158652  0.400951  0.089473  1
  Fe  Fe12  1  0.352590  0.041700  0.425889  1
  Fe  Fe13  1  0.352590  0.458300  0.574111  1
  Co  Co14  1  0.615768  0.540426  0.089175  1
  Co  Co15  1  0.615768  0.959574  0.910825  1
  Co  Co16  1  0.383466  0.041140  0.089224  1
  Co  Co17  1  0.383466  0.458860  0.910776  1
  Co  Co18  1  0.639971  0.543755  0.416728  1
  Co  Co19  1  0.639971  0.956245  0.583272  1
  Si  Si20  1  0.640897  0.250000  0.500000  1
  Si  Si21  1  0.354743  0.750000  0.000000  1
  Si  Si22  1  0.361414  0.750000  0.500000  1
  Si  Si23  1  0.644474  0.250000  0.000000  1
  Si  Si24  1  0.847834  0.895697  0.751455  1
  Si  Si25  1  0.847834  0.604303  0.248545  1
  Si  Si26  1  0.155627  0.393247  0.749165  1
  Si  Si27  1  0.155627  0.106753  0.250835  1
