# generated using pymatgen
data_ScZn3NiAg
_symmetry_space_group_name_H-M   'P 1'
_cell_length_a   5.01929328
_cell_length_b   5.01929437
_cell_length_c   5.01929435
_cell_angle_alpha   60.85502158
_cell_angle_beta   60.85499987
_cell_angle_gamma   60.85501508
_symmetry_Int_Tables_number   1
_chemical_formula_structural   ScZn3NiAg
_chemical_formula_sum   'Sc1 Zn3 Ni1 Ag1'
_cell_volume   91.13925942
_cell_formula_units_Z   1
loop_
 _symmetry_equiv_pos_site_id
 _symmetry_equiv_pos_as_xyz
  1  'x, y, z'
loop_
 _atom_site_type_symbol
 _atom_site_label
 _atom_site_symmetry_multiplicity
 _atom_site_fract_x
 _atom_site_fract_y
 _atom_site_fract_z
 _atom_site_occupancy
  Sc  Sc0  1  0.997406  0.997406  0.997406  1
  Zn  Zn1  1  0.623729  0.623729  0.128267  1
  Zn  Zn2  1  0.623729  0.128267  0.623729  1
  Zn  Zn3  1  0.128267  0.623729  0.623729  1
  Ni  Ni4  1  0.626498  0.626498  0.626498  1
  Ag  Ag5  1  0.250369  0.250369  0.250369  1
