# generated using pymatgen
data_LaYbAlIr2
_symmetry_space_group_name_H-M   'P 1'
_cell_length_a   5.73529342
_cell_length_b   5.73529367
_cell_length_c   5.73529314
_cell_angle_alpha   138.49883282
_cell_angle_beta   118.23722690
_cell_angle_gamma   77.16962376
_symmetry_Int_Tables_number   1
_chemical_formula_structural   LaYbAlIr2
_chemical_formula_sum   'La1 Yb1 Al1 Ir2'
_cell_volume   107.26807847
_cell_formula_units_Z   1
loop_
 _symmetry_equiv_pos_site_id
 _symmetry_equiv_pos_as_xyz
  1  'x, y, z'
loop_
 _atom_site_type_symbol
 _atom_site_label
 _atom_site_symmetry_multiplicity
 _atom_site_fract_x
 _atom_site_fract_y
 _atom_site_fract_z
 _atom_site_occupancy
  La  La0  1  0.301128  0.801128  0.500000  1
  Yb  Yb1  1  0.700079  0.200078  0.500001  1
  Al  Al2  1  0.999288  0.999288  0.000000  1
  Ir  Ir3  1  0.737825  0.499753  0.238074  1
  Ir  Ir4  1  0.261680  0.499753  0.761927  1
