# generated using pymatgen
data_Mg(NbS2)3
_symmetry_space_group_name_H-M   'P 1'
_cell_length_a   5.83779500
_cell_length_b   5.83779631
_cell_length_c   12.96146000
_cell_angle_alpha   90.00000000
_cell_angle_beta   90.00000000
_cell_angle_gamma   119.99999822
_symmetry_Int_Tables_number   1
_chemical_formula_structural   Mg(NbS2)3
_chemical_formula_sum   'Mg2 Nb6 S12'
_cell_volume   382.54483407
_cell_formula_units_Z   2
loop_
 _symmetry_equiv_pos_site_id
 _symmetry_equiv_pos_as_xyz
  1  'x, y, z'
loop_
 _atom_site_type_symbol
 _atom_site_label
 _atom_site_symmetry_multiplicity
 _atom_site_fract_x
 _atom_site_fract_y
 _atom_site_fract_z
 _atom_site_occupancy
  Mg  Mg0  1  0.333333  0.666667  0.250000  1
  Mg  Mg1  1  0.666667  0.333333  0.750000  1
  Nb  Nb2  1  0.000000  0.000000  0.500000  1
  Nb  Nb3  1  0.000000  0.000000  0.000000  1
  Nb  Nb4  1  0.333333  0.666667  0.998833  1
  Nb  Nb5  1  0.666667  0.333333  0.001167  1
  Nb  Nb6  1  0.666667  0.333333  0.498833  1
  Nb  Nb7  1  0.333333  0.666667  0.501167  1
  S  S8  1  0.332981  0.330931  0.379250  1
  S  S9  1  0.669069  0.002049  0.379250  1
  S  S10  1  0.997951  0.667019  0.379250  1
  S  S11  1  0.330931  0.332981  0.620750  1
  S  S12  1  0.002049  0.669069  0.620750  1
  S  S13  1  0.667019  0.997951  0.620750  1
  S  S14  1  0.667019  0.669069  0.879250  1
  S  S15  1  0.330931  0.997951  0.879250  1
  S  S16  1  0.002049  0.332981  0.879250  1
  S  S17  1  0.669069  0.667019  0.120750  1
  S  S18  1  0.997951  0.330931  0.120750  1
  S  S19  1  0.332981  0.002049  0.120750  1
