# generated using pymatgen
data_Ca3Al2SiIr2
_symmetry_space_group_name_H-M   'P 1'
_cell_length_a   5.78214300
_cell_length_b   7.95610400
_cell_length_c   14.95380900
_cell_angle_alpha   90.00000000
_cell_angle_beta   90.00000000
_cell_angle_gamma   90.00000000
_symmetry_Int_Tables_number   1
_chemical_formula_structural   Ca3Al2SiIr2
_chemical_formula_sum   'Ca12 Al8 Si4 Ir8'
_cell_volume   687.92502590
_cell_formula_units_Z   4
loop_
 _symmetry_equiv_pos_site_id
 _symmetry_equiv_pos_as_xyz
  1  'x, y, z'
loop_
 _atom_site_type_symbol
 _atom_site_label
 _atom_site_symmetry_multiplicity
 _atom_site_fract_x
 _atom_site_fract_y
 _atom_site_fract_z
 _atom_site_occupancy
  Ca  Ca0  1  0.895876  0.464259  0.113680  1
  Ca  Ca1  1  0.395876  0.035741  0.886320  1
  Ca  Ca2  1  0.604124  0.964259  0.386320  1
  Ca  Ca3  1  0.104124  0.535741  0.613680  1
  Ca  Ca4  1  0.104124  0.535741  0.886320  1
  Ca  Ca5  1  0.604124  0.964259  0.113680  1
  Ca  Ca6  1  0.395876  0.035741  0.613680  1
  Ca  Ca7  1  0.895876  0.464259  0.386320  1
  Ca  Ca8  1  0.397650  0.313347  0.250000  1
  Ca  Ca9  1  0.897650  0.186653  0.750000  1
  Ca  Ca10  1  0.102350  0.813347  0.250000  1
  Ca  Ca11  1  0.602350  0.686653  0.750000  1
  Al  Al12  1  0.389211  0.340210  0.034602  1
  Al  Al13  1  0.889211  0.159790  0.965398  1
  Al  Al14  1  0.110789  0.840210  0.465398  1
  Al  Al15  1  0.610789  0.659790  0.534602  1
  Al  Al16  1  0.610789  0.659790  0.965398  1
  Al  Al17  1  0.110789  0.840210  0.034602  1
  Al  Al18  1  0.889211  0.159790  0.534602  1
  Al  Al19  1  0.389211  0.340210  0.465398  1
  Si  Si20  1  0.929186  0.161600  0.250000  1
  Si  Si21  1  0.429186  0.338400  0.750000  1
  Si  Si22  1  0.570814  0.661600  0.250000  1
  Si  Si23  1  0.070814  0.838400  0.750000  1
  Ir  Ir24  1  0.121443  0.128920  0.105710  1
  Ir  Ir25  1  0.621443  0.371080  0.894290  1
  Ir  Ir26  1  0.378557  0.628920  0.394290  1
  Ir  Ir27  1  0.878557  0.871080  0.605710  1
  Ir  Ir28  1  0.878557  0.871080  0.894290  1
  Ir  Ir29  1  0.378557  0.628920  0.105710  1
  Ir  Ir30  1  0.621443  0.371080  0.605710  1
  Ir  Ir31  1  0.121443  0.128920  0.394290  1
