# generated using pymatgen
data_CeTmTh(SnIr)3
_symmetry_space_group_name_H-M   'P 1'
_cell_length_a   7.49183072
_cell_length_b   7.50206682
_cell_length_c   4.05780500
_cell_angle_alpha   90.00000000
_cell_angle_beta   90.00000000
_cell_angle_gamma   119.74364538
_symmetry_Int_Tables_number   1
_chemical_formula_structural   CeTmTh(SnIr)3
_chemical_formula_sum   'Ce1 Tm1 Th1 Sn3 Ir3'
_cell_volume   198.01895831
_cell_formula_units_Z   1
loop_
 _symmetry_equiv_pos_site_id
 _symmetry_equiv_pos_as_xyz
  1  'x, y, z'
loop_
 _atom_site_type_symbol
 _atom_site_label
 _atom_site_symmetry_multiplicity
 _atom_site_fract_x
 _atom_site_fract_y
 _atom_site_fract_z
 _atom_site_occupancy
  Ce  Ce0  1  0.000030  0.411591  0.500000  1
  Tm  Tm1  1  0.405163  0.000129  0.500000  1
  Th  Th2  1  0.587823  0.587920  0.500000  1
  Sn  Sn3  1  0.010466  0.751259  0.000000  1
  Sn  Sn4  1  0.252563  0.245155  0.000000  1
  Sn  Sn5  1  0.739780  0.003588  0.000000  1
  Ir  Ir6  1  0.333175  0.659324  0.000000  1
  Ir  Ir7  1  0.673798  0.341861  0.000000  1
  Ir  Ir8  1  0.997203  0.999172  0.500000  1
