# generated using pymatgen
data_Dy13LuTh2(InRh)4
_symmetry_space_group_name_H-M   'P 1'
_cell_length_a   9.70115817
_cell_length_b   9.70115827
_cell_length_c   9.71973200
_cell_angle_alpha   59.93664567
_cell_angle_beta   59.93664532
_cell_angle_gamma   59.98923925
_symmetry_Int_Tables_number   1
_chemical_formula_structural   Dy13LuTh2(InRh)4
_chemical_formula_sum   'Dy13 Lu1 Th2 In4 Rh4'
_cell_volume   646.15194838
_cell_formula_units_Z   1
loop_
 _symmetry_equiv_pos_site_id
 _symmetry_equiv_pos_as_xyz
  1  'x, y, z'
loop_
 _atom_site_type_symbol
 _atom_site_label
 _atom_site_symmetry_multiplicity
 _atom_site_fract_x
 _atom_site_fract_y
 _atom_site_fract_z
 _atom_site_occupancy
  Dy  Dy0  1  0.601945  0.194988  0.601534  1
  Dy  Dy1  1  0.194988  0.601945  0.601534  1
  Dy  Dy2  1  0.061695  0.439960  0.439455  1
  Dy  Dy3  1  0.439960  0.061695  0.058890  1
  Dy  Dy4  1  0.439960  0.061695  0.439455  1
  Dy  Dy5  1  0.061695  0.439960  0.058890  1
  Dy  Dy6  1  0.438162  0.438162  0.061838  1
  Dy  Dy7  1  0.059899  0.059899  0.440101  1
  Dy  Dy8  1  0.186761  0.816607  0.811847  1
  Dy  Dy9  1  0.816607  0.186761  0.184786  1
  Dy  Dy10  1  0.816607  0.186761  0.811847  1
  Dy  Dy11  1  0.186761  0.816607  0.184786  1
  Dy  Dy12  1  0.813220  0.813220  0.186780  1
  Lu  Lu13  1  0.192143  0.192143  0.807857  1
  Th  Th14  1  0.595063  0.595063  0.599327  1
  Th  Th15  1  0.595063  0.595063  0.210549  1
  In  In16  1  0.833718  0.833718  0.833411  1
  In  In17  1  0.833718  0.833718  0.499153  1
  In  In18  1  0.833625  0.499791  0.833291  1
  In  In19  1  0.499791  0.833625  0.833291  1
  Rh  Rh20  1  0.391201  0.391201  0.396252  1
  Rh  Rh21  1  0.391201  0.391201  0.821345  1
  Rh  Rh22  1  0.395114  0.821100  0.391892  1
  Rh  Rh23  1  0.821100  0.395114  0.391892  1
