# generated using pymatgen
data_Mn3Si12Mo17
_symmetry_space_group_name_H-M   'P 1'
_cell_length_a   7.22892930
_cell_length_b   7.22892948
_cell_length_c   13.61911800
_cell_angle_alpha   90.00000000
_cell_angle_beta   90.00000000
_cell_angle_gamma   140.91769936
_symmetry_Int_Tables_number   1
_chemical_formula_structural   Mn3Si12Mo17
_chemical_formula_sum   'Mn3 Si12 Mo17'
_cell_volume   448.68131685
_cell_formula_units_Z   1
loop_
 _symmetry_equiv_pos_site_id
 _symmetry_equiv_pos_as_xyz
  1  'x, y, z'
loop_
 _atom_site_type_symbol
 _atom_site_label
 _atom_site_symmetry_multiplicity
 _atom_site_fract_x
 _atom_site_fract_y
 _atom_site_fract_z
 _atom_site_occupancy
  Mn  Mn0  1  0.500678  0.500678  0.000000  1
  Mn  Mn1  1  0.501093  0.501093  0.500000  1
  Mn  Mn2  1  0.000332  0.000332  0.000000  1
  Si  Si3  1  0.249953  0.749880  0.751124  1
  Si  Si4  1  0.749880  0.249953  0.248876  1
  Si  Si5  1  0.749880  0.249953  0.751124  1
  Si  Si6  1  0.249953  0.749880  0.248876  1
  Si  Si7  1  0.267149  0.267149  0.662357  1
  Si  Si8  1  0.750931  0.750931  0.157021  1
  Si  Si9  1  0.267149  0.267149  0.337643  1
  Si  Si10  1  0.750931  0.750931  0.842979  1
  Si  Si11  1  0.568967  0.894453  0.500000  1
  Si  Si12  1  0.092542  0.407143  0.000000  1
  Si  Si13  1  0.894453  0.568967  0.500000  1
  Si  Si14  1  0.407143  0.092542  0.000000  1
  Mo  Mo15  1  0.071375  0.425530  0.401163  1
  Mo  Mo16  1  0.571956  0.927216  0.903609  1
  Mo  Mo17  1  0.425530  0.071375  0.598837  1
  Mo  Mo18  1  0.927216  0.571956  0.096391  1
  Mo  Mo19  1  0.849007  0.654247  0.678585  1
  Mo  Mo20  1  0.347597  0.152680  0.176512  1
  Mo  Mo21  1  0.654247  0.849007  0.321415  1
  Mo  Mo22  1  0.152680  0.347597  0.823488  1
  Mo  Mo23  1  0.654247  0.849007  0.678585  1
  Mo  Mo24  1  0.152680  0.347597  0.176512  1
  Mo  Mo25  1  0.849007  0.654247  0.321415  1
  Mo  Mo26  1  0.347597  0.152680  0.823488  1
  Mo  Mo27  1  0.425530  0.071375  0.401163  1
  Mo  Mo28  1  0.927216  0.571956  0.903609  1
  Mo  Mo29  1  0.071375  0.425530  0.598837  1
  Mo  Mo30  1  0.571956  0.927216  0.096391  1
  Mo  Mo31  1  0.999744  0.999744  0.500000  1
