# generated using pymatgen
data_Tb7Lu9MgAg3Rh4
_symmetry_space_group_name_H-M   'P 1'
_cell_length_a   9.48461486
_cell_length_b   9.48215384
_cell_length_c   9.48272300
_cell_angle_alpha   59.99801788
_cell_angle_beta   60.00660156
_cell_angle_gamma   60.13281050
_symmetry_Int_Tables_number   1
_chemical_formula_structural   Tb7Lu9MgAg3Rh4
_chemical_formula_sum   'Tb7 Lu9 Mg1 Ag3 Rh4'
_cell_volume   603.66217391
_cell_formula_units_Z   1
loop_
 _symmetry_equiv_pos_site_id
 _symmetry_equiv_pos_as_xyz
  1  'x, y, z'
loop_
 _atom_site_type_symbol
 _atom_site_label
 _atom_site_symmetry_multiplicity
 _atom_site_fract_x
 _atom_site_fract_y
 _atom_site_fract_z
 _atom_site_occupancy
  Tb  Tb0  1  0.810869  0.812077  0.188527  1
  Tb  Tb1  1  0.935765  0.561481  0.564929  1
  Tb  Tb2  1  0.561712  0.937561  0.936083  1
  Tb  Tb3  1  0.561712  0.937561  0.564645  1
  Tb  Tb4  1  0.935765  0.561481  0.937825  1
  Tb  Tb5  1  0.561013  0.562564  0.938212  1
  Tb  Tb6  1  0.936345  0.937208  0.563224  1
  Lu  Lu7  1  0.349877  0.348364  0.349863  1
  Lu  Lu8  1  0.349877  0.348364  0.951894  1
  Lu  Lu9  1  0.347189  0.958558  0.347126  1
  Lu  Lu10  1  0.943528  0.350890  0.352790  1
  Lu  Lu11  1  0.811581  0.187652  0.187950  1
  Lu  Lu12  1  0.184566  0.814587  0.814645  1
  Lu  Lu13  1  0.184566  0.814587  0.186201  1
  Lu  Lu14  1  0.811581  0.187652  0.812816  1
  Lu  Lu15  1  0.183323  0.184944  0.815866  1
  Mg  Mg16  1  0.287009  0.572545  0.570223  1
  Ag  Ag17  1  0.583218  0.582981  0.582140  1
  Ag  Ag18  1  0.583218  0.582981  0.251663  1
  Ag  Ag19  1  0.584211  0.250970  0.582410  1
  Rh  Rh20  1  0.139398  0.144512  0.143459  1
  Rh  Rh21  1  0.139398  0.144512  0.572629  1
  Rh  Rh22  1  0.144090  0.568569  0.143669  1
  Rh  Rh23  1  0.570187  0.147398  0.141207  1
