# generated using pymatgen
data_Tm3Pa(TcB4)4
_symmetry_space_group_name_H-M   'P 1'
_cell_length_a   3.59811500
_cell_length_b   5.94459792
_cell_length_c   11.49773194
_cell_angle_alpha   89.91109116
_cell_angle_beta   90.00000000
_cell_angle_gamma   90.00000000
_symmetry_Int_Tables_number   1
_chemical_formula_structural   Tm3Pa(TcB4)4
_chemical_formula_sum   'Tm3 Pa1 Tc4 B16'
_cell_volume   245.92868127
_cell_formula_units_Z   1
loop_
 _symmetry_equiv_pos_site_id
 _symmetry_equiv_pos_as_xyz
  1  'x, y, z'
loop_
 _atom_site_type_symbol
 _atom_site_label
 _atom_site_symmetry_multiplicity
 _atom_site_fract_x
 _atom_site_fract_y
 _atom_site_fract_z
 _atom_site_occupancy
  Tm  Tm0  1  0.000000  0.370388  0.650730  1
  Tm  Tm1  1  0.000000  0.126776  0.148149  1
  Tm  Tm2  1  0.000000  0.874538  0.849956  1
  Pa  Pa3  1  0.000000  0.627838  0.350199  1
  Tc  Tc4  1  0.000000  0.632958  0.089409  1
  Tc  Tc5  1  0.000000  0.364651  0.911324  1
  Tc  Tc6  1  0.000000  0.138801  0.407213  1
  Tc  Tc7  1  0.000000  0.861646  0.590321  1
  B  B8  1  0.500000  0.788558  0.185158  1
  B  B9  1  0.500000  0.210415  0.814952  1
  B  B10  1  0.500000  0.289780  0.314161  1
  B  B11  1  0.500000  0.711759  0.686870  1
  B  B12  1  0.500000  0.864023  0.030841  1
  B  B13  1  0.500000  0.134836  0.968858  1
  B  B14  1  0.500000  0.365364  0.469240  1
  B  B15  1  0.500000  0.636640  0.531664  1
  B  B16  1  0.500000  0.889424  0.453960  1
  B  B17  1  0.500000  0.114426  0.548541  1
  B  B18  1  0.500000  0.385164  0.046305  1
  B  B19  1  0.500000  0.613185  0.952258  1
  B  B20  1  0.500000  0.975464  0.307838  1
  B  B21  1  0.500000  0.023014  0.693382  1
  B  B22  1  0.500000  0.478350  0.191619  1
  B  B23  1  0.500000  0.522004  0.807049  1
