# generated using pymatgen
data_Sc3TiCu2O
_symmetry_space_group_name_H-M   'P 1'
_cell_length_a   8.47375200
_cell_length_b   8.47375165
_cell_length_c   8.47375200
_cell_angle_alpha   120.00000138
_cell_angle_beta   90.00000000
_cell_angle_gamma   120.00000138
_symmetry_Int_Tables_number   1
_chemical_formula_structural   Sc3TiCu2O
_chemical_formula_sum   'Sc12 Ti4 Cu8 O4'
_cell_volume   430.24141588
_cell_formula_units_Z   4
loop_
 _symmetry_equiv_pos_site_id
 _symmetry_equiv_pos_as_xyz
  1  'x, y, z'
loop_
 _atom_site_type_symbol
 _atom_site_label
 _atom_site_symmetry_multiplicity
 _atom_site_fract_x
 _atom_site_fract_y
 _atom_site_fract_z
 _atom_site_occupancy
  Sc  Sc0  1  0.314427  0.000000  0.314427  1
  Sc  Sc1  1  0.685573  0.000000  0.314427  1
  Sc  Sc2  1  0.314427  0.628856  0.314427  1
  Sc  Sc3  1  0.064427  0.128856  0.564427  1
  Sc  Sc4  1  0.064427  0.500000  0.564427  1
  Sc  Sc5  1  0.435573  0.500000  0.564427  1
  Sc  Sc6  1  0.314427  0.000000  0.685573  1
  Sc  Sc7  1  0.685573  0.000000  0.685573  1
  Sc  Sc8  1  0.685573  0.371144  0.685573  1
  Sc  Sc9  1  0.064427  0.500000  0.935573  1
  Sc  Sc10  1  0.435573  0.500000  0.935573  1
  Sc  Sc11  1  0.435573  0.871145  0.935573  1
  Ti  Ti12  1  0.374999  0.249999  0.125000  1
  Ti  Ti13  1  0.874999  0.749999  0.125000  1
  Ti  Ti14  1  0.874999  0.249999  0.125000  1
  Ti  Ti15  1  0.874999  0.749999  0.625000  1
  Cu  Cu16  1  0.668725  0.337449  0.006174  1
  Cu  Cu17  1  0.081275  0.162551  0.243826  1
  Cu  Cu18  1  0.668725  0.337449  0.331275  1
  Cu  Cu19  1  0.668725  0.662551  0.331275  1
  Cu  Cu20  1  0.993826  0.662551  0.331275  1
  Cu  Cu21  1  0.081275  0.162551  0.918725  1
  Cu  Cu22  1  0.081275  0.837449  0.918725  1
  Cu  Cu23  1  0.756174  0.837449  0.918725  1
  O  O24  1  0.375000  0.749999  0.125000  1
  O  O25  1  0.375000  0.249999  0.624999  1
  O  O26  1  0.375000  0.749999  0.624999  1
  O  O27  1  0.874999  0.249999  0.625000  1
