# generated using pymatgen
data_CaTbMnIr3
_symmetry_space_group_name_H-M   'P 1'
_cell_length_a   5.48377661
_cell_length_b   5.48377625
_cell_length_c   5.21355818
_cell_angle_alpha   58.27014191
_cell_angle_beta   58.27013925
_cell_angle_gamma   59.99999671
_symmetry_Int_Tables_number   1
_chemical_formula_structural   CaTbMnIr3
_chemical_formula_sum   'Ca1 Tb1 Mn1 Ir3'
_cell_volume   107.87330521
_cell_formula_units_Z   1
loop_
 _symmetry_equiv_pos_site_id
 _symmetry_equiv_pos_as_xyz
  1  'x, y, z'
loop_
 _atom_site_type_symbol
 _atom_site_label
 _atom_site_symmetry_multiplicity
 _atom_site_fract_x
 _atom_site_fract_y
 _atom_site_fract_z
 _atom_site_occupancy
  Ca  Ca0  1  0.000337  0.000337  0.998989  1
  Tb  Tb1  1  0.249202  0.249202  0.252394  1
  Mn  Mn2  1  0.624858  0.624858  0.125427  1
  Ir  Ir3  1  0.625655  0.625655  0.624397  1
  Ir  Ir4  1  0.124293  0.625655  0.624397  1
  Ir  Ir5  1  0.625655  0.124293  0.624397  1
