# generated using pymatgen
data_Cs6TbTe4I
_symmetry_space_group_name_H-M   'P 1'
_cell_length_a   12.45294300
_cell_length_b   12.45294376
_cell_length_c   9.34250300
_cell_angle_alpha   90.00000000
_cell_angle_beta   90.00000000
_cell_angle_gamma   120.00000595
_symmetry_Int_Tables_number   1
_chemical_formula_structural   Cs6TbTe4I
_chemical_formula_sum   'Cs12 Tb2 Te8 I2'
_cell_volume   1254.69416575
_cell_formula_units_Z   2
loop_
 _symmetry_equiv_pos_site_id
 _symmetry_equiv_pos_as_xyz
  1  'x, y, z'
loop_
 _atom_site_type_symbol
 _atom_site_label
 _atom_site_symmetry_multiplicity
 _atom_site_fract_x
 _atom_site_fract_y
 _atom_site_fract_z
 _atom_site_occupancy
  Cs  Cs0  1  0.135395  0.864605  0.511780  1
  Cs  Cs1  1  0.729210  0.864605  0.511780  1
  Cs  Cs2  1  0.941460  0.470731  0.318196  1
  Cs  Cs3  1  0.529269  0.470731  0.318196  1
  Cs  Cs4  1  0.864605  0.729210  0.011780  1
  Cs  Cs5  1  0.270790  0.135395  0.011780  1
  Cs  Cs6  1  0.529269  0.058540  0.318196  1
  Cs  Cs7  1  0.135395  0.270790  0.511780  1
  Cs  Cs8  1  0.864605  0.135395  0.011780  1
  Cs  Cs9  1  0.058540  0.529269  0.818196  1
  Cs  Cs10  1  0.470731  0.941460  0.818196  1
  Cs  Cs11  1  0.470731  0.529269  0.818196  1
  Tb  Tb12  1  0.666667  0.333333  0.716437  1
  Tb  Tb13  1  0.333333  0.666667  0.216437  1
  Te  Te14  1  0.408818  0.204409  0.610065  1
  Te  Te15  1  0.591182  0.795591  0.110065  1
  Te  Te16  1  0.666667  0.333333  0.035885  1
  Te  Te17  1  0.795591  0.591182  0.610065  1
  Te  Te18  1  0.204409  0.408818  0.110065  1
  Te  Te19  1  0.333333  0.666667  0.535885  1
  Te  Te20  1  0.204409  0.795591  0.110065  1
  Te  Te21  1  0.795591  0.204409  0.610065  1
  I  I22  1  0.000000  0.000000  0.268153  1
  I  I23  1  0.000000  0.000000  0.768153  1
