# generated using pymatgen
data_Dy3Ho3Al24(Ir3Os)2
_symmetry_space_group_name_H-M   'P 1'
_cell_length_a   8.83912704
_cell_length_b   8.83406333
_cell_length_c   9.49954500
_cell_angle_alpha   90.00000000
_cell_angle_beta   90.00000000
_cell_angle_gamma   120.03015643
_symmetry_Int_Tables_number   1
_chemical_formula_structural   Dy3Ho3Al24(Ir3Os)2
_chemical_formula_sum   'Dy3 Ho3 Al24 Ir6 Os2'
_cell_volume   642.20143005
_cell_formula_units_Z   1
loop_
 _symmetry_equiv_pos_site_id
 _symmetry_equiv_pos_as_xyz
  1  'x, y, z'
loop_
 _atom_site_type_symbol
 _atom_site_label
 _atom_site_symmetry_multiplicity
 _atom_site_fract_x
 _atom_site_fract_y
 _atom_site_fract_z
 _atom_site_occupancy
  Dy  Dy0  1  0.191923  0.384047  0.250000  1
  Dy  Dy1  1  0.807909  0.615840  0.750000  1
  Dy  Dy2  1  0.616066  0.808018  0.250000  1
  Ho  Ho3  1  0.384489  0.192231  0.750000  1
  Ho  Ho4  1  0.191999  0.807740  0.250000  1
  Ho  Ho5  1  0.807745  0.192201  0.750000  1
  Al  Al6  1  0.333194  0.666595  0.030753  1
  Al  Al7  1  0.666680  0.333357  0.969177  1
  Al  Al8  1  0.666680  0.333357  0.530823  1
  Al  Al9  1  0.333194  0.666595  0.469247  1
  Al  Al10  1  0.163571  0.327168  0.574966  1
  Al  Al11  1  0.836484  0.672799  0.425075  1
  Al  Al12  1  0.672915  0.836512  0.574970  1
  Al  Al13  1  0.836484  0.672799  0.074925  1
  Al  Al14  1  0.327072  0.163466  0.425164  1
  Al  Al15  1  0.163571  0.327168  0.925034  1
  Al  Al16  1  0.163587  0.836500  0.574890  1
  Al  Al17  1  0.327072  0.163466  0.074836  1
  Al  Al18  1  0.836458  0.163573  0.425162  1
  Al  Al19  1  0.672915  0.836512  0.925030  1
  Al  Al20  1  0.836458  0.163573  0.074838  1
  Al  Al21  1  0.163587  0.836500  0.925110  1
  Al  Al22  1  0.561954  0.124123  0.250000  1
  Al  Al23  1  0.437981  0.875966  0.750000  1
  Al  Al24  1  0.875837  0.438082  0.250000  1
  Al  Al25  1  0.124189  0.561931  0.750000  1
  Al  Al26  1  0.562207  0.437903  0.250000  1
  Al  Al27  1  0.437735  0.561933  0.750000  1
  Al  Al28  1  0.000076  0.999955  0.250000  1
  Al  Al29  1  0.000131  0.000138  0.750000  1
  Ir  Ir30  1  0.499963  0.000087  0.999895  1
  Ir  Ir31  1  0.999943  0.499980  0.999955  1
  Ir  Ir32  1  0.499963  0.000087  0.500105  1
  Ir  Ir33  1  0.499972  0.499887  0.999896  1
  Ir  Ir34  1  0.999943  0.499980  0.500045  1
  Ir  Ir35  1  0.499972  0.499887  0.500104  1
  Os  Os36  1  0.000040  0.000023  0.999894  1
  Os  Os37  1  0.000040  0.000023  0.500106  1
