# generated using pymatgen
data_TbNd2(AlBr)2
_symmetry_space_group_name_H-M   'P 1'
_cell_length_a   9.57218682
_cell_length_b   9.57218754
_cell_length_c   11.70403000
_cell_angle_alpha   59.74695103
_cell_angle_beta   59.74694851
_cell_angle_gamma   25.16853902
_symmetry_Int_Tables_number   1
_chemical_formula_structural   TbNd2(AlBr)2
_chemical_formula_sum   'Tb2 Nd4 Al4 Br4'
_cell_volume   390.60683979
_cell_formula_units_Z   2
loop_
 _symmetry_equiv_pos_site_id
 _symmetry_equiv_pos_as_xyz
  1  'x, y, z'
loop_
 _atom_site_type_symbol
 _atom_site_label
 _atom_site_symmetry_multiplicity
 _atom_site_fract_x
 _atom_site_fract_y
 _atom_site_fract_z
 _atom_site_occupancy
  Tb  Tb0  1  0.836839  0.836839  0.378197  1
  Tb  Tb1  1  0.163161  0.163161  0.621803  1
  Nd  Nd2  1  0.751417  0.751417  0.811270  1
  Nd  Nd3  1  0.248583  0.248583  0.188730  1
  Nd  Nd4  1  0.536391  0.536391  0.302941  1
  Nd  Nd5  1  0.463609  0.463609  0.697059  1
  Al  Al6  1  0.925420  0.925420  0.531006  1
  Al  Al7  1  0.074580  0.074580  0.468994  1
  Al  Al8  1  0.333331  0.333331  0.584803  1
  Al  Al9  1  0.666669  0.666669  0.415197  1
  Br  Br10  1  0.420183  0.420183  0.174095  1
  Br  Br11  1  0.579817  0.579817  0.825905  1
  Br  Br12  1  0.856992  0.856992  0.941561  1
  Br  Br13  1  0.143008  0.143008  0.058439  1
