# generated using pymatgen
data_Tb4Tm4Sc11Si16Ag
_symmetry_space_group_name_H-M   'P 1'
_cell_length_a   7.02225002
_cell_length_b   7.38868639
_cell_length_c   14.00142145
_cell_angle_alpha   90.02084513
_cell_angle_beta   90.07764411
_cell_angle_gamma   89.93383110
_symmetry_Int_Tables_number   1
_chemical_formula_structural   Tb4Tm4Sc11Si16Ag
_chemical_formula_sum   'Tb4 Tm4 Sc11 Si16 Ag1'
_cell_volume   726.46539668
_cell_formula_units_Z   1
loop_
 _symmetry_equiv_pos_site_id
 _symmetry_equiv_pos_as_xyz
  1  'x, y, z'
loop_
 _atom_site_type_symbol
 _atom_site_label
 _atom_site_symmetry_multiplicity
 _atom_site_fract_x
 _atom_site_fract_y
 _atom_site_fract_z
 _atom_site_occupancy
  Tb  Tb0  1  0.010631  0.175670  0.096246  1
  Tb  Tb1  1  0.990437  0.815408  0.901776  1
  Tb  Tb2  1  0.485343  0.673339  0.902607  1
  Tb  Tb3  1  0.990561  0.814993  0.597628  1
  Tm  Tm4  1  0.510021  0.322891  0.096556  1
  Tm  Tm5  1  0.011535  0.176798  0.403282  1
  Tm  Tm6  1  0.510052  0.322687  0.404024  1
  Tm  Tm7  1  0.485077  0.674006  0.597830  1
  Sc  Sc8  1  0.838332  0.496696  0.250323  1
  Sc  Sc9  1  0.340698  0.003930  0.250335  1
  Sc  Sc10  1  0.656630  0.997997  0.749738  1
  Sc  Sc11  1  0.325883  0.182911  0.626726  1
  Sc  Sc12  1  0.670984  0.823664  0.374969  1
  Sc  Sc13  1  0.170772  0.678236  0.373770  1
  Sc  Sc14  1  0.671082  0.823568  0.125724  1
  Sc  Sc15  1  0.836184  0.327212  0.626387  1
  Sc  Sc16  1  0.325719  0.182576  0.872896  1
  Sc  Sc17  1  0.836563  0.327353  0.872856  1
  Sc  Sc18  1  0.170976  0.677879  0.126672  1
  Si  Si19  1  0.027428  0.098189  0.749690  1
  Si  Si20  1  0.969520  0.889206  0.250522  1
  Si  Si21  1  0.468078  0.614285  0.250262  1
  Si  Si22  1  0.536366  0.385946  0.749508  1
  Si  Si23  1  0.288793  0.881432  0.749360  1
  Si  Si24  1  0.713031  0.129947  0.250848  1
  Si  Si25  1  0.214014  0.370848  0.250671  1
  Si  Si26  1  0.775209  0.629385  0.749148  1
  Si  Si27  1  0.163476  0.459146  0.531180  1
  Si  Si28  1  0.841370  0.533570  0.461401  1
  Si  Si29  1  0.343827  0.966094  0.462497  1
  Si  Si30  1  0.840995  0.534656  0.038343  1
  Si  Si31  1  0.656877  0.034269  0.539916  1
  Si  Si32  1  0.161942  0.459533  0.968883  1
  Si  Si33  1  0.657313  0.035400  0.960242  1
  Si  Si34  1  0.345191  0.966433  0.037564  1
  Ag  Ag35  1  0.159089  0.513850  0.749620  1
