# generated using pymatgen
data_Mg2Ga3Ru
_symmetry_space_group_name_H-M   'P 1'
_cell_length_a   5.18166770
_cell_length_b   5.18166770
_cell_length_c   8.54113100
_cell_angle_alpha   90.00000000
_cell_angle_beta   90.00000000
_cell_angle_gamma   118.14490275
_symmetry_Int_Tables_number   1
_chemical_formula_structural   Mg2Ga3Ru
_chemical_formula_sum   'Mg4 Ga6 Ru2'
_cell_volume   202.21047243
_cell_formula_units_Z   2
loop_
 _symmetry_equiv_pos_site_id
 _symmetry_equiv_pos_as_xyz
  1  'x, y, z'
loop_
 _atom_site_type_symbol
 _atom_site_label
 _atom_site_symmetry_multiplicity
 _atom_site_fract_x
 _atom_site_fract_y
 _atom_site_fract_z
 _atom_site_occupancy
  Mg  Mg0  1  0.672916  0.327084  0.066070  1
  Mg  Mg1  1  0.327084  0.672916  0.933930  1
  Mg  Mg2  1  0.327084  0.672916  0.566070  1
  Mg  Mg3  1  0.672916  0.327084  0.433930  1
  Ga  Ga4  1  0.831838  0.647712  0.750000  1
  Ga  Ga5  1  0.168162  0.352288  0.250000  1
  Ga  Ga6  1  0.352288  0.168162  0.750000  1
  Ga  Ga7  1  0.647712  0.831838  0.250000  1
  Ga  Ga8  1  0.000000  0.000000  0.500000  1
  Ga  Ga9  1  0.000000  0.000000  0.000000  1
  Ru  Ru10  1  0.839192  0.160808  0.750000  1
  Ru  Ru11  1  0.160808  0.839192  0.250000  1
