# generated using pymatgen
data_Pr12Os3Ru
_symmetry_space_group_name_H-M   'P 1'
_cell_length_a   7.55660727
_cell_length_b   9.75946500
_cell_length_c   6.58223223
_cell_angle_alpha   90.00000000
_cell_angle_beta   90.03052162
_cell_angle_gamma   90.00000000
_symmetry_Int_Tables_number   1
_chemical_formula_structural   Pr12Os3Ru
_chemical_formula_sum   'Pr12 Os3 Ru1'
_cell_volume   485.42931739
_cell_formula_units_Z   1
loop_
 _symmetry_equiv_pos_site_id
 _symmetry_equiv_pos_as_xyz
  1  'x, y, z'
loop_
 _atom_site_type_symbol
 _atom_site_label
 _atom_site_symmetry_multiplicity
 _atom_site_fract_x
 _atom_site_fract_y
 _atom_site_fract_z
 _atom_site_occupancy
  Pr  Pr0  1  0.958827  0.250000  0.140171  1
  Pr  Pr1  1  0.675000  0.566846  0.169971  1
  Pr  Pr2  1  0.675000  0.933154  0.169971  1
  Pr  Pr3  1  0.174588  0.566407  0.330718  1
  Pr  Pr4  1  0.174588  0.933593  0.330718  1
  Pr  Pr5  1  0.459036  0.250000  0.359442  1
  Pr  Pr6  1  0.541620  0.750000  0.641070  1
  Pr  Pr7  1  0.825112  0.066643  0.670338  1
  Pr  Pr8  1  0.825112  0.433357  0.670338  1
  Pr  Pr9  1  0.324813  0.067554  0.829053  1
  Pr  Pr10  1  0.324813  0.432446  0.829053  1
  Pr  Pr11  1  0.041634  0.750000  0.859272  1
  Os  Os12  1  0.884922  0.750000  0.447401  1
  Os  Os13  1  0.115133  0.250000  0.552809  1
  Os  Os14  1  0.614588  0.250000  0.947638  1
  Ru  Ru15  1  0.385218  0.750000  0.052028  1
