# generated using pymatgen
data_Tb3Ho5In3Ru
_symmetry_space_group_name_H-M   'P 1'
_cell_length_a   10.40004900
_cell_length_b   10.40004957
_cell_length_c   7.06745800
_cell_angle_alpha   90.00000000
_cell_angle_beta   90.00000000
_cell_angle_gamma   120.00000138
_symmetry_Int_Tables_number   1
_chemical_formula_structural   Tb3Ho5In3Ru
_chemical_formula_sum   'Tb6 Ho10 In6 Ru2'
_cell_volume   662.01016286
_cell_formula_units_Z   2
loop_
 _symmetry_equiv_pos_site_id
 _symmetry_equiv_pos_as_xyz
  1  'x, y, z'
loop_
 _atom_site_type_symbol
 _atom_site_label
 _atom_site_symmetry_multiplicity
 _atom_site_fract_x
 _atom_site_fract_y
 _atom_site_fract_z
 _atom_site_occupancy
  Tb  Tb0  1  0.533399  0.066798  0.507662  1
  Tb  Tb1  1  0.933202  0.466601  0.507662  1
  Tb  Tb2  1  0.533399  0.466601  0.507662  1
  Tb  Tb3  1  0.466601  0.933202  0.007662  1
  Tb  Tb4  1  0.066798  0.533399  0.007662  1
  Tb  Tb5  1  0.466601  0.533399  0.007662  1
  Ho  Ho6  1  0.176990  0.353979  0.711401  1
  Ho  Ho7  1  0.646021  0.823010  0.711401  1
  Ho  Ho8  1  0.176990  0.823010  0.711401  1
  Ho  Ho9  1  0.823010  0.646021  0.211401  1
  Ho  Ho10  1  0.353979  0.176990  0.211401  1
  Ho  Ho11  1  0.823010  0.176990  0.211401  1
  Ho  Ho12  1  0.666667  0.333333  0.887307  1
  Ho  Ho13  1  0.333333  0.666667  0.387307  1
  Ho  Ho14  1  0.000000  0.000000  0.493427  1
  Ho  Ho15  1  0.000000  0.000000  0.993427  1
  In  In16  1  0.837505  0.675011  0.753316  1
  In  In17  1  0.324989  0.162495  0.753316  1
  In  In18  1  0.837505  0.162495  0.753316  1
  In  In19  1  0.162495  0.324989  0.253316  1
  In  In20  1  0.675011  0.837505  0.253316  1
  In  In21  1  0.162495  0.837505  0.253316  1
  Ru  Ru22  1  0.666667  0.333333  0.281152  1
  Ru  Ru23  1  0.333333  0.666667  0.781152  1
