# generated using pymatgen
data_Ce4SiHgRh9Au2
_symmetry_space_group_name_H-M   'P 1'
_cell_length_a   7.32816718
_cell_length_b   7.32042170
_cell_length_c   7.41496635
_cell_angle_alpha   110.44742786
_cell_angle_beta   109.35577726
_cell_angle_gamma   108.82801370
_symmetry_Int_Tables_number   1
_chemical_formula_structural   Ce4SiHgRh9Au2
_chemical_formula_sum   'Ce4 Si1 Hg1 Rh9 Au2'
_cell_volume   305.33699618
_cell_formula_units_Z   1
loop_
 _symmetry_equiv_pos_site_id
 _symmetry_equiv_pos_as_xyz
  1  'x, y, z'
loop_
 _atom_site_type_symbol
 _atom_site_label
 _atom_site_symmetry_multiplicity
 _atom_site_fract_x
 _atom_site_fract_y
 _atom_site_fract_z
 _atom_site_occupancy
  Ce  Ce0  1  0.992124  0.996062  0.496062  1
  Ce  Ce1  1  0.044345  0.522172  0.022172  1
  Ce  Ce2  1  0.480837  0.958672  0.984982  1
  Ce  Ce3  1  0.480837  0.522167  0.495857  1
  Si  Si4  1  0.000108  0.000054  0.000054  1
  Hg  Hg5  1  0.506404  0.253202  0.753202  1
  Rh  Rh6  1  0.246529  0.492237  0.744887  1
  Rh  Rh7  1  0.246529  0.754292  0.501642  1
  Rh  Rh8  1  0.507390  0.753695  0.253695  1
  Rh  Rh9  1  0.734236  0.726869  0.002936  1
  Rh  Rh10  1  0.272327  0.007125  0.276554  1
  Rh  Rh11  1  0.994040  0.269337  0.271864  1
  Rh  Rh12  1  0.272327  0.265202  0.995773  1
  Rh  Rh13  1  0.734236  0.007367  0.731300  1
  Rh  Rh14  1  0.994040  0.724703  0.722176  1
  Au  Au15  1  0.746846  0.254110  0.499653  1
  Au  Au16  1  0.746846  0.492737  0.247194  1
