# generated using pymatgen
data_Tb11Dy8Y(CoBi2)4
_symmetry_space_group_name_H-M   'P 1'
_cell_length_a   8.06177825
_cell_length_b   8.88987400
_cell_length_c   12.47429900
_cell_angle_alpha   90.00000000
_cell_angle_beta   89.98609564
_cell_angle_gamma   90.00000000
_symmetry_Int_Tables_number   1
_chemical_formula_structural   Tb11Dy8Y(CoBi2)4
_chemical_formula_sum   'Tb11 Dy8 Y1 Co4 Bi8'
_cell_volume   894.01044001
_cell_formula_units_Z   1
loop_
 _symmetry_equiv_pos_site_id
 _symmetry_equiv_pos_as_xyz
  1  'x, y, z'
loop_
 _atom_site_type_symbol
 _atom_site_label
 _atom_site_symmetry_multiplicity
 _atom_site_fract_x
 _atom_site_fract_y
 _atom_site_fract_z
 _atom_site_occupancy
  Tb  Tb0  1  0.151235  0.250000  0.197847  1
  Tb  Tb1  1  0.348617  0.250000  0.697977  1
  Tb  Tb2  1  0.651453  0.750000  0.301880  1
  Tb  Tb3  1  0.380297  0.750000  0.689452  1
  Tb  Tb4  1  0.619790  0.250000  0.310686  1
  Tb  Tb5  1  0.880277  0.250000  0.810705  1
  Tb  Tb6  1  0.120026  0.750000  0.189592  1
  Tb  Tb7  1  0.953454  0.750000  0.502361  1
  Tb  Tb8  1  0.046311  0.250000  0.497717  1
  Tb  Tb9  1  0.453601  0.250000  0.997637  1
  Tb  Tb10  1  0.546522  0.750000  0.002359  1
  Dy  Dy11  1  0.675551  0.034075  0.562773  1
  Dy  Dy12  1  0.324496  0.966093  0.437290  1
  Dy  Dy13  1  0.175497  0.965756  0.937311  1
  Dy  Dy14  1  0.324496  0.533907  0.437290  1
  Dy  Dy15  1  0.824516  0.033794  0.062528  1
  Dy  Dy16  1  0.675551  0.465925  0.562773  1
  Dy  Dy17  1  0.824516  0.466206  0.062528  1
  Dy  Dy18  1  0.175497  0.534244  0.937311  1
  Y  Y19  1  0.848234  0.750000  0.801290  1
  Co  Co20  1  0.558716  0.750000  0.507816  1
  Co  Co21  1  0.440948  0.250000  0.492187  1
  Co  Co22  1  0.058752  0.250000  0.992065  1
  Co  Co23  1  0.941472  0.750000  0.008405  1
  Bi  Bi24  1  0.570910  0.492385  0.825719  1
  Bi  Bi25  1  0.429423  0.507659  0.174220  1
  Bi  Bi26  1  0.070301  0.507979  0.674399  1
  Bi  Bi27  1  0.429423  0.992341  0.174220  1
  Bi  Bi28  1  0.929455  0.492236  0.325772  1
  Bi  Bi29  1  0.570910  0.007615  0.825719  1
  Bi  Bi30  1  0.929455  0.007764  0.325772  1
  Bi  Bi31  1  0.070301  0.992021  0.674399  1
