# generated using pymatgen
data_Tm2Ni4BRh2
_symmetry_space_group_name_H-M   'P 1'
_cell_length_a   5.56839067
_cell_length_b   5.56839077
_cell_length_c   5.57949400
_cell_angle_alpha   59.93401790
_cell_angle_beta   59.93401730
_cell_angle_gamma   61.15893694
_symmetry_Int_Tables_number   1
_chemical_formula_structural   Tm2Ni4BRh2
_chemical_formula_sum   'Tm2 Ni4 B1 Rh2'
_cell_volume   123.24166033
_cell_formula_units_Z   1
loop_
 _symmetry_equiv_pos_site_id
 _symmetry_equiv_pos_as_xyz
  1  'x, y, z'
loop_
 _atom_site_type_symbol
 _atom_site_label
 _atom_site_symmetry_multiplicity
 _atom_site_fract_x
 _atom_site_fract_y
 _atom_site_fract_z
 _atom_site_occupancy
  Tm  Tm0  1  0.250263  0.250263  0.252598  1
  Tm  Tm1  1  0.749737  0.749737  0.753123  1
  Ni  Ni2  1  0.762677  0.237322  0.242570  1
  Ni  Ni3  1  0.237322  0.762677  0.242570  1
  Ni  Ni4  1  0.758181  0.758181  0.245956  1
  Ni  Ni5  1  0.241818  0.241818  0.762318  1
  B  B6  1  0.500000  0.500000  0.483897  1
  Rh  Rh7  1  0.755591  0.244408  0.758482  1
  Rh  Rh8  1  0.244408  0.755591  0.758482  1
