# generated using pymatgen
data_Li2La4Zn2Pd3Ru
_symmetry_space_group_name_H-M   'P 1'
_cell_length_a   7.31898571
_cell_length_b   4.16860300
_cell_length_c   8.58735446
_cell_angle_alpha   90.00000000
_cell_angle_beta   90.82292060
_cell_angle_gamma   90.00000000
_symmetry_Int_Tables_number   1
_chemical_formula_structural   Li2La4Zn2Pd3Ru
_chemical_formula_sum   'Li2 La4 Zn2 Pd3 Ru1'
_cell_volume   261.97269599
_cell_formula_units_Z   1
loop_
 _symmetry_equiv_pos_site_id
 _symmetry_equiv_pos_as_xyz
  1  'x, y, z'
loop_
 _atom_site_type_symbol
 _atom_site_label
 _atom_site_symmetry_multiplicity
 _atom_site_fract_x
 _atom_site_fract_y
 _atom_site_fract_z
 _atom_site_occupancy
  Li  Li0  1  0.631393  0.250000  0.554850  1
  Li  Li1  1  0.133306  0.250000  0.943756  1
  La  La2  1  0.044528  0.250000  0.323189  1
  La  La3  1  0.536371  0.250000  0.187801  1
  La  La4  1  0.976489  0.750000  0.692240  1
  La  La5  1  0.457875  0.750000  0.792610  1
  Zn  Zn6  1  0.362191  0.750000  0.439030  1
  Zn  Zn7  1  0.864067  0.750000  0.064206  1
  Pd  Pd8  1  0.759929  0.250000  0.890398  1
  Pd  Pd9  1  0.740341  0.750000  0.381298  1
  Pd  Pd10  1  0.241713  0.750000  0.116524  1
  Ru  Ru11  1  0.251796  0.250000  0.614100  1
