# generated using pymatgen
data_Zr2Al9OsRh2
_symmetry_space_group_name_H-M   'P 1'
_cell_length_a   7.46221902
_cell_length_b   7.46221960
_cell_length_c   9.28974600
_cell_angle_alpha   90.00000000
_cell_angle_beta   90.00000000
_cell_angle_gamma   119.38456696
_symmetry_Int_Tables_number   1
_chemical_formula_structural   Zr2Al9OsRh2
_chemical_formula_sum   'Zr4 Al18 Os2 Rh4'
_cell_volume   450.74456898
_cell_formula_units_Z   2
loop_
 _symmetry_equiv_pos_site_id
 _symmetry_equiv_pos_as_xyz
  1  'x, y, z'
loop_
 _atom_site_type_symbol
 _atom_site_label
 _atom_site_symmetry_multiplicity
 _atom_site_fract_x
 _atom_site_fract_y
 _atom_site_fract_z
 _atom_site_occupancy
  Zr  Zr0  1  0.991455  0.677447  0.250000  1
  Zr  Zr1  1  0.008545  0.322553  0.750000  1
  Zr  Zr2  1  0.677447  0.991455  0.250000  1
  Zr  Zr3  1  0.322553  0.008545  0.750000  1
  Al  Al4  1  0.997444  0.335797  0.077540  1
  Al  Al5  1  0.002556  0.664203  0.922460  1
  Al  Al6  1  0.002556  0.664203  0.577540  1
  Al  Al7  1  0.335797  0.997444  0.422460  1
  Al  Al8  1  0.997444  0.335797  0.422460  1
  Al  Al9  1  0.664203  0.002556  0.577540  1
  Al  Al10  1  0.664203  0.002556  0.922460  1
  Al  Al11  1  0.335797  0.997444  0.077540  1
  Al  Al12  1  0.331235  0.331235  0.555192  1
  Al  Al13  1  0.668765  0.668765  0.444808  1
  Al  Al14  1  0.668765  0.668765  0.055192  1
  Al  Al15  1  0.331235  0.331235  0.944808  1
  Al  Al16  1  0.129970  0.129970  0.250000  1
  Al  Al17  1  0.870030  0.870030  0.750000  1
  Al  Al18  1  0.342277  0.560190  0.250000  1
  Al  Al19  1  0.657723  0.439810  0.750000  1
  Al  Al20  1  0.560190  0.342277  0.250000  1
  Al  Al21  1  0.439810  0.657723  0.750000  1
  Os  Os22  1  0.000000  0.000000  0.000000  1
  Os  Os23  1  0.000000  0.000000  0.500000  1
  Rh  Rh24  1  0.672498  0.327502  0.000000  1
  Rh  Rh25  1  0.327502  0.672498  0.000000  1
  Rh  Rh26  1  0.327502  0.672498  0.500000  1
  Rh  Rh27  1  0.672498  0.327502  0.500000  1
