# generated using pymatgen
data_Pr2Y4Ir13Rh5
_symmetry_space_group_name_H-M   'P 1'
_cell_length_a   5.34503900
_cell_length_b   5.34503863
_cell_length_c   17.50782500
_cell_angle_alpha   90.00000000
_cell_angle_beta   90.00000000
_cell_angle_gamma   119.99998371
_symmetry_Int_Tables_number   1
_chemical_formula_structural   Pr2Y4Ir13Rh5
_chemical_formula_sum   'Pr2 Y4 Ir13 Rh5'
_cell_volume   433.17623959
_cell_formula_units_Z   1
loop_
 _symmetry_equiv_pos_site_id
 _symmetry_equiv_pos_as_xyz
  1  'x, y, z'
loop_
 _atom_site_type_symbol
 _atom_site_label
 _atom_site_symmetry_multiplicity
 _atom_site_fract_x
 _atom_site_fract_y
 _atom_site_fract_z
 _atom_site_occupancy
  Pr  Pr0  1  0.333333  0.666667  0.749815  1
  Pr  Pr1  1  0.666667  0.333333  0.250185  1
  Y  Y2  1  0.333333  0.666667  0.958916  1
  Y  Y3  1  0.666667  0.333333  0.041084  1
  Y  Y4  1  0.666667  0.333333  0.459257  1
  Y  Y5  1  0.333333  0.666667  0.540743  1
  Ir  Ir6  1  0.167555  0.832445  0.374824  1
  Ir  Ir7  1  0.167555  0.335108  0.374824  1
  Ir  Ir8  1  0.664892  0.832445  0.374824  1
  Ir  Ir9  1  0.832445  0.167555  0.625176  1
  Ir  Ir10  1  0.832445  0.664892  0.625176  1
  Ir  Ir11  1  0.335108  0.167555  0.625176  1
  Ir  Ir12  1  0.832560  0.167440  0.874503  1
  Ir  Ir13  1  0.832560  0.665121  0.874503  1
  Ir  Ir14  1  0.334879  0.167440  0.874503  1
  Ir  Ir15  1  0.167440  0.832560  0.125497  1
  Ir  Ir16  1  0.167440  0.334879  0.125497  1
  Ir  Ir17  1  0.665121  0.832560  0.125497  1
  Ir  Ir18  1  0.000000  0.000000  0.500000  1
  Rh  Rh19  1  0.333333  0.666667  0.249642  1
  Rh  Rh20  1  0.666667  0.333333  0.750358  1
  Rh  Rh21  1  0.000000  0.000000  0.249937  1
  Rh  Rh22  1  0.000000  0.000000  0.750063  1
  Rh  Rh23  1  0.000000  0.000000  0.000000  1
