# generated using pymatgen
data_Rb6P4W
_symmetry_space_group_name_H-M   'P 1'
_cell_length_a   10.46499200
_cell_length_b   10.46499157
_cell_length_c   8.39545800
_cell_angle_alpha   90.00000000
_cell_angle_beta   90.00000000
_cell_angle_gamma   119.99999505
_symmetry_Int_Tables_number   1
_chemical_formula_structural   Rb6P4W
_chemical_formula_sum   'Rb12 P8 W2'
_cell_volume   796.25620573
_cell_formula_units_Z   2
loop_
 _symmetry_equiv_pos_site_id
 _symmetry_equiv_pos_as_xyz
  1  'x, y, z'
loop_
 _atom_site_type_symbol
 _atom_site_label
 _atom_site_symmetry_multiplicity
 _atom_site_fract_x
 _atom_site_fract_y
 _atom_site_fract_z
 _atom_site_occupancy
  Rb  Rb0  1  0.146307  0.292616  0.287907  1
  Rb  Rb1  1  0.853693  0.146307  0.787907  1
  Rb  Rb2  1  0.532915  0.467085  0.104269  1
  Rb  Rb3  1  0.065830  0.532915  0.604269  1
  Rb  Rb4  1  0.467085  0.934170  0.604269  1
  Rb  Rb5  1  0.532915  0.065830  0.104269  1
  Rb  Rb6  1  0.934170  0.467085  0.104269  1
  Rb  Rb7  1  0.467085  0.532915  0.604269  1
  Rb  Rb8  1  0.146307  0.853693  0.287907  1
  Rb  Rb9  1  0.707384  0.853693  0.287907  1
  Rb  Rb10  1  0.853693  0.707384  0.787907  1
  Rb  Rb11  1  0.292616  0.146307  0.787907  1
  P  P12  1  0.789692  0.579384  0.408712  1
  P  P13  1  0.420616  0.210308  0.408712  1
  P  P14  1  0.333333  0.666667  0.274777  1
  P  P15  1  0.666667  0.333333  0.774777  1
  P  P16  1  0.789692  0.210308  0.408712  1
  P  P17  1  0.210308  0.789692  0.908712  1
  P  P18  1  0.210308  0.420616  0.908712  1
  P  P19  1  0.579384  0.789692  0.908712  1
  W  W20  1  0.666667  0.333333  0.497458  1
  W  W21  1  0.333333  0.666667  0.997458  1
