# generated using pymatgen
data_DyTm15In4(RuRh)2
_symmetry_space_group_name_H-M   'P 1'
_cell_length_a   9.53465191
_cell_length_b   9.53465189
_cell_length_c   9.57144000
_cell_angle_alpha   59.87227727
_cell_angle_beta   59.87227734
_cell_angle_gamma   59.77248128
_symmetry_Int_Tables_number   1
_chemical_formula_structural   DyTm15In4(RuRh)2
_chemical_formula_sum   'Dy1 Tm15 In4 Ru2 Rh2'
_cell_volume   613.02954521
_cell_formula_units_Z   1
loop_
 _symmetry_equiv_pos_site_id
 _symmetry_equiv_pos_as_xyz
  1  'x, y, z'
loop_
 _atom_site_type_symbol
 _atom_site_label
 _atom_site_symmetry_multiplicity
 _atom_site_fract_x
 _atom_site_fract_y
 _atom_site_fract_z
 _atom_site_occupancy
  Dy  Dy0  1  0.059025  0.059025  0.440975  1
  Tm  Tm1  1  0.443336  0.060841  0.437370  1
  Tm  Tm2  1  0.060841  0.443336  0.058454  1
  Tm  Tm3  1  0.044015  0.652073  0.651957  1
  Tm  Tm4  1  0.438129  0.438129  0.061871  1
  Tm  Tm5  1  0.652073  0.044015  0.651957  1
  Tm  Tm6  1  0.190369  0.809019  0.192384  1
  Tm  Tm7  1  0.191920  0.191920  0.808080  1
  Tm  Tm8  1  0.809029  0.809029  0.190971  1
  Tm  Tm9  1  0.443336  0.060841  0.058454  1
  Tm  Tm10  1  0.809019  0.190369  0.192384  1
  Tm  Tm11  1  0.060841  0.443336  0.437370  1
  Tm  Tm12  1  0.809019  0.190369  0.808229  1
  Tm  Tm13  1  0.190369  0.809019  0.808229  1
  Tm  Tm14  1  0.651287  0.651287  0.047136  1
  Tm  Tm15  1  0.651287  0.651287  0.650290  1
  In  In16  1  0.416767  0.416767  0.418045  1
  In  In17  1  0.749308  0.417502  0.416595  1
  In  In18  1  0.417502  0.749308  0.416595  1
  In  In19  1  0.416767  0.416767  0.748420  1
  Ru  Ru20  1  0.858107  0.858107  0.421020  1
  Ru  Ru21  1  0.858107  0.858107  0.862766  1
  Rh  Rh22  1  0.421865  0.857688  0.860223  1
  Rh  Rh23  1  0.857688  0.421865  0.860223  1
