# generated using pymatgen
data_Pr2Th(BN2)2
_symmetry_space_group_name_H-M   'P 1'
_cell_length_a   6.50348627
_cell_length_b   6.50348747
_cell_length_c   6.50348553
_cell_angle_alpha   147.71257496
_cell_angle_beta   121.48143356
_cell_angle_gamma   68.43222753
_symmetry_Int_Tables_number   1
_chemical_formula_structural   Pr2Th(BN2)2
_chemical_formula_sum   'Pr2 Th1 B2 N4'
_cell_volume   123.64614348
_cell_formula_units_Z   1
loop_
 _symmetry_equiv_pos_site_id
 _symmetry_equiv_pos_as_xyz
  1  'x, y, z'
loop_
 _atom_site_type_symbol
 _atom_site_label
 _atom_site_symmetry_multiplicity
 _atom_site_fract_x
 _atom_site_fract_y
 _atom_site_fract_z
 _atom_site_occupancy
  Pr  Pr0  1  0.698301  0.198301  0.500000  1
  Pr  Pr1  1  0.998699  0.998699  0.000000  1
  Th  Th2  1  0.297161  0.797161  0.500000  1
  B  B3  1  0.362319  0.502985  0.859334  1
  B  B4  1  0.643652  0.502985  0.140666  1
  N  N5  1  0.358816  0.620869  0.737946  1
  N  N6  1  0.882921  0.620869  0.262054  1
  N  N7  1  0.132043  0.379065  0.752976  1
  N  N8  1  0.626088  0.379065  0.247024  1
