# generated using pymatgen
data_Pr2Zn2SiGeIr4
_symmetry_space_group_name_H-M   'P 1'
_cell_length_a   4.15550000
_cell_length_b   4.15550000
_cell_length_c   10.65657800
_cell_angle_alpha   90.00000000
_cell_angle_beta   90.00000000
_cell_angle_gamma   90.00000000
_symmetry_Int_Tables_number   1
_chemical_formula_structural   Pr2Zn2SiGeIr4
_chemical_formula_sum   'Pr2 Zn2 Si1 Ge1 Ir4'
_cell_volume   184.01970975
_cell_formula_units_Z   1
loop_
 _symmetry_equiv_pos_site_id
 _symmetry_equiv_pos_as_xyz
  1  'x, y, z'
loop_
 _atom_site_type_symbol
 _atom_site_label
 _atom_site_symmetry_multiplicity
 _atom_site_fract_x
 _atom_site_fract_y
 _atom_site_fract_z
 _atom_site_occupancy
  Pr  Pr0  1  0.000000  0.500000  0.249061  1
  Pr  Pr1  1  0.500000  0.000000  0.749981  1
  Zn  Zn2  1  0.000000  0.000000  0.501966  1
  Zn  Zn3  1  0.500000  0.500000  0.501966  1
  Si  Si4  1  0.000000  0.500000  0.876821  1
  Ge  Ge5  1  0.500000  0.000000  0.124375  1
  Ir  Ir6  1  0.000000  0.500000  0.652640  1
  Ir  Ir7  1  0.500000  0.000000  0.356046  1
  Ir  Ir8  1  0.000000  0.000000  0.993572  1
  Ir  Ir9  1  0.500000  0.500000  0.993572  1
