# generated using pymatgen
data_La5(In2Rh)2
_symmetry_space_group_name_H-M   'P 1'
_cell_length_a   3.86470500
_cell_length_b   8.41830705
_cell_length_c   18.85170900
_cell_angle_alpha   89.99439275
_cell_angle_beta   90.00000000
_cell_angle_gamma   90.00000000
_symmetry_Int_Tables_number   1
_chemical_formula_structural   La5(In2Rh)2
_chemical_formula_sum   'La10 In8 Rh4'
_cell_volume   613.32665105
_cell_formula_units_Z   2
loop_
 _symmetry_equiv_pos_site_id
 _symmetry_equiv_pos_as_xyz
  1  'x, y, z'
loop_
 _atom_site_type_symbol
 _atom_site_label
 _atom_site_symmetry_multiplicity
 _atom_site_fract_x
 _atom_site_fract_y
 _atom_site_fract_z
 _atom_site_occupancy
  La  La0  1  0.000000  0.119143  0.409905  1
  La  La1  1  0.000000  0.880796  0.589823  1
  La  La2  1  0.000000  0.380729  0.910332  1
  La  La3  1  0.000000  0.619297  0.089980  1
  La  La4  1  0.000000  0.253095  0.222117  1
  La  La5  1  0.000000  0.746591  0.777975  1
  La  La6  1  0.000000  0.246530  0.722417  1
  La  La7  1  0.000000  0.752959  0.277443  1
  La  La8  1  0.000000  0.000300  0.000035  1
  La  La9  1  0.000000  0.500347  0.499983  1
  In  In10  1  0.500000  0.445005  0.350115  1
  In  In11  1  0.500000  0.553782  0.650442  1
  In  In12  1  0.500000  0.054443  0.849655  1
  In  In13  1  0.500000  0.946367  0.150097  1
  In  In14  1  0.500000  0.293145  0.069912  1
  In  In15  1  0.500000  0.707488  0.930266  1
  In  In16  1  0.500000  0.208058  0.569818  1
  In  In17  1  0.500000  0.793043  0.429825  1
  Rh  Rh18  1  0.500000  0.504707  0.193094  1
  Rh  Rh19  1  0.500000  0.005109  0.306681  1
  Rh  Rh20  1  0.500000  0.994412  0.692987  1
  Rh  Rh21  1  0.500000  0.494656  0.807097  1
