# generated using pymatgen
data_Ho3ErRu7W
_symmetry_space_group_name_H-M   'P 1'
_cell_length_a   5.48332400
_cell_length_b   5.17855003
_cell_length_c   9.01495101
_cell_angle_alpha   89.99531139
_cell_angle_beta   90.00089424
_cell_angle_gamma   122.01108544
_symmetry_Int_Tables_number   1
_chemical_formula_structural   Ho3ErRu7W
_chemical_formula_sum   'Ho3 Er1 Ru7 W1'
_cell_volume   217.06181012
_cell_formula_units_Z   1
loop_
 _symmetry_equiv_pos_site_id
 _symmetry_equiv_pos_as_xyz
  1  'x, y, z'
loop_
 _atom_site_type_symbol
 _atom_site_label
 _atom_site_symmetry_multiplicity
 _atom_site_fract_x
 _atom_site_fract_y
 _atom_site_fract_z
 _atom_site_occupancy
  Ho  Ho0  1  0.334209  0.668761  0.431758  1
  Ho  Ho1  1  0.334223  0.668804  0.068284  1
  Ho  Ho2  1  0.672552  0.345464  0.936994  1
  Er  Er3  1  0.672614  0.345619  0.563043  1
  Ru  Ru4  1  0.009135  0.018449  0.498478  1
  Ru  Ru5  1  0.009178  0.018524  0.001565  1
  Ru  Ru6  1  0.171067  0.818731  0.749878  1
  Ru  Ru7  1  0.648697  0.818720  0.749881  1
  Ru  Ru8  1  0.824432  0.648843  0.250092  1
  Ru  Ru9  1  0.830988  0.164801  0.250069  1
  Ru  Ru10  1  0.334646  0.165606  0.250064  1
  W  W11  1  0.158260  0.317677  0.749895  1
