# generated using pymatgen
data_LaEuGd4Nb2O14
_symmetry_space_group_name_H-M   'P 1'
_cell_length_a   6.57810354
_cell_length_b   6.57810261
_cell_length_c   7.69175113
_cell_angle_alpha   90.06945896
_cell_angle_beta   89.93054415
_cell_angle_gamma   109.21688222
_symmetry_Int_Tables_number   1
_chemical_formula_structural   LaEuGd4Nb2O14
_chemical_formula_sum   'La1 Eu1 Gd4 Nb2 O14'
_cell_volume   314.28714774
_cell_formula_units_Z   1
loop_
 _symmetry_equiv_pos_site_id
 _symmetry_equiv_pos_as_xyz
  1  'x, y, z'
loop_
 _atom_site_type_symbol
 _atom_site_label
 _atom_site_symmetry_multiplicity
 _atom_site_fract_x
 _atom_site_fract_y
 _atom_site_fract_z
 _atom_site_occupancy
  La  La0  1  0.500000  0.500000  0.000000  1
  Eu  Eu1  1  0.500000  0.500000  0.500000  1
  Gd  Gd2  1  0.534353  0.999891  0.747751  1
  Gd  Gd3  1  0.999891  0.534353  0.252249  1
  Gd  Gd4  1  0.465647  0.000109  0.252249  1
  Gd  Gd5  1  0.000109  0.465647  0.747751  1
  Nb  Nb6  1  0.000000  0.000000  0.500000  1
  Nb  Nb7  1  0.000000  0.000000  0.000000  1
  O  O8  1  0.681512  0.931619  0.467898  1
  O  O9  1  0.931619  0.681512  0.532102  1
  O  O10  1  0.680865  0.931822  0.032466  1
  O  O11  1  0.931822  0.680865  0.967534  1
  O  O12  1  0.318488  0.068381  0.532102  1
  O  O13  1  0.068381  0.318488  0.467898  1
  O  O14  1  0.319135  0.068178  0.967534  1
  O  O15  1  0.068178  0.319135  0.032466  1
  O  O16  1  0.367052  0.632948  0.745234  1
  O  O17  1  0.632948  0.367052  0.254766  1
  O  O18  1  0.639493  0.360507  0.745445  1
  O  O19  1  0.360507  0.639493  0.254555  1
  O  O20  1  0.935842  0.064158  0.750038  1
  O  O21  1  0.064158  0.935842  0.249962  1
