# generated using pymatgen
data_Tb3YPb4F28
_symmetry_space_group_name_H-M   'P 1'
_cell_length_a   5.84662308
_cell_length_b   9.29793837
_cell_length_c   12.51568800
_cell_angle_alpha   62.34552665
_cell_angle_beta   90.00938822
_cell_angle_gamma   89.99913805
_symmetry_Int_Tables_number   1
_chemical_formula_structural   Tb3YPb4F28
_chemical_formula_sum   'Tb3 Y1 Pb4 F28'
_cell_volume   602.64820911
_cell_formula_units_Z   1
loop_
 _symmetry_equiv_pos_site_id
 _symmetry_equiv_pos_as_xyz
  1  'x, y, z'
loop_
 _atom_site_type_symbol
 _atom_site_label
 _atom_site_symmetry_multiplicity
 _atom_site_fract_x
 _atom_site_fract_y
 _atom_site_fract_z
 _atom_site_occupancy
  Tb  Tb0  1  0.743593  0.182739  0.734669  1
  Tb  Tb1  1  0.756268  0.182689  0.234698  1
  Tb  Tb2  1  0.243658  0.817285  0.765298  1
  Y  Y3  1  0.256524  0.817761  0.265117  1
  Pb  Pb4  1  0.756654  0.727262  0.043913  1
  Pb  Pb5  1  0.243564  0.272948  0.956291  1
  Pb  Pb6  1  0.256305  0.273018  0.456336  1
  Pb  Pb7  1  0.743462  0.726985  0.543456  1
  F  F8  1  0.967160  0.708005  0.418642  1
  F  F9  1  0.032366  0.291351  0.581388  1
  F  F10  1  0.467406  0.291402  0.081397  1
  F  F11  1  0.532689  0.708786  0.918821  1
  F  F12  1  0.483250  0.734747  0.151909  1
  F  F13  1  0.517192  0.265214  0.848581  1
  F  F14  1  0.983005  0.264977  0.348526  1
  F  F15  1  0.016806  0.734811  0.651393  1
  F  F16  1  0.969760  0.748359  0.173518  1
  F  F17  1  0.031099  0.251838  0.826641  1
  F  F18  1  0.469048  0.251727  0.326854  1
  F  F19  1  0.530925  0.748243  0.673060  1
  F  F20  1  0.771083  0.474229  0.143562  1
  F  F21  1  0.229107  0.526009  0.856411  1
  F  F22  1  0.271025  0.525993  0.356345  1
  F  F23  1  0.728672  0.473978  0.643605  1
  F  F24  1  0.946486  0.278501  0.051864  1
  F  F25  1  0.053484  0.721450  0.948276  1
  F  F26  1  0.445871  0.721429  0.447990  1
  F  F27  1  0.553526  0.278509  0.551813  1
  F  F28  1  0.741813  0.980844  0.442369  1
  F  F29  1  0.258023  0.019163  0.557588  1
  F  F30  1  0.242071  0.019132  0.057084  1
  F  F31  1  0.758251  0.981006  0.942568  1
  F  F32  1  0.558197  0.978118  0.238683  1
  F  F33  1  0.441442  0.021872  0.761287  1
  F  F34  1  0.058754  0.021487  0.261250  1
  F  F35  1  0.941463  0.978131  0.738797  1
