# generated using pymatgen
data_La5Pr5Al4(Os2Ru)2
_symmetry_space_group_name_H-M   'P 1'
_cell_length_a   8.64278394
_cell_length_b   8.62435818
_cell_length_c   8.67361260
_cell_angle_alpha   109.42309319
_cell_angle_beta   109.73671796
_cell_angle_gamma   109.18390221
_symmetry_Int_Tables_number   1
_chemical_formula_structural   La5Pr5Al4(Os2Ru)2
_chemical_formula_sum   'La5 Pr5 Al4 Os4 Ru2'
_cell_volume   498.11002569
_cell_formula_units_Z   1
loop_
 _symmetry_equiv_pos_site_id
 _symmetry_equiv_pos_as_xyz
  1  'x, y, z'
loop_
 _atom_site_type_symbol
 _atom_site_label
 _atom_site_symmetry_multiplicity
 _atom_site_fract_x
 _atom_site_fract_y
 _atom_site_fract_z
 _atom_site_occupancy
  La  La0  1  0.250793  0.686302  0.439137  1
  La  La1  1  0.749944  0.815240  0.060679  1
  La  La2  1  0.437569  0.248005  0.685301  1
  La  La3  1  0.685857  0.438304  0.250888  1
  La  La4  1  0.063428  0.752156  0.815469  1
  Pr  Pr5  1  0.818979  0.068342  0.749318  1
  Pr  Pr6  1  0.212468  0.215442  0.214806  1
  Pr  Pr7  1  0.499757  0.998637  0.285735  1
  Pr  Pr8  1  0.286417  0.499273  0.998834  1
  Pr  Pr9  1  0.000054  0.286632  0.501101  1
  Al  Al10  1  0.588998  0.588004  0.588153  1
  Al  Al11  1  0.501213  0.002648  0.913133  1
  Al  Al12  1  0.913421  0.499344  0.001433  1
  Al  Al13  1  0.999782  0.912783  0.498721  1
  Os  Os14  1  0.246386  0.112753  0.862058  1
  Os  Os15  1  0.749604  0.383700  0.637596  1
  Os  Os16  1  0.861643  0.252656  0.119375  1
  Os  Os17  1  0.112625  0.862918  0.249765  1
  Ru  Ru18  1  0.633505  0.739038  0.378850  1
  Ru  Ru19  1  0.387557  0.637819  0.749648  1
