# generated using pymatgen
data_DyY5Al24Os7Pt
_symmetry_space_group_name_H-M   'P 1'
_cell_length_a   8.85300584
_cell_length_b   8.85300712
_cell_length_c   9.57142832
_cell_angle_alpha   89.65986720
_cell_angle_beta   90.34013358
_cell_angle_gamma   119.85565452
_symmetry_Int_Tables_number   1
_chemical_formula_structural   DyY5Al24Os7Pt
_chemical_formula_sum   'Dy1 Y5 Al24 Os7 Pt1'
_cell_volume   650.59179687
_cell_formula_units_Z   1
loop_
 _symmetry_equiv_pos_site_id
 _symmetry_equiv_pos_as_xyz
  1  'x, y, z'
loop_
 _atom_site_type_symbol
 _atom_site_label
 _atom_site_symmetry_multiplicity
 _atom_site_fract_x
 _atom_site_fract_y
 _atom_site_fract_z
 _atom_site_occupancy
  Dy  Dy0  1  0.805245  0.194755  0.748340  1
  Y  Y1  1  0.190498  0.386597  0.251282  1
  Y  Y2  1  0.809498  0.613304  0.748720  1
  Y  Y3  1  0.613403  0.809502  0.251282  1
  Y  Y4  1  0.386696  0.190502  0.748720  1
  Y  Y5  1  0.194707  0.805293  0.251596  1
  Al  Al6  1  0.331506  0.668494  0.019109  1
  Al  Al7  1  0.668519  0.331481  0.980820  1
  Al  Al8  1  0.666548  0.333452  0.516493  1
  Al  Al9  1  0.333486  0.666514  0.483560  1
  Al  Al10  1  0.163563  0.325614  0.577012  1
  Al  Al11  1  0.836370  0.674357  0.423052  1
  Al  Al12  1  0.674386  0.836437  0.577012  1
  Al  Al13  1  0.842081  0.675414  0.077247  1
  Al  Al14  1  0.325643  0.163630  0.423052  1
  Al  Al15  1  0.157841  0.324559  0.922696  1
  Al  Al16  1  0.163528  0.836472  0.575207  1
  Al  Al17  1  0.324586  0.157919  0.077247  1
  Al  Al18  1  0.836465  0.163535  0.424842  1
  Al  Al19  1  0.675441  0.842159  0.922696  1
  Al  Al20  1  0.836795  0.163205  0.075231  1
  Al  Al21  1  0.163206  0.836794  0.924722  1
  Al  Al22  1  0.560367  0.121924  0.249081  1
  Al  Al23  1  0.439702  0.878068  0.750930  1
  Al  Al24  1  0.878076  0.439633  0.249081  1
  Al  Al25  1  0.121932  0.560298  0.750930  1
  Al  Al26  1  0.561749  0.438251  0.251987  1
  Al  Al27  1  0.438232  0.561768  0.748008  1
  Al  Al28  1  0.999706  0.000294  0.250121  1
  Al  Al29  1  0.000183  0.999817  0.749877  1
  Os  Os30  1  0.500094  0.000088  0.999933  1
  Os  Os31  1  0.999912  0.499906  0.999933  1
  Os  Os32  1  0.500103  0.000073  0.500095  1
  Os  Os33  1  0.999927  0.499897  0.500095  1
  Os  Os34  1  0.500004  0.499996  0.499987  1
  Os  Os35  1  0.999997  0.000003  0.000024  1
  Os  Os36  1  0.000004  0.999996  0.499967  1
  Pt  Pt37  1  0.500000  0.500000  0.000012  1
