# generated using pymatgen
data_Mg2Sc2Co5(P2Rh)3
_symmetry_space_group_name_H-M   'P 1'
_cell_length_a   3.67631000
_cell_length_b   10.52189300
_cell_length_c   12.42370000
_cell_angle_alpha   90.00000000
_cell_angle_beta   90.00000000
_cell_angle_gamma   90.00000000
_symmetry_Int_Tables_number   1
_chemical_formula_structural   Mg2Sc2Co5(P2Rh)3
_chemical_formula_sum   'Mg4 Sc4 Co10 P12 Rh6'
_cell_volume   480.57033889
_cell_formula_units_Z   2
loop_
 _symmetry_equiv_pos_site_id
 _symmetry_equiv_pos_as_xyz
  1  'x, y, z'
loop_
 _atom_site_type_symbol
 _atom_site_label
 _atom_site_symmetry_multiplicity
 _atom_site_fract_x
 _atom_site_fract_y
 _atom_site_fract_z
 _atom_site_occupancy
  Mg  Mg0  1  0.250000  0.709637  0.993233  1
  Mg  Mg1  1  0.250000  0.790363  0.493233  1
  Mg  Mg2  1  0.750000  0.292996  0.009652  1
  Mg  Mg3  1  0.750000  0.207004  0.509652  1
  Sc  Sc4  1  0.250000  0.585527  0.716103  1
  Sc  Sc5  1  0.250000  0.914473  0.216103  1
  Sc  Sc6  1  0.750000  0.422275  0.284890  1
  Sc  Sc7  1  0.750000  0.077725  0.784890  1
  Co  Co8  1  0.750000  0.783746  0.825101  1
  Co  Co9  1  0.750000  0.716254  0.325101  1
  Co  Co10  1  0.250000  0.880713  0.698097  1
  Co  Co11  1  0.250000  0.619287  0.198097  1
  Co  Co12  1  0.750000  0.109897  0.304149  1
  Co  Co13  1  0.750000  0.390103  0.804149  1
  Co  Co14  1  0.250000  0.470970  0.933123  1
  Co  Co15  1  0.250000  0.029030  0.433123  1
  Co  Co16  1  0.750000  0.537832  0.066400  1
  Co  Co17  1  0.750000  0.962168  0.566400  1
  P  P18  1  0.250000  0.432013  0.116192  1
  P  P19  1  0.250000  0.067987  0.616192  1
  P  P20  1  0.750000  0.580414  0.881736  1
  P  P21  1  0.750000  0.919586  0.381736  1
  P  P22  1  0.250000  0.275316  0.857239  1
  P  P23  1  0.250000  0.224684  0.357239  1
  P  P24  1  0.750000  0.728553  0.148881  1
  P  P25  1  0.750000  0.771447  0.648881  1
  P  P26  1  0.250000  0.595230  0.374718  1
  P  P27  1  0.250000  0.904770  0.874718  1
  P  P28  1  0.750000  0.414248  0.622684  1
  P  P29  1  0.750000  0.085752  0.122684  1
  Rh  Rh30  1  0.250000  0.402491  0.468134  1
  Rh  Rh31  1  0.250000  0.097509  0.968134  1
  Rh  Rh32  1  0.750000  0.601412  0.526688  1
  Rh  Rh33  1  0.750000  0.898588  0.026688  1
  Rh  Rh34  1  0.250000  0.218268  0.172982  1
  Rh  Rh35  1  0.250000  0.281733  0.672982  1
