# generated using pymatgen
data_Dy5Er7Co4HgOs
_symmetry_space_group_name_H-M   'P 1'
_cell_length_a   8.22619136
_cell_length_b   8.21803320
_cell_length_c   8.21803377
_cell_angle_alpha   110.67572680
_cell_angle_beta   111.33561666
_cell_angle_gamma   106.40645690
_symmetry_Int_Tables_number   1
_chemical_formula_structural   Dy5Er7Co4HgOs
_chemical_formula_sum   'Dy5 Er7 Co4 Hg1 Os1'
_cell_volume   426.96075056
_cell_formula_units_Z   1
loop_
 _symmetry_equiv_pos_site_id
 _symmetry_equiv_pos_as_xyz
  1  'x, y, z'
loop_
 _atom_site_type_symbol
 _atom_site_label
 _atom_site_symmetry_multiplicity
 _atom_site_fract_x
 _atom_site_fract_y
 _atom_site_fract_z
 _atom_site_occupancy
  Dy  Dy0  1  0.277698  0.181871  0.460389  1
  Dy  Dy1  1  0.721937  0.818605  0.539943  1
  Dy  Dy2  1  0.277698  0.817308  0.095827  1
  Dy  Dy3  1  0.721937  0.181996  0.903332  1
  Dy  Dy4  1  0.621671  0.315205  0.306466  1
  Er  Er5  1  0.376631  0.684357  0.692274  1
  Er  Er6  1  0.008779  0.315810  0.692967  1
  Er  Er7  1  0.992806  0.684953  0.307855  1
  Er  Er8  1  0.222508  0.416249  0.192964  1
  Er  Er9  1  0.777096  0.584146  0.807594  1
  Er  Er10  1  0.222508  0.029544  0.806259  1
  Er  Er11  1  0.777096  0.969501  0.192950  1
  Co  Co12  1  0.000935  0.372781  0.373113  1
  Co  Co13  1  0.000935  0.627821  0.628153  1
  Co  Co14  1  0.387446  0.887502  0.499944  1
  Co  Co15  1  0.612336  0.112218  0.500118  1
  Hg  Hg16  1  0.499708  0.500104  0.999605  1
  Os  Os17  1  0.000272  0.000025  0.000247  1
