# generated using pymatgen
data_DyErTm(CdGa)3
_symmetry_space_group_name_H-M   'P 1'
_cell_length_a   7.21966491
_cell_length_b   7.23193073
_cell_length_c   4.38396800
_cell_angle_alpha   90.00000000
_cell_angle_beta   90.00000000
_cell_angle_gamma   119.94770889
_symmetry_Int_Tables_number   1
_chemical_formula_structural   DyErTm(CdGa)3
_chemical_formula_sum   'Dy1 Er1 Tm1 Cd3 Ga3'
_cell_volume   198.33433438
_cell_formula_units_Z   1
loop_
 _symmetry_equiv_pos_site_id
 _symmetry_equiv_pos_as_xyz
  1  'x, y, z'
loop_
 _atom_site_type_symbol
 _atom_site_label
 _atom_site_symmetry_multiplicity
 _atom_site_fract_x
 _atom_site_fract_y
 _atom_site_fract_z
 _atom_site_occupancy
  Dy  Dy0  1  0.575394  0.000070  0.500000  1
  Er  Er1  1  0.999769  0.575486  0.500000  1
  Tm  Tm2  1  0.424256  0.424589  0.500000  1
  Cd  Cd3  1  0.750218  0.750002  0.000000  1
  Cd  Cd4  1  0.249168  0.000026  0.000000  1
  Cd  Cd5  1  0.000255  0.249645  0.000000  1
  Ga  Ga6  1  0.666889  0.334690  0.000000  1
  Ga  Ga7  1  0.332925  0.665323  0.000000  1
  Ga  Ga8  1  0.001125  0.000170  0.500000  1
