# generated using pymatgen
data_Tm3ScCo7Si12Ni13
_symmetry_space_group_name_H-M   'P 1'
_cell_length_a   3.68899500
_cell_length_b   18.30908545
_cell_length_c   6.77335600
_cell_angle_alpha   90.02115695
_cell_angle_beta   90.00000000
_cell_angle_gamma   90.00000000
_symmetry_Int_Tables_number   1
_chemical_formula_structural   Tm3ScCo7Si12Ni13
_chemical_formula_sum   'Tm3 Sc1 Co7 Si12 Ni13'
_cell_volume   457.48682455
_cell_formula_units_Z   1
loop_
 _symmetry_equiv_pos_site_id
 _symmetry_equiv_pos_as_xyz
  1  'x, y, z'
loop_
 _atom_site_type_symbol
 _atom_site_label
 _atom_site_symmetry_multiplicity
 _atom_site_fract_x
 _atom_site_fract_y
 _atom_site_fract_z
 _atom_site_occupancy
  Tm  Tm0  1  0.250000  0.357972  0.874598  1
  Tm  Tm1  1  0.250000  0.856653  0.624862  1
  Tm  Tm2  1  0.750000  0.143750  0.380700  1
  Sc  Sc3  1  0.750000  0.643650  0.115902  1
  Co  Co4  1  0.250000  0.201418  0.681848  1
  Co  Co5  1  0.250000  0.699977  0.819556  1
  Co  Co6  1  0.250000  0.003746  0.370308  1
  Co  Co7  1  0.250000  0.504939  0.129428  1
  Co  Co8  1  0.250000  0.493578  0.618870  1
  Co  Co9  1  0.250000  0.990319  0.882381  1
  Co  Co10  1  0.250000  0.204910  0.062345  1
  Si  Si11  1  0.750000  0.736069  0.630382  1
  Si  Si12  1  0.250000  0.260782  0.373301  1
  Si  Si13  1  0.250000  0.757839  0.122842  1
  Si  Si14  1  0.750000  0.236876  0.872167  1
  Si  Si15  1  0.750000  0.923995  0.349128  1
  Si  Si16  1  0.250000  0.075224  0.647003  1
  Si  Si17  1  0.250000  0.576507  0.858952  1
  Si  Si18  1  0.750000  0.425045  0.150999  1
  Si  Si19  1  0.750000  0.917531  0.909900  1
  Si  Si20  1  0.250000  0.083847  0.097536  1
  Si  Si21  1  0.250000  0.584843  0.395668  1
  Si  Si22  1  0.750000  0.420224  0.591036  1
  Ni  Ni23  1  0.750000  0.797547  0.319648  1
  Ni  Ni24  1  0.750000  0.298822  0.179238  1
  Ni  Ni25  1  0.750000  0.993729  0.629751  1
  Ni  Ni26  1  0.750000  0.495028  0.872235  1
  Ni  Ni27  1  0.750000  0.514346  0.374349  1
  Ni  Ni28  1  0.750000  0.012252  0.123626  1
  Ni  Ni29  1  0.750000  0.793784  0.936230  1
  Ni  Ni30  1  0.250000  0.705214  0.433278  1
  Ni  Ni31  1  0.750000  0.296265  0.565555  1
  Ni  Ni32  1  0.750000  0.611118  0.644641  1
  Ni  Ni33  1  0.250000  0.386402  0.362504  1
  Ni  Ni34  1  0.250000  0.883825  0.138482  1
  Ni  Ni35  1  0.750000  0.111971  0.860750  1
