# generated using pymatgen
data_Ti6Nb4AlPt4
_symmetry_space_group_name_H-M   'P 1'
_cell_length_a   9.83436600
_cell_length_b   9.83436600
_cell_length_c   5.10064700
_cell_angle_alpha   90.00000000
_cell_angle_beta   90.00000000
_cell_angle_gamma   90.00000000
_symmetry_Int_Tables_number   1
_chemical_formula_structural   Ti6Nb4AlPt4
_chemical_formula_sum   'Ti12 Nb8 Al2 Pt8'
_cell_volume   493.30782302
_cell_formula_units_Z   2
loop_
 _symmetry_equiv_pos_site_id
 _symmetry_equiv_pos_as_xyz
  1  'x, y, z'
loop_
 _atom_site_type_symbol
 _atom_site_label
 _atom_site_symmetry_multiplicity
 _atom_site_fract_x
 _atom_site_fract_y
 _atom_site_fract_z
 _atom_site_occupancy
  Ti  Ti0  1  0.127038  0.464439  0.997042  1
  Ti  Ti1  1  0.964439  0.372962  0.497042  1
  Ti  Ti2  1  0.035561  0.627038  0.497042  1
  Ti  Ti3  1  0.872962  0.535561  0.997042  1
  Ti  Ti4  1  0.372962  0.964439  0.497042  1
  Ti  Ti5  1  0.627038  0.035561  0.497042  1
  Ti  Ti6  1  0.464439  0.127038  0.997042  1
  Ti  Ti7  1  0.535561  0.872962  0.997042  1
  Ti  Ti8  1  0.187822  0.187822  0.250804  1
  Ti  Ti9  1  0.687822  0.312178  0.750804  1
  Ti  Ti10  1  0.312178  0.687822  0.750804  1
  Ti  Ti11  1  0.812178  0.812178  0.250804  1
  Nb  Nb12  1  0.395674  0.395674  0.006173  1
  Nb  Nb13  1  0.895674  0.104326  0.506173  1
  Nb  Nb14  1  0.104326  0.895674  0.506173  1
  Nb  Nb15  1  0.604326  0.604326  0.006173  1
  Nb  Nb16  1  0.317172  0.682828  0.241743  1
  Nb  Nb17  1  0.682828  0.317172  0.241743  1
  Nb  Nb18  1  0.182828  0.182828  0.741743  1
  Nb  Nb19  1  0.817172  0.817172  0.741743  1
  Al  Al20  1  0.000000  0.000000  0.006549  1
  Al  Al21  1  0.500000  0.500000  0.506549  1
  Pt  Pt22  1  0.262041  0.939967  0.001961  1
  Pt  Pt23  1  0.439967  0.237959  0.501961  1
  Pt  Pt24  1  0.560033  0.762041  0.501961  1
  Pt  Pt25  1  0.737959  0.060033  0.001961  1
  Pt  Pt26  1  0.237959  0.439967  0.501961  1
  Pt  Pt27  1  0.762041  0.560033  0.501961  1
  Pt  Pt28  1  0.939967  0.262041  0.001961  1
  Pt  Pt29  1  0.060033  0.737959  0.001961  1
