# generated using pymatgen
data_Dy16MgIn3Ir3Ru
_symmetry_space_group_name_H-M   'P 1'
_cell_length_a   9.67993369
_cell_length_b   9.67993339
_cell_length_c   9.67993250
_cell_angle_alpha   59.90036690
_cell_angle_beta   59.90036015
_cell_angle_gamma   59.90036616
_symmetry_Int_Tables_number   1
_chemical_formula_structural   Dy16MgIn3Ir3Ru
_chemical_formula_sum   'Dy16 Mg1 In3 Ir3 Ru1'
_cell_volume   639.91058156
_cell_formula_units_Z   1
loop_
 _symmetry_equiv_pos_site_id
 _symmetry_equiv_pos_as_xyz
  1  'x, y, z'
loop_
 _atom_site_type_symbol
 _atom_site_label
 _atom_site_symmetry_multiplicity
 _atom_site_fract_x
 _atom_site_fract_y
 _atom_site_fract_z
 _atom_site_occupancy
  Dy  Dy0  1  0.598655  0.598655  0.598655  1
  Dy  Dy1  1  0.598627  0.598627  0.205099  1
  Dy  Dy2  1  0.598627  0.205099  0.598627  1
  Dy  Dy3  1  0.205099  0.598627  0.598627  1
  Dy  Dy4  1  0.059286  0.441105  0.441105  1
  Dy  Dy5  1  0.438338  0.060741  0.060741  1
  Dy  Dy6  1  0.441105  0.059286  0.441105  1
  Dy  Dy7  1  0.060741  0.438338  0.060741  1
  Dy  Dy8  1  0.441105  0.441105  0.059286  1
  Dy  Dy9  1  0.060741  0.060741  0.438338  1
  Dy  Dy10  1  0.188101  0.812463  0.812463  1
  Dy  Dy11  1  0.809030  0.190640  0.190640  1
  Dy  Dy12  1  0.812463  0.188101  0.812463  1
  Dy  Dy13  1  0.190640  0.809030  0.190640  1
  Dy  Dy14  1  0.812463  0.812463  0.188101  1
  Dy  Dy15  1  0.190640  0.190640  0.809030  1
  Mg  Mg16  1  0.826476  0.826476  0.826476  1
  In  In17  1  0.832510  0.832510  0.501311  1
  In  In18  1  0.832510  0.501311  0.832510  1
  In  In19  1  0.501311  0.832510  0.832510  1
  Ir  Ir20  1  0.391456  0.391456  0.826897  1
  Ir  Ir21  1  0.391456  0.826897  0.391456  1
  Ir  Ir22  1  0.826897  0.391456  0.391456  1
  Ru  Ru23  1  0.391725  0.391725  0.391725  1
