# generated using pymatgen
data_Nd3Y(P4O13)2
_symmetry_space_group_name_H-M   'P 1'
_cell_length_a   9.64437062
_cell_length_b   9.68406338
_cell_length_c   8.78294706
_cell_angle_alpha   90.41641759
_cell_angle_beta   89.64867741
_cell_angle_gamma   135.87992394
_symmetry_Int_Tables_number   1
_chemical_formula_structural   Nd3Y(P4O13)2
_chemical_formula_sum   'Nd3 Y1 P8 O26'
_cell_volume   571.04684131
_cell_formula_units_Z   1
loop_
 _symmetry_equiv_pos_site_id
 _symmetry_equiv_pos_as_xyz
  1  'x, y, z'
loop_
 _atom_site_type_symbol
 _atom_site_label
 _atom_site_symmetry_multiplicity
 _atom_site_fract_x
 _atom_site_fract_y
 _atom_site_fract_z
 _atom_site_occupancy
  Nd  Nd0  1  0.896800  0.603624  0.854910  1
  Nd  Nd1  1  0.604702  0.898101  0.145322  1
  Nd  Nd2  1  0.104254  0.396484  0.357059  1
  Y  Y3  1  0.396606  0.105794  0.643775  1
  P  P4  1  0.416325  0.098976  0.997213  1
  P  P5  1  0.100929  0.415812  0.998234  1
  P  P6  1  0.579671  0.905348  0.503283  1
  P  P7  1  0.900422  0.584217  0.499737  1
  P  P8  1  0.275511  0.145511  0.272260  1
  P  P9  1  0.152034  0.272347  0.730542  1
  P  P10  1  0.724581  0.852247  0.767860  1
  P  P11  1  0.851671  0.725021  0.231855  1
  O  O12  1  0.480918  0.028191  0.098042  1
  O  O13  1  0.029721  0.478044  0.894492  1
  O  O14  1  0.514805  0.976272  0.606470  1
  O  O15  1  0.970986  0.520459  0.395186  1
  O  O16  1  0.229622  0.935404  0.899605  1
  O  O17  1  0.935761  0.230453  0.095811  1
  O  O18  1  0.766935  0.070158  0.406654  1
  O  O19  1  0.067213  0.770562  0.597304  1
  O  O20  1  0.572411  0.260737  0.881130  1
  O  O21  1  0.263853  0.574998  0.112772  1
  O  O22  1  0.420918  0.741658  0.389098  1
  O  O23  1  0.734077  0.423425  0.612054  1
  O  O24  1  0.086288  0.913019  0.248665  1
  O  O25  1  0.917820  0.084693  0.749290  1
  O  O26  1  0.795351  0.628280  0.397260  1
  O  O27  1  0.623329  0.799938  0.604569  1
  O  O28  1  0.207964  0.371984  0.895738  1
  O  O29  1  0.376943  0.204512  0.107164  1
  O  O30  1  0.745459  0.783534  0.210719  1
  O  O31  1  0.776924  0.740595  0.786433  1
  O  O32  1  0.258391  0.213505  0.708274  1
  O  O33  1  0.219256  0.253685  0.294452  1
  O  O34  1  0.825485  0.597332  0.110963  1
  O  O35  1  0.600770  0.830753  0.890140  1
  O  O36  1  0.178346  0.398906  0.610155  1
  O  O37  1  0.396948  0.165417  0.395509  1
