# generated using pymatgen
data_Hf3Zr(Co3Ir)2
_symmetry_space_group_name_H-M   'P 1'
_cell_length_a   4.91006500
_cell_length_b   4.91006436
_cell_length_c   8.29384100
_cell_angle_alpha   90.00000000
_cell_angle_beta   90.00000000
_cell_angle_gamma   120.00001103
_symmetry_Int_Tables_number   1
_chemical_formula_structural   Hf3Zr(Co3Ir)2
_chemical_formula_sum   'Hf3 Zr1 Co6 Ir2'
_cell_volume   173.16523843
_cell_formula_units_Z   1
loop_
 _symmetry_equiv_pos_site_id
 _symmetry_equiv_pos_as_xyz
  1  'x, y, z'
loop_
 _atom_site_type_symbol
 _atom_site_label
 _atom_site_symmetry_multiplicity
 _atom_site_fract_x
 _atom_site_fract_y
 _atom_site_fract_z
 _atom_site_occupancy
  Hf  Hf0  1  0.333333  0.666667  0.431400  1
  Hf  Hf1  1  0.666667  0.333333  0.569843  1
  Hf  Hf2  1  0.666667  0.333333  0.928216  1
  Zr  Zr3  1  0.333333  0.666667  0.071642  1
  Co  Co4  1  0.828921  0.171079  0.250861  1
  Co  Co5  1  0.828921  0.657840  0.250861  1
  Co  Co6  1  0.342160  0.171079  0.250861  1
  Co  Co7  1  0.170924  0.829076  0.749112  1
  Co  Co8  1  0.170924  0.341849  0.749112  1
  Co  Co9  1  0.658151  0.829076  0.749112  1
  Ir  Ir10  1  0.000000  0.000000  0.499534  1
  Ir  Ir11  1  0.000000  0.000000  0.999443  1
