# generated using pymatgen
data_Er8Tm2RuRh3
_symmetry_space_group_name_H-M   'P 1'
_cell_length_a   6.37514531
_cell_length_b   7.16006278
_cell_length_c   8.44654528
_cell_angle_alpha   96.64479382
_cell_angle_beta   111.94138778
_cell_angle_gamma   90.02852394
_symmetry_Int_Tables_number   1
_chemical_formula_structural   Er8Tm2RuRh3
_chemical_formula_sum   'Er8 Tm2 Ru1 Rh3'
_cell_volume   354.82490786
_cell_formula_units_Z   1
loop_
 _symmetry_equiv_pos_site_id
 _symmetry_equiv_pos_as_xyz
  1  'x, y, z'
loop_
 _atom_site_type_symbol
 _atom_site_label
 _atom_site_symmetry_multiplicity
 _atom_site_fract_x
 _atom_site_fract_y
 _atom_site_fract_z
 _atom_site_occupancy
  Er  Er0  1  0.791491  0.082470  0.812145  1
  Er  Er1  1  0.977955  0.417652  0.186965  1
  Er  Er2  1  0.208256  0.917428  0.182395  1
  Er  Er3  1  0.023322  0.583235  0.811748  1
  Er  Er4  1  0.210560  0.183416  0.562861  1
  Er  Er5  1  0.648270  0.314352  0.437442  1
  Er  Er6  1  0.791558  0.814395  0.440890  1
  Er  Er7  1  0.348526  0.687832  0.563403  1
  Tm  Tm8  1  0.423856  0.248472  0.998862  1
  Tm  Tm9  1  0.575185  0.750561  0.999721  1
  Ru  Ru10  1  0.176082  0.926141  0.782473  1
  Rh  Rh11  1  0.603253  0.427000  0.779044  1
  Rh  Rh12  1  0.823107  0.074175  0.220662  1
  Rh  Rh13  1  0.398578  0.572871  0.221388  1
