# generated using pymatgen
data_Rb8Na4DyLu3Sb8
_symmetry_space_group_name_H-M   'P 1'
_cell_length_a   11.28959914
_cell_length_b   11.28959824
_cell_length_c   7.44348712
_cell_angle_alpha   90.06576520
_cell_angle_beta   89.93423644
_cell_angle_gamma   98.93490335
_symmetry_Int_Tables_number   1
_chemical_formula_structural   Rb8Na4DyLu3Sb8
_chemical_formula_sum   'Rb8 Na4 Dy1 Lu3 Sb8'
_cell_volume   937.19668775
_cell_formula_units_Z   1
loop_
 _symmetry_equiv_pos_site_id
 _symmetry_equiv_pos_as_xyz
  1  'x, y, z'
loop_
 _atom_site_type_symbol
 _atom_site_label
 _atom_site_symmetry_multiplicity
 _atom_site_fract_x
 _atom_site_fract_y
 _atom_site_fract_z
 _atom_site_occupancy
  Rb  Rb0  1  0.072104  0.428310  0.250329  1
  Rb  Rb1  1  0.428310  0.072104  0.749671  1
  Rb  Rb2  1  0.927893  0.572089  0.749856  1
  Rb  Rb3  1  0.572089  0.927893  0.250144  1
  Rb  Rb4  1  0.675455  0.324478  0.216569  1
  Rb  Rb5  1  0.824139  0.175505  0.716154  1
  Rb  Rb6  1  0.324478  0.675455  0.783431  1
  Rb  Rb7  1  0.175505  0.824139  0.283846  1
  Na  Na8  1  0.382575  0.382575  0.000000  1
  Na  Na9  1  0.117767  0.117767  0.500000  1
  Na  Na10  1  0.617770  0.617770  0.000000  1
  Na  Na11  1  0.882123  0.882123  0.500000  1
  Dy  Dy12  1  0.130800  0.130800  0.000000  1
  Lu  Lu13  1  0.370070  0.370070  0.500000  1
  Lu  Lu14  1  0.869080  0.869080  0.000000  1
  Lu  Lu15  1  0.629971  0.629971  0.500000  1
  Sb  Sb16  1  0.845275  0.654779  0.249867  1
  Sb  Sb17  1  0.654779  0.845275  0.750133  1
  Sb  Sb18  1  0.155026  0.348062  0.746689  1
  Sb  Sb19  1  0.348062  0.155026  0.253311  1
  Sb  Sb20  1  0.897351  0.099189  0.210493  1
  Sb  Sb21  1  0.599909  0.400280  0.708224  1
  Sb  Sb22  1  0.099189  0.897351  0.789507  1
  Sb  Sb23  1  0.400280  0.599909  0.291776  1
