# generated using pymatgen
data_UH7F12
_symmetry_space_group_name_H-M   'P 1'
_cell_length_a   8.23025791
_cell_length_b   8.23025999
_cell_length_c   5.40091893
_cell_angle_alpha   73.51636581
_cell_angle_beta   73.51632957
_cell_angle_gamma   48.92711053
_symmetry_Int_Tables_number   1
_chemical_formula_structural   UH7F12
_chemical_formula_sum   'U1 H7 F12'
_cell_volume   262.05696566
_cell_formula_units_Z   1
loop_
 _symmetry_equiv_pos_site_id
 _symmetry_equiv_pos_as_xyz
  1  'x, y, z'
loop_
 _atom_site_type_symbol
 _atom_site_label
 _atom_site_symmetry_multiplicity
 _atom_site_fract_x
 _atom_site_fract_y
 _atom_site_fract_z
 _atom_site_occupancy
  U  U0  1  0.000910  0.999089  0.000001  1
  H  H1  1  0.799873  0.821594  0.785089  1
  H  H2  1  0.178407  0.200127  0.214911  1
  H  H3  1  0.713662  0.733861  0.575444  1
  H  H4  1  0.266139  0.286338  0.424556  1
  H  H5  1  0.632868  0.634927  0.373997  1
  H  H6  1  0.365073  0.367132  0.626002  1
  H  H7  1  0.500531  0.499469  0.500000  1
  F  F8  1  0.899095  0.898427  0.782454  1
  F  F9  1  0.101574  0.100905  0.217546  1
  F  F10  1  0.569146  0.567797  0.326622  1
  F  F11  1  0.432203  0.430854  0.673377  1
  F  F12  1  0.712317  0.715799  0.390972  1
  F  F13  1  0.284201  0.287683  0.609028  1
  F  F14  1  0.867446  0.288038  0.757494  1
  F  F15  1  0.711959  0.132559  0.242506  1
  F  F16  1  0.134954  0.710678  0.243587  1
  F  F17  1  0.289322  0.865043  0.756414  1
  F  F18  1  0.721176  0.760858  0.793806  1
  F  F19  1  0.239143  0.278824  0.206194  1
