# generated using pymatgen
data_Nd4Tm3Ag10
_symmetry_space_group_name_H-M   'P 1'
_cell_length_a   8.90280500
_cell_length_b   8.90280560
_cell_length_c   10.63448500
_cell_angle_alpha   90.00000000
_cell_angle_beta   90.00000000
_cell_angle_gamma   106.57564412
_symmetry_Int_Tables_number   1
_chemical_formula_structural   Nd4Tm3Ag10
_chemical_formula_sum   'Nd8 Tm6 Ag20'
_cell_volume   807.86152730
_cell_formula_units_Z   2
loop_
 _symmetry_equiv_pos_site_id
 _symmetry_equiv_pos_as_xyz
  1  'x, y, z'
loop_
 _atom_site_type_symbol
 _atom_site_label
 _atom_site_symmetry_multiplicity
 _atom_site_fract_x
 _atom_site_fract_y
 _atom_site_fract_z
 _atom_site_occupancy
  Nd  Nd0  1  0.701065  0.298935  0.000000  1
  Nd  Nd1  1  0.298935  0.701065  0.000000  1
  Nd  Nd2  1  0.798935  0.201065  0.500000  1
  Nd  Nd3  1  0.201065  0.798935  0.500000  1
  Nd  Nd4  1  0.304899  0.304899  0.200568  1
  Nd  Nd5  1  0.695101  0.695101  0.799432  1
  Nd  Nd6  1  0.195101  0.195101  0.700568  1
  Nd  Nd7  1  0.804899  0.804899  0.299432  1
  Tm  Tm8  1  0.010217  0.510217  0.250000  1
  Tm  Tm9  1  0.989783  0.489783  0.750000  1
  Tm  Tm10  1  0.489783  0.989783  0.750000  1
  Tm  Tm11  1  0.510217  0.010217  0.250000  1
  Tm  Tm12  1  0.000000  0.000000  0.000000  1
  Tm  Tm13  1  0.500000  0.500000  0.500000  1
  Ag  Ag14  1  0.100561  0.100561  0.403648  1
  Ag  Ag15  1  0.899439  0.899439  0.596352  1
  Ag  Ag16  1  0.399439  0.399439  0.903648  1
  Ag  Ag17  1  0.600561  0.600561  0.096352  1
  Ag  Ag18  1  0.880601  0.162100  0.209781  1
  Ag  Ag19  1  0.119399  0.837900  0.790219  1
  Ag  Ag20  1  0.619399  0.337900  0.709781  1
  Ag  Ag21  1  0.662100  0.380601  0.290219  1
  Ag  Ag22  1  0.380601  0.662100  0.290219  1
  Ag  Ag23  1  0.337900  0.619399  0.709781  1
  Ag  Ag24  1  0.837900  0.119399  0.790219  1
  Ag  Ag25  1  0.162100  0.880601  0.209781  1
  Ag  Ag26  1  0.932428  0.648592  0.010688  1
  Ag  Ag27  1  0.067572  0.351408  0.989312  1
  Ag  Ag28  1  0.567572  0.851408  0.510688  1
  Ag  Ag29  1  0.148592  0.432428  0.489312  1
  Ag  Ag30  1  0.432428  0.148592  0.489312  1
  Ag  Ag31  1  0.851408  0.567572  0.510688  1
  Ag  Ag32  1  0.351408  0.067572  0.989312  1
  Ag  Ag33  1  0.648592  0.932428  0.010688  1
