# generated using pymatgen
data_Cs3Np(I2Cl)2
_symmetry_space_group_name_H-M   'P 1'
_cell_length_a   8.71856730
_cell_length_b   9.74542635
_cell_length_c   14.46403818
_cell_angle_alpha   91.91539505
_cell_angle_beta   107.54097336
_cell_angle_gamma   116.57160768
_symmetry_Int_Tables_number   1
_chemical_formula_structural   Cs3Np(I2Cl)2
_chemical_formula_sum   'Cs6 Np2 I8 Cl4'
_cell_volume   1027.44106874
_cell_formula_units_Z   2
loop_
 _symmetry_equiv_pos_site_id
 _symmetry_equiv_pos_as_xyz
  1  'x, y, z'
loop_
 _atom_site_type_symbol
 _atom_site_label
 _atom_site_symmetry_multiplicity
 _atom_site_fract_x
 _atom_site_fract_y
 _atom_site_fract_z
 _atom_site_occupancy
  Cs  Cs0  1  0.293522  0.831238  0.126700  1
  Cs  Cs1  1  0.125868  0.250000  0.250000  1
  Cs  Cs2  1  0.835585  0.668762  0.373300  1
  Cs  Cs3  1  0.164415  0.331238  0.626700  1
  Cs  Cs4  1  0.874133  0.750000  0.750000  1
  Cs  Cs5  1  0.706478  0.168762  0.873300  1
  Np  Np6  1  0.500000  0.500000  0.000000  1
  Np  Np7  1  0.499999  0.000000  0.499999  1
  I  I8  1  0.755495  0.862608  0.038148  1
  I  I9  1  0.831629  0.449008  0.125179  1
  I  I10  1  0.757443  0.050992  0.374821  1
  I  I11  1  0.354738  0.637392  0.461852  1
  I  I12  1  0.645262  0.362608  0.538149  1
  I  I13  1  0.242558  0.949009  0.625178  1
  I  I14  1  0.168371  0.550992  0.874821  1
  I  I15  1  0.244505  0.137392  0.961851  1
  Cl  Cl16  1  0.432943  0.546758  0.166225  1
  Cl  Cl17  1  0.219959  0.953242  0.333774  1
  Cl  Cl18  1  0.780041  0.046758  0.666226  1
  Cl  Cl19  1  0.567057  0.453242  0.833774  1
