# generated using pymatgen
data_Nd2Al4CuSi2Au
_symmetry_space_group_name_H-M   'P 1'
_cell_length_a   4.20335800
_cell_length_b   4.20335800
_cell_length_c   10.75269300
_cell_angle_alpha   90.00000000
_cell_angle_beta   90.00000000
_cell_angle_gamma   90.00000000
_symmetry_Int_Tables_number   1
_chemical_formula_structural   Nd2Al4CuSi2Au
_chemical_formula_sum   'Nd2 Al4 Cu1 Si2 Au1'
_cell_volume   189.98092913
_cell_formula_units_Z   1
loop_
 _symmetry_equiv_pos_site_id
 _symmetry_equiv_pos_as_xyz
  1  'x, y, z'
loop_
 _atom_site_type_symbol
 _atom_site_label
 _atom_site_symmetry_multiplicity
 _atom_site_fract_x
 _atom_site_fract_y
 _atom_site_fract_z
 _atom_site_occupancy
  Nd  Nd0  1  0.000000  0.000000  0.997869  1
  Nd  Nd1  1  0.500000  0.500000  0.485596  1
  Al  Al2  1  0.000000  0.500000  0.241256  1
  Al  Al3  1  0.500000  0.000000  0.754353  1
  Al  Al4  1  0.500000  0.000000  0.241256  1
  Al  Al5  1  0.000000  0.500000  0.754353  1
  Cu  Cu6  1  0.500000  0.500000  0.119009  1
  Si  Si7  1  0.000000  0.000000  0.387387  1
  Si  Si8  1  0.500000  0.500000  0.900420  1
  Au  Au9  1  0.000000  0.000000  0.618502  1
