# generated using pymatgen
data_Ce4Ga2SiRh10
_symmetry_space_group_name_H-M   'P 1'
_cell_length_a   7.16962432
_cell_length_b   7.28946887
_cell_length_c   7.28946900
_cell_angle_alpha   107.72533514
_cell_angle_beta   110.70681028
_cell_angle_gamma   110.70681195
_symmetry_Int_Tables_number   1
_chemical_formula_structural   Ce4Ga2SiRh10
_chemical_formula_sum   'Ce4 Ga2 Si1 Rh10'
_cell_volume   290.41981171
_cell_formula_units_Z   1
loop_
 _symmetry_equiv_pos_site_id
 _symmetry_equiv_pos_as_xyz
  1  'x, y, z'
loop_
 _atom_site_type_symbol
 _atom_site_label
 _atom_site_symmetry_multiplicity
 _atom_site_fract_x
 _atom_site_fract_y
 _atom_site_fract_z
 _atom_site_occupancy
  Ce  Ce0  1  0.029614  0.014807  0.514807  1
  Ce  Ce1  1  0.029614  0.514807  0.014807  1
  Ce  Ce2  1  0.474501  0.964908  0.964908  1
  Ce  Ce3  1  0.474501  0.509592  0.509592  1
  Ga  Ga4  1  0.747503  0.247656  0.499846  1
  Ga  Ga5  1  0.747503  0.499846  0.247656  1
  Si  Si6  1  0.997939  0.998969  0.998969  1
  Rh  Rh7  1  0.518925  0.259462  0.759462  1
  Rh  Rh8  1  0.232463  0.487458  0.745005  1
  Rh  Rh9  1  0.232463  0.745005  0.487458  1
  Rh  Rh10  1  0.518925  0.759462  0.259462  1
  Rh  Rh11  1  0.737983  0.720826  0.017157  1
  Rh  Rh12  1  0.299669  0.018693  0.280976  1
  Rh  Rh13  1  0.960372  0.257601  0.257601  1
  Rh  Rh14  1  0.299669  0.280976  0.018693  1
  Rh  Rh15  1  0.737983  0.017157  0.720826  1
  Rh  Rh16  1  0.960372  0.702772  0.702772  1
