# generated using pymatgen
data_Y2Ga9Os2Pd
_symmetry_space_group_name_H-M   'P 1'
_cell_length_a   7.59450816
_cell_length_b   7.59450890
_cell_length_c   9.61326000
_cell_angle_alpha   90.00000000
_cell_angle_beta   90.00000000
_cell_angle_gamma   119.70415748
_symmetry_Int_Tables_number   1
_chemical_formula_structural   Y2Ga9Os2Pd
_chemical_formula_sum   'Y4 Ga18 Os4 Pd2'
_cell_volume   481.60129103
_cell_formula_units_Z   2
loop_
 _symmetry_equiv_pos_site_id
 _symmetry_equiv_pos_as_xyz
  1  'x, y, z'
loop_
 _atom_site_type_symbol
 _atom_site_label
 _atom_site_symmetry_multiplicity
 _atom_site_fract_x
 _atom_site_fract_y
 _atom_site_fract_z
 _atom_site_occupancy
  Y  Y0  1  0.996701  0.668357  0.250000  1
  Y  Y1  1  0.003299  0.331643  0.750000  1
  Y  Y2  1  0.668357  0.996701  0.250000  1
  Y  Y3  1  0.331643  0.003299  0.750000  1
  Ga  Ga4  1  0.131620  0.131620  0.250000  1
  Ga  Ga5  1  0.868380  0.868380  0.750000  1
  Ga  Ga6  1  0.000970  0.339333  0.077383  1
  Ga  Ga7  1  0.999030  0.660667  0.922617  1
  Ga  Ga8  1  0.999030  0.660667  0.577383  1
  Ga  Ga9  1  0.339333  0.000970  0.422617  1
  Ga  Ga10  1  0.000970  0.339333  0.422617  1
  Ga  Ga11  1  0.660667  0.999030  0.577383  1
  Ga  Ga12  1  0.660667  0.999030  0.922617  1
  Ga  Ga13  1  0.339333  0.000970  0.077383  1
  Ga  Ga14  1  0.339665  0.339665  0.564141  1
  Ga  Ga15  1  0.660335  0.660335  0.435859  1
  Ga  Ga16  1  0.660335  0.660335  0.064141  1
  Ga  Ga17  1  0.339665  0.339665  0.935859  1
  Ga  Ga18  1  0.334539  0.546815  0.250000  1
  Ga  Ga19  1  0.665461  0.453185  0.750000  1
  Ga  Ga20  1  0.546815  0.334539  0.250000  1
  Ga  Ga21  1  0.453185  0.665461  0.750000  1
  Os  Os22  1  0.672379  0.327621  0.000000  1
  Os  Os23  1  0.327621  0.672379  0.000000  1
  Os  Os24  1  0.327621  0.672379  0.500000  1
  Os  Os25  1  0.672379  0.327621  0.500000  1
  Pd  Pd26  1  0.000000  0.000000  0.000000  1
  Pd  Pd27  1  0.000000  0.000000  0.500000  1
