# generated using pymatgen
data_Tb3Er9Co5Sb
_symmetry_space_group_name_H-M   'P 1'
_cell_length_a   8.22856328
_cell_length_b   8.22856251
_cell_length_c   8.22107107
_cell_angle_alpha   110.83730685
_cell_angle_beta   110.67721283
_cell_angle_gamma   106.96735814
_symmetry_Int_Tables_number   1
_chemical_formula_structural   Tb3Er9Co5Sb
_chemical_formula_sum   'Tb3 Er9 Co5 Sb1'
_cell_volume   427.67850314
_cell_formula_units_Z   1
loop_
 _symmetry_equiv_pos_site_id
 _symmetry_equiv_pos_as_xyz
  1  'x, y, z'
loop_
 _atom_site_type_symbol
 _atom_site_label
 _atom_site_symmetry_multiplicity
 _atom_site_fract_x
 _atom_site_fract_y
 _atom_site_fract_z
 _atom_site_occupancy
  Tb  Tb0  1  0.288797  0.185660  0.474456  1
  Tb  Tb1  1  0.712414  0.815540  0.527955  1
  Tb  Tb2  1  0.288592  0.814270  0.102862  1
  Er  Er3  1  0.712032  0.184789  0.896821  1
  Er  Er4  1  0.622374  0.313116  0.308235  1
  Er  Er5  1  0.378115  0.687313  0.691029  1
  Er  Er6  1  0.003718  0.312915  0.691029  1
  Er  Er7  1  0.995118  0.685860  0.308235  1
  Er  Er8  1  0.208746  0.402410  0.192432  1
  Er  Er9  1  0.790014  0.595704  0.806671  1
  Er  Er10  1  0.210968  0.016657  0.806671  1
  Er  Er11  1  0.790021  0.983686  0.192432  1
  Co  Co12  1  0.998534  0.373828  0.372362  1
  Co  Co13  1  0.000130  0.626018  0.626149  1
  Co  Co14  1  0.388128  0.888508  0.501994  1
  Co  Co15  1  0.613486  0.113866  0.501994  1
  Co  Co16  1  0.998870  0.999710  0.998580  1
  Sb  Sb17  1  0.499943  0.500151  0.000094  1
