# generated using pymatgen
data_RbCo(SnSe3)2
_symmetry_space_group_name_H-M   'P 1'
_cell_length_a   9.57199503
_cell_length_b   9.57199310
_cell_length_c   9.57199400
_cell_angle_alpha   39.62798921
_cell_angle_beta   39.62799373
_cell_angle_gamma   39.62799342
_symmetry_Int_Tables_number   1
_chemical_formula_structural   RbCo(SnSe3)2
_chemical_formula_sum   'Rb1 Co1 Sn2 Se6'
_cell_volume   321.22205352
_cell_formula_units_Z   1
loop_
 _symmetry_equiv_pos_site_id
 _symmetry_equiv_pos_as_xyz
  1  'x, y, z'
loop_
 _atom_site_type_symbol
 _atom_site_label
 _atom_site_symmetry_multiplicity
 _atom_site_fract_x
 _atom_site_fract_y
 _atom_site_fract_z
 _atom_site_occupancy
  Rb  Rb0  1  0.997390  0.997390  0.997390  1
  Co  Co1  1  0.166985  0.166985  0.166985  1
  Sn  Sn2  1  0.500873  0.500873  0.500873  1
  Sn  Sn3  1  0.832632  0.832632  0.832632  1
  Se  Se4  1  0.520284  0.221383  0.926140  1
  Se  Se5  1  0.926140  0.520284  0.221383  1
  Se  Se6  1  0.221383  0.926140  0.520284  1
  Se  Se7  1  0.813507  0.113696  0.407112  1
  Se  Se8  1  0.113696  0.407112  0.813507  1
  Se  Se9  1  0.407112  0.813507  0.113696  1
