# generated using pymatgen
data_TbGd3(TcB4)4
_symmetry_space_group_name_H-M   'P 1'
_cell_length_a   3.62180700
_cell_length_b   5.98960327
_cell_length_c   11.59880007
_cell_angle_alpha   90.01097246
_cell_angle_beta   90.00003754
_cell_angle_gamma   89.99996946
_symmetry_Int_Tables_number   1
_chemical_formula_structural   TbGd3(TcB4)4
_chemical_formula_sum   'Tb1 Gd3 Tc4 B16'
_cell_volume   251.61493499
_cell_formula_units_Z   1
loop_
 _symmetry_equiv_pos_site_id
 _symmetry_equiv_pos_as_xyz
  1  'x, y, z'
loop_
 _atom_site_type_symbol
 _atom_site_label
 _atom_site_symmetry_multiplicity
 _atom_site_fract_x
 _atom_site_fract_y
 _atom_site_fract_z
 _atom_site_occupancy
  Tb  Tb0  1  0.000000  0.626397  0.349738  1
  Gd  Gd1  1  0.000000  0.373268  0.650224  1
  Gd  Gd2  1  0.000000  0.126720  0.150434  1
  Gd  Gd3  1  0.000000  0.873174  0.849689  1
  Tc  Tc4  1  0.000000  0.632159  0.087372  1
  Tc  Tc5  1  0.000000  0.367953  0.913023  1
  Tc  Tc6  1  0.000000  0.132335  0.412838  1
  Tc  Tc7  1  0.000000  0.867627  0.586811  1
  B  B8  1  0.500000  0.786254  0.184751  1
  B  B9  1  0.500000  0.213895  0.815440  1
  B  B10  1  0.500000  0.286167  0.315421  1
  B  B11  1  0.500000  0.713859  0.684399  1
  B  B12  1  0.500000  0.863380  0.031771  1
  B  B13  1  0.500000  0.136724  0.968409  1
  B  B14  1  0.500000  0.363325  0.468246  1
  B  B15  1  0.500000  0.636611  0.531439  1
  B  B16  1  0.500000  0.886998  0.452942  1
  B  B17  1  0.500000  0.112875  0.546792  1
  B  B18  1  0.500000  0.387285  0.046998  1
  B  B19  1  0.500000  0.612979  0.953195  1
  B  B20  1  0.500000  0.977024  0.308216  1
  B  B21  1  0.500000  0.022867  0.691608  1
  B  B22  1  0.500000  0.477064  0.191967  1
  B  B23  1  0.500000  0.523060  0.808274  1
