# generated using pymatgen
data_Dy6Er9Th(HgPt)4
_symmetry_space_group_name_H-M   'P 1'
_cell_length_a   9.63294752
_cell_length_b   9.63294712
_cell_length_c   9.63294600
_cell_angle_alpha   60.35011178
_cell_angle_beta   60.35011311
_cell_angle_gamma   60.35010858
_symmetry_Int_Tables_number   1
_chemical_formula_structural   Dy6Er9Th(HgPt)4
_chemical_formula_sum   'Dy6 Er9 Th1 Hg4 Pt4'
_cell_volume   637.07217912
_cell_formula_units_Z   1
loop_
 _symmetry_equiv_pos_site_id
 _symmetry_equiv_pos_as_xyz
  1  'x, y, z'
loop_
 _atom_site_type_symbol
 _atom_site_label
 _atom_site_symmetry_multiplicity
 _atom_site_fract_x
 _atom_site_fract_y
 _atom_site_fract_z
 _atom_site_occupancy
  Dy  Dy0  1  0.936394  0.565583  0.565583  1
  Dy  Dy1  1  0.563002  0.938097  0.938097  1
  Dy  Dy2  1  0.565583  0.936394  0.565583  1
  Dy  Dy3  1  0.938097  0.563001  0.938097  1
  Dy  Dy4  1  0.565583  0.565583  0.936394  1
  Dy  Dy5  1  0.938097  0.938097  0.563001  1
  Er  Er6  1  0.356278  0.356278  0.932313  1
  Er  Er7  1  0.356278  0.932313  0.356278  1
  Er  Er8  1  0.932313  0.356278  0.356278  1
  Er  Er9  1  0.814280  0.187480  0.187480  1
  Er  Er10  1  0.190220  0.811338  0.811338  1
  Er  Er11  1  0.187480  0.814280  0.187480  1
  Er  Er12  1  0.811338  0.190220  0.811338  1
  Er  Er13  1  0.187480  0.187480  0.814280  1
  Er  Er14  1  0.811338  0.811338  0.190220  1
  Th  Th15  1  0.351254  0.351254  0.351254  1
  Hg  Hg16  1  0.586244  0.586244  0.586244  1
  Hg  Hg17  1  0.587338  0.587338  0.239511  1
  Hg  Hg18  1  0.587338  0.239511  0.587338  1
  Hg  Hg19  1  0.239511  0.587338  0.587338  1
  Pt  Pt20  1  0.144969  0.144969  0.144969  1
  Pt  Pt21  1  0.140161  0.140161  0.569263  1
  Pt  Pt22  1  0.140161  0.569263  0.140161  1
  Pt  Pt23  1  0.569263  0.140161  0.140161  1
