# generated using pymatgen
data_CaSm4Zr3(Co4As3)4
_symmetry_space_group_name_H-M   'P 1'
_cell_length_a   12.79880800
_cell_length_b   12.79880638
_cell_length_c   3.86837100
_cell_angle_alpha   90.00000000
_cell_angle_beta   90.00000000
_cell_angle_gamma   120.00000418
_symmetry_Int_Tables_number   1
_chemical_formula_structural   CaSm4Zr3(Co4As3)4
_chemical_formula_sum   'Ca1 Sm4 Zr3 Co16 As12'
_cell_volume   548.77930535
_cell_formula_units_Z   1
loop_
 _symmetry_equiv_pos_site_id
 _symmetry_equiv_pos_as_xyz
  1  'x, y, z'
loop_
 _atom_site_type_symbol
 _atom_site_label
 _atom_site_symmetry_multiplicity
 _atom_site_fract_x
 _atom_site_fract_y
 _atom_site_fract_z
 _atom_site_occupancy
  Ca  Ca0  1  0.333333  0.666667  0.000000  1
  Sm  Sm1  1  0.183888  0.183679  0.500000  1
  Sm  Sm2  1  0.816321  0.000209  0.500000  1
  Sm  Sm3  1  0.999791  0.816112  0.500000  1
  Sm  Sm4  1  0.666667  0.333333  0.000000  1
  Zr  Zr5  1  0.563078  0.563129  0.000000  1
  Zr  Zr6  1  0.436871  0.999949  0.000000  1
  Zr  Zr7  1  0.000051  0.436922  0.000000  1
  Co  Co8  1  0.719063  0.719535  0.500000  1
  Co  Co9  1  0.280465  0.999529  0.500000  1
  Co  Co10  1  0.000471  0.280937  0.500000  1
  Co  Co11  1  0.177825  0.374169  0.000000  1
  Co  Co12  1  0.625831  0.803656  0.000000  1
  Co  Co13  1  0.196344  0.822175  0.000000  1
  Co  Co14  1  0.803836  0.625536  0.000000  1
  Co  Co15  1  0.821700  0.196164  0.000000  1
  Co  Co16  1  0.374464  0.178300  0.000000  1
  Co  Co17  1  0.357316  0.478062  0.500000  1
  Co  Co18  1  0.521938  0.879254  0.500000  1
  Co  Co19  1  0.120746  0.642684  0.500000  1
  Co  Co20  1  0.878037  0.520293  0.500000  1
  Co  Co21  1  0.642258  0.121963  0.500000  1
  Co  Co22  1  0.479707  0.357742  0.500000  1
  Co  Co23  1  0.000000  0.000000  0.000000  1
  As  As24  1  0.821081  0.821008  0.000000  1
  As  As25  1  0.178992  0.000073  0.000000  1
  As  As26  1  0.999927  0.178919  0.000000  1
  As  As27  1  0.174083  0.481706  0.500000  1
  As  As28  1  0.518294  0.692378  0.500000  1
  As  As29  1  0.307622  0.825917  0.500000  1
  As  As30  1  0.692833  0.520327  0.500000  1
  As  As31  1  0.827495  0.307167  0.500000  1
  As  As32  1  0.479673  0.172505  0.500000  1
  As  As33  1  0.355029  0.355232  0.000000  1
  As  As34  1  0.644768  0.999798  0.000000  1
  As  As35  1  0.000202  0.644971  0.000000  1
