# generated using pymatgen
data_CsThH9
_symmetry_space_group_name_H-M   'P 1'
_cell_length_a   6.47519201
_cell_length_b   6.47524381
_cell_length_c   12.58835302
_cell_angle_alpha   90.00077817
_cell_angle_beta   90.00481882
_cell_angle_gamma   120.00018812
_symmetry_Int_Tables_number   1
_chemical_formula_structural   CsThH9
_chemical_formula_sum   'Cs3 Th3 H27'
_cell_volume   457.09607859
_cell_formula_units_Z   3
loop_
 _symmetry_equiv_pos_site_id
 _symmetry_equiv_pos_as_xyz
  1  'x, y, z'
loop_
 _atom_site_type_symbol
 _atom_site_label
 _atom_site_symmetry_multiplicity
 _atom_site_fract_x
 _atom_site_fract_y
 _atom_site_fract_z
 _atom_site_occupancy
  Cs  Cs0  1  0.666714  0.333360  0.377149  1
  Cs  Cs1  1  0.333353  0.666679  0.309709  1
  Cs  Cs2  1  0.999951  0.999983  0.818622  1
  Th  Th3  1  0.666651  0.333335  0.046016  1
  Th  Th4  1  0.333305  0.666654  0.995397  1
  Th  Th5  1  0.000020  0.000011  0.164243  1
  H  H6  1  0.283682  0.999635  0.009503  1
  H  H7  1  0.715926  0.716292  0.009507  1
  H  H8  1  0.000333  0.284047  0.009508  1
  H  H9  1  0.884209  0.287388  0.178516  1
  H  H10  1  0.403194  0.115806  0.178513  1
  H  H11  1  0.712626  0.596817  0.178511  1
  H  H12  1  0.467028  0.981449  0.741163  1
  H  H13  1  0.514396  0.532992  0.741138  1
  H  H14  1  0.018595  0.485574  0.741103  1
  H  H15  1  0.054256  0.473698  0.684910  1
  H  H16  1  0.419546  0.945842  0.684973  1
  H  H17  1  0.526277  0.580511  0.684942  1
  H  H18  1  0.010827  0.803212  0.303423  1
  H  H19  1  0.792414  0.989204  0.303420  1
  H  H20  1  0.196835  0.207618  0.303423  1
  H  H21  1  0.443690  0.425035  0.904010  1
  H  H22  1  0.981272  0.556236  0.904004  1
  H  H23  1  0.574908  0.018660  0.904011  1
  H  H24  1  0.038989  0.657874  0.096183  1
  H  H25  1  0.618876  0.961003  0.096180  1
  H  H26  1  0.342117  0.381108  0.096177  1
  H  H27  1  0.188258  0.322024  0.525228  1
  H  H28  1  0.133757  0.811723  0.525232  1
  H  H29  1  0.677971  0.866232  0.525235  1
  H  H30  1  0.098853  0.837492  0.471017  1
  H  H31  1  0.738661  0.901156  0.471030  1
  H  H32  1  0.162509  0.261353  0.471017  1
