# generated using pymatgen
data_KY10(C2Br9)2
_symmetry_space_group_name_H-M   'P 1'
_cell_length_a   10.69345434
_cell_length_b   10.77410878
_cell_length_c   10.91001615
_cell_angle_alpha   113.53166614
_cell_angle_beta   87.52417647
_cell_angle_gamma   118.87377293
_symmetry_Int_Tables_number   1
_chemical_formula_structural   KY10(C2Br9)2
_chemical_formula_sum   'K1 Y10 C4 Br18'
_cell_volume   991.50171174
_cell_formula_units_Z   1
loop_
 _symmetry_equiv_pos_site_id
 _symmetry_equiv_pos_as_xyz
  1  'x, y, z'
loop_
 _atom_site_type_symbol
 _atom_site_label
 _atom_site_symmetry_multiplicity
 _atom_site_fract_x
 _atom_site_fract_y
 _atom_site_fract_z
 _atom_site_occupancy
  K  K0  1  0.500000  0.000000  0.500000  1
  Y  Y1  1  0.660789  0.716191  0.701840  1
  Y  Y2  1  0.282355  0.366736  0.013592  1
  Y  Y3  1  0.093848  0.408772  0.302489  1
  Y  Y4  1  0.960522  0.037544  0.333913  1
  Y  Y5  1  0.906152  0.591228  0.697511  1
  Y  Y6  1  0.112197  0.941687  0.001067  1
  Y  Y7  1  0.039478  0.962456  0.666087  1
  Y  Y8  1  0.339211  0.283809  0.298160  1
  Y  Y9  1  0.717645  0.633264  0.986408  1
  Y  Y10  1  0.887803  0.058313  0.998933  1
  C  C11  1  0.157241  0.228719  0.124436  1
  C  C12  1  0.842759  0.771281  0.875564  1
  C  C13  1  0.921161  0.850272  0.795423  1
  C  C14  1  0.078839  0.149728  0.204577  1
  Br  Br15  1  0.449299  0.529424  0.833992  1
  Br  Br16  1  0.383442  0.038043  0.160364  1
  Br  Br17  1  0.776781  0.861535  0.501973  1
  Br  Br18  1  0.837654  0.311415  0.154046  1
  Br  Br19  1  0.550701  0.470576  0.166008  1
  Br  Br20  1  0.223219  0.138465  0.498027  1
  Br  Br21  1  0.316092  0.101175  0.827348  1
  Br  Br22  1  0.683908  0.898825  0.172652  1
  Br  Br23  1  0.973754  0.759882  0.173562  1
  Br  Br24  1  0.930411  0.302388  0.501154  1
  Br  Br25  1  0.026246  0.240118  0.826438  1
  Br  Br26  1  0.069589  0.697612  0.498846  1
  Br  Br27  1  0.265501  0.630251  0.194310  1
  Br  Br28  1  0.734499  0.369749  0.805690  1
  Br  Br29  1  0.636677  0.431317  0.498347  1
  Br  Br30  1  0.162346  0.688585  0.845954  1
  Br  Br31  1  0.616558  0.961957  0.839636  1
  Br  Br32  1  0.363323  0.568683  0.501653  1
