# generated using pymatgen
data_Yb7Dy10(ZrIr4)3
_symmetry_space_group_name_H-M   'P 1'
_cell_length_a   10.88521226
_cell_length_b   10.86244334
_cell_length_c   6.27807310
_cell_angle_alpha   90.09029129
_cell_angle_beta   89.97702830
_cell_angle_gamma   89.99183125
_symmetry_Int_Tables_number   1
_chemical_formula_structural   Yb7Dy10(ZrIr4)3
_chemical_formula_sum   'Yb7 Dy10 Zr3 Ir12'
_cell_volume   742.31838352
_cell_formula_units_Z   1
loop_
 _symmetry_equiv_pos_site_id
 _symmetry_equiv_pos_as_xyz
  1  'x, y, z'
loop_
 _atom_site_type_symbol
 _atom_site_label
 _atom_site_symmetry_multiplicity
 _atom_site_fract_x
 _atom_site_fract_y
 _atom_site_fract_z
 _atom_site_occupancy
  Yb  Yb0  1  0.291779  0.084271  0.372761  1
  Yb  Yb1  1  0.292328  0.914266  0.872342  1
  Yb  Yb2  1  0.709784  0.081626  0.872220  1
  Yb  Yb3  1  0.707634  0.917846  0.372834  1
  Yb  Yb4  1  0.583442  0.795307  0.872219  1
  Yb  Yb5  1  0.584683  0.207307  0.371958  1
  Yb  Yb6  1  0.415028  0.794451  0.371487  1
  Dy  Dy7  1  0.418084  0.202991  0.876109  1
  Dy  Dy8  1  0.211474  0.414764  0.633559  1
  Dy  Dy9  1  0.210024  0.585720  0.129901  1
  Dy  Dy10  1  0.789316  0.414057  0.130460  1
  Dy  Dy11  1  0.788396  0.584911  0.632524  1
  Dy  Dy12  1  0.914369  0.713500  0.132440  1
  Dy  Dy13  1  0.915283  0.287404  0.631965  1
  Dy  Dy14  1  0.084564  0.712010  0.632413  1
  Dy  Dy15  1  0.085259  0.286762  0.129730  1
  Dy  Dy16  1  0.499891  0.499267  0.492915  1
  Zr  Zr17  1  0.000878  0.999964  0.494666  1
  Zr  Zr18  1  0.001161  0.999468  0.993967  1
  Zr  Zr19  1  0.499823  0.501446  0.993275  1
  Ir  Ir20  1  0.865423  0.146663  0.247895  1
  Ir  Ir21  1  0.865554  0.851486  0.744739  1
  Ir  Ir22  1  0.138541  0.148514  0.749002  1
  Ir  Ir23  1  0.135732  0.852152  0.247523  1
  Ir  Ir24  1  0.647328  0.356157  0.763026  1
  Ir  Ir25  1  0.655890  0.638745  0.235642  1
  Ir  Ir26  1  0.344594  0.361112  0.227595  1
  Ir  Ir27  1  0.347512  0.640935  0.757036  1
  Ir  Ir28  1  0.498776  0.003521  0.124317  1
  Ir  Ir29  1  0.498837  0.003421  0.621659  1
  Ir  Ir30  1  0.999116  0.500043  0.885110  1
  Ir  Ir31  1  0.999497  0.499915  0.386710  1
