# generated using pymatgen
data_Y(PaGa2)5
_symmetry_space_group_name_H-M   'P 1'
_cell_length_a   6.05168435
_cell_length_b   6.05168600
_cell_length_c   9.45848800
_cell_angle_alpha   90.00000000
_cell_angle_beta   90.00000000
_cell_angle_gamma   102.59125256
_symmetry_Int_Tables_number   1
_chemical_formula_structural   Y(PaGa2)5
_chemical_formula_sum   'Y1 Pa5 Ga10'
_cell_volume   338.06636479
_cell_formula_units_Z   1
loop_
 _symmetry_equiv_pos_site_id
 _symmetry_equiv_pos_as_xyz
  1  'x, y, z'
loop_
 _atom_site_type_symbol
 _atom_site_label
 _atom_site_symmetry_multiplicity
 _atom_site_fract_x
 _atom_site_fract_y
 _atom_site_fract_z
 _atom_site_occupancy
  Y  Y0  1  0.357064  0.357064  0.750000  1
  Pa  Pa1  1  0.794714  0.205334  0.002015  1
  Pa  Pa2  1  0.205334  0.794714  0.002015  1
  Pa  Pa3  1  0.205334  0.794714  0.497985  1
  Pa  Pa4  1  0.794714  0.205334  0.497985  1
  Pa  Pa5  1  0.641804  0.641804  0.250000  1
  Ga  Ga6  1  0.082131  0.485301  0.250000  1
  Ga  Ga7  1  0.921655  0.511401  0.750000  1
  Ga  Ga8  1  0.485301  0.082131  0.250000  1
  Ga  Ga9  1  0.511401  0.921655  0.750000  1
  Ga  Ga10  1  0.028283  0.028283  0.250000  1
  Ga  Ga11  1  0.971065  0.971065  0.750000  1
  Ga  Ga12  1  0.308979  0.308979  0.052805  1
  Ga  Ga13  1  0.691621  0.691621  0.944302  1
  Ga  Ga14  1  0.691621  0.691621  0.555698  1
  Ga  Ga15  1  0.308979  0.308979  0.447195  1
