# generated using pymatgen
data_Tb2Co2B4Ir3
_symmetry_space_group_name_H-M   'P 1'
_cell_length_a   7.39286720
_cell_length_b   6.20714719
_cell_length_c   5.42205800
_cell_angle_alpha   78.63476511
_cell_angle_beta   55.40198096
_cell_angle_gamma   46.85245202
_symmetry_Int_Tables_number   1
_chemical_formula_structural   Tb2Co2B4Ir3
_chemical_formula_sum   'Tb2 Co2 B4 Ir3'
_cell_volume   141.64883907
_cell_formula_units_Z   1
loop_
 _symmetry_equiv_pos_site_id
 _symmetry_equiv_pos_as_xyz
  1  'x, y, z'
loop_
 _atom_site_type_symbol
 _atom_site_label
 _atom_site_symmetry_multiplicity
 _atom_site_fract_x
 _atom_site_fract_y
 _atom_site_fract_z
 _atom_site_occupancy
  Tb  Tb0  1  0.641501  0.641736  0.358205  1
  Tb  Tb1  1  0.357039  0.356543  0.643155  1
  Co  Co2  1  0.251859  0.252217  0.247938  1
  Co  Co3  1  0.998034  0.998157  0.502006  1
  B  B4  1  0.273099  0.994653  0.048688  1
  B  B5  1  0.031724  0.700453  0.282757  1
  B  B6  1  0.994769  0.273045  0.683440  1
  B  B7  1  0.700418  0.031699  0.985164  1
  Ir  Ir8  1  0.001799  0.001960  0.998241  1
  Ir  Ir9  1  0.499477  0.499491  0.000538  1
  Ir  Ir10  1  0.750285  0.750043  0.749864  1
