# generated using pymatgen
data_Mg2V(Ni10B3)2
_symmetry_space_group_name_H-M   'P 1'
_cell_length_a   7.44114423
_cell_length_b   7.44114423
_cell_length_c   7.44114400
_cell_angle_alpha   60.00000101
_cell_angle_beta   60.00000101
_cell_angle_gamma   60.00000324
_symmetry_Int_Tables_number   1
_chemical_formula_structural   Mg2V(Ni10B3)2
_chemical_formula_sum   'Mg2 V1 Ni20 B6'
_cell_volume   291.34272174
_cell_formula_units_Z   1
loop_
 _symmetry_equiv_pos_site_id
 _symmetry_equiv_pos_as_xyz
  1  'x, y, z'
loop_
 _atom_site_type_symbol
 _atom_site_label
 _atom_site_symmetry_multiplicity
 _atom_site_fract_x
 _atom_site_fract_y
 _atom_site_fract_z
 _atom_site_occupancy
  Mg  Mg0  1  0.750000  0.750000  0.750000  1
  Mg  Mg1  1  0.250000  0.250000  0.250000  1
  V  V2  1  0.000000  0.000000  0.000000  1
  Ni  Ni3  1  0.615007  0.615007  0.154978  1
  Ni  Ni4  1  0.615007  0.154978  0.615007  1
  Ni  Ni5  1  0.154978  0.615007  0.615007  1
  Ni  Ni6  1  0.615007  0.615007  0.615007  1
  Ni  Ni7  1  0.384993  0.384993  0.845022  1
  Ni  Ni8  1  0.384993  0.845022  0.384993  1
  Ni  Ni9  1  0.845022  0.384993  0.384993  1
  Ni  Ni10  1  0.384993  0.384993  0.384993  1
  Ni  Ni11  1  0.000000  0.000000  0.337066  1
  Ni  Ni12  1  0.662934  0.000000  0.337066  1
  Ni  Ni13  1  0.000000  0.662934  0.337066  1
  Ni  Ni14  1  0.662934  0.337066  0.000000  1
  Ni  Ni15  1  0.000000  0.337066  0.000000  1
  Ni  Ni16  1  0.000000  0.337066  0.662934  1
  Ni  Ni17  1  0.337066  0.662934  0.000000  1
  Ni  Ni18  1  0.337066  0.000000  0.662934  1
  Ni  Ni19  1  0.337066  0.000000  0.000000  1
  Ni  Ni20  1  0.000000  0.000000  0.662934  1
  Ni  Ni21  1  0.000000  0.662934  0.000000  1
  Ni  Ni22  1  0.662934  0.000000  0.000000  1
  B  B23  1  0.728169  0.728169  0.271831  1
  B  B24  1  0.271831  0.728169  0.271831  1
  B  B25  1  0.728169  0.271831  0.271831  1
  B  B26  1  0.271831  0.271831  0.728169  1
  B  B27  1  0.728169  0.271831  0.728169  1
  B  B28  1  0.271831  0.728169  0.728169  1
