# generated using pymatgen
data_Ho2PaFeCo
_symmetry_space_group_name_H-M   'P 1'
_cell_length_a   3.61119656
_cell_length_b   5.92298855
_cell_length_c   5.92298742
_cell_angle_alpha   60.42262750
_cell_angle_beta   72.25109633
_cell_angle_gamma   72.25110449
_symmetry_Int_Tables_number   1
_chemical_formula_structural   Ho2PaFeCo
_chemical_formula_sum   'Ho2 Pa1 Fe1 Co1'
_cell_volume   103.09567153
_cell_formula_units_Z   1
loop_
 _symmetry_equiv_pos_site_id
 _symmetry_equiv_pos_as_xyz
  1  'x, y, z'
loop_
 _atom_site_type_symbol
 _atom_site_label
 _atom_site_symmetry_multiplicity
 _atom_site_fract_x
 _atom_site_fract_y
 _atom_site_fract_z
 _atom_site_occupancy
  Ho  Ho0  1  0.193471  0.310214  0.302844  1
  Ho  Ho1  1  0.806529  0.697156  0.689786  1
  Pa  Pa2  1  0.000000  0.009638  0.990362  1
  Fe  Fe3  1  0.500000  0.280941  0.719059  1
  Co  Co4  1  0.500000  0.702052  0.297948  1
