# generated using pymatgen
data_Pr6Nd4Sn5Bi
_symmetry_space_group_name_H-M   'P 1'
_cell_length_a   6.81453600
_cell_length_b   9.41158024
_cell_length_c   9.39933300
_cell_angle_alpha   119.96138184
_cell_angle_beta   89.99999853
_cell_angle_gamma   90.00031623
_symmetry_Int_Tables_number   1
_chemical_formula_structural   Pr6Nd4Sn5Bi
_chemical_formula_sum   'Pr6 Nd4 Sn5 Bi1'
_cell_volume   522.27035845
_cell_formula_units_Z   1
loop_
 _symmetry_equiv_pos_site_id
 _symmetry_equiv_pos_as_xyz
  1  'x, y, z'
loop_
 _atom_site_type_symbol
 _atom_site_label
 _atom_site_symmetry_multiplicity
 _atom_site_fract_x
 _atom_site_fract_y
 _atom_site_fract_z
 _atom_site_occupancy
  Pr  Pr0  1  0.750000  0.241923  0.000100  1
  Pr  Pr1  1  0.750002  0.758189  0.758262  1
  Pr  Pr2  1  0.750001  0.000062  0.240990  1
  Pr  Pr3  1  0.250001  0.753800  0.994167  1
  Pr  Pr4  1  0.250002  0.246073  0.240296  1
  Pr  Pr5  1  0.250003  0.999944  0.761848  1
  Nd  Nd6  1  0.501893  0.337542  0.670300  1
  Nd  Nd7  1  0.501896  0.662461  0.332728  1
  Nd  Nd8  1  0.998102  0.662458  0.332728  1
  Nd  Nd9  1  0.998103  0.337540  0.670300  1
  Sn  Sn10  1  0.749999  0.607913  0.001533  1
  Sn  Sn11  1  0.750000  0.392241  0.393739  1
  Sn  Sn12  1  0.749999  0.000012  0.606368  1
  Sn  Sn13  1  0.249998  0.393722  0.999382  1
  Sn  Sn14  1  0.250000  0.606133  0.605560  1
  Bi  Bi15  1  0.249998  0.999988  0.391700  1
