# generated using pymatgen
data_Y2Mn3Co9As7
_symmetry_space_group_name_H-M   'P 1'
_cell_length_a   3.74069900
_cell_length_b   9.46325901
_cell_length_c   9.46325900
_cell_angle_alpha   119.99999646
_cell_angle_beta   90.00000000
_cell_angle_gamma   90.00000000
_symmetry_Int_Tables_number   1
_chemical_formula_structural   Y2Mn3Co9As7
_chemical_formula_sum   'Y2 Mn3 Co9 As7'
_cell_volume   290.11144637
_cell_formula_units_Z   1
loop_
 _symmetry_equiv_pos_site_id
 _symmetry_equiv_pos_as_xyz
  1  'x, y, z'
loop_
 _atom_site_type_symbol
 _atom_site_label
 _atom_site_symmetry_multiplicity
 _atom_site_fract_x
 _atom_site_fract_y
 _atom_site_fract_z
 _atom_site_occupancy
  Y  Y0  1  0.000000  0.666667  0.333333  1
  Y  Y1  1  0.500000  0.333333  0.666667  1
  Mn  Mn2  1  0.500000  0.777808  0.895382  1
  Mn  Mn3  1  0.500000  0.117574  0.222192  1
  Mn  Mn4  1  0.500000  0.104618  0.882426  1
  Co  Co5  1  0.000000  0.570868  0.940852  1
  Co  Co6  1  0.000000  0.369984  0.429132  1
  Co  Co7  1  0.000000  0.059148  0.630016  1
  Co  Co8  1  0.000000  0.881468  0.158495  1
  Co  Co9  1  0.000000  0.277027  0.118532  1
  Co  Co10  1  0.000000  0.841505  0.722973  1
  Co  Co11  1  0.500000  0.949446  0.384612  1
  Co  Co12  1  0.500000  0.435165  0.050554  1
  Co  Co13  1  0.500000  0.615388  0.564835  1
  As  As14  1  0.000000  0.000000  0.000000  1
  As  As15  1  0.500000  0.709582  0.118629  1
  As  As16  1  0.500000  0.409048  0.290418  1
  As  As17  1  0.500000  0.881371  0.590952  1
  As  As18  1  0.000000  0.585330  0.699648  1
  As  As19  1  0.000000  0.114318  0.414670  1
  As  As20  1  0.000000  0.300352  0.885682  1
