# generated using pymatgen
data_Hf4Zr12Pd5Rh3N4
_symmetry_space_group_name_H-M   'P 1'
_cell_length_a   8.82966580
_cell_length_b   8.82985874
_cell_length_c   8.82985800
_cell_angle_alpha   60.00000278
_cell_angle_beta   59.99927992
_cell_angle_gamma   59.99927309
_symmetry_Int_Tables_number   1
_chemical_formula_structural   Hf4Zr12Pd5Rh3N4
_chemical_formula_sum   'Hf4 Zr12 Pd5 Rh3 N4'
_cell_volume   486.77918922
_cell_formula_units_Z   1
loop_
 _symmetry_equiv_pos_site_id
 _symmetry_equiv_pos_as_xyz
  1  'x, y, z'
loop_
 _atom_site_type_symbol
 _atom_site_label
 _atom_site_symmetry_multiplicity
 _atom_site_fract_x
 _atom_site_fract_y
 _atom_site_fract_z
 _atom_site_occupancy
  Hf  Hf0  1  0.106157  0.631281  0.631281  1
  Hf  Hf1  1  0.631744  0.113249  0.627504  1
  Hf  Hf2  1  0.631744  0.627504  0.113249  1
  Hf  Hf3  1  0.631744  0.627504  0.627504  1
  Zr  Zr4  1  0.817442  0.817505  0.182527  1
  Zr  Zr5  1  0.179761  0.184610  0.817815  1
  Zr  Zr6  1  0.817442  0.182527  0.817505  1
  Zr  Zr7  1  0.179761  0.817815  0.184610  1
  Zr  Zr8  1  0.179761  0.817815  0.817815  1
  Zr  Zr9  1  0.817442  0.182527  0.182527  1
  Zr  Zr10  1  0.432149  0.431719  0.068066  1
  Zr  Zr11  1  0.068343  0.067595  0.432031  1
  Zr  Zr12  1  0.432149  0.068066  0.431719  1
  Zr  Zr13  1  0.068343  0.432031  0.067595  1
  Zr  Zr14  1  0.068343  0.432031  0.432031  1
  Zr  Zr15  1  0.432149  0.068066  0.068066  1
  Pd  Pd16  1  0.761238  0.412920  0.412920  1
  Pd  Pd17  1  0.412638  0.759928  0.413716  1
  Pd  Pd18  1  0.412638  0.413716  0.759928  1
  Pd  Pd19  1  0.412638  0.413716  0.413716  1
  Pd  Pd20  1  0.477636  0.840788  0.840788  1
  Rh  Rh21  1  0.842336  0.469400  0.844132  1
  Rh  Rh22  1  0.842336  0.844132  0.469400  1
  Rh  Rh23  1  0.842336  0.844132  0.844132  1
  N  N24  1  0.624564  0.125145  0.125145  1
  N  N25  1  0.125722  0.624411  0.124933  1
  N  N26  1  0.125722  0.124933  0.624411  1
  N  N27  1  0.125722  0.124933  0.124933  1
