# generated using pymatgen
data_Yb4Al6OsPt
_symmetry_space_group_name_H-M   'P 1'
_cell_length_a   5.53290800
_cell_length_b   5.53290897
_cell_length_c   8.79810300
_cell_angle_alpha   90.00000000
_cell_angle_beta   90.00000000
_cell_angle_gamma   119.99999423
_symmetry_Int_Tables_number   1
_chemical_formula_structural   Yb4Al6OsPt
_chemical_formula_sum   'Yb4 Al6 Os1 Pt1'
_cell_volume   233.25269624
_cell_formula_units_Z   1
loop_
 _symmetry_equiv_pos_site_id
 _symmetry_equiv_pos_as_xyz
  1  'x, y, z'
loop_
 _atom_site_type_symbol
 _atom_site_label
 _atom_site_symmetry_multiplicity
 _atom_site_fract_x
 _atom_site_fract_y
 _atom_site_fract_z
 _atom_site_occupancy
  Yb  Yb0  1  0.666666  0.333333  0.053348  1
  Yb  Yb1  1  0.666666  0.333333  0.445497  1
  Yb  Yb2  1  0.333334  0.666667  0.554503  1
  Yb  Yb3  1  0.333334  0.666667  0.946652  1
  Al  Al4  1  0.162044  0.324087  0.253163  1
  Al  Al5  1  0.162044  0.837956  0.253163  1
  Al  Al6  1  0.675912  0.837956  0.253163  1
  Al  Al7  1  0.324088  0.162044  0.746837  1
  Al  Al8  1  0.837956  0.162044  0.746837  1
  Al  Al9  1  0.837956  0.675912  0.746837  1
  Os  Os10  1  0.000000  0.000000  0.500000  1
  Pt  Pt11  1  0.000000  0.000000  0.000000  1
