# generated using pymatgen
data_Lu3MgZn2Sn2Au
_symmetry_space_group_name_H-M   'P 1'
_cell_length_a   7.09694654
_cell_length_b   7.09694889
_cell_length_c   4.48539700
_cell_angle_alpha   90.00000000
_cell_angle_beta   90.00000000
_cell_angle_gamma   119.39413441
_symmetry_Int_Tables_number   1
_chemical_formula_structural   Lu3MgZn2Sn2Au
_chemical_formula_sum   'Lu3 Mg1 Zn2 Sn2 Au1'
_cell_volume   196.83118217
_cell_formula_units_Z   1
loop_
 _symmetry_equiv_pos_site_id
 _symmetry_equiv_pos_as_xyz
  1  'x, y, z'
loop_
 _atom_site_type_symbol
 _atom_site_label
 _atom_site_symmetry_multiplicity
 _atom_site_fract_x
 _atom_site_fract_y
 _atom_site_fract_z
 _atom_site_occupancy
  Lu  Lu0  1  0.584266  0.999102  0.000000  1
  Lu  Lu1  1  0.999102  0.584266  0.000000  1
  Lu  Lu2  1  0.405379  0.405379  0.000000  1
  Mg  Mg3  1  0.777764  0.777764  0.500000  1
  Zn  Zn4  1  0.235795  0.004045  0.500000  1
  Zn  Zn5  1  0.004045  0.235795  0.500000  1
  Sn  Sn6  1  0.327769  0.665046  0.500000  1
  Sn  Sn7  1  0.665046  0.327769  0.500000  1
  Au  Au8  1  0.000833  0.000833  0.000000  1
