# generated using pymatgen
data_CaYb3AlPd7
_symmetry_space_group_name_H-M   'P 1'
_cell_length_a   9.39998541
_cell_length_b   9.39998667
_cell_length_c   9.67346131
_cell_angle_alpha   32.53345498
_cell_angle_beta   32.53346787
_cell_angle_gamma   34.50980391
_symmetry_Int_Tables_number   1
_chemical_formula_structural   CaYb3AlPd7
_chemical_formula_sum   'Ca1 Yb3 Al1 Pd7'
_cell_volume   227.46953356
_cell_formula_units_Z   1
loop_
 _symmetry_equiv_pos_site_id
 _symmetry_equiv_pos_as_xyz
  1  'x, y, z'
loop_
 _atom_site_type_symbol
 _atom_site_label
 _atom_site_symmetry_multiplicity
 _atom_site_fract_x
 _atom_site_fract_y
 _atom_site_fract_z
 _atom_site_occupancy
  Ca  Ca0  1  0.070313  0.070313  0.039072  1
  Yb  Yb1  1  0.549506  0.549506  0.601949  1
  Yb  Yb2  1  0.452296  0.452296  0.395267  1
  Yb  Yb3  1  0.930401  0.930401  0.959642  1
  Al  Al4  1  0.999702  0.999702  0.500459  1
  Pd  Pd5  1  0.773363  0.773363  0.708173  1
  Pd  Pd6  1  0.224950  0.224950  0.295114  1
  Pd  Pd7  1  0.998745  0.499402  0.500310  1
  Pd  Pd8  1  0.502052  0.000429  0.999638  1
  Pd  Pd9  1  0.499402  0.998745  0.500310  1
  Pd  Pd10  1  0.000429  0.502052  0.999638  1
  Pd  Pd11  1  0.498840  0.498840  0.000426  1
