# generated using pymatgen
data_La2Ho10ZnCo4Sn
_symmetry_space_group_name_H-M   'P 1'
_cell_length_a   8.46264528
_cell_length_b   8.27743072
_cell_length_c   8.27743107
_cell_angle_alpha   111.93945658
_cell_angle_beta   108.60868719
_cell_angle_gamma   107.07129698
_symmetry_Int_Tables_number   1
_chemical_formula_structural   La2Ho10ZnCo4Sn
_chemical_formula_sum   'La2 Ho10 Zn1 Co4 Sn1'
_cell_volume   450.02750979
_cell_formula_units_Z   1
loop_
 _symmetry_equiv_pos_site_id
 _symmetry_equiv_pos_as_xyz
  1  'x, y, z'
loop_
 _atom_site_type_symbol
 _atom_site_label
 _atom_site_symmetry_multiplicity
 _atom_site_fract_x
 _atom_site_fract_y
 _atom_site_fract_z
 _atom_site_occupancy
  La  La0  1  0.427468  0.220466  0.207001  1
  La  La1  1  0.572532  0.779534  0.792999  1
  Ho  Ho2  1  0.031664  0.233236  0.798429  1
  Ho  Ho3  1  0.968336  0.766764  0.201571  1
  Ho  Ho4  1  0.176679  0.283578  0.463346  1
  Ho  Ho5  1  0.823321  0.716422  0.536654  1
  Ho  Ho6  1  0.176679  0.713331  0.893101  1
  Ho  Ho7  1  0.823321  0.286669  0.106899  1
  Ho  Ho8  1  0.316505  0.638393  0.304222  1
  Ho  Ho9  1  0.683495  0.361607  0.695778  1
  Ho  Ho10  1  0.316505  0.012282  0.678112  1
  Ho  Ho11  1  0.683495  0.987718  0.321888  1
  Zn  Zn12  1  0.000000  0.000000  0.000000  1
  Co  Co13  1  0.341827  0.000992  0.340834  1
  Co  Co14  1  0.658173  0.999008  0.659166  1
  Co  Co15  1  0.098276  0.613376  0.484900  1
  Co  Co16  1  0.901724  0.386624  0.515100  1
  Sn  Sn17  1  0.500000  0.500000  0.000000  1
