# generated using pymatgen
data_Zr3Pa2TaRh10
_symmetry_space_group_name_H-M   'P 1'
_cell_length_a   5.68128126
_cell_length_b   5.68128025
_cell_length_c   8.86324894
_cell_angle_alpha   89.33341638
_cell_angle_beta   90.66658732
_cell_angle_gamma   103.44804213
_symmetry_Int_Tables_number   1
_chemical_formula_structural   Zr3Pa2TaRh10
_chemical_formula_sum   'Zr3 Pa2 Ta1 Rh10'
_cell_volume   278.20416932
_cell_formula_units_Z   1
loop_
 _symmetry_equiv_pos_site_id
 _symmetry_equiv_pos_as_xyz
  1  'x, y, z'
loop_
 _atom_site_type_symbol
 _atom_site_label
 _atom_site_symmetry_multiplicity
 _atom_site_fract_x
 _atom_site_fract_y
 _atom_site_fract_z
 _atom_site_occupancy
  Zr  Zr0  1  0.416367  0.416367  0.250000  1
  Zr  Zr1  1  0.227498  0.781883  0.499554  1
  Zr  Zr2  1  0.781883  0.227498  0.000446  1
  Pa  Pa3  1  0.805753  0.195534  0.498441  1
  Pa  Pa4  1  0.195534  0.805753  0.001559  1
  Ta  Ta5  1  0.578065  0.578065  0.750000  1
  Rh  Rh6  1  0.688617  0.727815  0.023226  1
  Rh  Rh7  1  0.727815  0.688617  0.476774  1
  Rh  Rh8  1  0.286890  0.317490  0.958583  1
  Rh  Rh9  1  0.317490  0.286890  0.541417  1
  Rh  Rh10  1  0.484373  0.005645  0.765956  1
  Rh  Rh11  1  0.516601  0.970709  0.260789  1
  Rh  Rh12  1  0.016654  0.016654  0.250000  1
  Rh  Rh13  1  0.980108  0.980108  0.750000  1
  Rh  Rh14  1  0.005645  0.484373  0.734044  1
  Rh  Rh15  1  0.970709  0.516601  0.239211  1
