# generated using pymatgen
data_Y2Tm8Si5Sn
_symmetry_space_group_name_H-M   'P 1'
_cell_length_a   8.44644032
_cell_length_b   8.44643877
_cell_length_c   6.29905800
_cell_angle_alpha   90.00000000
_cell_angle_beta   90.00000000
_cell_angle_gamma   120.34242244
_symmetry_Int_Tables_number   1
_chemical_formula_structural   Y2Tm8Si5Sn
_chemical_formula_sum   'Y2 Tm8 Si5 Sn1'
_cell_volume   387.83295338
_cell_formula_units_Z   1
loop_
 _symmetry_equiv_pos_site_id
 _symmetry_equiv_pos_as_xyz
  1  'x, y, z'
loop_
 _atom_site_type_symbol
 _atom_site_label
 _atom_site_symmetry_multiplicity
 _atom_site_fract_x
 _atom_site_fract_y
 _atom_site_fract_z
 _atom_site_occupancy
  Y  Y0  1  0.766435  0.766435  0.250000  1
  Y  Y1  1  0.239646  0.239646  0.750000  1
  Tm  Tm2  1  0.674076  0.331099  0.502844  1
  Tm  Tm3  1  0.331099  0.674076  0.502844  1
  Tm  Tm4  1  0.331099  0.674076  0.997156  1
  Tm  Tm5  1  0.674076  0.331099  0.997156  1
  Tm  Tm6  1  0.241051  0.989191  0.250000  1
  Tm  Tm7  1  0.989191  0.241051  0.250000  1
  Tm  Tm8  1  0.755629  0.998830  0.750000  1
  Tm  Tm9  1  0.998830  0.755629  0.750000  1
  Si  Si10  1  0.603375  0.999500  0.250000  1
  Si  Si11  1  0.999500  0.603375  0.250000  1
  Si  Si12  1  0.606368  0.606368  0.750000  1
  Si  Si13  1  0.394541  0.000442  0.750000  1
  Si  Si14  1  0.000442  0.394541  0.750000  1
  Sn  Sn15  1  0.394642  0.394642  0.250000  1
