# generated using pymatgen
data_Hf8In4Cu3Pt5
_symmetry_space_group_name_H-M   'P 1'
_cell_length_a   7.38780335
_cell_length_b   7.41119977
_cell_length_c   6.86895132
_cell_angle_alpha   89.98936823
_cell_angle_beta   90.03367910
_cell_angle_gamma   89.65321272
_symmetry_Int_Tables_number   1
_chemical_formula_structural   Hf8In4Cu3Pt5
_chemical_formula_sum   'Hf8 In4 Cu3 Pt5'
_cell_volume   376.08520422
_cell_formula_units_Z   1
loop_
 _symmetry_equiv_pos_site_id
 _symmetry_equiv_pos_as_xyz
  1  'x, y, z'
loop_
 _atom_site_type_symbol
 _atom_site_label
 _atom_site_symmetry_multiplicity
 _atom_site_fract_x
 _atom_site_fract_y
 _atom_site_fract_z
 _atom_site_occupancy
  Hf  Hf0  1  0.145182  0.149947  0.001538  1
  Hf  Hf1  1  0.849219  0.853179  0.996739  1
  Hf  Hf2  1  0.651300  0.350073  0.497971  1
  Hf  Hf3  1  0.352952  0.648773  0.497706  1
  Hf  Hf4  1  0.689602  0.311378  0.002338  1
  Hf  Hf5  1  0.312363  0.688874  0.001870  1
  Hf  Hf6  1  0.810154  0.810964  0.501072  1
  Hf  Hf7  1  0.187411  0.190546  0.499045  1
  In  In8  1  0.493871  0.998994  0.250889  1
  In  In9  1  0.491166  0.004532  0.750471  1
  In  In10  1  0.002438  0.507136  0.251741  1
  In  In11  1  0.007586  0.504618  0.748931  1
  Cu  Cu12  1  0.368668  0.370311  0.796463  1
  Cu  Cu13  1  0.130150  0.870175  0.294892  1
  Cu  Cu14  1  0.131436  0.870251  0.704400  1
  Pt  Pt15  1  0.368374  0.368717  0.210918  1
  Pt  Pt16  1  0.622127  0.623305  0.782367  1
  Pt  Pt17  1  0.631902  0.632363  0.210259  1
  Pt  Pt18  1  0.876832  0.123203  0.714173  1
  Pt  Pt19  1  0.877266  0.122661  0.286219  1
