# generated using pymatgen
data_Ho3Tm3Sc4(In2Rh)4
_symmetry_space_group_name_H-M   'P 1'
_cell_length_a   3.52081000
_cell_length_b   7.85890966
_cell_length_c   17.91597250
_cell_angle_alpha   90.04690893
_cell_angle_beta   90.00000000
_cell_angle_gamma   90.00000000
_symmetry_Int_Tables_number   1
_chemical_formula_structural   Ho3Tm3Sc4(In2Rh)4
_chemical_formula_sum   'Ho3 Tm3 Sc4 In8 Rh4'
_cell_volume   495.72991471
_cell_formula_units_Z   1
loop_
 _symmetry_equiv_pos_site_id
 _symmetry_equiv_pos_as_xyz
  1  'x, y, z'
loop_
 _atom_site_type_symbol
 _atom_site_label
 _atom_site_symmetry_multiplicity
 _atom_site_fract_x
 _atom_site_fract_y
 _atom_site_fract_z
 _atom_site_occupancy
  Ho  Ho0  1  0.000000  0.999988  0.999989  1
  Ho  Ho1  1  0.000000  0.499971  0.499973  1
  Ho  Ho2  1  0.000000  0.748073  0.781213  1
  Tm  Tm3  1  0.000000  0.252066  0.218936  1
  Tm  Tm4  1  0.000000  0.247967  0.718915  1
  Tm  Tm5  1  0.000000  0.752061  0.281075  1
  Sc  Sc6  1  0.000000  0.878185  0.588297  1
  Sc  Sc7  1  0.000000  0.121929  0.411599  1
  Sc  Sc8  1  0.000000  0.377956  0.911657  1
  Sc  Sc9  1  0.000000  0.621896  0.088400  1
  In  In10  1  0.500000  0.807612  0.437226  1
  In  In11  1  0.500000  0.192447  0.562752  1
  In  In12  1  0.500000  0.307663  0.062796  1
  In  In13  1  0.500000  0.692245  0.937449  1
  In  In14  1  0.500000  0.926336  0.149561  1
  In  In15  1  0.500000  0.074139  0.850488  1
  In  In16  1  0.500000  0.426346  0.350447  1
  In  In17  1  0.500000  0.573380  0.649359  1
  Rh  Rh18  1  0.500000  0.964237  0.692812  1
  Rh  Rh19  1  0.500000  0.036514  0.306937  1
  Rh  Rh20  1  0.500000  0.462460  0.807085  1
  Rh  Rh21  1  0.500000  0.536528  0.193034  1
