# generated using pymatgen
data_PrTm7Sc12Si15Ru
_symmetry_space_group_name_H-M   'P 1'
_cell_length_a   7.05682098
_cell_length_b   7.43210966
_cell_length_c   13.91400251
_cell_angle_alpha   90.12487484
_cell_angle_beta   90.04784029
_cell_angle_gamma   90.23927138
_symmetry_Int_Tables_number   1
_chemical_formula_structural   PrTm7Sc12Si15Ru
_chemical_formula_sum   'Pr1 Tm7 Sc12 Si15 Ru1'
_cell_volume   729.74027014
_cell_formula_units_Z   1
loop_
 _symmetry_equiv_pos_site_id
 _symmetry_equiv_pos_as_xyz
  1  'x, y, z'
loop_
 _atom_site_type_symbol
 _atom_site_label
 _atom_site_symmetry_multiplicity
 _atom_site_fract_x
 _atom_site_fract_y
 _atom_site_fract_z
 _atom_site_occupancy
  Pr  Pr0  1  0.009874  0.176924  0.093398  1
  Tm  Tm1  1  0.991176  0.826114  0.903583  1
  Tm  Tm2  1  0.490859  0.677986  0.903639  1
  Tm  Tm3  1  0.991290  0.826459  0.595310  1
  Tm  Tm4  1  0.510537  0.322553  0.095551  1
  Tm  Tm5  1  0.011441  0.180242  0.403963  1
  Tm  Tm6  1  0.511098  0.322091  0.405633  1
  Tm  Tm7  1  0.489535  0.677933  0.595248  1
  Sc  Sc8  1  0.158657  0.504950  0.749924  1
  Sc  Sc9  1  0.838289  0.495337  0.250949  1
  Sc  Sc10  1  0.338852  0.006015  0.250739  1
  Sc  Sc11  1  0.670332  0.996829  0.749976  1
  Sc  Sc12  1  0.315100  0.171444  0.628242  1
  Sc  Sc13  1  0.670807  0.825313  0.375031  1
  Sc  Sc14  1  0.171842  0.677392  0.375267  1
  Sc  Sc15  1  0.671194  0.825038  0.126502  1
  Sc  Sc16  1  0.838448  0.319139  0.628017  1
  Sc  Sc17  1  0.316870  0.171555  0.870809  1
  Sc  Sc18  1  0.836484  0.321560  0.871270  1
  Sc  Sc19  1  0.171851  0.676967  0.125985  1
  Si  Si20  1  0.968179  0.882552  0.252019  1
  Si  Si21  1  0.470137  0.611873  0.250744  1
  Si  Si22  1  0.528813  0.390381  0.749321  1
  Si  Si23  1  0.286581  0.864744  0.749370  1
  Si  Si24  1  0.710017  0.130672  0.253062  1
  Si  Si25  1  0.217352  0.372300  0.252612  1
  Si  Si26  1  0.779947  0.628719  0.749488  1
  Si  Si27  1  0.161219  0.468421  0.537661  1
  Si  Si28  1  0.842610  0.534995  0.461799  1
  Si  Si29  1  0.342585  0.966761  0.460563  1
  Si  Si30  1  0.840175  0.540735  0.036481  1
  Si  Si31  1  0.656434  0.034269  0.539246  1
  Si  Si32  1  0.162096  0.473749  0.960263  1
  Si  Si33  1  0.655163  0.033181  0.959587  1
  Si  Si34  1  0.349048  0.962715  0.038389  1
  Ru  Ru35  1  0.025105  0.102096  0.750356  1
