# generated using pymatgen
data_La2Tm3Sn4
_symmetry_space_group_name_H-M   'P 1'
_cell_length_a   8.15811700
_cell_length_b   8.30072100
_cell_length_c   15.64479400
_cell_angle_alpha   90.00000000
_cell_angle_beta   90.00000000
_cell_angle_gamma   90.00000000
_symmetry_Int_Tables_number   1
_chemical_formula_structural   La2Tm3Sn4
_chemical_formula_sum   'La8 Tm12 Sn16'
_cell_volume   1059.43811983
_cell_formula_units_Z   4
loop_
 _symmetry_equiv_pos_site_id
 _symmetry_equiv_pos_as_xyz
  1  'x, y, z'
loop_
 _atom_site_type_symbol
 _atom_site_label
 _atom_site_symmetry_multiplicity
 _atom_site_fract_x
 _atom_site_fract_y
 _atom_site_fract_z
 _atom_site_occupancy
  La  La0  1  0.517762  0.321324  0.903822  1
  La  La1  1  0.017762  0.178676  0.596178  1
  La  La2  1  0.482238  0.678676  0.403822  1
  La  La3  1  0.982238  0.821324  0.096178  1
  La  La4  1  0.482238  0.678676  0.096178  1
  La  La5  1  0.982238  0.821324  0.403822  1
  La  La6  1  0.517762  0.321324  0.596178  1
  La  La7  1  0.017762  0.178676  0.903822  1
  Tm  Tm8  1  0.361460  0.837387  0.876125  1
  Tm  Tm9  1  0.861460  0.662613  0.623875  1
  Tm  Tm10  1  0.638540  0.162613  0.376125  1
  Tm  Tm11  1  0.138540  0.337387  0.123875  1
  Tm  Tm12  1  0.638540  0.162613  0.123875  1
  Tm  Tm13  1  0.138540  0.337387  0.376125  1
  Tm  Tm14  1  0.361460  0.837387  0.623875  1
  Tm  Tm15  1  0.861460  0.662613  0.876125  1
  Tm  Tm16  1  0.193183  0.503129  0.750000  1
  Tm  Tm17  1  0.693183  0.996871  0.750000  1
  Tm  Tm18  1  0.806817  0.496871  0.250000  1
  Tm  Tm19  1  0.306817  0.003129  0.250000  1
  Sn  Sn20  1  0.303565  0.041508  0.043173  1
  Sn  Sn21  1  0.803565  0.458492  0.456827  1
  Sn  Sn22  1  0.696435  0.958492  0.543173  1
  Sn  Sn23  1  0.196435  0.541508  0.956827  1
  Sn  Sn24  1  0.696435  0.958492  0.956827  1
  Sn  Sn25  1  0.196435  0.541508  0.543173  1
  Sn  Sn26  1  0.303565  0.041508  0.456827  1
  Sn  Sn27  1  0.803565  0.458492  0.043173  1
  Sn  Sn28  1  0.558377  0.626061  0.750000  1
  Sn  Sn29  1  0.058377  0.873939  0.750000  1
  Sn  Sn30  1  0.441623  0.373939  0.250000  1
  Sn  Sn31  1  0.941623  0.126061  0.250000  1
  Sn  Sn32  1  0.325383  0.141007  0.750000  1
  Sn  Sn33  1  0.825383  0.358993  0.750000  1
  Sn  Sn34  1  0.674617  0.858993  0.250000  1
  Sn  Sn35  1  0.174617  0.641007  0.250000  1
