# generated using pymatgen
data_Dy3Al8(SiOs)4
_symmetry_space_group_name_H-M   'P 1'
_cell_length_a   8.70503701
_cell_length_b   8.70503661
_cell_length_c   9.42552500
_cell_angle_alpha   90.00000000
_cell_angle_beta   90.00000000
_cell_angle_gamma   120.10995581
_symmetry_Int_Tables_number   1
_chemical_formula_structural   Dy3Al8(SiOs)4
_chemical_formula_sum   'Dy6 Al16 Si8 Os8'
_cell_volume   617.86720605
_cell_formula_units_Z   2
loop_
 _symmetry_equiv_pos_site_id
 _symmetry_equiv_pos_as_xyz
  1  'x, y, z'
loop_
 _atom_site_type_symbol
 _atom_site_label
 _atom_site_symmetry_multiplicity
 _atom_site_fract_x
 _atom_site_fract_y
 _atom_site_fract_z
 _atom_site_occupancy
  Dy  Dy0  1  0.192005  0.387464  0.250000  1
  Dy  Dy1  1  0.807995  0.612536  0.750000  1
  Dy  Dy2  1  0.612536  0.807995  0.250000  1
  Dy  Dy3  1  0.387464  0.192005  0.750000  1
  Dy  Dy4  1  0.194497  0.805503  0.250000  1
  Dy  Dy5  1  0.805503  0.194497  0.750000  1
  Al  Al6  1  0.165483  0.329068  0.578287  1
  Al  Al7  1  0.834517  0.670932  0.421713  1
  Al  Al8  1  0.670932  0.834517  0.578287  1
  Al  Al9  1  0.834517  0.670932  0.078287  1
  Al  Al10  1  0.329068  0.165483  0.421713  1
  Al  Al11  1  0.165483  0.329068  0.921713  1
  Al  Al12  1  0.164470  0.835530  0.578288  1
  Al  Al13  1  0.329068  0.165483  0.078287  1
  Al  Al14  1  0.835530  0.164470  0.421712  1
  Al  Al15  1  0.670932  0.834517  0.921713  1
  Al  Al16  1  0.835530  0.164470  0.078288  1
  Al  Al17  1  0.164470  0.835530  0.921712  1
  Al  Al18  1  0.564945  0.435055  0.250000  1
  Al  Al19  1  0.435055  0.564945  0.750000  1
  Al  Al20  1  0.999975  0.000025  0.250000  1
  Al  Al21  1  0.000025  0.999975  0.750000  1
  Si  Si22  1  0.334928  0.665072  0.039844  1
  Si  Si23  1  0.665072  0.334928  0.960156  1
  Si  Si24  1  0.665072  0.334928  0.539844  1
  Si  Si25  1  0.334928  0.665072  0.460156  1
  Si  Si26  1  0.564159  0.124443  0.250000  1
  Si  Si27  1  0.435841  0.875557  0.750000  1
  Si  Si28  1  0.875557  0.435841  0.250000  1
  Si  Si29  1  0.124443  0.564159  0.750000  1
  Os  Os30  1  0.500000  0.000000  0.000000  1
  Os  Os31  1  0.000000  0.500000  0.000000  1
  Os  Os32  1  0.500000  0.000000  0.500000  1
  Os  Os33  1  0.500000  0.500000  0.000000  1
  Os  Os34  1  0.000000  0.500000  0.500000  1
  Os  Os35  1  0.500000  0.500000  0.500000  1
  Os  Os36  1  0.000000  0.000000  0.000000  1
  Os  Os37  1  0.000000  0.000000  0.500000  1
