# generated using pymatgen
data_Ho20Ru11Rh
_symmetry_space_group_name_H-M   'P 1'
_cell_length_a   10.78750381
_cell_length_b   10.78750357
_cell_length_c   6.35290001
_cell_angle_alpha   89.97176914
_cell_angle_beta   89.97176935
_cell_angle_gamma   89.97817608
_symmetry_Int_Tables_number   1
_chemical_formula_structural   Ho20Ru11Rh
_chemical_formula_sum   'Ho20 Ru11 Rh1'
_cell_volume   739.28823917
_cell_formula_units_Z   1
loop_
 _symmetry_equiv_pos_site_id
 _symmetry_equiv_pos_as_xyz
  1  'x, y, z'
loop_
 _atom_site_type_symbol
 _atom_site_label
 _atom_site_symmetry_multiplicity
 _atom_site_fract_x
 _atom_site_fract_y
 _atom_site_fract_z
 _atom_site_occupancy
  Ho  Ho0  1  0.291916  0.086358  0.376457  1
  Ho  Ho1  1  0.291783  0.915319  0.876888  1
  Ho  Ho2  1  0.708353  0.086544  0.876599  1
  Ho  Ho3  1  0.708430  0.913503  0.376523  1
  Ho  Ho4  1  0.587391  0.792862  0.876747  1
  Ho  Ho5  1  0.586462  0.207530  0.376076  1
  Ho  Ho6  1  0.414231  0.793178  0.375788  1
  Ho  Ho7  1  0.413494  0.208535  0.876702  1
  Ho  Ho8  1  0.207138  0.412609  0.623253  1
  Ho  Ho9  1  0.206822  0.585769  0.124212  1
  Ho  Ho10  1  0.792470  0.413538  0.123924  1
  Ho  Ho11  1  0.791465  0.586506  0.623298  1
  Ho  Ho12  1  0.913642  0.708084  0.123543  1
  Ho  Ho13  1  0.913456  0.291647  0.623401  1
  Ho  Ho14  1  0.084681  0.708217  0.623112  1
  Ho  Ho15  1  0.086497  0.291570  0.123477  1
  Ho  Ho16  1  0.000203  0.000160  0.499959  1
  Ho  Ho17  1  0.999840  0.999797  0.000041  1
  Ho  Ho18  1  0.501430  0.499341  0.001241  1
  Ho  Ho19  1  0.500659  0.498570  0.498759  1
  Ru  Ru20  1  0.846871  0.153129  0.250000  1
  Ru  Ru21  1  0.846740  0.846510  0.749753  1
  Ru  Ru22  1  0.153490  0.153260  0.750247  1
  Ru  Ru23  1  0.154460  0.845540  0.250000  1
  Ru  Ru24  1  0.652787  0.347213  0.750000  1
  Ru  Ru25  1  0.651722  0.653294  0.250367  1
  Ru  Ru26  1  0.346706  0.348278  0.249633  1
  Ru  Ru27  1  0.499951  0.999341  0.124585  1
  Ru  Ru28  1  0.499890  0.999817  0.625235  1
  Ru  Ru29  1  0.000183  0.500110  0.874765  1
  Ru  Ru30  1  0.000659  0.500049  0.375415  1
  Rh  Rh31  1  0.346176  0.653824  0.750000  1
