# generated using pymatgen
data_Tb15ErTl3InRh4
_symmetry_space_group_name_H-M   'P 1'
_cell_length_a   9.71881793
_cell_length_b   9.72287404
_cell_length_c   9.71883700
_cell_angle_alpha   60.01373070
_cell_angle_beta   59.99993167
_cell_angle_gamma   59.93059541
_symmetry_Int_Tables_number   1
_chemical_formula_structural   Tb15ErTl3InRh4
_chemical_formula_sum   'Tb15 Er1 Tl3 In1 Rh4'
_cell_volume   649.11831788
_cell_formula_units_Z   1
loop_
 _symmetry_equiv_pos_site_id
 _symmetry_equiv_pos_as_xyz
  1  'x, y, z'
loop_
 _atom_site_type_symbol
 _atom_site_label
 _atom_site_symmetry_multiplicity
 _atom_site_fract_x
 _atom_site_fract_y
 _atom_site_fract_z
 _atom_site_occupancy
  Tb  Tb0  1  0.812690  0.188496  0.810661  1
  Tb  Tb1  1  0.188713  0.188326  0.811481  1
  Tb  Tb2  1  0.649387  0.050352  0.650131  1
  Tb  Tb3  1  0.060382  0.062330  0.438645  1
  Tb  Tb4  1  0.439158  0.438479  0.061181  1
  Tb  Tb5  1  0.650702  0.649775  0.650853  1
  Tb  Tb6  1  0.812690  0.188496  0.188153  1
  Tb  Tb7  1  0.188344  0.812026  0.811824  1
  Tb  Tb8  1  0.050339  0.648792  0.650434  1
  Tb  Tb9  1  0.440011  0.059771  0.061336  1
  Tb  Tb10  1  0.440011  0.059771  0.438883  1
  Tb  Tb11  1  0.059662  0.438679  0.063301  1
  Tb  Tb12  1  0.650702  0.649775  0.048671  1
  Tb  Tb13  1  0.188344  0.812026  0.187806  1
  Tb  Tb14  1  0.059662  0.438679  0.438360  1
  Er  Er15  1  0.812438  0.810462  0.188550  1
  Tl  Tl16  1  0.415571  0.414729  0.413664  1
  Tl  Tl17  1  0.415571  0.414729  0.756033  1
  Tl  Tl18  1  0.416008  0.755852  0.414069  1
  In  In19  1  0.748966  0.417746  0.416644  1
  Rh  Rh20  1  0.857891  0.428108  0.857001  1
  Rh  Rh21  1  0.857054  0.857360  0.858514  1
  Rh  Rh22  1  0.857054  0.857360  0.427074  1
  Rh  Rh23  1  0.428654  0.857882  0.856733  1
