# generated using pymatgen
data_Y8Co17Si10Ni
_symmetry_space_group_name_H-M   'P 1'
_cell_length_a   5.19511480
_cell_length_b   5.19511383
_cell_length_c   21.93108947
_cell_angle_alpha   89.99795322
_cell_angle_beta   90.00204705
_cell_angle_gamma   119.94388252
_symmetry_Int_Tables_number   1
_chemical_formula_structural   Y8Co17Si10Ni
_chemical_formula_sum   'Y8 Co17 Si10 Ni1'
_cell_volume   512.89251411
_cell_formula_units_Z   1
loop_
 _symmetry_equiv_pos_site_id
 _symmetry_equiv_pos_as_xyz
  1  'x, y, z'
loop_
 _atom_site_type_symbol
 _atom_site_label
 _atom_site_symmetry_multiplicity
 _atom_site_fract_x
 _atom_site_fract_y
 _atom_site_fract_z
 _atom_site_occupancy
  Y  Y0  1  0.334371  0.665629  0.528767  1
  Y  Y1  1  0.666821  0.333179  0.472645  1
  Y  Y2  1  0.666699  0.333301  0.027583  1
  Y  Y3  1  0.333261  0.666739  0.972108  1
  Y  Y4  1  0.332651  0.667349  0.674879  1
  Y  Y5  1  0.667445  0.332555  0.324475  1
  Y  Y6  1  0.666945  0.333055  0.173684  1
  Y  Y7  1  0.332840  0.667160  0.826006  1
  Co  Co8  1  0.166158  0.331906  0.088324  1
  Co  Co9  1  0.833732  0.667950  0.911636  1
  Co  Co10  1  0.668094  0.833842  0.088324  1
  Co  Co11  1  0.834266  0.667967  0.588624  1
  Co  Co12  1  0.332050  0.166268  0.911636  1
  Co  Co13  1  0.167575  0.330548  0.411292  1
  Co  Co14  1  0.166427  0.833573  0.087816  1
  Co  Co15  1  0.332033  0.165734  0.588624  1
  Co  Co16  1  0.833457  0.166543  0.912008  1
  Co  Co17  1  0.669452  0.832425  0.411292  1
  Co  Co18  1  0.832833  0.167167  0.588988  1
  Co  Co19  1  0.168027  0.334992  0.249136  1
  Co  Co20  1  0.831791  0.665618  0.750512  1
  Co  Co21  1  0.665008  0.831973  0.249136  1
  Co  Co22  1  0.334382  0.168209  0.750512  1
  Co  Co23  1  0.168367  0.831633  0.250313  1
  Co  Co24  1  0.831562  0.168438  0.750090  1
  Si  Si25  1  0.000028  0.999972  0.999904  1
  Si  Si26  1  0.997319  0.002681  0.501142  1
  Si  Si27  1  0.332502  0.667498  0.167709  1
  Si  Si28  1  0.666807  0.333193  0.832107  1
  Si  Si29  1  0.665066  0.334934  0.668575  1
  Si  Si30  1  0.336589  0.663411  0.331282  1
  Si  Si31  1  0.001699  0.998301  0.168952  1
  Si  Si32  1  0.998678  0.001322  0.831053  1
  Si  Si33  1  0.999599  0.000401  0.669515  1
  Si  Si34  1  0.998211  0.001789  0.329898  1
  Ni  Ni35  1  0.167261  0.832739  0.411445  1
