# generated using pymatgen
data_Ce4Hg2IrPd3
_symmetry_space_group_name_H-M   'P 1'
_cell_length_a   7.83418695
_cell_length_b   7.83418695
_cell_length_c   3.75480800
_cell_angle_alpha   90.00000000
_cell_angle_beta   90.00000000
_cell_angle_gamma   90.05657769
_symmetry_Int_Tables_number   1
_chemical_formula_structural   Ce4Hg2IrPd3
_chemical_formula_sum   'Ce4 Hg2 Ir1 Pd3'
_cell_volume   230.44929584
_cell_formula_units_Z   1
loop_
 _symmetry_equiv_pos_site_id
 _symmetry_equiv_pos_as_xyz
  1  'x, y, z'
loop_
 _atom_site_type_symbol
 _atom_site_label
 _atom_site_symmetry_multiplicity
 _atom_site_fract_x
 _atom_site_fract_y
 _atom_site_fract_z
 _atom_site_occupancy
  Ce  Ce0  1  0.338392  0.176082  0.500001  1
  Ce  Ce1  1  0.816884  0.316884  0.500001  1
  Ce  Ce2  1  0.170698  0.670698  0.500001  1
  Ce  Ce3  1  0.676082  0.838392  0.500001  1
  Hg  Hg4  1  0.005270  0.999711  0.000000  1
  Hg  Hg5  1  0.499711  0.505270  0.000000  1
  Ir  Ir6  1  0.627897  0.127897  0.000000  1
  Pd  Pd7  1  0.127331  0.370040  0.000000  1
  Pd  Pd8  1  0.870040  0.627331  0.000000  1
  Pd  Pd9  1  0.367698  0.867698  0.000000  1
