# generated using pymatgen
data_Er5Tm5(Bi2Ir)2
_symmetry_space_group_name_H-M   'P 1'
_cell_length_a   7.88896068
_cell_length_b   8.98534600
_cell_length_c   12.39112515
_cell_angle_alpha   90.00000000
_cell_angle_beta   89.96163491
_cell_angle_gamma   90.00000000
_symmetry_Int_Tables_number   1
_chemical_formula_structural   Er5Tm5(Bi2Ir)2
_chemical_formula_sum   'Er10 Tm10 Bi8 Ir4'
_cell_volume   878.34522144
_cell_formula_units_Z   2
loop_
 _symmetry_equiv_pos_site_id
 _symmetry_equiv_pos_as_xyz
  1  'x, y, z'
loop_
 _atom_site_type_symbol
 _atom_site_label
 _atom_site_symmetry_multiplicity
 _atom_site_fract_x
 _atom_site_fract_y
 _atom_site_fract_z
 _atom_site_occupancy
  Er  Er0  1  0.158349  0.250000  0.793424  1
  Er  Er1  1  0.841651  0.750000  0.206576  1
  Er  Er2  1  0.123256  0.750000  0.808572  1
  Er  Er3  1  0.876744  0.250000  0.191428  1
  Er  Er4  1  0.623834  0.250000  0.691528  1
  Er  Er5  1  0.376166  0.750000  0.308472  1
  Er  Er6  1  0.555444  0.750000  0.998355  1
  Er  Er7  1  0.444556  0.250000  0.001645  1
  Er  Er8  1  0.055343  0.250000  0.501727  1
  Er  Er9  1  0.944657  0.750000  0.498273  1
  Tm  Tm10  1  0.657797  0.750000  0.705758  1
  Tm  Tm11  1  0.342203  0.250000  0.294242  1
  Tm  Tm12  1  0.825334  0.458658  0.933804  1
  Tm  Tm13  1  0.174666  0.541342  0.066196  1
  Tm  Tm14  1  0.325433  0.541589  0.566265  1
  Tm  Tm15  1  0.174666  0.958658  0.066196  1
  Tm  Tm16  1  0.674567  0.458411  0.433735  1
  Tm  Tm17  1  0.825334  0.041342  0.933804  1
  Tm  Tm18  1  0.674567  0.041589  0.433735  1
  Tm  Tm19  1  0.325433  0.958411  0.566265  1
  Bi  Bi20  1  0.933074  0.008180  0.672795  1
  Bi  Bi21  1  0.066926  0.991820  0.327205  1
  Bi  Bi22  1  0.433823  0.991232  0.827104  1
  Bi  Bi23  1  0.066926  0.508180  0.327205  1
  Bi  Bi24  1  0.566177  0.008768  0.172896  1
  Bi  Bi25  1  0.933074  0.491820  0.672795  1
  Bi  Bi26  1  0.566177  0.491232  0.172896  1
  Bi  Bi27  1  0.433823  0.508768  0.827104  1
  Ir  Ir28  1  0.930451  0.750000  0.992027  1
  Ir  Ir29  1  0.069549  0.250000  0.007973  1
  Ir  Ir30  1  0.430302  0.250000  0.508135  1
  Ir  Ir31  1  0.569698  0.750000  0.491865  1
