# generated using pymatgen
data_Na6Zr2UCl18
_symmetry_space_group_name_H-M   'P 1'
_cell_length_a   11.90029100
_cell_length_b   11.90029134
_cell_length_c   6.21002700
_cell_angle_alpha   90.00000000
_cell_angle_beta   90.00000000
_cell_angle_gamma   119.99999627
_symmetry_Int_Tables_number   1
_chemical_formula_structural   Na6Zr2UCl18
_chemical_formula_sum   'Na6 Zr2 U1 Cl18'
_cell_volume   761.62170392
_cell_formula_units_Z   1
loop_
 _symmetry_equiv_pos_site_id
 _symmetry_equiv_pos_as_xyz
  1  'x, y, z'
loop_
 _atom_site_type_symbol
 _atom_site_label
 _atom_site_symmetry_multiplicity
 _atom_site_fract_x
 _atom_site_fract_y
 _atom_site_fract_z
 _atom_site_occupancy
  Na  Na0  1  0.664269  0.003582  0.998923  1
  Na  Na1  1  0.339313  0.003582  0.998923  1
  Na  Na2  1  0.996418  0.660687  0.998923  1
  Na  Na3  1  0.664269  0.660687  0.998923  1
  Na  Na4  1  0.339313  0.335731  0.998923  1
  Na  Na5  1  0.996418  0.335731  0.998923  1
  Zr  Zr6  1  0.666667  0.333333  0.503568  1
  Zr  Zr7  1  0.000000  0.000000  0.001029  1
  U  U8  1  0.333333  0.666667  0.496690  1
  Cl  Cl9  1  0.567142  0.134286  0.737811  1
  Cl  Cl10  1  0.766666  0.233334  0.277659  1
  Cl  Cl11  1  0.800017  0.900008  0.227476  1
  Cl  Cl12  1  0.438053  0.561947  0.251150  1
  Cl  Cl13  1  0.766666  0.533332  0.277659  1
  Cl  Cl14  1  0.099992  0.199983  0.227476  1
  Cl  Cl15  1  0.227857  0.772143  0.734777  1
  Cl  Cl16  1  0.567142  0.432858  0.737811  1
  Cl  Cl17  1  0.227857  0.455712  0.734777  1
  Cl  Cl18  1  0.123895  0.561947  0.251150  1
  Cl  Cl19  1  0.200101  0.100051  0.772849  1
  Cl  Cl20  1  0.099992  0.900008  0.227476  1
  Cl  Cl21  1  0.544288  0.772143  0.734777  1
  Cl  Cl22  1  0.438053  0.876105  0.251150  1
  Cl  Cl23  1  0.899949  0.100051  0.772849  1
  Cl  Cl24  1  0.865714  0.432858  0.737811  1
  Cl  Cl25  1  0.466668  0.233334  0.277659  1
  Cl  Cl26  1  0.899949  0.799899  0.772849  1
