# generated using pymatgen
data_Hf13Zr2Nb5Si16
_symmetry_space_group_name_H-M   'P 1'
_cell_length_a   7.00232917
_cell_length_b   6.99994571
_cell_length_c   12.80973751
_cell_angle_alpha   90.09776953
_cell_angle_beta   90.07927277
_cell_angle_gamma   89.98761946
_symmetry_Int_Tables_number   1
_chemical_formula_structural   Hf13Zr2Nb5Si16
_chemical_formula_sum   'Hf13 Zr2 Nb5 Si16'
_cell_volume   627.87959110
_cell_formula_units_Z   1
loop_
 _symmetry_equiv_pos_site_id
 _symmetry_equiv_pos_as_xyz
  1  'x, y, z'
loop_
 _atom_site_type_symbol
 _atom_site_label
 _atom_site_symmetry_multiplicity
 _atom_site_fract_x
 _atom_site_fract_y
 _atom_site_fract_z
 _atom_site_occupancy
  Hf  Hf0  1  0.854752  0.997885  0.373139  1
  Hf  Hf1  1  0.004365  0.145921  0.127389  1
  Hf  Hf2  1  0.997611  0.853308  0.625720  1
  Hf  Hf3  1  0.645683  0.497007  0.876913  1
  Hf  Hf4  1  0.502381  0.353775  0.624187  1
  Hf  Hf5  1  0.498648  0.644664  0.123001  1
  Hf  Hf6  1  0.144712  0.002721  0.874113  1
  Hf  Hf7  1  0.999468  0.652714  0.032823  1
  Hf  Hf8  1  0.001690  0.346734  0.530252  1
  Hf  Hf9  1  0.654040  0.997650  0.968769  1
  Hf  Hf10  1  0.152606  0.501243  0.781833  1
  Hf  Hf11  1  0.848127  0.497345  0.282104  1
  Hf  Hf12  1  0.502399  0.153890  0.219581  1
  Zr  Zr13  1  0.496205  0.844754  0.717268  1
  Zr  Zr14  1  0.345686  0.002409  0.467612  1
  Nb  Nb15  1  0.354550  0.505817  0.375276  1
  Nb  Nb16  1  0.673996  0.673104  0.498825  1
  Nb  Nb17  1  0.824618  0.175161  0.750441  1
  Nb  Nb18  1  0.176297  0.825398  0.250343  1
  Nb  Nb19  1  0.326066  0.325184  0.001007  1
  Si  Si20  1  0.049848  0.696952  0.434235  1
  Si  Si21  1  0.952881  0.302496  0.936140  1
  Si  Si22  1  0.699952  0.050105  0.563950  1
  Si  Si23  1  0.199679  0.453552  0.186860  1
  Si  Si24  1  0.802336  0.546716  0.684985  1
  Si  Si25  1  0.451732  0.198039  0.815459  1
  Si  Si26  1  0.547841  0.799227  0.314193  1
  Si  Si27  1  0.303079  0.952208  0.065102  1
  Si  Si28  1  0.853820  0.795566  0.822416  1
  Si  Si29  1  0.145653  0.210869  0.324114  1
  Si  Si30  1  0.795966  0.853862  0.177167  1
  Si  Si31  1  0.294438  0.642450  0.569866  1
  Si  Si32  1  0.704181  0.352227  0.072978  1
  Si  Si33  1  0.641160  0.298297  0.426124  1
  Si  Si34  1  0.352621  0.702935  0.927920  1
  Si  Si35  1  0.200911  0.147812  0.677894  1
