# generated using pymatgen
data_Er24CoTc7
_symmetry_space_group_name_H-M   'P 1'
_cell_length_a   6.24807291
_cell_length_b   9.13036800
_cell_length_c   14.61220843
_cell_angle_alpha   90.00000000
_cell_angle_beta   90.26830171
_cell_angle_gamma   90.00000000
_symmetry_Int_Tables_number   1
_chemical_formula_structural   Er24CoTc7
_chemical_formula_sum   'Er24 Co1 Tc7'
_cell_volume   833.57651017
_cell_formula_units_Z   1
loop_
 _symmetry_equiv_pos_site_id
 _symmetry_equiv_pos_as_xyz
  1  'x, y, z'
loop_
 _atom_site_type_symbol
 _atom_site_label
 _atom_site_symmetry_multiplicity
 _atom_site_fract_x
 _atom_site_fract_y
 _atom_site_fract_z
 _atom_site_occupancy
  Er  Er0  1  0.538926  0.750000  0.354144  1
  Er  Er1  1  0.035973  0.250000  0.145784  1
  Er  Er2  1  0.462737  0.250000  0.646898  1
  Er  Er3  1  0.967255  0.750000  0.848904  1
  Er  Er4  1  0.785054  0.750000  0.107669  1
  Er  Er5  1  0.281742  0.250000  0.392802  1
  Er  Er6  1  0.216452  0.250000  0.889200  1
  Er  Er7  1  0.724605  0.750000  0.610572  1
  Er  Er8  1  0.429009  0.934456  0.786845  1
  Er  Er9  1  0.926119  0.065815  0.711011  1
  Er  Er10  1  0.566777  0.436254  0.209307  1
  Er  Er11  1  0.066249  0.565207  0.289605  1
  Er  Er12  1  0.566777  0.063746  0.209307  1
  Er  Er13  1  0.066249  0.934793  0.289605  1
  Er  Er14  1  0.429009  0.565544  0.786845  1
  Er  Er15  1  0.926119  0.434185  0.711011  1
  Er  Er16  1  0.241770  0.935539  0.539625  1
  Er  Er17  1  0.741073  0.061360  0.964265  1
  Er  Er18  1  0.760063  0.438128  0.465870  1
  Er  Er19  1  0.258349  0.563230  0.033440  1
  Er  Er20  1  0.760063  0.061872  0.465870  1
  Er  Er21  1  0.258349  0.936770  0.033440  1
  Er  Er22  1  0.241770  0.564461  0.539625  1
  Er  Er23  1  0.741073  0.438640  0.964265  1
  Co  Co24  1  0.140272  0.750000  0.682581  1
  Tc  Tc25  1  0.932645  0.750000  0.444798  1
  Tc  Tc26  1  0.429842  0.250000  0.058599  1
  Tc  Tc27  1  0.070358  0.250000  0.562748  1
  Tc  Tc28  1  0.573897  0.750000  0.936399  1
  Tc  Tc29  1  0.357681  0.750000  0.181600  1
  Tc  Tc30  1  0.859192  0.250000  0.319120  1
  Tc  Tc31  1  0.644549  0.250000  0.818245  1
