# generated using pymatgen
data_Ce4Tm5LuRu4
_symmetry_space_group_name_H-M   'P 1'
_cell_length_a   6.31795929
_cell_length_b   7.00281347
_cell_length_c   8.70470410
_cell_angle_alpha   95.85043247
_cell_angle_beta   111.27869891
_cell_angle_gamma   90.00000097
_symmetry_Int_Tables_number   1
_chemical_formula_structural   Ce4Tm5LuRu4
_chemical_formula_sum   'Ce4 Tm5 Lu1 Ru4'
_cell_volume   356.71736320
_cell_formula_units_Z   1
loop_
 _symmetry_equiv_pos_site_id
 _symmetry_equiv_pos_as_xyz
  1  'x, y, z'
loop_
 _atom_site_type_symbol
 _atom_site_label
 _atom_site_symmetry_multiplicity
 _atom_site_fract_x
 _atom_site_fract_y
 _atom_site_fract_z
 _atom_site_occupancy
  Ce  Ce0  1  0.522081  0.093691  0.808179  1
  Ce  Ce1  1  0.478038  0.906303  0.191821  1
  Ce  Ce2  1  0.713902  0.406309  0.191821  1
  Ce  Ce3  1  0.286216  0.593697  0.808179  1
  Tm  Tm4  1  0.294450  0.313793  0.433181  1
  Tm  Tm5  1  0.705606  0.686322  0.567043  1
  Tm  Tm6  1  0.861270  0.186207  0.566819  1
  Tm  Tm7  1  0.138562  0.813678  0.432957  1
  Tm  Tm8  1  0.081842  0.250000  0.000000  1
  Lu  Lu9  1  0.918236  0.750000  0.000000  1
  Ru  Ru10  1  0.343236  0.592275  0.221622  1
  Ru  Ru11  1  0.656632  0.408073  0.778318  1
  Ru  Ru12  1  0.121616  0.907725  0.778378  1
  Ru  Ru13  1  0.878313  0.091927  0.221682  1
