# generated using pymatgen
data_Tb2Dy2Re5Os3
_symmetry_space_group_name_H-M   'P 1'
_cell_length_a   5.35912859
_cell_length_b   5.27692700
_cell_length_c   9.06594545
_cell_angle_alpha   90.00000319
_cell_angle_beta   89.97540080
_cell_angle_gamma   119.49386309
_symmetry_Int_Tables_number   1
_chemical_formula_structural   Tb2Dy2Re5Os3
_chemical_formula_sum   'Tb2 Dy2 Re5 Os3'
_cell_volume   223.15745707
_cell_formula_units_Z   1
loop_
 _symmetry_equiv_pos_site_id
 _symmetry_equiv_pos_as_xyz
  1  'x, y, z'
loop_
 _atom_site_type_symbol
 _atom_site_label
 _atom_site_symmetry_multiplicity
 _atom_site_fract_x
 _atom_site_fract_y
 _atom_site_fract_z
 _atom_site_occupancy
  Tb  Tb0  1  0.668408  0.334204  0.436121  1
  Tb  Tb1  1  0.333305  0.666653  0.562292  1
  Dy  Dy2  1  0.333425  0.666714  0.937499  1
  Dy  Dy3  1  0.668863  0.334431  0.063871  1
  Re  Re4  1  0.163261  0.829085  0.249515  1
  Re  Re5  1  0.163261  0.334176  0.249515  1
  Re  Re6  1  0.343641  0.171821  0.750575  1
  Re  Re7  1  0.830289  0.169630  0.750451  1
  Re  Re8  1  0.830289  0.660660  0.750451  1
  Os  Os9  1  0.009254  0.004627  0.499586  1
  Os  Os10  1  0.009877  0.004938  0.000540  1
  Os  Os11  1  0.646124  0.823062  0.249584  1
