# generated using pymatgen
data_Y4HoTl15
_symmetry_space_group_name_H-M   'P 1'
_cell_length_a   4.76586600
_cell_length_b   4.76586600
_cell_length_c   24.11345900
_cell_angle_alpha   90.00000000
_cell_angle_beta   90.00000000
_cell_angle_gamma   90.00000000
_symmetry_Int_Tables_number   1
_chemical_formula_structural   Y4HoTl15
_chemical_formula_sum   'Y4 Ho1 Tl15'
_cell_volume   547.70053810
_cell_formula_units_Z   1
loop_
 _symmetry_equiv_pos_site_id
 _symmetry_equiv_pos_as_xyz
  1  'x, y, z'
loop_
 _atom_site_type_symbol
 _atom_site_label
 _atom_site_symmetry_multiplicity
 _atom_site_fract_x
 _atom_site_fract_y
 _atom_site_fract_z
 _atom_site_occupancy
  Y  Y0  1  0.000000  0.000000  0.199416  1
  Y  Y1  1  0.000000  0.000000  0.400123  1
  Y  Y2  1  0.000000  0.000000  0.599877  1
  Y  Y3  1  0.000000  0.000000  0.800584  1
  Ho  Ho4  1  0.000000  0.000000  0.000000  1
  Tl  Tl5  1  0.500000  0.500000  0.000000  1
  Tl  Tl6  1  0.500000  0.500000  0.199126  1
  Tl  Tl7  1  0.500000  0.500000  0.399890  1
  Tl  Tl8  1  0.500000  0.500000  0.600110  1
  Tl  Tl9  1  0.500000  0.500000  0.800874  1
  Tl  Tl10  1  0.500000  0.000000  0.098926  1
  Tl  Tl11  1  0.500000  0.000000  0.299915  1
  Tl  Tl12  1  0.500000  0.000000  0.500000  1
  Tl  Tl13  1  0.500000  0.000000  0.700085  1
  Tl  Tl14  1  0.500000  0.000000  0.901074  1
  Tl  Tl15  1  0.000000  0.500000  0.098926  1
  Tl  Tl16  1  0.000000  0.500000  0.299915  1
  Tl  Tl17  1  0.000000  0.500000  0.500000  1
  Tl  Tl18  1  0.000000  0.500000  0.700085  1
  Tl  Tl19  1  0.000000  0.500000  0.901074  1
