# generated using pymatgen
data_Yb2Ho6B24OsRu3
_symmetry_space_group_name_H-M   'P 1'
_cell_length_a   3.64298300
_cell_length_b   9.12821168
_cell_length_c   11.51349744
_cell_angle_alpha   89.78718588
_cell_angle_beta   90.00000000
_cell_angle_gamma   90.00000000
_symmetry_Int_Tables_number   1
_chemical_formula_structural   Yb2Ho6B24OsRu3
_chemical_formula_sum   'Yb2 Ho6 B24 Os1 Ru3'
_cell_volume   382.86628151
_cell_formula_units_Z   1
loop_
 _symmetry_equiv_pos_site_id
 _symmetry_equiv_pos_as_xyz
  1  'x, y, z'
loop_
 _atom_site_type_symbol
 _atom_site_label
 _atom_site_symmetry_multiplicity
 _atom_site_fract_x
 _atom_site_fract_y
 _atom_site_fract_z
 _atom_site_occupancy
  Yb  Yb0  1  0.000000  0.325125  0.414705  1
  Yb  Yb1  1  0.000000  0.674775  0.585388  1
  Ho  Ho2  1  0.000000  0.822098  0.086537  1
  Ho  Ho3  1  0.000000  0.177247  0.913763  1
  Ho  Ho4  1  0.000000  0.942618  0.369994  1
  Ho  Ho5  1  0.000000  0.058337  0.630369  1
  Ho  Ho6  1  0.000000  0.442401  0.130191  1
  Ho  Ho7  1  0.000000  0.557278  0.868944  1
  B  B8  1  0.500000  0.554159  0.432570  1
  B  B9  1  0.500000  0.445721  0.567596  1
  B  B10  1  0.500000  0.053485  0.066746  1
  B  B11  1  0.500000  0.946288  0.933336  1
  B  B12  1  0.500000  0.748178  0.418141  1
  B  B13  1  0.500000  0.252268  0.581984  1
  B  B14  1  0.500000  0.247805  0.080985  1
  B  B15  1  0.500000  0.751945  0.918901  1
  B  B16  1  0.500000  0.791191  0.264914  1
  B  B17  1  0.500000  0.209086  0.735245  1
  B  B18  1  0.500000  0.289936  0.234113  1
  B  B19  1  0.500000  0.710175  0.765733  1
  B  B20  1  0.500000  0.631410  0.185344  1
  B  B21  1  0.500000  0.368448  0.814613  1
  B  B22  1  0.500000  0.131009  0.313766  1
  B  B23  1  0.500000  0.869310  0.686262  1
  B  B24  1  0.500000  0.983318  0.211569  1
  B  B25  1  0.500000  0.016793  0.788628  1
  B  B26  1  0.500000  0.483938  0.288126  1
  B  B27  1  0.500000  0.515716  0.711680  1
  B  B28  1  0.500000  0.604112  0.028581  1
  B  B29  1  0.500000  0.395485  0.970980  1
  B  B30  1  0.500000  0.099439  0.472564  1
  B  B31  1  0.500000  0.901047  0.527604  1
  Os  Os32  1  0.000000  0.639733  0.319255  1
  Ru  Ru33  1  0.000000  0.360181  0.680879  1
  Ru  Ru34  1  0.000000  0.136931  0.177923  1
  Ru  Ru35  1  0.000000  0.863014  0.822071  1
