# generated using pymatgen
data_Al2ZnPd2Pt3
_symmetry_space_group_name_H-M   'P 1'
_cell_length_a   4.06573300
_cell_length_b   5.46209026
_cell_length_c   10.67854730
_cell_angle_alpha   89.93696045
_cell_angle_beta   90.00000000
_cell_angle_gamma   90.00000000
_symmetry_Int_Tables_number   1
_chemical_formula_structural   Al2ZnPd2Pt3
_chemical_formula_sum   'Al4 Zn2 Pd4 Pt6'
_cell_volume   237.14263447
_cell_formula_units_Z   2
loop_
 _symmetry_equiv_pos_site_id
 _symmetry_equiv_pos_as_xyz
  1  'x, y, z'
loop_
 _atom_site_type_symbol
 _atom_site_label
 _atom_site_symmetry_multiplicity
 _atom_site_fract_x
 _atom_site_fract_y
 _atom_site_fract_z
 _atom_site_occupancy
  Al  Al0  1  0.000000  0.000000  0.000000  1
  Al  Al1  1  0.000000  0.500000  0.500000  1
  Al  Al2  1  0.500000  0.667506  0.143369  1
  Al  Al3  1  0.500000  0.332494  0.856631  1
  Zn  Zn4  1  0.500000  0.166034  0.361564  1
  Zn  Zn5  1  0.500000  0.833966  0.638436  1
  Pd  Pd6  1  0.000000  0.000000  0.500000  1
  Pd  Pd7  1  0.000000  0.500000  0.000000  1
  Pd  Pd8  1  0.000000  0.409117  0.263578  1
  Pd  Pd9  1  0.000000  0.590883  0.736422  1
  Pt  Pt10  1  0.500000  0.194923  0.104127  1
  Pt  Pt11  1  0.500000  0.805077  0.895873  1
  Pt  Pt12  1  0.500000  0.683036  0.390685  1
  Pt  Pt13  1  0.500000  0.316964  0.609315  1
  Pt  Pt14  1  0.000000  0.907196  0.230777  1
  Pt  Pt15  1  0.000000  0.092804  0.769223  1
