# generated using pymatgen
data_LaCu3PdRh
_symmetry_space_group_name_H-M   'P 1'
_cell_length_a   5.21671378
_cell_length_b   5.55772487
_cell_length_c   4.08487800
_cell_angle_alpha   90.00000000
_cell_angle_beta   90.00000000
_cell_angle_gamma   122.48550224
_symmetry_Int_Tables_number   1
_chemical_formula_structural   LaCu3PdRh
_chemical_formula_sum   'La1 Cu3 Pd1 Rh1'
_cell_volume   99.90157242
_cell_formula_units_Z   1
loop_
 _symmetry_equiv_pos_site_id
 _symmetry_equiv_pos_as_xyz
  1  'x, y, z'
loop_
 _atom_site_type_symbol
 _atom_site_label
 _atom_site_symmetry_multiplicity
 _atom_site_fract_x
 _atom_site_fract_y
 _atom_site_fract_z
 _atom_site_occupancy
  La  La0  1  0.500000  0.500000  0.000000  1
  Cu  Cu1  1  0.182994  0.853259  0.000000  1
  Cu  Cu2  1  0.817006  0.146741  0.000000  1
  Cu  Cu3  1  0.500000  0.000000  0.500000  1
  Pd  Pd4  1  0.000000  0.500000  0.500000  1
  Rh  Rh5  1  0.000000  0.000000  0.500000  1
