# generated using pymatgen
data_Lu2AlB2Ir3Ru2
_symmetry_space_group_name_H-M   'P 1'
_cell_length_a   9.57626407
_cell_length_b   9.54317129
_cell_length_c   3.06037400
_cell_angle_alpha   90.00000000
_cell_angle_beta   90.00000000
_cell_angle_gamma   89.75877360
_symmetry_Int_Tables_number   1
_chemical_formula_structural   Lu2AlB2Ir3Ru2
_chemical_formula_sum   'Lu4 Al2 B4 Ir6 Ru4'
_cell_volume   279.67876112
_cell_formula_units_Z   2
loop_
 _symmetry_equiv_pos_site_id
 _symmetry_equiv_pos_as_xyz
  1  'x, y, z'
loop_
 _atom_site_type_symbol
 _atom_site_label
 _atom_site_symmetry_multiplicity
 _atom_site_fract_x
 _atom_site_fract_y
 _atom_site_fract_z
 _atom_site_occupancy
  Lu  Lu0  1  0.674014  0.172717  0.000000  1
  Lu  Lu1  1  0.325986  0.827283  0.000000  1
  Lu  Lu2  1  0.175000  0.322755  0.000000  1
  Lu  Lu3  1  0.825000  0.677245  0.000000  1
  Al  Al4  1  0.000000  0.000000  0.000000  1
  Al  Al5  1  0.500000  0.500000  0.000000  1
  B  B6  1  0.122096  0.620823  0.000000  1
  B  B7  1  0.877904  0.379177  0.000000  1
  B  B8  1  0.624612  0.879307  0.000000  1
  B  B9  1  0.375388  0.120693  0.000000  1
  Ir  Ir10  1  0.070325  0.784242  0.500000  1
  Ir  Ir11  1  0.716560  0.430639  0.500000  1
  Ir  Ir12  1  0.929675  0.215758  0.500000  1
  Ir  Ir13  1  0.283440  0.569361  0.500000  1
  Ir  Ir14  1  0.569788  0.716009  0.500000  1
  Ir  Ir15  1  0.430212  0.283991  0.500000  1
  Ru  Ru16  1  0.216606  0.069508  0.500000  1
  Ru  Ru17  1  0.783394  0.930492  0.500000  1
  Ru  Ru18  1  0.500000  0.000000  0.500000  1
  Ru  Ru19  1  0.000000  0.500000  0.500000  1
