# generated using pymatgen
data_Dy11YAl12Cr8O48
_symmetry_space_group_name_H-M   'P 1'
_cell_length_a   10.62923899
_cell_length_b   10.62875850
_cell_length_c   10.62875100
_cell_angle_alpha   109.46855842
_cell_angle_beta   109.47168892
_cell_angle_gamma   109.47177644
_symmetry_Int_Tables_number   1
_chemical_formula_structural   Dy11YAl12Cr8O48
_chemical_formula_sum   'Dy11 Y1 Al12 Cr8 O48'
_cell_volume   924.38700831
_cell_formula_units_Z   1
loop_
 _symmetry_equiv_pos_site_id
 _symmetry_equiv_pos_as_xyz
  1  'x, y, z'
loop_
 _atom_site_type_symbol
 _atom_site_label
 _atom_site_symmetry_multiplicity
 _atom_site_fract_x
 _atom_site_fract_y
 _atom_site_fract_z
 _atom_site_occupancy
  Dy  Dy0  1  0.250004  0.375002  0.124999  1
  Dy  Dy1  1  0.374997  0.749987  0.125022  1
  Dy  Dy2  1  0.374999  0.125009  0.249973  1
  Dy  Dy3  1  0.875046  0.625002  0.250090  1
  Dy  Dy4  1  0.124995  0.250020  0.374984  1
  Dy  Dy5  1  0.750000  0.124996  0.375001  1
  Dy  Dy6  1  0.875049  0.750048  0.624959  1
  Dy  Dy7  1  0.250000  0.874997  0.625000  1
  Dy  Dy8  1  0.624948  0.875036  0.749947  1
  Dy  Dy9  1  0.124995  0.374977  0.750012  1
  Dy  Dy10  1  0.624944  0.249910  0.874996  1
  Y  Y11  1  0.750007  0.625003  0.874998  1
  Al  Al12  1  0.875006  0.249990  0.124998  1
  Al  Al13  1  0.750001  0.875123  0.125125  1
  Al  Al14  1  0.624993  0.375005  0.250009  1
  Al  Al15  1  0.125142  0.875122  0.250165  1
  Al  Al16  1  0.250004  0.624992  0.374990  1
  Al  Al17  1  0.624994  0.749987  0.374986  1
  Al  Al18  1  0.374856  0.249832  0.624873  1
  Al  Al19  1  0.750003  0.374878  0.624875  1
  Al  Al20  1  0.875003  0.125011  0.750006  1
  Al  Al21  1  0.374855  0.625025  0.749984  1
  Al  Al22  1  0.250001  0.125010  0.875012  1
  Al  Al23  1  0.125143  0.750020  0.874978  1
  Cr  Cr24  1  0.000064  0.000129  0.000050  1
  Cr  Cr25  1  0.500027  0.000058  0.000055  1
  Cr  Cr26  1  0.000055  0.499937  0.000007  1
  Cr  Cr27  1  0.499938  0.499968  0.000056  1
  Cr  Cr28  1  0.999996  0.000055  0.500051  1
  Cr  Cr29  1  0.499947  0.499983  0.499895  1
  Cr  Cr30  1  0.500009  0.999948  0.499974  1
  Cr  Cr31  1  0.999993  0.499968  0.499950  1
  O  O32  1  0.315897  0.901062  0.023852  1
  O  O33  1  0.207981  0.122790  0.023849  1
  O  O34  1  0.708007  0.684336  0.085578  1
  O  O35  1  0.877194  0.401040  0.085191  1
  O  O36  1  0.622807  0.414808  0.098953  1
  O  O37  1  0.976558  0.684184  0.099338  1
  O  O38  1  0.598943  0.914806  0.122796  1
  O  O39  1  0.023817  0.207986  0.122786  1
  O  O40  1  0.476178  0.598957  0.184157  1
  O  O41  1  0.207975  0.585190  0.184129  1
  O  O42  1  0.585210  0.184160  0.207996  1
  O  O43  1  0.122770  0.023820  0.207987  1
  O  O44  1  0.476182  0.377219  0.292023  1
  O  O45  1  0.315889  0.914832  0.292042  1
  O  O46  1  0.914789  0.292000  0.315837  1
  O  O47  1  0.901063  0.023856  0.315866  1
  O  O48  1  0.585205  0.901052  0.377215  1
  O  O49  1  0.292018  0.476150  0.377211  1
  O  O50  1  0.085212  0.877257  0.401100  1
  O  O51  1  0.815856  0.523827  0.401043  1
  O  O52  1  0.098944  0.622778  0.414789  1
  O  O53  1  0.815863  0.792028  0.414814  1
  O  O54  1  0.598940  0.184136  0.476145  1
  O  O55  1  0.377224  0.292010  0.476175  1
  O  O56  1  0.401054  0.815851  0.523836  1
  O  O57  1  0.622803  0.707991  0.523853  1
  O  O58  1  0.901060  0.377207  0.585194  1
  O  O59  1  0.184117  0.207963  0.585169  1
  O  O60  1  0.914790  0.122787  0.598948  1
  O  O61  1  0.184109  0.476146  0.598939  1
  O  O62  1  0.414786  0.098904  0.622741  1
  O  O63  1  0.708002  0.523661  0.622422  1
  O  O64  1  0.085211  0.707953  0.684108  1
  O  O65  1  0.098947  0.976167  0.684154  1
  O  O66  1  0.684145  0.085191  0.707978  1
  O  O67  1  0.523435  0.622772  0.707625  1
  O  O68  1  0.414792  0.815886  0.792048  1
  O  O69  1  0.877197  0.976155  0.792009  1
  O  O70  1  0.523435  0.400655  0.815805  1
  O  O71  1  0.791987  0.414417  0.815662  1
  O  O72  1  0.401055  0.085203  0.877216  1
  O  O73  1  0.976556  0.792378  0.877221  1
  O  O74  1  0.377227  0.585211  0.901050  1
  O  O75  1  0.023820  0.315840  0.901038  1
  O  O76  1  0.292019  0.315866  0.914804  1
  O  O77  1  0.122760  0.598941  0.914784  1
  O  O78  1  0.684153  0.098961  0.976171  1
  O  O79  1  0.791990  0.877574  0.976330  1
