# generated using pymatgen
data_Dy3Ho(ZrPt)4
_symmetry_space_group_name_H-M   'P 1'
_cell_length_a   4.69812900
_cell_length_b   7.11855337
_cell_length_c   8.24335900
_cell_angle_alpha   89.93650304
_cell_angle_beta   90.00000000
_cell_angle_gamma   90.00000000
_symmetry_Int_Tables_number   1
_chemical_formula_structural   Dy3Ho(ZrPt)4
_chemical_formula_sum   'Dy3 Ho1 Zr4 Pt4'
_cell_volume   275.68975665
_cell_formula_units_Z   1
loop_
 _symmetry_equiv_pos_site_id
 _symmetry_equiv_pos_as_xyz
  1  'x, y, z'
loop_
 _atom_site_type_symbol
 _atom_site_label
 _atom_site_symmetry_multiplicity
 _atom_site_fract_x
 _atom_site_fract_y
 _atom_site_fract_z
 _atom_site_occupancy
  Dy  Dy0  1  0.250000  0.515179  0.178994  1
  Dy  Dy1  1  0.750000  0.984991  0.678272  1
  Dy  Dy2  1  0.750000  0.484992  0.821574  1
  Ho  Ho3  1  0.250000  0.015842  0.321298  1
  Zr  Zr4  1  0.250000  0.148500  0.919740  1
  Zr  Zr5  1  0.250000  0.649027  0.580010  1
  Zr  Zr6  1  0.750000  0.851049  0.081087  1
  Zr  Zr7  1  0.750000  0.351038  0.419558  1
  Pt  Pt8  1  0.250000  0.270870  0.592146  1
  Pt  Pt9  1  0.250000  0.771118  0.906966  1
  Pt  Pt10  1  0.750000  0.729176  0.406753  1
  Pt  Pt11  1  0.750000  0.228218  0.093600  1
