# generated using pymatgen
data_Hf3FeB2Ir3Ru
_symmetry_space_group_name_H-M   'P 1'
_cell_length_a   9.39972414
_cell_length_b   9.39940014
_cell_length_c   3.15425000
_cell_angle_alpha   90.00000000
_cell_angle_beta   90.00000000
_cell_angle_gamma   89.98049415
_symmetry_Int_Tables_number   1
_chemical_formula_structural   Hf3FeB2Ir3Ru
_chemical_formula_sum   'Hf6 Fe2 B4 Ir6 Ru2'
_cell_volume   278.68354909
_cell_formula_units_Z   2
loop_
 _symmetry_equiv_pos_site_id
 _symmetry_equiv_pos_as_xyz
  1  'x, y, z'
loop_
 _atom_site_type_symbol
 _atom_site_label
 _atom_site_symmetry_multiplicity
 _atom_site_fract_x
 _atom_site_fract_y
 _atom_site_fract_z
 _atom_site_occupancy
  Hf  Hf0  1  0.169007  0.676448  0.000000  1
  Hf  Hf1  1  0.327387  0.167691  0.000000  1
  Hf  Hf2  1  0.829273  0.329148  0.000000  1
  Hf  Hf3  1  0.498743  0.500084  0.000000  1
  Hf  Hf4  1  0.674519  0.827956  0.000000  1
  Hf  Hf5  1  0.002223  0.996036  0.000000  1
  Fe  Fe6  1  0.999038  0.498997  0.500000  1
  Fe  Fe7  1  0.503392  0.998931  0.500000  1
  B  B8  1  0.387896  0.893041  0.000000  1
  B  B9  1  0.106502  0.391238  0.000000  1
  B  B10  1  0.892499  0.613256  0.000000  1
  B  B11  1  0.610106  0.107400  0.000000  1
  Ir  Ir12  1  0.433614  0.726874  0.500000  1
  Ir  Ir13  1  0.567123  0.272964  0.500000  1
  Ir  Ir14  1  0.725790  0.565886  0.500000  1
  Ir  Ir15  1  0.271991  0.432347  0.500000  1
  Ir  Ir16  1  0.067812  0.226089  0.500000  1
  Ir  Ir17  1  0.775018  0.069777  0.500000  1
  Ru  Ru18  1  0.228042  0.932634  0.500000  1
  Ru  Ru19  1  0.930024  0.773202  0.500000  1
