# generated using pymatgen
data_Gd4Al23ZnPt9
_symmetry_space_group_name_H-M   'P 1'
_cell_length_a   7.69550964
_cell_length_b   7.71211804
_cell_length_c   13.42614100
_cell_angle_alpha   84.58727955
_cell_angle_beta   79.04639551
_cell_angle_gamma   59.90902580
_symmetry_Int_Tables_number   1
_chemical_formula_structural   Gd4Al23ZnPt9
_chemical_formula_sum   'Gd4 Al23 Zn1 Pt9'
_cell_volume   676.87512890
_cell_formula_units_Z   1
loop_
 _symmetry_equiv_pos_site_id
 _symmetry_equiv_pos_as_xyz
  1  'x, y, z'
loop_
 _atom_site_type_symbol
 _atom_site_label
 _atom_site_symmetry_multiplicity
 _atom_site_fract_x
 _atom_site_fract_y
 _atom_site_fract_z
 _atom_site_occupancy
  Gd  Gd0  1  0.394600  0.168415  0.807362  1
  Gd  Gd1  1  0.606687  0.831581  0.191294  1
  Gd  Gd2  1  0.732769  0.499240  0.807636  1
  Gd  Gd3  1  0.266624  0.501271  0.191933  1
  Al  Al4  1  0.321212  0.161230  0.052438  1
  Al  Al5  1  0.147925  0.830373  0.559458  1
  Al  Al6  1  0.853073  0.169492  0.441029  1
  Al  Al7  1  0.478710  0.166139  0.558129  1
  Al  Al8  1  0.521419  0.833821  0.442043  1
  Al  Al9  1  0.216887  0.164978  0.328972  1
  Al  Al10  1  0.784031  0.834719  0.670179  1
  Al  Al11  1  0.435498  0.507317  0.670697  1
  Al  Al12  1  0.563549  0.493482  0.329800  1
  Al  Al13  1  0.108948  0.158952  0.668732  1
  Al  Al14  1  0.890827  0.840691  0.331637  1
  Al  Al15  1  0.352854  0.499838  0.946393  1
  Al  Al16  1  0.648786  0.504833  0.052124  1
  Al  Al17  1  0.015444  0.167480  0.957259  1
  Al  Al18  1  0.981561  0.832439  0.040446  1
  Al  Al19  1  0.185971  0.498852  0.441503  1
  Al  Al20  1  0.813829  0.501340  0.558851  1
  Al  Al21  1  0.734617  0.164928  0.183016  1
  Al  Al22  1  0.264199  0.835846  0.817546  1
  Al  Al23  1  0.058655  0.631576  0.817789  1
  Al  Al24  1  0.938896  0.368262  0.184204  1
  Al  Al25  1  0.854099  0.039173  0.818558  1
  Al  Al26  1  0.142604  0.960091  0.183772  1
  Zn  Zn27  1  0.685410  0.833805  0.940749  1
  Pt  Pt28  1  0.120305  0.492717  0.637918  1
  Pt  Pt29  1  0.879857  0.507422  0.362671  1
  Pt  Pt30  1  0.658100  0.178508  0.001167  1
  Pt  Pt31  1  0.334186  0.828813  0.002044  1
  Pt  Pt32  1  0.538786  0.166883  0.362138  1
  Pt  Pt33  1  0.460701  0.833023  0.638232  1
  Pt  Pt34  1  0.779836  0.173419  0.637143  1
  Pt  Pt35  1  0.220237  0.826723  0.363806  1
  Pt  Pt36  1  0.008308  0.492329  0.001335  1
