# generated using pymatgen
data_K3HoIr2O9
_symmetry_space_group_name_H-M   'P 1'
_cell_length_a   5.97217700
_cell_length_b   5.96839229
_cell_length_c   14.47349200
_cell_angle_alpha   90.00000000
_cell_angle_beta   90.00000000
_cell_angle_gamma   120.02114840
_symmetry_Int_Tables_number   1
_chemical_formula_structural   K3HoIr2O9
_chemical_formula_sum   'K6 Ho2 Ir4 O18'
_cell_volume   446.68503084
_cell_formula_units_Z   2
loop_
 _symmetry_equiv_pos_site_id
 _symmetry_equiv_pos_as_xyz
  1  'x, y, z'
loop_
 _atom_site_type_symbol
 _atom_site_label
 _atom_site_symmetry_multiplicity
 _atom_site_fract_x
 _atom_site_fract_y
 _atom_site_fract_z
 _atom_site_occupancy
  K  K0  1  0.666971  0.333941  0.098440  1
  K  K1  1  0.000448  0.000913  0.250000  1
  K  K2  1  0.666971  0.333941  0.401560  1
  K  K3  1  0.333030  0.666059  0.598440  1
  K  K4  1  0.999551  0.999087  0.750000  1
  K  K5  1  0.333030  0.666059  0.901560  1
  Ho  Ho6  1  0.000000  0.000000  0.000000  1
  Ho  Ho7  1  0.000000  0.000000  0.500000  1
  Ir  Ir8  1  0.333638  0.667285  0.156954  1
  Ir  Ir9  1  0.333638  0.667285  0.343046  1
  Ir  Ir10  1  0.666363  0.332715  0.656954  1
  Ir  Ir11  1  0.666363  0.332715  0.843045  1
  O  O12  1  0.179217  0.358444  0.084906  1
  O  O13  1  0.179226  0.822337  0.085332  1
  O  O14  1  0.643104  0.822336  0.085330  1
  O  O15  1  0.046057  0.523199  0.250000  1
  O  O16  1  0.477131  0.523196  0.250000  1
  O  O17  1  0.477535  0.955070  0.250000  1
  O  O18  1  0.179226  0.822337  0.414669  1
  O  O19  1  0.643104  0.822336  0.414671  1
  O  O20  1  0.179217  0.358444  0.415093  1
  O  O21  1  0.820784  0.641555  0.584907  1
  O  O22  1  0.356897  0.177667  0.585330  1
  O  O23  1  0.820777  0.177666  0.585332  1
  O  O24  1  0.522467  0.044929  0.750000  1
  O  O25  1  0.522870  0.476804  0.750000  1
  O  O26  1  0.953942  0.476801  0.750000  1
  O  O27  1  0.356897  0.177667  0.914671  1
  O  O28  1  0.820777  0.177666  0.914669  1
  O  O29  1  0.820784  0.641555  0.915094  1
