# generated using pymatgen
data_Tm12Th4Zn3InCo4
_symmetry_space_group_name_H-M   'P 1'
_cell_length_a   9.36755327
_cell_length_b   9.41925948
_cell_length_c   9.41925900
_cell_angle_alpha   60.00000519
_cell_angle_beta   59.81724600
_cell_angle_gamma   59.81723874
_symmetry_Int_Tables_number   1
_chemical_formula_structural   Tm12Th4Zn3InCo4
_chemical_formula_sum   'Tm12 Th4 Zn3 In1 Co4'
_cell_volume   586.05646885
_cell_formula_units_Z   1
loop_
 _symmetry_equiv_pos_site_id
 _symmetry_equiv_pos_as_xyz
  1  'x, y, z'
loop_
 _atom_site_type_symbol
 _atom_site_label
 _atom_site_symmetry_multiplicity
 _atom_site_fract_x
 _atom_site_fract_y
 _atom_site_fract_z
 _atom_site_occupancy
  Tm  Tm0  1  0.810090  0.189429  0.189429  1
  Tm  Tm1  1  0.187506  0.811935  0.811935  1
  Tm  Tm2  1  0.187506  0.811935  0.188624  1
  Tm  Tm3  1  0.810090  0.189429  0.811053  1
  Tm  Tm4  1  0.187506  0.188624  0.811935  1
  Tm  Tm5  1  0.810090  0.811053  0.189429  1
  Tm  Tm6  1  0.930298  0.565649  0.565649  1
  Tm  Tm7  1  0.563028  0.935296  0.935296  1
  Tm  Tm8  1  0.563028  0.935296  0.566381  1
  Tm  Tm9  1  0.930298  0.565649  0.938405  1
  Tm  Tm10  1  0.563028  0.566381  0.935296  1
  Tm  Tm11  1  0.930298  0.938405  0.565649  1
  Th  Th12  1  0.349165  0.347149  0.347149  1
  Th  Th13  1  0.349165  0.347149  0.956538  1
  Th  Th14  1  0.349165  0.956538  0.347149  1
  Th  Th15  1  0.951738  0.349421  0.349421  1
  Zn  Zn16  1  0.586440  0.583464  0.583464  1
  Zn  Zn17  1  0.586440  0.583464  0.246631  1
  Zn  Zn18  1  0.586440  0.246631  0.583464  1
  In  In19  1  0.268961  0.577013  0.577013  1
  Co  Co20  1  0.143392  0.143866  0.143866  1
  Co  Co21  1  0.143392  0.143866  0.568876  1
  Co  Co22  1  0.143392  0.568876  0.143866  1
  Co  Co23  1  0.569550  0.143484  0.143484  1
