# generated using pymatgen
data_Dy2AlZn13Cu3
_symmetry_space_group_name_H-M   'P 1'
_cell_length_a   8.90769000
_cell_length_b   8.90768978
_cell_length_c   8.65280600
_cell_angle_alpha   90.00000000
_cell_angle_beta   90.00000000
_cell_angle_gamma   120.00000824
_symmetry_Int_Tables_number   1
_chemical_formula_structural   Dy2AlZn13Cu3
_chemical_formula_sum   'Dy4 Al2 Zn26 Cu6'
_cell_volume   594.59019178
_cell_formula_units_Z   2
loop_
 _symmetry_equiv_pos_site_id
 _symmetry_equiv_pos_as_xyz
  1  'x, y, z'
loop_
 _atom_site_type_symbol
 _atom_site_label
 _atom_site_symmetry_multiplicity
 _atom_site_fract_x
 _atom_site_fract_y
 _atom_site_fract_z
 _atom_site_occupancy
  Dy  Dy0  1  0.000000  0.000000  0.249632  1
  Dy  Dy1  1  0.000000  0.000000  0.750368  1
  Dy  Dy2  1  0.333333  0.666667  0.751330  1
  Dy  Dy3  1  0.666667  0.333333  0.248670  1
  Al  Al4  1  0.333333  0.666667  0.402087  1
  Al  Al5  1  0.666667  0.333333  0.597913  1
  Zn  Zn6  1  0.666667  0.333333  0.903711  1
  Zn  Zn7  1  0.333333  0.666667  0.096289  1
  Zn  Zn8  1  0.332807  0.369285  0.249733  1
  Zn  Zn9  1  0.630715  0.963521  0.249733  1
  Zn  Zn10  1  0.036479  0.667193  0.249733  1
  Zn  Zn11  1  0.630715  0.667193  0.249733  1
  Zn  Zn12  1  0.036479  0.369285  0.249733  1
  Zn  Zn13  1  0.332807  0.963521  0.249733  1
  Zn  Zn14  1  0.667193  0.630715  0.750267  1
  Zn  Zn15  1  0.369285  0.036479  0.750267  1
  Zn  Zn16  1  0.963521  0.332807  0.750267  1
  Zn  Zn17  1  0.369285  0.332807  0.750267  1
  Zn  Zn18  1  0.963521  0.630715  0.750267  1
  Zn  Zn19  1  0.667193  0.036479  0.750267  1
  Zn  Zn20  1  0.164485  0.835515  0.520241  1
  Zn  Zn21  1  0.164485  0.328970  0.520241  1
  Zn  Zn22  1  0.671030  0.835515  0.520241  1
  Zn  Zn23  1  0.835515  0.164485  0.479759  1
  Zn  Zn24  1  0.835515  0.671030  0.479759  1
  Zn  Zn25  1  0.328970  0.164485  0.479759  1
  Zn  Zn26  1  0.834913  0.165087  0.020017  1
  Zn  Zn27  1  0.834913  0.669826  0.020017  1
  Zn  Zn28  1  0.330174  0.165087  0.020017  1
  Zn  Zn29  1  0.165087  0.834913  0.979983  1
  Zn  Zn30  1  0.165087  0.330174  0.979983  1
  Zn  Zn31  1  0.669826  0.834913  0.979983  1
  Cu  Cu32  1  0.500000  0.500000  0.500000  1
  Cu  Cu33  1  0.500000  0.000000  0.500000  1
  Cu  Cu34  1  0.000000  0.500000  0.500000  1
  Cu  Cu35  1  0.500000  0.500000  0.000000  1
  Cu  Cu36  1  0.500000  0.000000  0.000000  1
  Cu  Cu37  1  0.000000  0.500000  0.000000  1
