# generated using pymatgen
data_Tb2Nd2Zn10SiSn
_symmetry_space_group_name_H-M   'P 1'
_cell_length_a   8.39198015
_cell_length_b   8.39198004
_cell_length_c   8.91802000
_cell_angle_alpha   90.00000000
_cell_angle_beta   90.00000000
_cell_angle_gamma   149.60078912
_symmetry_Int_Tables_number   1
_chemical_formula_structural   Tb2Nd2Zn10SiSn
_chemical_formula_sum   'Tb2 Nd2 Zn10 Si1 Sn1'
_cell_volume   317.80932243
_cell_formula_units_Z   1
loop_
 _symmetry_equiv_pos_site_id
 _symmetry_equiv_pos_as_xyz
  1  'x, y, z'
loop_
 _atom_site_type_symbol
 _atom_site_label
 _atom_site_symmetry_multiplicity
 _atom_site_fract_x
 _atom_site_fract_y
 _atom_site_fract_z
 _atom_site_occupancy
  Tb  Tb0  1  0.202126  0.797874  0.250000  1
  Tb  Tb1  1  0.794902  0.205098  0.750000  1
  Nd  Nd2  1  0.000754  0.999246  0.486191  1
  Nd  Nd3  1  0.000754  0.999246  0.013809  1
  Zn  Zn4  1  0.811842  0.188158  0.391030  1
  Zn  Zn5  1  0.186934  0.813066  0.606640  1
  Zn  Zn6  1  0.811842  0.188158  0.108970  1
  Zn  Zn7  1  0.186934  0.813066  0.893360  1
  Zn  Zn8  1  0.650939  0.349061  0.472955  1
  Zn  Zn9  1  0.343448  0.656552  0.515693  1
  Zn  Zn10  1  0.650939  0.349061  0.027045  1
  Zn  Zn11  1  0.343448  0.656552  0.984307  1
  Zn  Zn12  1  0.404696  0.595304  0.250000  1
  Zn  Zn13  1  0.606675  0.393325  0.750000  1
  Si  Si14  1  0.558892  0.441108  0.250000  1
  Sn  Sn15  1  0.444872  0.555128  0.750000  1
