# generated using pymatgen
data_Sr7Sc(BO3)6
_symmetry_space_group_name_H-M   'P 1'
_cell_length_a   7.95095633
_cell_length_b   7.95112108
_cell_length_c   7.94988084
_cell_angle_alpha   105.38913344
_cell_angle_beta   105.41970996
_cell_angle_gamma   105.39511051
_symmetry_Int_Tables_number   1
_chemical_formula_structural   Sr7Sc(BO3)6
_chemical_formula_sum   'Sr7 Sc1 B6 O18'
_cell_volume   435.52315831
_cell_formula_units_Z   1
loop_
 _symmetry_equiv_pos_site_id
 _symmetry_equiv_pos_as_xyz
  1  'x, y, z'
loop_
 _atom_site_type_symbol
 _atom_site_label
 _atom_site_symmetry_multiplicity
 _atom_site_fract_x
 _atom_site_fract_y
 _atom_site_fract_z
 _atom_site_occupancy
  Sr  Sr0  1  0.359282  0.732474  0.849005  1
  Sr  Sr1  1  0.848879  0.359116  0.732245  1
  Sr  Sr2  1  0.732160  0.849010  0.359346  1
  Sr  Sr3  1  0.640718  0.267526  0.150995  1
  Sr  Sr4  1  0.151121  0.640884  0.267755  1
  Sr  Sr5  1  0.267840  0.150990  0.640654  1
  Sr  Sr6  1  0.000000  0.000000  0.000000  1
  Sc  Sc7  1  0.500000  0.500000  0.500000  1
  B  B8  1  0.389631  0.045328  0.300448  1
  B  B9  1  0.300505  0.389628  0.045373  1
  B  B10  1  0.045343  0.300481  0.389658  1
  B  B11  1  0.699495  0.610372  0.954627  1
  B  B12  1  0.954657  0.699519  0.610342  1
  B  B13  1  0.610369  0.954672  0.699552  1
  O  O14  1  0.429586  0.502884  0.225909  1
  O  O15  1  0.225888  0.429517  0.502767  1
  O  O16  1  0.792755  0.027181  0.711426  1
  O  O17  1  0.027210  0.711370  0.792686  1
  O  O18  1  0.711427  0.792757  0.027197  1
  O  O19  1  0.288573  0.207243  0.972803  1
  O  O20  1  0.207245  0.972819  0.288574  1
  O  O21  1  0.972790  0.288630  0.207314  1
  O  O22  1  0.535072  0.054253  0.808306  1
  O  O23  1  0.054271  0.808323  0.535061  1
  O  O24  1  0.808268  0.535142  0.054211  1
  O  O25  1  0.464928  0.945747  0.191694  1
  O  O26  1  0.945729  0.191677  0.464939  1
  O  O27  1  0.191732  0.464858  0.945789  1
  O  O28  1  0.497183  0.774139  0.570447  1
  O  O29  1  0.774112  0.570483  0.497233  1
  O  O30  1  0.570414  0.497116  0.774091  1
  O  O31  1  0.502817  0.225861  0.429553  1
