# generated using pymatgen
data_Na2V5MoSe6
_symmetry_space_group_name_H-M   'P 1'
_cell_length_a   8.67086358
_cell_length_b   8.72932655
_cell_length_c   4.33978900
_cell_angle_alpha   90.00000000
_cell_angle_beta   90.00000000
_cell_angle_gamma   119.37979640
_symmetry_Int_Tables_number   1
_chemical_formula_structural   Na2V5MoSe6
_chemical_formula_sum   'Na2 V5 Mo1 Se6'
_cell_volume   286.23498505
_cell_formula_units_Z   1
loop_
 _symmetry_equiv_pos_site_id
 _symmetry_equiv_pos_as_xyz
  1  'x, y, z'
loop_
 _atom_site_type_symbol
 _atom_site_label
 _atom_site_symmetry_multiplicity
 _atom_site_fract_x
 _atom_site_fract_y
 _atom_site_fract_z
 _atom_site_occupancy
  Na  Na0  1  0.364951  0.695179  0.250000  1
  Na  Na1  1  0.643958  0.315359  0.750000  1
  V  V2  1  0.155428  0.214040  0.250000  1
  V  V3  1  0.840709  0.787215  0.750000  1
  V  V4  1  0.850811  0.963038  0.250000  1
  V  V5  1  0.045959  0.833614  0.250000  1
  V  V6  1  0.948688  0.160688  0.750000  1
  Mo  Mo7  1  0.155751  0.036992  0.750000  1
  Se  Se8  1  0.907177  0.285308  0.250000  1
  Se  Se9  1  0.087090  0.705724  0.750000  1
  Se  Se10  1  0.713500  0.622584  0.250000  1
  Se  Se11  1  0.366997  0.082389  0.250000  1
  Se  Se12  1  0.634959  0.916136  0.750000  1
  Se  Se13  1  0.284022  0.381733  0.750000  1
