# generated using pymatgen
data_Tb3Dy5(AlIr)2
_symmetry_space_group_name_H-M   'P 1'
_cell_length_a   9.55679144
_cell_length_b   9.55679276
_cell_length_c   9.55679300
_cell_angle_alpha   60.00000263
_cell_angle_beta   59.99999805
_cell_angle_gamma   60.00000328
_symmetry_Int_Tables_number   1
_chemical_formula_structural   Tb3Dy5(AlIr)2
_chemical_formula_sum   'Tb6 Dy10 Al4 Ir4'
_cell_volume   617.19368116
_cell_formula_units_Z   2
loop_
 _symmetry_equiv_pos_site_id
 _symmetry_equiv_pos_as_xyz
  1  'x, y, z'
loop_
 _atom_site_type_symbol
 _atom_site_label
 _atom_site_symmetry_multiplicity
 _atom_site_fract_x
 _atom_site_fract_y
 _atom_site_fract_z
 _atom_site_occupancy
  Tb  Tb0  1  0.188604  0.811396  0.811396  1
  Tb  Tb1  1  0.811396  0.188604  0.188604  1
  Tb  Tb2  1  0.811396  0.188604  0.811396  1
  Tb  Tb3  1  0.188604  0.811396  0.188604  1
  Tb  Tb4  1  0.811396  0.811396  0.188604  1
  Tb  Tb5  1  0.188604  0.188604  0.811396  1
  Dy  Dy6  1  0.601620  0.601620  0.601620  1
  Dy  Dy7  1  0.601620  0.601620  0.195140  1
  Dy  Dy8  1  0.601620  0.195140  0.601620  1
  Dy  Dy9  1  0.195140  0.601620  0.601620  1
  Dy  Dy10  1  0.056602  0.443398  0.443398  1
  Dy  Dy11  1  0.443398  0.056602  0.056602  1
  Dy  Dy12  1  0.443398  0.056602  0.443398  1
  Dy  Dy13  1  0.056602  0.443398  0.056602  1
  Dy  Dy14  1  0.443398  0.443398  0.056602  1
  Dy  Dy15  1  0.056602  0.056602  0.443398  1
  Al  Al16  1  0.826965  0.826965  0.826965  1
  Al  Al17  1  0.826965  0.826965  0.519107  1
  Al  Al18  1  0.826965  0.519107  0.826965  1
  Al  Al19  1  0.519107  0.826965  0.826965  1
  Ir  Ir20  1  0.391851  0.391851  0.391851  1
  Ir  Ir21  1  0.391851  0.391851  0.824448  1
  Ir  Ir22  1  0.391851  0.824448  0.391851  1
  Ir  Ir23  1  0.824448  0.391851  0.391851  1
