# generated using pymatgen
data_Tb10In5BiBr2
_symmetry_space_group_name_H-M   'P 1'
_cell_length_a   9.24225100
_cell_length_b   9.26641419
_cell_length_c   6.80646500
_cell_angle_alpha   90.00000000
_cell_angle_beta   90.00000000
_cell_angle_gamma   119.91378196
_symmetry_Int_Tables_number   1
_chemical_formula_structural   Tb10In5BiBr2
_chemical_formula_sum   'Tb10 In5 Bi1 Br2'
_cell_volume   505.26401656
_cell_formula_units_Z   1
loop_
 _symmetry_equiv_pos_site_id
 _symmetry_equiv_pos_as_xyz
  1  'x, y, z'
loop_
 _atom_site_type_symbol
 _atom_site_label
 _atom_site_symmetry_multiplicity
 _atom_site_fract_x
 _atom_site_fract_y
 _atom_site_fract_z
 _atom_site_occupancy
  Tb  Tb0  1  0.733699  0.734760  0.250000  1
  Tb  Tb1  1  0.994659  0.731556  0.750000  1
  Tb  Tb2  1  0.739175  0.000000  0.750000  1
  Tb  Tb3  1  0.332830  0.662790  0.497068  1
  Tb  Tb4  1  0.263103  0.268444  0.750000  1
  Tb  Tb5  1  0.998939  0.265240  0.250000  1
  Tb  Tb6  1  0.670041  0.337210  0.497068  1
  Tb  Tb7  1  0.263404  0.000000  0.250000  1
  Tb  Tb8  1  0.332830  0.662790  0.002932  1
  Tb  Tb9  1  0.670041  0.337210  0.002932  1
  In  In10  1  0.000427  0.607900  0.250000  1
  In  In11  1  0.609026  0.000000  0.250000  1
  In  In12  1  0.999730  0.393151  0.750000  1
  In  In13  1  0.392527  0.392100  0.250000  1
  In  In14  1  0.606579  0.606849  0.750000  1
  Bi  Bi15  1  0.390480  0.000000  0.750000  1
  Br  Br16  1  0.001256  0.000000  0.500946  1
  Br  Br17  1  0.001256  0.000000  0.999054  1
