# generated using pymatgen
data_Nd5HfUO12
_symmetry_space_group_name_H-M   'P 1'
_cell_length_a   6.84649708
_cell_length_b   6.70317233
_cell_length_c   6.62674600
_cell_angle_alpha   99.41741426
_cell_angle_beta   98.78476512
_cell_angle_gamma   99.73619580
_symmetry_Int_Tables_number   1
_chemical_formula_structural   Nd5HfUO12
_chemical_formula_sum   'Nd5 Hf1 U1 O12'
_cell_volume   290.56892527
_cell_formula_units_Z   1
loop_
 _symmetry_equiv_pos_site_id
 _symmetry_equiv_pos_as_xyz
  1  'x, y, z'
loop_
 _atom_site_type_symbol
 _atom_site_label
 _atom_site_symmetry_multiplicity
 _atom_site_fract_x
 _atom_site_fract_y
 _atom_site_fract_z
 _atom_site_occupancy
  Nd  Nd0  1  0.858773  0.689006  0.385458  1
  Nd  Nd1  1  0.393989  0.863466  0.699844  1
  Nd  Nd2  1  0.321508  0.604076  0.150543  1
  Nd  Nd3  1  0.136695  0.305747  0.612208  1
  Nd  Nd4  1  0.608208  0.140231  0.310017  1
  Hf  Hf5  1  0.664104  0.395141  0.848278  1
  U  U6  1  0.993709  0.995801  0.992312  1
  O  O7  1  0.442339  0.192318  0.604242  1
  O  O8  1  0.596843  0.428032  0.157729  1
  O  O9  1  0.172581  0.585984  0.438486  1
  O  O10  1  0.570033  0.820078  0.420375  1
  O  O11  1  0.442033  0.562925  0.820389  1
  O  O12  1  0.811809  0.413560  0.597353  1
  O  O13  1  0.101097  0.300448  0.962871  1
  O  O14  1  0.697400  0.094188  0.919762  1
  O  O15  1  0.053981  0.935081  0.687132  1
  O  O16  1  0.889945  0.674239  0.016013  1
  O  O17  1  0.302480  0.936253  0.071225  1
  O  O18  1  0.942471  0.063425  0.305761  1
