# generated using pymatgen
data_Gd4YThH18
_symmetry_space_group_name_H-M   'P 1'
_cell_length_a   6.47513410
_cell_length_b   6.47517869
_cell_length_c   6.68194555
_cell_angle_alpha   90.13553533
_cell_angle_beta   89.98163881
_cell_angle_gamma   120.00795192
_symmetry_Int_Tables_number   1
_chemical_formula_structural   Gd4YThH18
_chemical_formula_sum   'Gd4 Y1 Th1 H18'
_cell_volume   242.60394221
_cell_formula_units_Z   1
loop_
 _symmetry_equiv_pos_site_id
 _symmetry_equiv_pos_as_xyz
  1  'x, y, z'
loop_
 _atom_site_type_symbol
 _atom_site_label
 _atom_site_symmetry_multiplicity
 _atom_site_fract_x
 _atom_site_fract_y
 _atom_site_fract_z
 _atom_site_occupancy
  Gd  Gd0  1  0.665872  0.666160  0.250018  1
  Gd  Gd1  1  0.669676  0.000274  0.749910  1
  Gd  Gd2  1  0.996092  0.661774  0.750573  1
  Gd  Gd3  1  0.333896  0.338062  0.749519  1
  Y  Y4  1  0.999745  0.333856  0.250016  1
  Th  Th5  1  0.332905  0.000047  0.249979  1
  H  H6  1  0.992655  0.002708  0.249941  1
  H  H7  1  0.003218  0.999812  0.749988  1
  H  H8  1  0.330504  0.657883  0.203199  1
  H  H9  1  0.675253  0.339565  0.296864  1
  H  H10  1  0.663340  0.330488  0.803368  1
  H  H11  1  0.333289  0.669663  0.696655  1
  H  H12  1  0.343251  0.325913  0.091486  1
  H  H13  1  0.673049  0.019503  0.095248  1
  H  H14  1  0.990111  0.665509  0.097344  1
  H  H15  1  0.017201  0.673564  0.408116  1
  H  H16  1  0.653270  0.981233  0.405491  1
  H  H17  1  0.323522  0.334246  0.402291  1
  H  H18  1  0.655423  0.675531  0.908151  1
  H  H19  1  0.324452  0.975306  0.904952  1
  H  H20  1  0.019471  0.345195  0.909922  1
  H  H21  1  0.980370  0.324603  0.590055  1
  H  H22  1  0.349061  0.024671  0.595043  1
  H  H23  1  0.674374  0.654434  0.591874  1
