# generated using pymatgen
data_Tb2ErTm5(WO6)4
_symmetry_space_group_name_H-M   'P 1'
_cell_length_a   5.36385100
_cell_length_b   7.65723624
_cell_length_c   11.39985604
_cell_angle_alpha   75.31140923
_cell_angle_beta   90.00000000
_cell_angle_gamma   90.00000000
_symmetry_Int_Tables_number   1
_chemical_formula_structural   Tb2ErTm5(WO6)4
_chemical_formula_sum   'Tb2 Er1 Tm5 W4 O24'
_cell_volume   452.91583653
_cell_formula_units_Z   1
loop_
 _symmetry_equiv_pos_site_id
 _symmetry_equiv_pos_as_xyz
  1  'x, y, z'
loop_
 _atom_site_type_symbol
 _atom_site_label
 _atom_site_symmetry_multiplicity
 _atom_site_fract_x
 _atom_site_fract_y
 _atom_site_fract_z
 _atom_site_occupancy
  Tb  Tb0  1  0.684468  0.500000  0.750000  1
  Tb  Tb1  1  0.315336  0.500000  0.250000  1
  Er  Er2  1  0.740534  0.000000  0.750000  1
  Tm  Tm3  1  0.259781  0.000000  0.250000  1
  Tm  Tm4  1  0.185416  0.796225  0.577953  1
  Tm  Tm5  1  0.814716  0.796349  0.078264  1
  Tm  Tm6  1  0.185416  0.203775  0.922047  1
  Tm  Tm7  1  0.814716  0.203651  0.421736  1
  W  W8  1  0.254835  0.724104  0.885702  1
  W  W9  1  0.745096  0.724492  0.385513  1
  W  W10  1  0.254835  0.275896  0.614298  1
  W  W11  1  0.745096  0.275508  0.114487  1
  O  O12  1  0.041435  0.941293  0.896187  1
  O  O13  1  0.534957  0.847794  0.931274  1
  O  O14  1  0.959620  0.941463  0.395589  1
  O  O15  1  0.458751  0.792089  0.726202  1
  O  O16  1  0.464791  0.848290  0.430812  1
  O  O17  1  0.982161  0.713622  0.769800  1
  O  O18  1  0.540393  0.792859  0.226186  1
  O  O19  1  0.853890  0.636134  0.548876  1
  O  O20  1  0.357985  0.488195  0.887250  1
  O  O21  1  0.017866  0.713985  0.269728  1
  O  O22  1  0.357985  0.511805  0.612750  1
  O  O23  1  0.853890  0.363866  0.951124  1
  O  O24  1  0.145845  0.635799  0.049020  1
  O  O25  1  0.642184  0.488485  0.387071  1
  O  O26  1  0.982161  0.286378  0.730200  1
  O  O27  1  0.642184  0.511515  0.112929  1
  O  O28  1  0.145845  0.364201  0.450980  1
  O  O29  1  0.458751  0.207911  0.773798  1
  O  O30  1  0.017866  0.286015  0.230272  1
  O  O31  1  0.534957  0.152206  0.568726  1
  O  O32  1  0.540393  0.207141  0.273814  1
  O  O33  1  0.041435  0.058707  0.603813  1
  O  O34  1  0.464791  0.151710  0.069188  1
  O  O35  1  0.959620  0.058537  0.104411  1
