# generated using pymatgen
data_CaYb5(LuBi3)2
_symmetry_space_group_name_H-M   'P 1'
_cell_length_a   8.11444133
_cell_length_b   8.32058459
_cell_length_c   8.32133201
_cell_angle_alpha   109.97180859
_cell_angle_beta   108.97019822
_cell_angle_gamma   108.96686938
_symmetry_Int_Tables_number   1
_chemical_formula_structural   CaYb5(LuBi3)2
_chemical_formula_sum   'Ca1 Yb5 Lu2 Bi6'
_cell_volume   435.13729190
_cell_formula_units_Z   1
loop_
 _symmetry_equiv_pos_site_id
 _symmetry_equiv_pos_as_xyz
  1  'x, y, z'
loop_
 _atom_site_type_symbol
 _atom_site_label
 _atom_site_symmetry_multiplicity
 _atom_site_fract_x
 _atom_site_fract_y
 _atom_site_fract_z
 _atom_site_occupancy
  Ca  Ca0  1  0.500921  0.999820  0.647101  1
  Yb  Yb1  1  0.353912  0.352563  0.352965  1
  Yb  Yb2  1  0.501264  0.000342  0.147427  1
  Yb  Yb3  1  0.000997  0.647242  0.500264  1
  Yb  Yb4  1  0.854002  0.852825  0.852662  1
  Yb  Yb5  1  0.000861  0.147003  0.499602  1
  Lu  Lu6  1  0.143093  0.500060  0.999992  1
  Lu  Lu7  1  0.643213  0.500223  0.000168  1
  Bi  Bi8  1  0.377035  0.621495  0.758766  1
  Bi  Bi9  1  0.877348  0.258918  0.121980  1
  Bi  Bi10  1  0.618441  0.741066  0.362777  1
  Bi  Bi11  1  0.118076  0.862833  0.240891  1
  Bi  Bi12  1  0.255294  0.137107  0.878361  1
  Bi  Bi13  1  0.755543  0.378503  0.637043  1
