# generated using pymatgen
data_Hf5Ti3Al15Ir7
_symmetry_space_group_name_H-M   'P 1'
_cell_length_a   8.77841263
_cell_length_b   8.77947176
_cell_length_c   8.77841053
_cell_angle_alpha   120.28994928
_cell_angle_beta   119.90828510
_cell_angle_gamma   89.82500699
_symmetry_Int_Tables_number   1
_chemical_formula_structural   Hf5Ti3Al15Ir7
_chemical_formula_sum   'Hf5 Ti3 Al15 Ir7'
_cell_volume   477.68329098
_cell_formula_units_Z   1
loop_
 _symmetry_equiv_pos_site_id
 _symmetry_equiv_pos_as_xyz
  1  'x, y, z'
loop_
 _atom_site_type_symbol
 _atom_site_label
 _atom_site_symmetry_multiplicity
 _atom_site_fract_x
 _atom_site_fract_y
 _atom_site_fract_z
 _atom_site_occupancy
  Hf  Hf0  1  0.796420  0.292462  0.076336  1
  Hf  Hf1  1  0.216133  0.292477  0.496047  1
  Hf  Hf2  1  0.199686  0.699569  0.499878  1
  Hf  Hf3  1  0.216227  0.720060  0.923873  1
  Hf  Hf4  1  0.796182  0.720063  0.503817  1
  Ti  Ti5  1  0.782764  0.282734  0.499987  1
  Ti  Ti6  1  0.379279  0.123761  0.744485  1
  Ti  Ti7  1  0.379262  0.634768  0.255486  1
  Al  Al8  1  0.985405  0.485490  0.500075  1
  Al  Al9  1  0.161557  0.336141  0.174572  1
  Al  Al10  1  0.161452  0.986764  0.825323  1
  Al  Al11  1  0.150319  0.343241  0.807212  1
  Al  Al12  1  0.536038  0.343249  0.192939  1
  Al  Al13  1  0.840618  0.652732  0.812092  1
  Al  Al14  1  0.840640  0.028488  0.187874  1
  Al  Al15  1  0.835987  0.660380  0.175588  1
  Al  Al16  1  0.484800  0.660390  0.824408  1
  Al  Al17  1  0.387299  0.124284  0.263026  1
  Al  Al18  1  0.861263  0.124271  0.736990  1
  Al  Al19  1  0.622034  0.882020  0.259971  1
  Al  Al20  1  0.622106  0.362137  0.740026  1
  Al  Al21  1  0.618732  0.876966  0.741718  1
  Al  Al22  1  0.135247  0.876956  0.258226  1
  Ir  Ir23  1  0.000681  0.999458  0.501588  1
  Ir  Ir24  1  0.497884  0.999468  0.998795  1
  Ir  Ir25  1  0.496513  0.496643  0.000132  1
  Ir  Ir26  1  0.497818  0.499188  0.498332  1
  Ir  Ir27  1  0.000827  0.499159  0.001322  1
  Ir  Ir28  1  0.999195  0.999182  0.000012  1
  Ir  Ir29  1  0.497626  0.997494  0.499871  1
