# generated using pymatgen
data_Sr6P13Rh20
_symmetry_space_group_name_H-M   'P 1'
_cell_length_a   13.61139600
_cell_length_b   13.61139488
_cell_length_c   3.96024400
_cell_angle_alpha   90.00000000
_cell_angle_beta   90.00000000
_cell_angle_gamma   119.99999786
_symmetry_Int_Tables_number   1
_chemical_formula_structural   Sr6P13Rh20
_chemical_formula_sum   'Sr6 P13 Rh20'
_cell_volume   635.41562260
_cell_formula_units_Z   1
loop_
 _symmetry_equiv_pos_site_id
 _symmetry_equiv_pos_as_xyz
  1  'x, y, z'
loop_
 _atom_site_type_symbol
 _atom_site_label
 _atom_site_symmetry_multiplicity
 _atom_site_fract_x
 _atom_site_fract_y
 _atom_site_fract_z
 _atom_site_occupancy
  Sr  Sr0  1  0.527761  0.718019  0.249028  1
  Sr  Sr1  1  0.281981  0.809741  0.249028  1
  Sr  Sr2  1  0.190259  0.472239  0.249028  1
  Sr  Sr3  1  0.472239  0.281981  0.750972  1
  Sr  Sr4  1  0.718019  0.190259  0.750972  1
  Sr  Sr5  1  0.809741  0.527761  0.750972  1
  P  P6  1  0.519003  0.133083  0.250916  1
  P  P7  1  0.866917  0.385921  0.250916  1
  P  P8  1  0.614079  0.480997  0.250916  1
  P  P9  1  0.951140  0.722857  0.252825  1
  P  P10  1  0.277143  0.228283  0.252825  1
  P  P11  1  0.771717  0.048860  0.252825  1
  P  P12  1  0.385921  0.519003  0.749084  1
  P  P13  1  0.480997  0.866917  0.749084  1
  P  P14  1  0.133083  0.614079  0.749084  1
  P  P15  1  0.722857  0.771717  0.747175  1
  P  P16  1  0.228283  0.951140  0.747175  1
  P  P17  1  0.048860  0.277143  0.747175  1
  P  P18  1  0.000000  0.000000  0.000000  1
  Rh  Rh19  1  0.333333  0.666667  0.750758  1
  Rh  Rh20  1  0.926739  0.249276  0.252523  1
  Rh  Rh21  1  0.750724  0.677463  0.252523  1
  Rh  Rh22  1  0.322537  0.073261  0.252523  1
  Rh  Rh23  1  0.440327  0.024995  0.750545  1
  Rh  Rh24  1  0.975005  0.415333  0.750545  1
  Rh  Rh25  1  0.584667  0.559673  0.750545  1
  Rh  Rh26  1  0.666667  0.333333  0.249242  1
  Rh  Rh27  1  0.089797  0.180196  0.248953  1
  Rh  Rh28  1  0.819804  0.909602  0.248953  1
  Rh  Rh29  1  0.090398  0.910203  0.248953  1
  Rh  Rh30  1  0.024995  0.584667  0.249455  1
  Rh  Rh31  1  0.415333  0.440327  0.249455  1
  Rh  Rh32  1  0.559673  0.975005  0.249455  1
  Rh  Rh33  1  0.677463  0.926739  0.747477  1
  Rh  Rh34  1  0.073261  0.750724  0.747477  1
  Rh  Rh35  1  0.249276  0.322537  0.747477  1
  Rh  Rh36  1  0.910203  0.819804  0.751047  1
  Rh  Rh37  1  0.180196  0.090398  0.751047  1
  Rh  Rh38  1  0.909602  0.089797  0.751047  1
