# generated using pymatgen
data_DyY4Nb3(Co4P3)4
_symmetry_space_group_name_H-M   'P 1'
_cell_length_a   12.20763400
_cell_length_b   12.20775114
_cell_length_c   3.70414900
_cell_angle_alpha   90.00000000
_cell_angle_beta   90.00000000
_cell_angle_gamma   119.99967717
_symmetry_Int_Tables_number   1
_chemical_formula_structural   DyY4Nb3(Co4P3)4
_chemical_formula_sum   'Dy1 Y4 Nb3 Co16 P12'
_cell_volume   478.06578209
_cell_formula_units_Z   1
loop_
 _symmetry_equiv_pos_site_id
 _symmetry_equiv_pos_as_xyz
  1  'x, y, z'
loop_
 _atom_site_type_symbol
 _atom_site_label
 _atom_site_symmetry_multiplicity
 _atom_site_fract_x
 _atom_site_fract_y
 _atom_site_fract_z
 _atom_site_occupancy
  Dy  Dy0  1  0.816158  0.000000  0.500000  1
  Y  Y1  1  0.000004  0.816162  0.500000  1
  Y  Y2  1  0.183842  0.183838  0.500000  1
  Y  Y3  1  0.333337  0.666668  0.000000  1
  Y  Y4  1  0.666670  0.333332  0.000000  1
  Nb  Nb5  1  0.444162  0.000000  0.000000  1
  Nb  Nb6  1  0.999992  0.444160  0.000000  1
  Nb  Nb7  1  0.555832  0.555840  0.000000  1
  Co  Co8  1  0.279212  0.000000  0.500000  1
  Co  Co9  1  0.999993  0.279197  0.500000  1
  Co  Co10  1  0.720795  0.720803  0.500000  1
  Co  Co11  1  0.626178  0.803138  0.000000  1
  Co  Co12  1  0.196877  0.823047  0.000000  1
  Co  Co13  1  0.176957  0.373833  0.000000  1
  Co  Co14  1  0.373830  0.176953  0.000000  1
  Co  Co15  1  0.803124  0.626167  0.000000  1
  Co  Co16  1  0.823040  0.196862  0.000000  1
  Co  Co17  1  0.519558  0.873269  0.500000  1
  Co  Co18  1  0.126733  0.646284  0.500000  1
  Co  Co19  1  0.353720  0.480453  0.500000  1
  Co  Co20  1  0.480449  0.353716  0.500000  1
  Co  Co21  1  0.873267  0.519547  0.500000  1
  Co  Co22  1  0.646289  0.126731  0.500000  1
  Co  Co23  1  0.999974  0.000000  0.000000  1
  P  P24  1  0.178626  0.000000  0.000000  1
  P  P25  1  0.999974  0.178607  0.000000  1
  P  P26  1  0.821368  0.821393  0.000000  1
  P  P27  1  0.521013  0.688724  0.500000  1
  P  P28  1  0.311277  0.832286  0.500000  1
  P  P29  1  0.167717  0.478991  0.500000  1
  P  P30  1  0.478989  0.167714  0.500000  1
  P  P31  1  0.688725  0.521009  0.500000  1
  P  P32  1  0.832287  0.311276  0.500000  1
  P  P33  1  0.643426  0.000000  0.000000  1
  P  P34  1  0.000001  0.643398  0.000000  1
  P  P35  1  0.356603  0.356602  0.000000  1
