# generated using pymatgen
data_Mn2BeB2
_symmetry_space_group_name_H-M   'P 1'
_cell_length_a   5.26313800
_cell_length_b   5.26313800
_cell_length_c   2.83623000
_cell_angle_alpha   90.00000000
_cell_angle_beta   90.00000000
_cell_angle_gamma   90.00000000
_symmetry_Int_Tables_number   1
_chemical_formula_structural   Mn2BeB2
_chemical_formula_sum   'Mn4 Be2 B4'
_cell_volume   78.56533402
_cell_formula_units_Z   2
loop_
 _symmetry_equiv_pos_site_id
 _symmetry_equiv_pos_as_xyz
  1  'x, y, z'
loop_
 _atom_site_type_symbol
 _atom_site_label
 _atom_site_symmetry_multiplicity
 _atom_site_fract_x
 _atom_site_fract_y
 _atom_site_fract_z
 _atom_site_occupancy
  Mn  Mn0  1  0.674169  0.174169  0.500000  1
  Mn  Mn1  1  0.174169  0.325831  0.500000  1
  Mn  Mn2  1  0.825830  0.674169  0.500000  1
  Mn  Mn3  1  0.325831  0.825830  0.500000  1
  Be  Be4  1  0.000000  0.000000  0.000000  1
  Be  Be5  1  0.500000  0.500000  0.000000  1
  B  B6  1  0.380356  0.119644  0.000000  1
  B  B7  1  0.880355  0.380356  0.000000  1
  B  B8  1  0.119644  0.619643  0.000000  1
  B  B9  1  0.619643  0.880355  0.000000  1
