# generated using pymatgen
data_SrLa3SmCo4I
_symmetry_space_group_name_H-M   'P 1'
_cell_length_a   4.05727400
_cell_length_b   4.05727369
_cell_length_c   19.60221300
_cell_angle_alpha   90.00000000
_cell_angle_beta   90.00000000
_cell_angle_gamma   120.00000250
_symmetry_Int_Tables_number   1
_chemical_formula_structural   SrLa3SmCo4I
_chemical_formula_sum   'Sr1 La3 Sm1 Co4 I1'
_cell_volume   279.45016330
_cell_formula_units_Z   1
loop_
 _symmetry_equiv_pos_site_id
 _symmetry_equiv_pos_as_xyz
  1  'x, y, z'
loop_
 _atom_site_type_symbol
 _atom_site_label
 _atom_site_symmetry_multiplicity
 _atom_site_fract_x
 _atom_site_fract_y
 _atom_site_fract_z
 _atom_site_occupancy
  Sr  Sr0  1  0.333333  0.666667  0.247126  1
  La  La1  1  0.000000  0.000000  0.886858  1
  La  La2  1  0.000000  0.000000  0.614497  1
  La  La3  1  0.000000  0.000000  0.425641  1
  Sm  Sm4  1  0.000000  0.000000  0.072005  1
  Co  Co5  1  0.333333  0.666667  0.518791  1
  Co  Co6  1  0.666667  0.333333  0.519924  1
  Co  Co7  1  0.666667  0.333333  0.981710  1
  Co  Co8  1  0.333333  0.666667  0.982997  1
  I  I9  1  0.666667  0.333333  0.750451  1
