# generated using pymatgen
data_Dy3Lu2Sn3
_symmetry_space_group_name_H-M   'P 1'
_cell_length_a   8.89549707
_cell_length_b   8.89549644
_cell_length_c   6.44700800
_cell_angle_alpha   90.00000000
_cell_angle_beta   90.00000000
_cell_angle_gamma   119.98779912
_symmetry_Int_Tables_number   1
_chemical_formula_structural   Dy3Lu2Sn3
_chemical_formula_sum   'Dy6 Lu4 Sn6'
_cell_volume   441.85790915
_cell_formula_units_Z   2
loop_
 _symmetry_equiv_pos_site_id
 _symmetry_equiv_pos_as_xyz
  1  'x, y, z'
loop_
 _atom_site_type_symbol
 _atom_site_label
 _atom_site_symmetry_multiplicity
 _atom_site_fract_x
 _atom_site_fract_y
 _atom_site_fract_z
 _atom_site_occupancy
  Dy  Dy0  1  0.238540  0.000021  0.250000  1
  Dy  Dy1  1  0.761461  0.999980  0.750000  1
  Dy  Dy2  1  0.000020  0.238539  0.250000  1
  Dy  Dy3  1  0.761471  0.761471  0.250000  1
  Dy  Dy4  1  0.238530  0.238530  0.750000  1
  Dy  Dy5  1  0.999979  0.761460  0.750000  1
  Lu  Lu6  1  0.333314  0.666688  0.000000  1
  Lu  Lu7  1  0.666687  0.333312  0.500000  1
  Lu  Lu8  1  0.666687  0.333312  0.000000  1
  Lu  Lu9  1  0.333314  0.666688  0.500000  1
  Sn  Sn10  1  0.602858  0.000024  0.250000  1
  Sn  Sn11  1  0.397142  0.999976  0.750000  1
  Sn  Sn12  1  0.000024  0.602857  0.250000  1
  Sn  Sn13  1  0.397115  0.397115  0.250000  1
  Sn  Sn14  1  0.602884  0.602885  0.750000  1
  Sn  Sn15  1  0.999976  0.397143  0.750000  1
