# generated using pymatgen
data_Er12Ni4SnPd
_symmetry_space_group_name_H-M   'P 1'
_cell_length_a   8.25189120
_cell_length_b   8.25146756
_cell_length_c   8.25189074
_cell_angle_alpha   111.77390874
_cell_angle_beta   109.82774588
_cell_angle_gamma   106.85168823
_symmetry_Int_Tables_number   1
_chemical_formula_structural   Er12Ni4SnPd
_chemical_formula_sum   'Er12 Ni4 Sn1 Pd1'
_cell_volume   431.71368265
_cell_formula_units_Z   1
loop_
 _symmetry_equiv_pos_site_id
 _symmetry_equiv_pos_as_xyz
  1  'x, y, z'
loop_
 _atom_site_type_symbol
 _atom_site_label
 _atom_site_symmetry_multiplicity
 _atom_site_fract_x
 _atom_site_fract_y
 _atom_site_fract_z
 _atom_site_occupancy
  Er  Er0  1  0.322111  0.128475  0.806364  1
  Er  Er1  1  0.677862  0.484151  0.806288  1
  Er  Er2  1  0.411499  0.716705  0.694840  1
  Er  Er3  1  0.588501  0.283295  0.305160  1
  Er  Er4  1  0.978135  0.283295  0.694794  1
  Er  Er5  1  0.021865  0.716705  0.305206  1
  Er  Er6  1  0.322138  0.515849  0.193712  1
  Er  Er7  1  0.677889  0.871525  0.193636  1
  Er  Er8  1  0.182323  0.795635  0.977994  1
  Er  Er9  1  0.817642  0.795635  0.613313  1
  Er  Er10  1  0.182358  0.204365  0.386687  1
  Er  Er11  1  0.817677  0.204365  0.022006  1
  Ni  Ni12  1  0.874497  0.874376  0.999880  1
  Ni  Ni13  1  0.125503  0.125624  0.000120  1
  Ni  Ni14  1  0.637857  0.500000  0.137857  1
  Ni  Ni15  1  0.362143  0.500000  0.862143  1
  Sn  Sn16  1  0.500000  0.000000  0.500000  1
  Pd  Pd17  1  0.000000  0.500000  0.500000  1
