# generated using pymatgen
data_Tm2LuSc(Co4P3)2
_symmetry_space_group_name_H-M   'P 1'
_cell_length_a   3.69980900
_cell_length_b   10.61847600
_cell_length_c   12.28472400
_cell_angle_alpha   90.00000000
_cell_angle_beta   90.00000000
_cell_angle_gamma   90.00000000
_symmetry_Int_Tables_number   1
_chemical_formula_structural   Tm2LuSc(Co4P3)2
_chemical_formula_sum   'Tm4 Lu2 Sc2 Co16 P12'
_cell_volume   482.62175875
_cell_formula_units_Z   2
loop_
 _symmetry_equiv_pos_site_id
 _symmetry_equiv_pos_as_xyz
  1  'x, y, z'
loop_
 _atom_site_type_symbol
 _atom_site_label
 _atom_site_symmetry_multiplicity
 _atom_site_fract_x
 _atom_site_fract_y
 _atom_site_fract_z
 _atom_site_occupancy
  Tm  Tm0  1  0.000000  0.500000  0.528144  1
  Tm  Tm1  1  0.500000  0.000000  0.471645  1
  Tm  Tm2  1  0.000000  0.677090  0.794385  1
  Tm  Tm3  1  0.000000  0.322910  0.794385  1
  Lu  Lu4  1  0.500000  0.823235  0.205514  1
  Lu  Lu5  1  0.500000  0.176765  0.205514  1
  Sc  Sc6  1  0.500000  0.500000  0.158309  1
  Sc  Sc7  1  0.000000  0.000000  0.841723  1
  Co  Co8  1  0.500000  0.500000  0.705108  1
  Co  Co9  1  0.000000  0.000000  0.294396  1
  Co  Co10  1  0.000000  0.500000  0.988044  1
  Co  Co11  1  0.500000  0.000000  0.012844  1
  Co  Co12  1  0.500000  0.330870  0.995009  1
  Co  Co13  1  0.500000  0.669130  0.995009  1
  Co  Co14  1  0.000000  0.168727  0.005907  1
  Co  Co15  1  0.000000  0.831273  0.005907  1
  Co  Co16  1  0.500000  0.295228  0.432800  1
  Co  Co17  1  0.500000  0.704772  0.432800  1
  Co  Co18  1  0.000000  0.204457  0.566398  1
  Co  Co19  1  0.000000  0.795543  0.566398  1
  Co  Co20  1  0.500000  0.877310  0.702488  1
  Co  Co21  1  0.500000  0.122690  0.702488  1
  Co  Co22  1  0.000000  0.623153  0.297119  1
  Co  Co23  1  0.000000  0.376847  0.297119  1
  P  P24  1  0.500000  0.500000  0.885419  1
  P  P25  1  0.000000  0.000000  0.115402  1
  P  P26  1  0.500000  0.500000  0.361594  1
  P  P27  1  0.000000  0.000000  0.638251  1
  P  P28  1  0.500000  0.310851  0.615922  1
  P  P29  1  0.500000  0.689149  0.615922  1
  P  P30  1  0.000000  0.188710  0.383238  1
  P  P31  1  0.000000  0.811290  0.383238  1
  P  P32  1  0.500000  0.838729  0.891767  1
  P  P33  1  0.500000  0.161271  0.891767  1
  P  P34  1  0.000000  0.661826  0.109012  1
  P  P35  1  0.000000  0.338174  0.109012  1
