# generated using pymatgen
data_Sm4Al6TcOs
_symmetry_space_group_name_H-M   'P 1'
_cell_length_a   5.60496400
_cell_length_b   5.60496468
_cell_length_c   8.89245700
_cell_angle_alpha   90.00000000
_cell_angle_beta   90.00000000
_cell_angle_gamma   119.99999597
_symmetry_Int_Tables_number   1
_chemical_formula_structural   Sm4Al6TcOs
_chemical_formula_sum   'Sm4 Al6 Tc1 Os1'
_cell_volume   241.93468254
_cell_formula_units_Z   1
loop_
 _symmetry_equiv_pos_site_id
 _symmetry_equiv_pos_as_xyz
  1  'x, y, z'
loop_
 _atom_site_type_symbol
 _atom_site_label
 _atom_site_symmetry_multiplicity
 _atom_site_fract_x
 _atom_site_fract_y
 _atom_site_fract_z
 _atom_site_occupancy
  Sm  Sm0  1  0.666667  0.333333  0.050249  1
  Sm  Sm1  1  0.666667  0.333333  0.449568  1
  Sm  Sm2  1  0.333333  0.666666  0.550433  1
  Sm  Sm3  1  0.333333  0.666666  0.949751  1
  Al  Al4  1  0.160213  0.320428  0.251586  1
  Al  Al5  1  0.160214  0.839787  0.251586  1
  Al  Al6  1  0.679572  0.839787  0.251586  1
  Al  Al7  1  0.320427  0.160212  0.748414  1
  Al  Al8  1  0.839786  0.160212  0.748414  1
  Al  Al9  1  0.839787  0.679571  0.748414  1
  Tc  Tc10  1  0.000000  0.000000  0.000000  1
  Os  Os11  1  0.000000  0.000000  0.500000  1
