# generated using pymatgen
data_Ba8AlCr(CoO8)2
_symmetry_space_group_name_H-M   'P 1'
_cell_length_a   7.70507203
_cell_length_b   6.10507847
_cell_length_c   11.88795123
_cell_angle_alpha   62.10780416
_cell_angle_beta   90.13850514
_cell_angle_gamma   90.04385459
_symmetry_Int_Tables_number   1
_chemical_formula_structural   Ba8AlCr(CoO8)2
_chemical_formula_sum   'Ba8 Al1 Cr1 Co2 O16'
_cell_volume   494.24477325
_cell_formula_units_Z   1
loop_
 _symmetry_equiv_pos_site_id
 _symmetry_equiv_pos_as_xyz
  1  'x, y, z'
loop_
 _atom_site_type_symbol
 _atom_site_label
 _atom_site_symmetry_multiplicity
 _atom_site_fract_x
 _atom_site_fract_y
 _atom_site_fract_z
 _atom_site_occupancy
  Ba  Ba0  1  0.007109  0.964214  0.313984  1
  Ba  Ba1  1  0.487115  0.031538  0.202039  1
  Ba  Ba2  1  0.006474  0.046532  0.682973  1
  Ba  Ba3  1  0.488275  0.982262  0.795928  1
  Ba  Ba4  1  0.655776  0.309380  0.429296  1
  Ba  Ba5  1  0.163622  0.676323  0.086737  1
  Ba  Ba6  1  0.348866  0.689076  0.571585  1
  Ba  Ba7  1  0.847548  0.323249  0.912837  1
  Al  Al8  1  0.222541  0.341102  0.416033  1
  Cr  Cr9  1  0.723612  0.664486  0.079904  1
  Co  Co10  1  0.778385  0.659475  0.583614  1
  Co  Co11  1  0.276840  0.336675  0.919463  1
  O  O12  1  0.319808  0.251506  0.570423  1
  O  O13  1  0.813977  0.756543  0.930673  1
  O  O14  1  0.683752  0.759422  0.426545  1
  O  O15  1  0.176984  0.247843  0.074316  1
  O  O16  1  0.326821  0.146418  0.360738  1
  O  O17  1  0.824219  0.850227  0.134353  1
  O  O18  1  0.676591  0.850028  0.644361  1
  O  O19  1  0.170215  0.134590  0.866795  1
  O  O20  1  0.266848  0.660949  0.313458  1
  O  O21  1  0.765475  0.352803  0.174517  1
  O  O22  1  0.730961  0.335890  0.684392  1
  O  O23  1  0.227537  0.657234  0.818628  1
  O  O24  1  0.505419  0.279634  0.932768  1
  O  O25  1  0.006689  0.703626  0.576412  1
  O  O26  1  0.503640  0.705052  0.070601  1
  O  O27  1  0.994897  0.283926  0.426626  1
