# generated using pymatgen
data_TmReSi2Tc3
_symmetry_space_group_name_H-M   'P 1'
_cell_length_a   7.13997000
_cell_length_b   7.61656954
_cell_length_c   4.15094200
_cell_angle_alpha   90.00000000
_cell_angle_beta   90.00000000
_cell_angle_gamma   90.13627054
_symmetry_Int_Tables_number   1
_chemical_formula_structural   TmReSi2Tc3
_chemical_formula_sum   'Tm2 Re2 Si4 Tc6'
_cell_volume   225.73621330
_cell_formula_units_Z   2
loop_
 _symmetry_equiv_pos_site_id
 _symmetry_equiv_pos_as_xyz
  1  'x, y, z'
loop_
 _atom_site_type_symbol
 _atom_site_label
 _atom_site_symmetry_multiplicity
 _atom_site_fract_x
 _atom_site_fract_y
 _atom_site_fract_z
 _atom_site_occupancy
  Tm  Tm0  1  0.500000  0.500000  0.000000  1
  Tm  Tm1  1  0.000000  0.000000  0.500000  1
  Re  Re2  1  0.580494  0.158939  0.500000  1
  Re  Re3  1  0.419506  0.841061  0.500000  1
  Si  Si4  1  0.724703  0.693449  0.500000  1
  Si  Si5  1  0.275297  0.306551  0.500000  1
  Si  Si6  1  0.222710  0.805228  0.000000  1
  Si  Si7  1  0.777290  0.194772  0.000000  1
  Tc  Tc8  1  0.080896  0.341478  0.000000  1
  Tc  Tc9  1  0.919104  0.658522  0.000000  1
  Tc  Tc10  1  0.153428  0.606819  0.500000  1
  Tc  Tc11  1  0.846572  0.393181  0.500000  1
  Tc  Tc12  1  0.346432  0.106627  0.000000  1
  Tc  Tc13  1  0.653568  0.893373  0.000000  1
