# generated using pymatgen
data_Ho8In2CoPt
_symmetry_space_group_name_H-M   'P 1'
_cell_length_a   9.57840780
_cell_length_b   9.57235558
_cell_length_c   9.57235476
_cell_angle_alpha   60.09781474
_cell_angle_beta   59.97908648
_cell_angle_gamma   59.97908716
_symmetry_Int_Tables_number   1
_chemical_formula_structural   Ho8In2CoPt
_chemical_formula_sum   'Ho16 In4 Co2 Pt2'
_cell_volume   620.86673800
_cell_formula_units_Z   2
loop_
 _symmetry_equiv_pos_site_id
 _symmetry_equiv_pos_as_xyz
  1  'x, y, z'
loop_
 _atom_site_type_symbol
 _atom_site_label
 _atom_site_symmetry_multiplicity
 _atom_site_fract_x
 _atom_site_fract_y
 _atom_site_fract_z
 _atom_site_occupancy
  Ho  Ho0  1  0.937160  0.939224  0.563310  1
  Ho  Ho1  1  0.808759  0.191241  0.191241  1
  Ho  Ho2  1  0.935895  0.564105  0.564105  1
  Ho  Ho3  1  0.937160  0.563310  0.939224  1
  Ho  Ho4  1  0.817963  0.801920  0.190471  1
  Ho  Ho5  1  0.339392  0.350661  0.350661  1
  Ho  Ho6  1  0.558716  0.941284  0.941284  1
  Ho  Ho7  1  0.560307  0.939224  0.563310  1
  Ho  Ho8  1  0.189246  0.810754  0.810754  1
  Ho  Ho9  1  0.189646  0.190471  0.801920  1
  Ho  Ho10  1  0.346561  0.359600  0.947281  1
  Ho  Ho11  1  0.346561  0.947281  0.359600  1
  Ho  Ho12  1  0.817963  0.190471  0.801920  1
  Ho  Ho13  1  0.560307  0.563310  0.939224  1
  Ho  Ho14  1  0.189646  0.801920  0.190471  1
  Ho  Ho15  1  0.959288  0.350661  0.350661  1
  In  In16  1  0.582849  0.581128  0.253176  1
  In  In17  1  0.250362  0.582532  0.582532  1
  In  In18  1  0.584577  0.582532  0.582532  1
  In  In19  1  0.582849  0.253176  0.581128  1
  Co  Co20  1  0.142429  0.575820  0.139323  1
  Co  Co21  1  0.142429  0.139323  0.575820  1
  Pt  Pt22  1  0.573560  0.140030  0.140030  1
  Pt  Pt23  1  0.146381  0.140030  0.140030  1
