# generated using pymatgen
data_NaTiGaB2Rh5
_symmetry_space_group_name_H-M   'P 1'
_cell_length_a   9.50092900
_cell_length_b   2.93235600
_cell_length_c   9.49692000
_cell_angle_alpha   90.00000000
_cell_angle_beta   90.00000000
_cell_angle_gamma   90.00000000
_symmetry_Int_Tables_number   1
_chemical_formula_structural   NaTiGaB2Rh5
_chemical_formula_sum   'Na2 Ti2 Ga2 B4 Rh10'
_cell_volume   264.58519938
_cell_formula_units_Z   2
loop_
 _symmetry_equiv_pos_site_id
 _symmetry_equiv_pos_as_xyz
  1  'x, y, z'
loop_
 _atom_site_type_symbol
 _atom_site_label
 _atom_site_symmetry_multiplicity
 _atom_site_fract_x
 _atom_site_fract_y
 _atom_site_fract_z
 _atom_site_occupancy
  Na  Na0  1  0.676558  0.000000  0.175647  1
  Na  Na1  1  0.176558  0.000000  0.324354  1
  Ti  Ti2  1  0.824890  0.000000  0.673757  1
  Ti  Ti3  1  0.324891  0.000000  0.826243  1
  Ga  Ga4  1  0.995048  0.000000  0.010595  1
  Ga  Ga5  1  0.495048  0.000000  0.489405  1
  B  B6  1  0.373939  0.000000  0.122140  1
  B  B7  1  0.873939  0.000000  0.377858  1
  B  B8  1  0.124734  0.000000  0.632964  1
  B  B9  1  0.624734  0.000000  0.867034  1
  Rh  Rh10  1  0.497676  0.500001  0.986765  1
  Rh  Rh11  1  0.221471  0.500001  0.050927  1
  Rh  Rh12  1  0.930637  0.500001  0.225248  1
  Rh  Rh13  1  0.430636  0.500001  0.274753  1
  Rh  Rh14  1  0.721470  0.500001  0.449073  1
  Rh  Rh15  1  0.997676  0.500001  0.513235  1
  Rh  Rh16  1  0.286446  0.500001  0.589949  1
  Rh  Rh17  1  0.568601  0.500001  0.709157  1
  Rh  Rh18  1  0.068601  0.500001  0.790842  1
  Rh  Rh19  1  0.786445  0.500001  0.910052  1
