# generated using pymatgen
data_Dy4Ho12In6CoPt
_symmetry_space_group_name_H-M   'P 1'
_cell_length_a   10.41361200
_cell_length_b   10.41042992
_cell_length_c   6.98035300
_cell_angle_alpha   90.00139553
_cell_angle_beta   90.00000000
_cell_angle_gamma   120.01011175
_symmetry_Int_Tables_number   1
_chemical_formula_structural   Dy4Ho12In6CoPt
_chemical_formula_sum   'Dy4 Ho12 In6 Co1 Pt1'
_cell_volume   655.29041274
_cell_formula_units_Z   1
loop_
 _symmetry_equiv_pos_site_id
 _symmetry_equiv_pos_as_xyz
  1  'x, y, z'
loop_
 _atom_site_type_symbol
 _atom_site_label
 _atom_site_symmetry_multiplicity
 _atom_site_fract_x
 _atom_site_fract_y
 _atom_site_fract_z
 _atom_site_occupancy
  Dy  Dy0  1  0.530541  0.061082  0.507872  1
  Dy  Dy1  1  0.938967  0.469507  0.507947  1
  Dy  Dy2  1  0.530541  0.469507  0.507947  1
  Dy  Dy3  1  0.464552  0.929105  0.005242  1
  Ho  Ho4  1  0.071006  0.535475  0.005374  1
  Ho  Ho5  1  0.464468  0.535475  0.005374  1
  Ho  Ho6  1  0.178075  0.356150  0.714297  1
  Ho  Ho7  1  0.643929  0.821895  0.714195  1
  Ho  Ho8  1  0.177967  0.821895  0.714195  1
  Ho  Ho9  1  0.824631  0.649262  0.212681  1
  Ho  Ho10  1  0.350726  0.175456  0.212736  1
  Ho  Ho11  1  0.824730  0.175456  0.212736  1
  Ho  Ho12  1  0.666695  0.333390  0.884355  1
  Ho  Ho13  1  0.333287  0.666576  0.396033  1
  Ho  Ho14  1  0.999995  0.999990  0.492171  1
  Ho  Ho15  1  0.000008  0.000017  0.990823  1
  In  In16  1  0.837625  0.675251  0.751493  1
  In  In17  1  0.324767  0.162400  0.751444  1
  In  In18  1  0.837632  0.162400  0.751444  1
  In  In19  1  0.162812  0.325624  0.251910  1
  In  In20  1  0.674447  0.837132  0.252007  1
  In  In21  1  0.162685  0.837132  0.252007  1
  Co  Co22  1  0.333250  0.666501  0.781908  1
  Pt  Pt23  1  0.666661  0.333320  0.281849  1
