# generated using pymatgen
data_Li25Si8Hg
_symmetry_space_group_name_H-M   'P 1'
_cell_length_a   7.93585873
_cell_length_b   14.94722713
_cell_length_c   4.44543900
_cell_angle_alpha   90.00000000
_cell_angle_beta   90.00000000
_cell_angle_gamma   89.90498726
_symmetry_Int_Tables_number   1
_chemical_formula_structural   Li25Si8Hg
_chemical_formula_sum   'Li25 Si8 Hg1'
_cell_volume   527.31317241
_cell_formula_units_Z   1
loop_
 _symmetry_equiv_pos_site_id
 _symmetry_equiv_pos_as_xyz
  1  'x, y, z'
loop_
 _atom_site_type_symbol
 _atom_site_label
 _atom_site_symmetry_multiplicity
 _atom_site_fract_x
 _atom_site_fract_y
 _atom_site_fract_z
 _atom_site_occupancy
  Li  Li0  1  0.147528  0.023667  0.000000  1
  Li  Li1  1  0.770904  0.153054  0.000000  1
  Li  Li2  1  0.089737  0.192866  0.000000  1
  Li  Li3  1  0.597149  0.308205  0.000000  1
  Li  Li4  1  0.267220  0.349218  0.000000  1
  Li  Li5  1  0.650842  0.475770  0.000000  1
  Li  Li6  1  0.000000  0.500000  0.000000  1
  Li  Li7  1  0.349159  0.524229  0.000000  1
  Li  Li8  1  0.732780  0.650783  0.000000  1
  Li  Li9  1  0.402853  0.691796  0.000000  1
  Li  Li10  1  0.910262  0.807135  0.000000  1
  Li  Li11  1  0.229097  0.846946  0.000000  1
  Li  Li12  1  0.852473  0.976332  0.000000  1
  Li  Li13  1  0.261533  0.092285  0.500000  1
  Li  Li14  1  0.599461  0.105207  0.500000  1
  Li  Li15  1  0.906045  0.245453  0.500000  1
  Li  Li16  1  0.406656  0.255807  0.500000  1
  Li  Li17  1  0.095318  0.393496  0.500000  1
  Li  Li18  1  0.759753  0.405857  0.500000  1
  Li  Li19  1  0.240247  0.594143  0.500000  1
  Li  Li20  1  0.904682  0.606504  0.500000  1
  Li  Li21  1  0.593345  0.744193  0.500000  1
  Li  Li22  1  0.093954  0.754547  0.500000  1
  Li  Li23  1  0.400540  0.894793  0.500000  1
  Li  Li24  1  0.738468  0.907715  0.500000  1
  Si  Si25  1  0.413999  0.163905  0.000000  1
  Si  Si26  1  0.916638  0.339313  0.000000  1
  Si  Si27  1  0.083363  0.660687  0.000000  1
  Si  Si28  1  0.586001  0.836095  0.000000  1
  Si  Si29  1  0.929881  0.070909  0.500000  1
  Si  Si30  1  0.424766  0.430520  0.500000  1
  Si  Si31  1  0.575234  0.569480  0.500000  1
  Si  Si32  1  0.070119  0.929092  0.500000  1
  Hg  Hg33  1  0.500000  0.000000  0.000000  1
