# generated using pymatgen
data_NdEu3(InCu5)4
_symmetry_space_group_name_H-M   'P 1'
_cell_length_a   5.06991000
_cell_length_b   8.39588902
_cell_length_c   10.66514457
_cell_angle_alpha   89.91409272
_cell_angle_beta   90.00000000
_cell_angle_gamma   90.00000000
_symmetry_Int_Tables_number   1
_chemical_formula_structural   NdEu3(InCu5)4
_chemical_formula_sum   'Nd1 Eu3 In4 Cu20'
_cell_volume   453.97631781
_cell_formula_units_Z   1
loop_
 _symmetry_equiv_pos_site_id
 _symmetry_equiv_pos_as_xyz
  1  'x, y, z'
loop_
 _atom_site_type_symbol
 _atom_site_label
 _atom_site_symmetry_multiplicity
 _atom_site_fract_x
 _atom_site_fract_y
 _atom_site_fract_z
 _atom_site_occupancy
  Nd  Nd0  1  0.250000  0.257193  0.438267  1
  Eu  Eu1  1  0.250000  0.757350  0.061241  1
  Eu  Eu2  1  0.750000  0.242858  0.938123  1
  Eu  Eu3  1  0.750000  0.742638  0.561264  1
  In  In4  1  0.250000  0.641010  0.362215  1
  In  In5  1  0.750000  0.360059  0.638291  1
  In  In6  1  0.750000  0.860106  0.861847  1
  In  In7  1  0.250000  0.140378  0.137258  1
  Cu  Cu8  1  0.250000  0.817819  0.743465  1
  Cu  Cu9  1  0.750000  0.181787  0.257099  1
  Cu  Cu10  1  0.750000  0.682872  0.242084  1
  Cu  Cu11  1  0.250000  0.317797  0.756747  1
  Cu  Cu12  1  0.500883  0.567650  0.812301  1
  Cu  Cu13  1  0.499830  0.432438  0.188027  1
  Cu  Cu14  1  0.499763  0.932224  0.312742  1
  Cu  Cu15  1  0.000170  0.432438  0.188027  1
  Cu  Cu16  1  0.500611  0.067604  0.687491  1
  Cu  Cu17  1  0.999117  0.567650  0.812301  1
  Cu  Cu18  1  0.999389  0.067604  0.687491  1
  Cu  Cu19  1  0.000237  0.932224  0.312742  1
  Cu  Cu20  1  0.250000  0.557102  0.606950  1
  Cu  Cu21  1  0.750000  0.442345  0.393368  1
  Cu  Cu22  1  0.750000  0.942283  0.107521  1
  Cu  Cu23  1  0.250000  0.058139  0.892394  1
  Cu  Cu24  1  0.250000  0.917378  0.516471  1
  Cu  Cu25  1  0.750000  0.081959  0.484514  1
  Cu  Cu26  1  0.750000  0.581838  0.015724  1
  Cu  Cu27  1  0.250000  0.417258  0.984035  1
