# generated using pymatgen
data_La11Nd5Cd4Ni3Ru
_symmetry_space_group_name_H-M   'P 1'
_cell_length_a   10.04037620
_cell_length_b   10.02837528
_cell_length_c   10.02837441
_cell_angle_alpha   59.53827869
_cell_angle_beta   59.64690261
_cell_angle_gamma   59.64690320
_symmetry_Int_Tables_number   1
_chemical_formula_structural   La11Nd5Cd4Ni3Ru
_chemical_formula_sum   'La11 Nd5 Cd4 Ni3 Ru1'
_cell_volume   707.67747087
_cell_formula_units_Z   1
loop_
 _symmetry_equiv_pos_site_id
 _symmetry_equiv_pos_as_xyz
  1  'x, y, z'
loop_
 _atom_site_type_symbol
 _atom_site_label
 _atom_site_symmetry_multiplicity
 _atom_site_fract_x
 _atom_site_fract_y
 _atom_site_fract_z
 _atom_site_occupancy
  La  La0  1  0.597042  0.596347  0.596347  1
  La  La1  1  0.597399  0.596908  0.210515  1
  La  La2  1  0.597399  0.210515  0.596908  1
  La  La3  1  0.210185  0.596935  0.596935  1
  La  La4  1  0.060277  0.439615  0.439615  1
  La  La5  1  0.441356  0.056440  0.056440  1
  La  La6  1  0.440188  0.061298  0.438717  1
  La  La7  1  0.056144  0.440087  0.057074  1
  La  La8  1  0.440188  0.438717  0.061298  1
  La  La9  1  0.056144  0.057074  0.440087  1
  La  La10  1  0.186517  0.816778  0.816778  1
  Nd  Nd11  1  0.807698  0.186738  0.186738  1
  Nd  Nd12  1  0.815496  0.186925  0.817110  1
  Nd  Nd13  1  0.187186  0.807756  0.187903  1
  Nd  Nd14  1  0.815496  0.817110  0.186925  1
  Nd  Nd15  1  0.187186  0.187903  0.807756  1
  Cd  Cd16  1  0.829197  0.830220  0.830220  1
  Cd  Cd17  1  0.830086  0.829811  0.508647  1
  Cd  Cd18  1  0.830086  0.508647  0.829811  1
  Cd  Cd19  1  0.509987  0.829905  0.829905  1
  Ni  Ni20  1  0.393154  0.392851  0.827056  1
  Ni  Ni21  1  0.393154  0.827056  0.392851  1
  Ni  Ni22  1  0.826883  0.393295  0.393295  1
  Ru  Ru23  1  0.391553  0.391070  0.391070  1
