# generated using pymatgen
data_Sr8TaCo3O16
_symmetry_space_group_name_H-M   'P 1'
_cell_length_a   5.49340383
_cell_length_b   8.79985612
_cell_length_c   8.79976439
_cell_angle_alpha   88.24150189
_cell_angle_beta   71.97968211
_cell_angle_gamma   108.02048067
_symmetry_Int_Tables_number   1
_chemical_formula_structural   Sr8TaCo3O16
_chemical_formula_sum   'Sr8 Ta1 Co3 O16'
_cell_volume   380.90491980
_cell_formula_units_Z   1
loop_
 _symmetry_equiv_pos_site_id
 _symmetry_equiv_pos_as_xyz
  1  'x, y, z'
loop_
 _atom_site_type_symbol
 _atom_site_label
 _atom_site_symmetry_multiplicity
 _atom_site_fract_x
 _atom_site_fract_y
 _atom_site_fract_z
 _atom_site_occupancy
  Sr  Sr0  1  0.259435  0.404651  0.883539  1
  Sr  Sr1  1  0.001625  0.640647  0.639890  1
  Sr  Sr2  1  0.740898  0.885478  0.405138  1
  Sr  Sr3  1  0.499360  0.145760  0.147159  1
  Sr  Sr4  1  0.001665  0.360150  0.359310  1
  Sr  Sr5  1  0.740935  0.594912  0.114494  1
  Sr  Sr6  1  0.499268  0.852764  0.854323  1
  Sr  Sr7  1  0.259454  0.116480  0.595302  1
  Ta  Ta8  1  0.999723  0.999632  0.000370  1
  Co  Co9  1  0.501664  0.500901  0.499095  1
  Co  Co10  1  0.248570  0.747233  0.252827  1
  Co  Co11  1  0.751713  0.252883  0.747062  1
  O  O12  1  0.254755  0.595315  0.094312  1
  O  O13  1  0.998694  0.838878  0.841716  1
  O  O14  1  0.744607  0.095443  0.595797  1
  O  O15  1  0.499515  0.338295  0.337383  1
  O  O16  1  0.998914  0.158538  0.160875  1
  O  O17  1  0.744494  0.404074  0.904603  1
  O  O18  1  0.499511  0.662610  0.661706  1
  O  O19  1  0.254673  0.905627  0.404827  1
  O  O20  1  0.871326  0.126077  0.873777  1
  O  O21  1  0.622490  0.377481  0.622508  1
  O  O22  1  0.379352  0.623651  0.376335  1
  O  O23  1  0.127441  0.873052  0.127102  1
  O  O24  1  0.379828  0.128259  0.871624  1
  O  O25  1  0.108610  0.370602  0.629411  1
  O  O26  1  0.892710  0.629379  0.370614  1
  O  O27  1  0.618768  0.871227  0.128897  1
