# generated using pymatgen
data_Tl2Mo(SO5)2
_symmetry_space_group_name_H-M   'P 1'
_cell_length_a   12.76045100
_cell_length_b   9.10479188
_cell_length_c   9.16318500
_cell_angle_alpha   67.68123551
_cell_angle_beta   90.00000000
_cell_angle_gamma   90.00000000
_symmetry_Int_Tables_number   1
_chemical_formula_structural   Tl2Mo(SO5)2
_chemical_formula_sum   'Tl8 Mo4 S8 O40'
_cell_volume   984.83693279
_cell_formula_units_Z   4
loop_
 _symmetry_equiv_pos_site_id
 _symmetry_equiv_pos_as_xyz
  1  'x, y, z'
loop_
 _atom_site_type_symbol
 _atom_site_label
 _atom_site_symmetry_multiplicity
 _atom_site_fract_x
 _atom_site_fract_y
 _atom_site_fract_z
 _atom_site_occupancy
  Tl  Tl0  1  0.016550  0.198799  0.191557  1
  Tl  Tl1  1  0.883209  0.302101  0.676243  1
  Tl  Tl2  1  0.983450  0.801201  0.808443  1
  Tl  Tl3  1  0.483450  0.698799  0.191557  1
  Tl  Tl4  1  0.116791  0.697899  0.323757  1
  Tl  Tl5  1  0.616791  0.802101  0.676243  1
  Tl  Tl6  1  0.516550  0.301201  0.808443  1
  Tl  Tl7  1  0.383209  0.197899  0.323757  1
  Mo  Mo8  1  0.332200  0.846334  0.778198  1
  Mo  Mo9  1  0.167800  0.346334  0.778198  1
  Mo  Mo10  1  0.667800  0.153666  0.221802  1
  Mo  Mo11  1  0.832200  0.653666  0.221802  1
  S  S12  1  0.798857  0.473187  0.965127  1
  S  S13  1  0.298857  0.026813  0.034873  1
  S  S14  1  0.643087  0.374077  0.431163  1
  S  S15  1  0.701143  0.973187  0.965127  1
  S  S16  1  0.201143  0.526813  0.034873  1
  S  S17  1  0.143087  0.125923  0.568837  1
  S  S18  1  0.856913  0.874077  0.431163  1
  S  S19  1  0.356913  0.625923  0.568837  1
  O  O20  1  0.600210  0.982215  0.332202  1
  O  O21  1  0.181126  0.138051  0.414319  1
  O  O22  1  0.706260  0.825673  0.112681  1
  O  O23  1  0.931069  0.790293  0.137635  1
  O  O24  1  0.793740  0.325673  0.112681  1
  O  O25  1  0.190917  0.270002  0.597522  1
  O  O26  1  0.528811  0.369860  0.422242  1
  O  O27  1  0.809083  0.729998  0.402478  1
  O  O28  1  0.604153  0.972090  0.880326  1
  O  O29  1  0.293740  0.174327  0.887319  1
  O  O30  1  0.182317  0.977537  0.698333  1
  O  O31  1  0.296164  0.500248  0.129060  1
  O  O32  1  0.817683  0.022463  0.301667  1
  O  O33  1  0.809476  0.613254  0.021910  1
  O  O34  1  0.028811  0.130140  0.577758  1
  O  O35  1  0.471189  0.630140  0.577758  1
  O  O36  1  0.309476  0.886746  0.978090  1
  O  O37  1  0.203836  0.000248  0.129060  1
  O  O38  1  0.895847  0.472090  0.880326  1
  O  O39  1  0.690524  0.113254  0.021910  1
  O  O40  1  0.690917  0.229998  0.402478  1
  O  O41  1  0.068931  0.209707  0.862365  1
  O  O42  1  0.971189  0.869860  0.422242  1
  O  O43  1  0.796164  0.999752  0.870940  1
  O  O44  1  0.309083  0.770002  0.597522  1
  O  O45  1  0.399790  0.017785  0.667798  1
  O  O46  1  0.899790  0.482215  0.332202  1
  O  O47  1  0.317683  0.477537  0.698333  1
  O  O48  1  0.395847  0.027910  0.119674  1
  O  O49  1  0.682317  0.522463  0.301667  1
  O  O50  1  0.100210  0.517785  0.667798  1
  O  O51  1  0.206260  0.674327  0.887319  1
  O  O52  1  0.431069  0.709707  0.862365  1
  O  O53  1  0.818874  0.861949  0.585681  1
  O  O54  1  0.318874  0.638051  0.414319  1
  O  O55  1  0.190524  0.386746  0.978090  1
  O  O56  1  0.681126  0.361949  0.585681  1
  O  O57  1  0.104153  0.527910  0.119674  1
  O  O58  1  0.703836  0.499752  0.870940  1
  O  O59  1  0.568931  0.290293  0.137635  1
