# generated using pymatgen
data_Dy2Fe4P6(IrRu)3
_symmetry_space_group_name_H-M   'P 1'
_cell_length_a   3.84098500
_cell_length_b   10.54745500
_cell_length_c   12.22068600
_cell_angle_alpha   90.00000000
_cell_angle_beta   90.00000000
_cell_angle_gamma   90.00000000
_symmetry_Int_Tables_number   1
_chemical_formula_structural   Dy2Fe4P6(IrRu)3
_chemical_formula_sum   'Dy4 Fe8 P12 Ir6 Ru6'
_cell_volume   495.09196459
_cell_formula_units_Z   2
loop_
 _symmetry_equiv_pos_site_id
 _symmetry_equiv_pos_as_xyz
  1  'x, y, z'
loop_
 _atom_site_type_symbol
 _atom_site_label
 _atom_site_symmetry_multiplicity
 _atom_site_fract_x
 _atom_site_fract_y
 _atom_site_fract_z
 _atom_site_occupancy
  Dy  Dy0  1  0.250000  0.579163  0.709176  1
  Dy  Dy1  1  0.250000  0.920837  0.209176  1
  Dy  Dy2  1  0.750000  0.420469  0.291765  1
  Dy  Dy3  1  0.750000  0.079531  0.791765  1
  Fe  Fe4  1  0.250000  0.879024  0.698065  1
  Fe  Fe5  1  0.250000  0.620976  0.198065  1
  Fe  Fe6  1  0.750000  0.120827  0.300397  1
  Fe  Fe7  1  0.750000  0.379173  0.800397  1
  Fe  Fe8  1  0.250000  0.460796  0.936212  1
  Fe  Fe9  1  0.250000  0.039204  0.436212  1
  Fe  Fe10  1  0.750000  0.539264  0.062966  1
  Fe  Fe11  1  0.750000  0.960736  0.562966  1
  P  P12  1  0.250000  0.437547  0.112663  1
  P  P13  1  0.250000  0.062453  0.612663  1
  P  P14  1  0.750000  0.561510  0.886667  1
  P  P15  1  0.750000  0.938490  0.386667  1
  P  P16  1  0.250000  0.270977  0.868346  1
  P  P17  1  0.250000  0.229023  0.368346  1
  P  P18  1  0.750000  0.725939  0.133802  1
  P  P19  1  0.750000  0.774061  0.633802  1
  P  P20  1  0.250000  0.600021  0.383996  1
  P  P21  1  0.250000  0.899979  0.883996  1
  P  P22  1  0.750000  0.397491  0.613476  1
  P  P23  1  0.750000  0.102509  0.113476  1
  Ir  Ir24  1  0.750000  0.595621  0.519920  1
  Ir  Ir25  1  0.750000  0.904379  0.019920  1
  Ir  Ir26  1  0.250000  0.231760  0.177306  1
  Ir  Ir27  1  0.250000  0.268240  0.677306  1
  Ir  Ir28  1  0.750000  0.768434  0.823084  1
  Ir  Ir29  1  0.750000  0.731566  0.323084  1
  Ru  Ru30  1  0.250000  0.707304  0.987002  1
  Ru  Ru31  1  0.250000  0.792696  0.487002  1
  Ru  Ru32  1  0.750000  0.293359  0.011550  1
  Ru  Ru33  1  0.750000  0.206641  0.511550  1
  Ru  Ru34  1  0.250000  0.406646  0.483606  1
  Ru  Ru35  1  0.250000  0.093354  0.983606  1
