# generated using pymatgen
data_Nd4As7Ir8
_symmetry_space_group_name_H-M   'P 1'
_cell_length_a   4.13699900
_cell_length_b   13.22007465
_cell_length_c   13.65282688
_cell_angle_alpha   81.75986260
_cell_angle_beta   90.00000000
_cell_angle_gamma   90.00000000
_symmetry_Int_Tables_number   1
_chemical_formula_structural   Nd4As7Ir8
_chemical_formula_sum   'Nd8 As14 Ir16'
_cell_volume   738.98390036
_cell_formula_units_Z   2
loop_
 _symmetry_equiv_pos_site_id
 _symmetry_equiv_pos_as_xyz
  1  'x, y, z'
loop_
 _atom_site_type_symbol
 _atom_site_label
 _atom_site_symmetry_multiplicity
 _atom_site_fract_x
 _atom_site_fract_y
 _atom_site_fract_z
 _atom_site_occupancy
  Nd  Nd0  1  0.250000  0.098354  0.794958  1
  Nd  Nd1  1  0.750000  0.901646  0.205042  1
  Nd  Nd2  1  0.250000  0.287858  0.102533  1
  Nd  Nd3  1  0.750000  0.712142  0.897467  1
  Nd  Nd4  1  0.250000  0.519610  0.293732  1
  Nd  Nd5  1  0.750000  0.480390  0.706268  1
  Nd  Nd6  1  0.250000  0.208409  0.437553  1
  Nd  Nd7  1  0.750000  0.791591  0.562447  1
  As  As8  1  0.250000  0.057800  0.099613  1
  As  As9  1  0.750000  0.942200  0.900387  1
  As  As10  1  0.250000  0.310266  0.688782  1
  As  As11  1  0.750000  0.689734  0.311218  1
  As  As12  1  0.250000  0.607353  0.566830  1
  As  As13  1  0.750000  0.392647  0.433170  1
  As  As14  1  0.250000  0.848368  0.719596  1
  As  As15  1  0.750000  0.151632  0.280404  1
  As  As16  1  0.750000  0.256557  0.918117  1
  As  As17  1  0.250000  0.743443  0.081883  1
  As  As18  1  0.750000  0.096260  0.586525  1
  As  As19  1  0.250000  0.903740  0.413475  1
  As  As20  1  0.750000  0.471578  0.129147  1
  As  As21  1  0.250000  0.528422  0.870853  1
  Ir  Ir22  1  0.250000  0.989624  0.574105  1
  Ir  Ir23  1  0.750000  0.010376  0.425895  1
  Ir  Ir24  1  0.250000  0.665855  0.733305  1
  Ir  Ir25  1  0.750000  0.334145  0.266695  1
  Ir  Ir26  1  0.250000  0.555752  0.044953  1
  Ir  Ir27  1  0.750000  0.444248  0.955047  1
  Ir  Ir28  1  0.250000  0.052626  0.277882  1
  Ir  Ir29  1  0.750000  0.947374  0.722118  1
  Ir  Ir30  1  0.250000  0.424845  0.526417  1
  Ir  Ir31  1  0.750000  0.575155  0.473583  1
  Ir  Ir32  1  0.250000  0.918560  0.997729  1
  Ir  Ir33  1  0.750000  0.081440  0.002271  1
  Ir  Ir34  1  0.250000  0.721713  0.400206  1
  Ir  Ir35  1  0.750000  0.278287  0.599794  1
  Ir  Ir36  1  0.250000  0.343483  0.860395  1
  Ir  Ir37  1  0.750000  0.656517  0.139605  1
