# generated using pymatgen
data_Ac2Rh7
_symmetry_space_group_name_H-M   'P 1'
_cell_length_a   5.42067600
_cell_length_b   5.42067589
_cell_length_c   26.98847600
_cell_angle_alpha   90.00000000
_cell_angle_beta   90.00000000
_cell_angle_gamma   120.00000064
_symmetry_Int_Tables_number   1
_chemical_formula_structural   Ac2Rh7
_chemical_formula_sum   'Ac8 Rh28'
_cell_volume   686.77721974
_cell_formula_units_Z   4
loop_
 _symmetry_equiv_pos_site_id
 _symmetry_equiv_pos_as_xyz
  1  'x, y, z'
loop_
 _atom_site_type_symbol
 _atom_site_label
 _atom_site_symmetry_multiplicity
 _atom_site_fract_x
 _atom_site_fract_y
 _atom_site_fract_z
 _atom_site_occupancy
  Ac  Ac0  1  0.666667  0.333333  0.529618  1
  Ac  Ac1  1  0.333333  0.666667  0.029618  1
  Ac  Ac2  1  0.333333  0.666667  0.173955  1
  Ac  Ac3  1  0.666667  0.333333  0.970382  1
  Ac  Ac4  1  0.666667  0.333333  0.673955  1
  Ac  Ac5  1  0.666667  0.333333  0.826045  1
  Ac  Ac6  1  0.333333  0.666667  0.326045  1
  Ac  Ac7  1  0.333333  0.666667  0.470382  1
  Rh  Rh8  1  0.000000  0.000000  0.668343  1
  Rh  Rh9  1  0.833361  0.666721  0.250000  1
  Rh  Rh10  1  0.166443  0.332886  0.587192  1
  Rh  Rh11  1  0.833557  0.166443  0.412808  1
  Rh  Rh12  1  0.667114  0.833557  0.912808  1
  Rh  Rh13  1  0.333333  0.666667  0.832588  1
  Rh  Rh14  1  0.833557  0.667114  0.087192  1
  Rh  Rh15  1  0.833557  0.667114  0.412808  1
  Rh  Rh16  1  0.166443  0.833557  0.912808  1
  Rh  Rh17  1  0.666667  0.333333  0.332588  1
  Rh  Rh18  1  0.000000  0.000000  0.331657  1
  Rh  Rh19  1  0.166443  0.833557  0.587192  1
  Rh  Rh20  1  0.332886  0.166443  0.412808  1
  Rh  Rh21  1  0.000000  0.000000  0.000000  1
  Rh  Rh22  1  0.000000  0.000000  0.168343  1
  Rh  Rh23  1  0.333333  0.666667  0.667412  1
  Rh  Rh24  1  0.667114  0.833557  0.587192  1
  Rh  Rh25  1  0.666721  0.833361  0.750000  1
  Rh  Rh26  1  0.833557  0.166443  0.087192  1
  Rh  Rh27  1  0.833361  0.166639  0.250000  1
  Rh  Rh28  1  0.332886  0.166443  0.087192  1
  Rh  Rh29  1  0.666667  0.333333  0.167412  1
  Rh  Rh30  1  0.166443  0.332886  0.912808  1
  Rh  Rh31  1  0.000000  0.000000  0.500000  1
  Rh  Rh32  1  0.166639  0.333279  0.750000  1
  Rh  Rh33  1  0.000000  0.000000  0.831657  1
  Rh  Rh34  1  0.166639  0.833361  0.750000  1
  Rh  Rh35  1  0.333279  0.166639  0.250000  1
