# generated using pymatgen
data_Y12Th4MgCd2HgIr4
_symmetry_space_group_name_H-M   'P 1'
_cell_length_a   9.80198173
_cell_length_b   9.80198115
_cell_length_c   9.80198200
_cell_angle_alpha   59.90161335
_cell_angle_beta   59.90161532
_cell_angle_gamma   59.90161657
_symmetry_Int_Tables_number   1
_chemical_formula_structural   Y12Th4MgCd2HgIr4
_chemical_formula_sum   'Y12 Th4 Mg1 Cd2 Hg1 Ir4'
_cell_volume   664.44069156
_cell_formula_units_Z   1
loop_
 _symmetry_equiv_pos_site_id
 _symmetry_equiv_pos_as_xyz
  1  'x, y, z'
loop_
 _atom_site_type_symbol
 _atom_site_label
 _atom_site_symmetry_multiplicity
 _atom_site_fract_x
 _atom_site_fract_y
 _atom_site_fract_z
 _atom_site_occupancy
  Y  Y0  1  0.810613  0.189133  0.189765  1
  Y  Y1  1  0.187720  0.813140  0.813181  1
  Y  Y2  1  0.189133  0.810613  0.189765  1
  Y  Y3  1  0.813140  0.187720  0.813181  1
  Y  Y4  1  0.189081  0.189081  0.810946  1
  Y  Y5  1  0.813181  0.813181  0.188140  1
  Y  Y6  1  0.937427  0.565053  0.565296  1
  Y  Y7  1  0.564079  0.935637  0.938148  1
  Y  Y8  1  0.565053  0.937427  0.565296  1
  Y  Y9  1  0.935637  0.564079  0.938148  1
  Y  Y10  1  0.564735  0.564735  0.939076  1
  Y  Y11  1  0.936532  0.936532  0.564589  1
  Th  Th12  1  0.348911  0.348911  0.348969  1
  Th  Th13  1  0.349600  0.349600  0.952562  1
  Th  Th14  1  0.349958  0.951836  0.349752  1
  Th  Th15  1  0.951836  0.349958  0.349752  1
  Mg  Mg16  1  0.576731  0.576731  0.575728  1
  Cd  Cd17  1  0.581755  0.250158  0.582906  1
  Cd  Cd18  1  0.250158  0.581755  0.582906  1
  Hg  Hg19  1  0.585483  0.585483  0.242204  1
  Ir  Ir20  1  0.143964  0.143964  0.144108  1
  Ir  Ir21  1  0.143236  0.143236  0.568823  1
  Ir  Ir22  1  0.143322  0.568716  0.143379  1
  Ir  Ir23  1  0.568716  0.143322  0.143379  1
