# generated using pymatgen
data_Er4Be2Co11NiB6
_symmetry_space_group_name_H-M   'P 1'
_cell_length_a   4.99484919
_cell_length_b   4.99485020
_cell_length_c   12.33191000
_cell_angle_alpha   90.00000000
_cell_angle_beta   90.00000000
_cell_angle_gamma   119.85154328
_symmetry_Int_Tables_number   1
_chemical_formula_structural   Er4Be2Co11NiB6
_chemical_formula_sum   'Er4 Be2 Co11 Ni1 B6'
_cell_volume   266.84161855
_cell_formula_units_Z   1
loop_
 _symmetry_equiv_pos_site_id
 _symmetry_equiv_pos_as_xyz
  1  'x, y, z'
loop_
 _atom_site_type_symbol
 _atom_site_label
 _atom_site_symmetry_multiplicity
 _atom_site_fract_x
 _atom_site_fract_y
 _atom_site_fract_z
 _atom_site_occupancy
  Er  Er0  1  0.000000  0.000000  0.001655  1
  Er  Er1  1  0.000000  0.000000  0.499703  1
  Er  Er2  1  0.000000  0.000000  0.744725  1
  Er  Er3  1  0.000000  0.000000  0.255460  1
  Be  Be4  1  0.669072  0.330928  0.000552  1
  Be  Be5  1  0.330928  0.669072  0.000552  1
  Co  Co6  1  0.500000  0.000000  0.855738  1
  Co  Co7  1  0.000000  0.500000  0.855738  1
  Co  Co8  1  0.500000  0.500000  0.143674  1
  Co  Co9  1  0.500000  0.000000  0.143257  1
  Co  Co10  1  0.000000  0.500000  0.143257  1
  Co  Co11  1  0.500000  0.500000  0.619486  1
  Co  Co12  1  0.500000  0.000000  0.619920  1
  Co  Co13  1  0.000000  0.500000  0.619920  1
  Co  Co14  1  0.500000  0.500000  0.380028  1
  Co  Co15  1  0.500000  0.000000  0.380314  1
  Co  Co16  1  0.000000  0.500000  0.380314  1
  Ni  Ni17  1  0.500000  0.500000  0.858255  1
  B  B18  1  0.666801  0.333199  0.499310  1
  B  B19  1  0.333199  0.666801  0.499310  1
  B  B20  1  0.668858  0.331142  0.740242  1
  B  B21  1  0.331142  0.668858  0.740242  1
  B  B22  1  0.332776  0.667224  0.259173  1
  B  B23  1  0.667224  0.332776  0.259173  1
