# generated using pymatgen
data_Tb7Hf(Si4W3)4
_symmetry_space_group_name_H-M   'P 1'
_cell_length_a   6.76082839
_cell_length_b   6.91242004
_cell_length_c   12.92775263
_cell_angle_alpha   90.18000983
_cell_angle_beta   89.98725056
_cell_angle_gamma   90.13956832
_symmetry_Int_Tables_number   1
_chemical_formula_structural   Tb7Hf(Si4W3)4
_chemical_formula_sum   'Tb7 Hf1 Si16 W12'
_cell_volume   604.15673965
_cell_formula_units_Z   1
loop_
 _symmetry_equiv_pos_site_id
 _symmetry_equiv_pos_as_xyz
  1  'x, y, z'
loop_
 _atom_site_type_symbol
 _atom_site_label
 _atom_site_symmetry_multiplicity
 _atom_site_fract_x
 _atom_site_fract_y
 _atom_site_fract_z
 _atom_site_occupancy
  Tb  Tb0  1  0.494873  0.667440  0.592866  1
  Tb  Tb1  1  0.995901  0.833139  0.906940  1
  Tb  Tb2  1  0.503663  0.333178  0.093694  1
  Tb  Tb3  1  0.003022  0.166519  0.408062  1
  Tb  Tb4  1  0.503201  0.332499  0.407979  1
  Tb  Tb5  1  0.003841  0.167278  0.093657  1
  Tb  Tb6  1  0.495708  0.667479  0.904958  1
  Hf  Hf7  1  0.992433  0.829911  0.596737  1
  Si  Si8  1  0.664568  0.956754  0.456039  1
  Si  Si9  1  0.160649  0.542268  0.046697  1
  Si  Si10  1  0.340048  0.043733  0.952494  1
  Si  Si11  1  0.841107  0.460817  0.546496  1
  Si  Si12  1  0.330014  0.039034  0.546079  1
  Si  Si13  1  0.839440  0.456804  0.952282  1
  Si  Si14  1  0.660703  0.956596  0.046295  1
  Si  Si15  1  0.160501  0.546055  0.456035  1
  Si  Si16  1  0.464421  0.369014  0.749581  1
  Si  Si17  1  0.965098  0.126957  0.747839  1
  Si  Si18  1  0.537340  0.630612  0.250592  1
  Si  Si19  1  0.036645  0.870557  0.249956  1
  Si  Si20  1  0.700124  0.866140  0.748758  1
  Si  Si21  1  0.193402  0.635558  0.747899  1
  Si  Si22  1  0.303221  0.133143  0.250617  1
  Si  Si23  1  0.804268  0.368066  0.251005  1
  W  W24  1  0.668646  0.159579  0.625128  1
  W  W25  1  0.165911  0.335461  0.872598  1
  W  W26  1  0.333571  0.837350  0.125011  1
  W  W27  1  0.835482  0.666580  0.377341  1
  W  W28  1  0.332949  0.836834  0.374791  1
  W  W29  1  0.833973  0.664835  0.126077  1
  W  W30  1  0.668460  0.161105  0.873659  1
  W  W31  1  0.167853  0.336788  0.624842  1
  W  W32  1  0.833877  0.502574  0.747682  1
  W  W33  1  0.333432  0.998066  0.746621  1
  W  W34  1  0.166449  0.502620  0.250670  1
  W  W35  1  0.665209  0.998655  0.252018  1
