# generated using pymatgen
data_Ho6Hf4Co8Si19As
_symmetry_space_group_name_H-M   'P 1'
_cell_length_a   12.32132000
_cell_length_b   12.32132009
_cell_length_c   4.03683600
_cell_angle_alpha   90.00000000
_cell_angle_beta   90.00000000
_cell_angle_gamma   90.04668269
_symmetry_Int_Tables_number   1
_chemical_formula_structural   Ho6Hf4Co8Si19As
_chemical_formula_sum   'Ho6 Hf4 Co8 Si19 As1'
_cell_volume   612.85176185
_cell_formula_units_Z   1
loop_
 _symmetry_equiv_pos_site_id
 _symmetry_equiv_pos_as_xyz
  1  'x, y, z'
loop_
 _atom_site_type_symbol
 _atom_site_label
 _atom_site_symmetry_multiplicity
 _atom_site_fract_x
 _atom_site_fract_y
 _atom_site_fract_z
 _atom_site_occupancy
  Ho  Ho0  1  0.999943  0.999986  0.000000  1
  Ho  Ho1  1  0.499986  0.499943  0.000000  1
  Ho  Ho2  1  0.887496  0.387496  0.500000  1
  Ho  Ho3  1  0.384985  0.113251  0.500000  1
  Ho  Ho4  1  0.613251  0.884985  0.500000  1
  Ho  Ho5  1  0.112444  0.612444  0.500000  1
  Hf  Hf6  1  0.678797  0.178797  0.500000  1
  Hf  Hf7  1  0.175948  0.323676  0.500000  1
  Hf  Hf8  1  0.823676  0.675948  0.500000  1
  Hf  Hf9  1  0.322829  0.822829  0.500000  1
  Co  Co10  1  0.526436  0.257414  0.000000  1
  Co  Co11  1  0.255284  0.473290  0.000000  1
  Co  Co12  1  0.744946  0.526986  0.000000  1
  Co  Co13  1  0.474102  0.745038  0.000000  1
  Co  Co14  1  0.973290  0.755284  0.000000  1
  Co  Co15  1  0.026986  0.244946  0.000000  1
  Co  Co16  1  0.757414  0.026436  0.000000  1
  Co  Co17  1  0.245038  0.974102  0.000000  1
  Si  Si18  1  0.069851  0.430328  0.000000  1
  Si  Si19  1  0.930328  0.569851  0.000000  1
  Si  Si20  1  0.426343  0.926343  0.000000  1
  Si  Si21  1  0.197685  0.156999  0.000000  1
  Si  Si22  1  0.156382  0.802307  0.000000  1
  Si  Si23  1  0.844461  0.198082  0.000000  1
  Si  Si24  1  0.802352  0.842913  0.000000  1
  Si  Si25  1  0.302307  0.656382  0.000000  1
  Si  Si26  1  0.698082  0.344461  0.000000  1
  Si  Si27  1  0.656999  0.697685  0.000000  1
  Si  Si28  1  0.342913  0.302352  0.000000  1
  Si  Si29  1  0.005637  0.167002  0.500000  1
  Si  Si30  1  0.166410  0.993307  0.500000  1
  Si  Si31  1  0.834605  0.006686  0.500000  1
  Si  Si32  1  0.993327  0.833388  0.500000  1
  Si  Si33  1  0.493307  0.666410  0.500000  1
  Si  Si34  1  0.506686  0.334605  0.500000  1
  Si  Si35  1  0.667002  0.505637  0.500000  1
  Si  Si36  1  0.333388  0.493327  0.500000  1
  As  As37  1  0.569084  0.069084  0.000000  1
