# generated using pymatgen
data_La16Y4(Ir3Ru)3
_symmetry_space_group_name_H-M   'P 1'
_cell_length_a   11.33333000
_cell_length_b   11.33333000
_cell_length_c   6.57422300
_cell_angle_alpha   90.00000000
_cell_angle_beta   90.00000000
_cell_angle_gamma   90.00000000
_symmetry_Int_Tables_number   1
_chemical_formula_structural   La16Y4(Ir3Ru)3
_chemical_formula_sum   'La16 Y4 Ir9 Ru3'
_cell_volume   844.42192417
_cell_formula_units_Z   1
loop_
 _symmetry_equiv_pos_site_id
 _symmetry_equiv_pos_as_xyz
  1  'x, y, z'
loop_
 _atom_site_type_symbol
 _atom_site_label
 _atom_site_symmetry_multiplicity
 _atom_site_fract_x
 _atom_site_fract_y
 _atom_site_fract_z
 _atom_site_occupancy
  La  La0  1  0.290922  0.087218  0.385957  1
  La  La1  1  0.291123  0.913050  0.886360  1
  La  La2  1  0.708877  0.086950  0.886360  1
  La  La3  1  0.709078  0.912782  0.385957  1
  La  La4  1  0.586950  0.791123  0.886360  1
  La  La5  1  0.587218  0.209078  0.385957  1
  La  La6  1  0.412782  0.790922  0.385957  1
  La  La7  1  0.413050  0.208877  0.886360  1
  La  La8  1  0.210681  0.412161  0.615295  1
  La  La9  1  0.210505  0.587738  0.112696  1
  La  La10  1  0.789495  0.412262  0.112696  1
  La  La11  1  0.789319  0.587839  0.615295  1
  La  La12  1  0.912262  0.710505  0.112696  1
  La  La13  1  0.912161  0.289319  0.615295  1
  La  La14  1  0.087839  0.710681  0.615295  1
  La  La15  1  0.087738  0.289495  0.112696  1
  Y  Y16  1  0.000000  0.000000  0.499364  1
  Y  Y17  1  0.000000  0.000000  0.999425  1
  Y  Y18  1  0.500000  0.500000  0.999425  1
  Y  Y19  1  0.500000  0.500000  0.499364  1
  Ir  Ir20  1  0.850976  0.149720  0.250197  1
  Ir  Ir21  1  0.850818  0.850321  0.750021  1
  Ir  Ir22  1  0.149182  0.149679  0.750021  1
  Ir  Ir23  1  0.149024  0.850280  0.250197  1
  Ir  Ir24  1  0.649679  0.350818  0.750021  1
  Ir  Ir25  1  0.649720  0.649024  0.250197  1
  Ir  Ir26  1  0.350280  0.350976  0.250197  1
  Ir  Ir27  1  0.350321  0.649182  0.750021  1
  Ir  Ir28  1  0.000000  0.500000  0.381319  1
  Ru  Ru29  1  0.500000  0.000000  0.118254  1
  Ru  Ru30  1  0.500000  0.000000  0.617899  1
  Ru  Ru31  1  0.000000  0.500000  0.882849  1
