# generated using pymatgen
data_Dy2Er10Co4TcBi
_symmetry_space_group_name_H-M   'P 1'
_cell_length_a   8.26320707
_cell_length_b   8.26320590
_cell_length_c   8.25419816
_cell_angle_alpha   110.51034844
_cell_angle_beta   111.67799979
_cell_angle_gamma   106.32097540
_symmetry_Int_Tables_number   1
_chemical_formula_structural   Dy2Er10Co4TcBi
_chemical_formula_sum   'Dy2 Er10 Co4 Tc1 Bi1'
_cell_volume   432.57074695
_cell_formula_units_Z   1
loop_
 _symmetry_equiv_pos_site_id
 _symmetry_equiv_pos_as_xyz
  1  'x, y, z'
loop_
 _atom_site_type_symbol
 _atom_site_label
 _atom_site_symmetry_multiplicity
 _atom_site_fract_x
 _atom_site_fract_y
 _atom_site_fract_z
 _atom_site_occupancy
  Dy  Dy0  1  0.282434  0.182607  0.465040  1
  Dy  Dy1  1  0.717566  0.817393  0.534960  1
  Er  Er2  1  0.281744  0.817148  0.098892  1
  Er  Er3  1  0.718256  0.182852  0.901108  1
  Er  Er4  1  0.619038  0.309630  0.308453  1
  Er  Er5  1  0.380962  0.690370  0.691547  1
  Er  Er6  1  0.001179  0.310585  0.691547  1
  Er  Er7  1  0.998821  0.689415  0.308453  1
  Er  Er8  1  0.214067  0.411707  0.196571  1
  Er  Er9  1  0.785933  0.588293  0.803429  1
  Er  Er10  1  0.215135  0.017496  0.803429  1
  Er  Er11  1  0.784865  0.982504  0.196571  1
  Co  Co12  1  0.999854  0.377956  0.377810  1
  Co  Co13  1  0.000146  0.622044  0.622190  1
  Co  Co14  1  0.388931  0.888931  0.500000  1
  Co  Co15  1  0.611069  0.111069  0.500000  1
  Tc  Tc16  1  0.000000  0.000000  0.000000  1
  Bi  Bi17  1  0.500000  0.500000  0.000000  1
