# generated using pymatgen
data_Ta2CoSe5
_symmetry_space_group_name_H-M   'P 1'
_cell_length_a   7.14216755
_cell_length_b   7.14216831
_cell_length_c   15.71669400
_cell_angle_alpha   90.00000000
_cell_angle_beta   90.00000000
_cell_angle_gamma   152.17622122
_symmetry_Int_Tables_number   1
_chemical_formula_structural   Ta2CoSe5
_chemical_formula_sum   'Ta4 Co2 Se10'
_cell_volume   374.20457917
_cell_formula_units_Z   2
loop_
 _symmetry_equiv_pos_site_id
 _symmetry_equiv_pos_as_xyz
  1  'x, y, z'
loop_
 _atom_site_type_symbol
 _atom_site_label
 _atom_site_symmetry_multiplicity
 _atom_site_fract_x
 _atom_site_fract_y
 _atom_site_fract_z
 _atom_site_occupancy
  Ta  Ta0  1  0.221400  0.778600  0.110139  1
  Ta  Ta1  1  0.221400  0.778600  0.389861  1
  Ta  Ta2  1  0.778600  0.221400  0.889861  1
  Ta  Ta3  1  0.778600  0.221400  0.610139  1
  Co  Co4  1  0.703023  0.296977  0.250000  1
  Co  Co5  1  0.296977  0.703023  0.750000  1
  Se  Se6  1  0.587340  0.412660  0.140013  1
  Se  Se7  1  0.587340  0.412660  0.359987  1
  Se  Se8  1  0.412660  0.587340  0.859987  1
  Se  Se9  1  0.412660  0.587340  0.640013  1
  Se  Se10  1  0.151372  0.848628  0.951833  1
  Se  Se11  1  0.151372  0.848628  0.548167  1
  Se  Se12  1  0.848628  0.151372  0.048167  1
  Se  Se13  1  0.848628  0.151372  0.451833  1
  Se  Se14  1  0.321062  0.678938  0.250000  1
  Se  Se15  1  0.678938  0.321062  0.750000  1
