# generated using pymatgen
data_PrInGa3Pt2
_symmetry_space_group_name_H-M   'P 1'
_cell_length_a   4.40438100
_cell_length_b   6.94712700
_cell_length_c   18.05367300
_cell_angle_alpha   90.00000000
_cell_angle_beta   90.00000000
_cell_angle_gamma   90.00000000
_symmetry_Int_Tables_number   1
_chemical_formula_structural   PrInGa3Pt2
_chemical_formula_sum   'Pr4 In4 Ga12 Pt8'
_cell_volume   552.40257035
_cell_formula_units_Z   4
loop_
 _symmetry_equiv_pos_site_id
 _symmetry_equiv_pos_as_xyz
  1  'x, y, z'
loop_
 _atom_site_type_symbol
 _atom_site_label
 _atom_site_symmetry_multiplicity
 _atom_site_fract_x
 _atom_site_fract_y
 _atom_site_fract_z
 _atom_site_occupancy
  Pr  Pr0  1  0.750000  0.994431  0.640727  1
  Pr  Pr1  1  0.250000  0.005569  0.359273  1
  Pr  Pr2  1  0.250000  0.494431  0.859273  1
  Pr  Pr3  1  0.750000  0.505569  0.140727  1
  In  In4  1  0.250000  0.494991  0.429321  1
  In  In5  1  0.750000  0.505009  0.570679  1
  In  In6  1  0.750000  0.994991  0.070679  1
  In  In7  1  0.250000  0.005009  0.929321  1
  Ga  Ga8  1  0.250000  0.279033  0.693626  1
  Ga  Ga9  1  0.750000  0.720967  0.306374  1
  Ga  Ga10  1  0.750000  0.779033  0.806374  1
  Ga  Ga11  1  0.250000  0.220967  0.193626  1
  Ga  Ga12  1  0.250000  0.679100  0.685502  1
  Ga  Ga13  1  0.750000  0.320900  0.314498  1
  Ga  Ga14  1  0.750000  0.179100  0.814498  1
  Ga  Ga15  1  0.250000  0.820900  0.185502  1
  Ga  Ga16  1  0.250000  0.152920  0.534291  1
  Ga  Ga17  1  0.750000  0.847080  0.465709  1
  Ga  Ga18  1  0.750000  0.652920  0.965709  1
  Ga  Ga19  1  0.250000  0.347080  0.034291  1
  Pt  Pt20  1  0.250000  0.768749  0.539982  1
  Pt  Pt21  1  0.750000  0.231251  0.460018  1
  Pt  Pt22  1  0.750000  0.268749  0.960018  1
  Pt  Pt23  1  0.250000  0.731251  0.039982  1
  Pt  Pt24  1  0.250000  0.972513  0.779218  1
  Pt  Pt25  1  0.750000  0.027487  0.220782  1
  Pt  Pt26  1  0.750000  0.472513  0.720782  1
  Pt  Pt27  1  0.250000  0.527487  0.279218  1
