# generated using pymatgen
data_TaTi5MoP4
_symmetry_space_group_name_H-M   'P 1'
_cell_length_a   7.50569756
_cell_length_b   7.50569884
_cell_length_c   13.51218546
_cell_angle_alpha   76.17085653
_cell_angle_beta   76.17085461
_cell_angle_gamma   26.29264262
_symmetry_Int_Tables_number   1
_chemical_formula_structural   TaTi5MoP4
_chemical_formula_sum   'Ta2 Ti10 Mo2 P8'
_cell_volume   326.86952891
_cell_formula_units_Z   2
loop_
 _symmetry_equiv_pos_site_id
 _symmetry_equiv_pos_as_xyz
  1  'x, y, z'
loop_
 _atom_site_type_symbol
 _atom_site_label
 _atom_site_symmetry_multiplicity
 _atom_site_fract_x
 _atom_site_fract_y
 _atom_site_fract_z
 _atom_site_occupancy
  Ta  Ta0  1  0.428700  0.428700  0.173229  1
  Ta  Ta1  1  0.571300  0.571300  0.826771  1
  Ti  Ti2  1  0.198202  0.198202  0.689870  1
  Ti  Ti3  1  0.801798  0.801798  0.310130  1
  Ti  Ti4  1  0.207495  0.207495  0.206004  1
  Ti  Ti5  1  0.792505  0.792505  0.793996  1
  Ti  Ti6  1  0.342213  0.342213  0.968446  1
  Ti  Ti7  1  0.657787  0.657787  0.031554  1
  Ti  Ti8  1  0.002778  0.002778  0.339274  1
  Ti  Ti9  1  0.997222  0.997222  0.660726  1
  Ti  Ti10  1  0.175635  0.175635  0.459908  1
  Ti  Ti11  1  0.824365  0.824365  0.540092  1
  Mo  Mo12  1  0.000000  0.000000  0.000000  1
  Mo  Mo13  1  0.500000  0.500000  0.500000  1
  P  P14  1  0.180077  0.180077  0.890194  1
  P  P15  1  0.819923  0.819923  0.109806  1
  P  P16  1  0.372457  0.372457  0.395349  1
  P  P17  1  0.627543  0.627543  0.604651  1
  P  P18  1  0.370115  0.370115  0.659849  1
  P  P19  1  0.629885  0.629885  0.340151  1
  P  P20  1  0.063215  0.063215  0.153374  1
  P  P21  1  0.936785  0.936785  0.846626  1
