# generated using pymatgen
data_Dy16Ho4Sn3Pb13
_symmetry_space_group_name_H-M   'P 1'
_cell_length_a   8.19493824
_cell_length_b   15.62791700
_cell_length_c   8.24473833
_cell_angle_alpha   90.00000000
_cell_angle_beta   89.90257924
_cell_angle_gamma   90.00000000
_symmetry_Int_Tables_number   1
_chemical_formula_structural   Dy16Ho4Sn3Pb13
_chemical_formula_sum   'Dy16 Ho4 Sn3 Pb13'
_cell_volume   1055.90058334
_cell_formula_units_Z   1
loop_
 _symmetry_equiv_pos_site_id
 _symmetry_equiv_pos_as_xyz
  1  'x, y, z'
loop_
 _atom_site_type_symbol
 _atom_site_label
 _atom_site_symmetry_multiplicity
 _atom_site_fract_x
 _atom_site_fract_y
 _atom_site_fract_z
 _atom_site_occupancy
  Dy  Dy0  1  0.620758  0.623083  0.161447  1
  Dy  Dy1  1  0.121517  0.877114  0.338324  1
  Dy  Dy2  1  0.381107  0.122164  0.838112  1
  Dy  Dy3  1  0.876719  0.378895  0.659338  1
  Dy  Dy4  1  0.381107  0.377836  0.838112  1
  Dy  Dy5  1  0.876719  0.121105  0.659338  1
  Dy  Dy6  1  0.620758  0.876917  0.161447  1
  Dy  Dy7  1  0.121517  0.622886  0.338324  1
  Dy  Dy8  1  0.462821  0.601547  0.672667  1
  Dy  Dy9  1  0.963241  0.898453  0.827675  1
  Dy  Dy10  1  0.536965  0.100773  0.327371  1
  Dy  Dy11  1  0.036606  0.400140  0.175927  1
  Dy  Dy12  1  0.536965  0.399227  0.327371  1
  Dy  Dy13  1  0.036606  0.099860  0.175927  1
  Dy  Dy14  1  0.462821  0.898453  0.672667  1
  Dy  Dy15  1  0.963241  0.601547  0.827675  1
  Ho  Ho16  1  0.788762  0.750000  0.492838  1
  Ho  Ho17  1  0.288483  0.750000  0.007161  1
  Ho  Ho18  1  0.212185  0.250000  0.505459  1
  Ho  Ho19  1  0.709132  0.250000  0.993563  1
  Sn  Sn20  1  0.424940  0.750000  0.376377  1
  Sn  Sn21  1  0.925095  0.750000  0.124291  1
  Sn  Sn22  1  0.575386  0.250000  0.623551  1
  Pb  Pb23  1  0.717907  0.458274  0.967913  1
  Pb  Pb24  1  0.218211  0.041702  0.532857  1
  Pb  Pb25  1  0.282606  0.957864  0.031854  1
  Pb  Pb26  1  0.781905  0.542391  0.466461  1
  Pb  Pb27  1  0.282606  0.542136  0.031854  1
  Pb  Pb28  1  0.781905  0.957609  0.466461  1
  Pb  Pb29  1  0.717907  0.041726  0.967913  1
  Pb  Pb30  1  0.218211  0.458298  0.532857  1
  Pb  Pb31  1  0.073491  0.250000  0.875635  1
  Pb  Pb32  1  0.652312  0.750000  0.847452  1
  Pb  Pb33  1  0.152475  0.750000  0.652783  1
  Pb  Pb34  1  0.349153  0.250000  0.153752  1
  Pb  Pb35  1  0.847864  0.250000  0.347247  1
