# generated using pymatgen
data_MgMn2AlPt4
_symmetry_space_group_name_H-M   'P 1'
_cell_length_a   4.10316700
_cell_length_b   4.10316700
_cell_length_c   7.18390800
_cell_angle_alpha   90.00000000
_cell_angle_beta   90.00000000
_cell_angle_gamma   90.00000000
_symmetry_Int_Tables_number   1
_chemical_formula_structural   MgMn2AlPt4
_chemical_formula_sum   'Mg1 Mn2 Al1 Pt4'
_cell_volume   120.94812731
_cell_formula_units_Z   1
loop_
 _symmetry_equiv_pos_site_id
 _symmetry_equiv_pos_as_xyz
  1  'x, y, z'
loop_
 _atom_site_type_symbol
 _atom_site_label
 _atom_site_symmetry_multiplicity
 _atom_site_fract_x
 _atom_site_fract_y
 _atom_site_fract_z
 _atom_site_occupancy
  Mg  Mg0  1  0.000000  0.000000  0.499999  1
  Mn  Mn1  1  0.000000  0.000000  0.000000  1
  Mn  Mn2  1  0.500003  0.500003  0.499999  1
  Al  Al3  1  0.500003  0.500003  0.000000  1
  Pt  Pt4  1  0.500003  0.000000  0.238116  1
  Pt  Pt5  1  0.000000  0.500003  0.238116  1
  Pt  Pt6  1  0.500003  0.000000  0.761885  1
  Pt  Pt7  1  0.000000  0.500003  0.761885  1
