# generated using pymatgen
data_TbSm(ErNi7)2
_symmetry_space_group_name_H-M   'P 1'
_cell_length_a   4.94176776
_cell_length_b   4.94176617
_cell_length_c   12.35017512
_cell_angle_alpha   78.45902200
_cell_angle_beta   78.45902682
_cell_angle_gamma   60.00000121
_symmetry_Int_Tables_number   1
_chemical_formula_structural   TbSm(ErNi7)2
_chemical_formula_sum   'Tb1 Sm1 Er2 Ni14'
_cell_volume   254.13145019
_cell_formula_units_Z   1
loop_
 _symmetry_equiv_pos_site_id
 _symmetry_equiv_pos_as_xyz
  1  'x, y, z'
loop_
 _atom_site_type_symbol
 _atom_site_label
 _atom_site_symmetry_multiplicity
 _atom_site_fract_x
 _atom_site_fract_y
 _atom_site_fract_z
 _atom_site_occupancy
  Tb  Tb0  1  0.948733  0.948733  0.153803  1
  Sm  Sm1  1  0.051150  0.051150  0.846548  1
  Er  Er2  1  0.852579  0.852579  0.442265  1
  Er  Er3  1  0.147831  0.147831  0.556506  1
  Ni  Ni4  1  0.500084  0.500084  0.499747  1
  Ni  Ni5  1  0.722039  0.722039  0.833884  1
  Ni  Ni6  1  0.277853  0.277853  0.166438  1
  Ni  Ni7  1  0.611370  0.611370  0.165889  1
  Ni  Ni8  1  0.388484  0.388484  0.834551  1
  Ni  Ni9  1  0.999642  0.499667  0.001024  1
  Ni  Ni10  1  0.499667  0.999642  0.001024  1
  Ni  Ni11  1  0.499667  0.499667  0.001024  1
  Ni  Ni12  1  0.388977  0.388977  0.330701  1
  Ni  Ni13  1  0.891345  0.388977  0.330701  1
  Ni  Ni14  1  0.388977  0.891345  0.330701  1
  Ni  Ni15  1  0.611365  0.611365  0.668399  1
  Ni  Ni16  1  0.108873  0.611365  0.668399  1
  Ni  Ni17  1  0.611365  0.108873  0.668399  1
