# generated using pymatgen
data_Hf12Zn4CoPd7N4
_symmetry_space_group_name_H-M   'P 1'
_cell_length_a   8.51954704
_cell_length_b   8.50995762
_cell_length_c   8.51954700
_cell_angle_alpha   59.96270568
_cell_angle_beta   59.99995744
_cell_angle_gamma   59.96269311
_symmetry_Int_Tables_number   1
_chemical_formula_structural   Hf12Zn4CoPd7N4
_chemical_formula_sum   'Hf12 Zn4 Co1 Pd7 N4'
_cell_volume   436.51601653
_cell_formula_units_Z   1
loop_
 _symmetry_equiv_pos_site_id
 _symmetry_equiv_pos_as_xyz
  1  'x, y, z'
loop_
 _atom_site_type_symbol
 _atom_site_label
 _atom_site_symmetry_multiplicity
 _atom_site_fract_x
 _atom_site_fract_y
 _atom_site_fract_z
 _atom_site_occupancy
  Hf  Hf0  1  0.811642  0.197623  0.179092  1
  Hf  Hf1  1  0.187918  0.813328  0.187918  1
  Hf  Hf2  1  0.810836  0.813328  0.187918  1
  Hf  Hf3  1  0.187918  0.813329  0.810836  1
  Hf  Hf4  1  0.811643  0.197623  0.811643  1
  Hf  Hf5  1  0.179092  0.197622  0.811643  1
  Hf  Hf6  1  0.439085  0.062181  0.059651  1
  Hf  Hf7  1  0.060397  0.439948  0.060397  1
  Hf  Hf8  1  0.439258  0.439948  0.060397  1
  Hf  Hf9  1  0.060397  0.439947  0.439258  1
  Hf  Hf10  1  0.439084  0.062181  0.439085  1
  Hf  Hf11  1  0.059651  0.062181  0.439085  1
  Zn  Zn12  1  0.631332  0.618748  0.118588  1
  Zn  Zn13  1  0.631332  0.618749  0.631332  1
  Zn  Zn14  1  0.118588  0.618748  0.631332  1
  Zn  Zn15  1  0.625278  0.124167  0.625278  1
  Co  Co16  1  0.843135  0.470594  0.843135  1
  Pd  Pd17  1  0.411948  0.412542  0.763561  1
  Pd  Pd18  1  0.411949  0.412542  0.411949  1
  Pd  Pd19  1  0.763561  0.412541  0.411949  1
  Pd  Pd20  1  0.412613  0.762159  0.412613  1
  Pd  Pd21  1  0.838622  0.836982  0.485772  1
  Pd  Pd22  1  0.838623  0.836983  0.838623  1
  Pd  Pd23  1  0.485772  0.836982  0.838622  1
  N  N24  1  0.126183  0.123966  0.623669  1
  N  N25  1  0.126183  0.123966  0.126182  1
  N  N26  1  0.623668  0.123966  0.126183  1
  N  N27  1  0.124291  0.627127  0.124291  1
