# generated using pymatgen
data_La3Nd(Si5Pt3)2
_symmetry_space_group_name_H-M   'P 1'
_cell_length_a   8.31808134
_cell_length_b   8.31691141
_cell_length_c   8.31691041
_cell_angle_alpha   136.57169083
_cell_angle_beta   105.65057343
_cell_angle_gamma   90.22669240
_symmetry_Int_Tables_number   1
_chemical_formula_structural   La3Nd(Si5Pt3)2
_chemical_formula_sum   'La3 Nd1 Si10 Pt6'
_cell_volume   363.09491164
_cell_formula_units_Z   1
loop_
 _symmetry_equiv_pos_site_id
 _symmetry_equiv_pos_as_xyz
  1  'x, y, z'
loop_
 _atom_site_type_symbol
 _atom_site_label
 _atom_site_symmetry_multiplicity
 _atom_site_fract_x
 _atom_site_fract_y
 _atom_site_fract_z
 _atom_site_occupancy
  La  La0  1  0.138252  0.370992  0.767260  1
  La  La1  1  0.396339  0.128895  0.267444  1
  La  La2  1  0.604054  0.871071  0.732984  1
  Nd  Nd3  1  0.860889  0.628485  0.232404  1
  Si  Si4  1  0.500401  0.750272  0.250448  1
  Si  Si5  1  0.500401  0.249952  0.750128  1
  Si  Si6  1  0.228921  0.979167  0.749348  1
  Si  Si7  1  0.770604  0.520119  0.750380  1
  Si  Si8  1  0.770604  0.020224  0.250485  1
  Si  Si9  1  0.228921  0.479574  0.249754  1
  Si  Si10  1  0.033880  0.885995  0.147884  1
  Si  Si11  1  0.964811  0.113327  0.851484  1
  Si  Si12  1  0.739669  0.388054  0.351615  1
  Si  Si13  1  0.261632  0.613381  0.648252  1
  Pt  Pt14  1  0.000071  0.750660  0.749617  1
  Pt  Pt15  1  0.000071  0.250454  0.249411  1
  Pt  Pt16  1  0.252903  0.863112  0.389792  1
  Pt  Pt17  1  0.746326  0.135927  0.610398  1
  Pt  Pt18  1  0.474115  0.364344  0.109771  1
  Pt  Pt19  1  0.527134  0.635995  0.891140  1
