# generated using pymatgen
data_Ca21MgGa11Hg3
_symmetry_space_group_name_H-M   'P 1'
_cell_length_a   11.40641625
_cell_length_b   11.39424077
_cell_length_c   11.38003254
_cell_angle_alpha   60.11201352
_cell_angle_beta   60.00576200
_cell_angle_gamma   59.88222600
_symmetry_Int_Tables_number   1
_chemical_formula_structural   Ca21MgGa11Hg3
_chemical_formula_sum   'Ca21 Mg1 Ga11 Hg3'
_cell_volume   1045.82644796
_cell_formula_units_Z   1
loop_
 _symmetry_equiv_pos_site_id
 _symmetry_equiv_pos_as_xyz
  1  'x, y, z'
loop_
 _atom_site_type_symbol
 _atom_site_label
 _atom_site_symmetry_multiplicity
 _atom_site_fract_x
 _atom_site_fract_y
 _atom_site_fract_z
 _atom_site_occupancy
  Ca  Ca0  1  0.998511  0.001489  0.998511  1
  Ca  Ca1  1  0.133674  0.132724  0.126031  1
  Ca  Ca2  1  0.392428  0.873969  0.867276  1
  Ca  Ca3  1  0.871943  0.390799  0.864459  1
  Ca  Ca4  1  0.867276  0.866326  0.392428  1
  Ca  Ca5  1  0.126031  0.607572  0.133674  1
  Ca  Ca6  1  0.127200  0.135541  0.609201  1
  Ca  Ca7  1  0.609201  0.128057  0.127200  1
  Ca  Ca8  1  0.864459  0.872800  0.871943  1
  Ca  Ca9  1  0.505178  0.828525  0.494579  1
  Ca  Ca10  1  0.826947  0.499909  0.500091  1
  Ca  Ca11  1  0.504442  0.827080  0.172920  1
  Ca  Ca12  1  0.171475  0.494822  0.828282  1
  Ca  Ca13  1  0.828282  0.505421  0.171475  1
  Ca  Ca14  1  0.505395  0.494605  0.829678  1
  Ca  Ca15  1  0.170824  0.829176  0.499160  1
  Ca  Ca16  1  0.500091  0.173053  0.826947  1
  Ca  Ca17  1  0.499160  0.500840  0.170824  1
  Ca  Ca18  1  0.829678  0.170322  0.505395  1
  Ca  Ca19  1  0.172920  0.495558  0.504442  1
  Ca  Ca20  1  0.494579  0.171718  0.505178  1
  Mg  Mg21  1  0.498924  0.501076  0.498924  1
  Ga  Ga22  1  0.786104  0.783968  0.216032  1
  Ga  Ga23  1  0.216032  0.213896  0.786104  1
  Ga  Ga24  1  0.784563  0.215437  0.784563  1
  Ga  Ga25  1  0.310801  0.309622  0.307701  1
  Ga  Ga26  1  0.928123  0.692299  0.690378  1
  Ga  Ga27  1  0.691672  0.927991  0.688788  1
  Ga  Ga28  1  0.690378  0.689200  0.928123  1
  Ga  Ga29  1  0.307701  0.071877  0.310800  1
  Ga  Ga30  1  0.308452  0.311212  0.072009  1
  Ga  Ga31  1  0.072009  0.308328  0.308452  1
  Ga  Ga32  1  0.688788  0.691548  0.691671  1
  Hg  Hg33  1  0.215601  0.784399  0.215601  1
  Hg  Hg34  1  0.217627  0.782373  0.783531  1
  Hg  Hg35  1  0.783531  0.216469  0.217627  1
