# generated using pymatgen
data_Tb2HoCu4Si3Ge
_symmetry_space_group_name_H-M   'P 1'
_cell_length_a   7.88074184
_cell_length_b   7.88016838
_cell_length_c   7.88016893
_cell_angle_alpha   149.47731743
_cell_angle_beta   130.78909559
_cell_angle_gamma   59.02161028
_symmetry_Int_Tables_number   1
_chemical_formula_structural   Tb2HoCu4Si3Ge
_chemical_formula_sum   'Tb2 Ho1 Cu4 Si3 Ge1'
_cell_volume   186.70143531
_cell_formula_units_Z   1
loop_
 _symmetry_equiv_pos_site_id
 _symmetry_equiv_pos_as_xyz
  1  'x, y, z'
loop_
 _atom_site_type_symbol
 _atom_site_label
 _atom_site_symmetry_multiplicity
 _atom_site_fract_x
 _atom_site_fract_y
 _atom_site_fract_z
 _atom_site_occupancy
  Tb  Tb0  1  0.131128  0.129950  0.001178  1
  Tb  Tb1  1  0.498100  0.999889  0.498212  1
  Ho  Ho2  1  0.871119  0.869888  0.001231  1
  Cu  Cu3  1  0.517370  0.327432  0.189939  1
  Cu  Cu4  1  0.862252  0.672801  0.189450  1
  Cu  Cu5  1  0.141361  0.331761  0.809601  1
  Cu  Cu6  1  0.478531  0.668436  0.810095  1
  Si  Si7  1  0.187905  0.499785  0.688120  1
  Si  Si8  1  0.284039  0.784170  0.499869  1
  Si  Si9  1  0.716016  0.216120  0.499896  1
  Ge  Ge10  1  0.812179  0.499769  0.312411  1
