# generated using pymatgen
data_Sm9Dy7(TmPb4)4
_symmetry_space_group_name_H-M   'P 1'
_cell_length_a   8.23878512
_cell_length_b   8.35814485
_cell_length_c   15.76317000
_cell_angle_alpha   90.00312592
_cell_angle_beta   90.13574299
_cell_angle_gamma   90.12794247
_symmetry_Int_Tables_number   1
_chemical_formula_structural   Sm9Dy7(TmPb4)4
_chemical_formula_sum   'Sm9 Dy7 Tm4 Pb16'
_cell_volume   1085.46125587
_cell_formula_units_Z   1
loop_
 _symmetry_equiv_pos_site_id
 _symmetry_equiv_pos_as_xyz
  1  'x, y, z'
loop_
 _atom_site_type_symbol
 _atom_site_label
 _atom_site_symmetry_multiplicity
 _atom_site_fract_x
 _atom_site_fract_y
 _atom_site_fract_z
 _atom_site_occupancy
  Sm  Sm0  1  0.129208  0.340939  0.620269  1
  Sm  Sm1  1  0.472326  0.679214  0.597823  1
  Sm  Sm2  1  0.974022  0.821905  0.903557  1
  Sm  Sm3  1  0.526671  0.322377  0.097388  1
  Sm  Sm4  1  0.028537  0.175825  0.400469  1
  Sm  Sm5  1  0.526189  0.322427  0.401814  1
  Sm  Sm6  1  0.026373  0.177729  0.097739  1
  Sm  Sm7  1  0.474222  0.678129  0.903244  1
  Sm  Sm8  1  0.972234  0.823044  0.598096  1
  Dy  Dy9  1  0.631279  0.158551  0.622588  1
  Dy  Dy10  1  0.131659  0.342235  0.878392  1
  Dy  Dy11  1  0.368377  0.842220  0.122236  1
  Dy  Dy12  1  0.869173  0.657330  0.377907  1
  Dy  Dy13  1  0.370371  0.842272  0.376322  1
  Dy  Dy14  1  0.868493  0.657921  0.122204  1
  Dy  Dy15  1  0.631319  0.157791  0.878834  1
  Tm  Tm16  1  0.797102  0.495315  0.750507  1
  Tm  Tm17  1  0.298256  0.004686  0.750685  1
  Tm  Tm18  1  0.202514  0.505132  0.249225  1
  Tm  Tm19  1  0.702726  0.995168  0.250033  1
  Pb  Pb20  1  0.710834  0.961369  0.456786  1
  Pb  Pb21  1  0.209462  0.539293  0.043382  1
  Pb  Pb22  1  0.290292  0.039453  0.957223  1
  Pb  Pb23  1  0.784630  0.463537  0.543168  1
  Pb  Pb24  1  0.291956  0.035302  0.542634  1
  Pb  Pb25  1  0.791053  0.460779  0.956997  1
  Pb  Pb26  1  0.709652  0.960406  0.043665  1
  Pb  Pb27  1  0.210627  0.540480  0.454647  1
  Pb  Pb28  1  0.435825  0.374170  0.751212  1
  Pb  Pb29  1  0.934651  0.124345  0.751091  1
  Pb  Pb30  1  0.564821  0.625623  0.249604  1
  Pb  Pb31  1  0.064348  0.873534  0.249660  1
  Pb  Pb32  1  0.661437  0.846712  0.750797  1
  Pb  Pb33  1  0.161263  0.654351  0.750831  1
  Pb  Pb34  1  0.339081  0.154055  0.249302  1
  Pb  Pb35  1  0.839018  0.346380  0.249668  1
