# generated using pymatgen
data_Er6Al24Ru3Rh5
_symmetry_space_group_name_H-M   'P 1'
_cell_length_a   8.75981600
_cell_length_b   8.80019558
_cell_length_c   9.52627330
_cell_angle_alpha   90.21144370
_cell_angle_beta   90.00000000
_cell_angle_gamma   119.84832230
_symmetry_Int_Tables_number   1
_chemical_formula_structural   Er6Al24Ru3Rh5
_chemical_formula_sum   'Er6 Al24 Ru3 Rh5'
_cell_volume   636.94040012
_cell_formula_units_Z   1
loop_
 _symmetry_equiv_pos_site_id
 _symmetry_equiv_pos_as_xyz
  1  'x, y, z'
loop_
 _atom_site_type_symbol
 _atom_site_label
 _atom_site_symmetry_multiplicity
 _atom_site_fract_x
 _atom_site_fract_y
 _atom_site_fract_z
 _atom_site_occupancy
  Er  Er0  1  0.193168  0.386336  0.250095  1
  Er  Er1  1  0.806832  0.613664  0.749905  1
  Er  Er2  1  0.613088  0.808585  0.250750  1
  Er  Er3  1  0.386912  0.191415  0.749250  1
  Er  Er4  1  0.195497  0.808585  0.250750  1
  Er  Er5  1  0.804503  0.191415  0.749250  1
  Al  Al6  1  0.333500  0.667001  0.027914  1
  Al  Al7  1  0.666500  0.332999  0.972086  1
  Al  Al8  1  0.665520  0.331039  0.526946  1
  Al  Al9  1  0.334480  0.668961  0.473054  1
  Al  Al10  1  0.162711  0.325422  0.577257  1
  Al  Al11  1  0.837289  0.674578  0.422743  1
  Al  Al12  1  0.673271  0.837691  0.577434  1
  Al  Al13  1  0.837443  0.674885  0.077804  1
  Al  Al14  1  0.326729  0.162309  0.422566  1
  Al  Al15  1  0.162557  0.325115  0.922196  1
  Al  Al16  1  0.164420  0.837691  0.577434  1
  Al  Al17  1  0.326334  0.164251  0.077782  1
  Al  Al18  1  0.835580  0.162309  0.422566  1
  Al  Al19  1  0.673666  0.835749  0.922218  1
  Al  Al20  1  0.837917  0.164251  0.077782  1
  Al  Al21  1  0.162083  0.835749  0.922218  1
  Al  Al22  1  0.562269  0.124539  0.250704  1
  Al  Al23  1  0.437731  0.875461  0.749296  1
  Al  Al24  1  0.876912  0.439295  0.249694  1
  Al  Al25  1  0.123088  0.560705  0.750306  1
  Al  Al26  1  0.562382  0.439295  0.249694  1
  Al  Al27  1  0.437618  0.560705  0.750306  1
  Al  Al28  1  0.000690  0.001380  0.250094  1
  Al  Al29  1  0.999310  0.998620  0.749906  1
  Ru  Ru30  1  0.500000  0.000000  0.500000  1
  Ru  Ru31  1  0.000000  0.000000  0.000000  1
  Ru  Ru32  1  0.000000  0.000000  0.500000  1
  Rh  Rh33  1  0.500000  0.000000  0.000000  1
  Rh  Rh34  1  0.000000  0.500000  0.000000  1
  Rh  Rh35  1  0.500000  0.500000  0.000000  1
  Rh  Rh36  1  0.000000  0.500000  0.500000  1
  Rh  Rh37  1  0.500000  0.500000  0.500000  1
