# generated using pymatgen
data_Li3Nd4GaPd4
_symmetry_space_group_name_H-M   'P 1'
_cell_length_a   4.22386300
_cell_length_b   7.27812104
_cell_length_c   8.42069982
_cell_angle_alpha   90.08985825
_cell_angle_beta   90.00000000
_cell_angle_gamma   90.00000000
_symmetry_Int_Tables_number   1
_chemical_formula_structural   Li3Nd4GaPd4
_chemical_formula_sum   'Li3 Nd4 Ga1 Pd4'
_cell_volume   258.86703515
_cell_formula_units_Z   1
loop_
 _symmetry_equiv_pos_site_id
 _symmetry_equiv_pos_as_xyz
  1  'x, y, z'
loop_
 _atom_site_type_symbol
 _atom_site_label
 _atom_site_symmetry_multiplicity
 _atom_site_fract_x
 _atom_site_fract_y
 _atom_site_fract_z
 _atom_site_occupancy
  Li  Li0  1  0.250000  0.137094  0.064195  1
  Li  Li1  1  0.250000  0.632357  0.438604  1
  Li  Li2  1  0.750000  0.866033  0.938487  1
  Nd  Nd3  1  0.250000  0.044861  0.687792  1
  Nd  Nd4  1  0.250000  0.534559  0.806660  1
  Nd  Nd5  1  0.750000  0.966668  0.312165  1
  Nd  Nd6  1  0.750000  0.460192  0.189108  1
  Ga  Ga7  1  0.750000  0.360445  0.562513  1
  Pd  Pd8  1  0.250000  0.263443  0.392604  1
  Pd  Pd9  1  0.250000  0.751359  0.115685  1
  Pd  Pd10  1  0.750000  0.736605  0.610090  1
  Pd  Pd11  1  0.750000  0.246382  0.882097  1
