# generated using pymatgen
data_Tb11Nd8Si16Ag
_symmetry_space_group_name_H-M   'P 1'
_cell_length_a   7.77992326
_cell_length_b   7.77992326
_cell_length_c   14.36229200
_cell_angle_alpha   90.23722220
_cell_angle_beta   89.76277780
_cell_angle_gamma   90.05813970
_symmetry_Int_Tables_number   1
_chemical_formula_structural   Tb11Nd8Si16Ag
_chemical_formula_sum   'Tb11 Nd8 Si16 Ag1'
_cell_volume   869.29407095
_cell_formula_units_Z   1
loop_
 _symmetry_equiv_pos_site_id
 _symmetry_equiv_pos_as_xyz
  1  'x, y, z'
loop_
 _atom_site_type_symbol
 _atom_site_label
 _atom_site_symmetry_multiplicity
 _atom_site_fract_x
 _atom_site_fract_y
 _atom_site_fract_z
 _atom_site_occupancy
  Tb  Tb0  1  0.487547  0.368830  0.125873  1
  Tb  Tb1  1  0.000797  0.137625  0.621141  1
  Tb  Tb2  1  0.863100  0.011245  0.872403  1
  Tb  Tb3  1  0.137625  0.000797  0.378859  1
  Tb  Tb4  1  0.504207  0.628287  0.620373  1
  Tb  Tb5  1  0.368830  0.487547  0.874127  1
  Tb  Tb6  1  0.628287  0.504207  0.379627  1
  Tb  Tb7  1  0.011245  0.863100  0.127597  1
  Tb  Tb8  1  0.186884  0.812907  0.748969  1
  Tb  Tb9  1  0.812907  0.186884  0.251031  1
  Tb  Tb10  1  0.687891  0.687891  0.000000  1
  Nd  Nd11  1  0.628369  0.997806  0.458620  1
  Nd  Nd12  1  0.364694  0.009928  0.955919  1
  Nd  Nd13  1  0.997806  0.628369  0.541380  1
  Nd  Nd14  1  0.488943  0.861303  0.210735  1
  Nd  Nd15  1  0.502723  0.135952  0.699215  1
  Nd  Nd16  1  0.861303  0.488943  0.789265  1
  Nd  Nd17  1  0.135952  0.502723  0.300785  1
  Nd  Nd18  1  0.009928  0.364694  0.044081  1
  Si  Si19  1  0.284796  0.915901  0.562287  1
  Si  Si20  1  0.710965  0.069229  0.061457  1
  Si  Si21  1  0.915901  0.284796  0.437713  1
  Si  Si22  1  0.429786  0.211450  0.311243  1
  Si  Si23  1  0.570587  0.790313  0.807584  1
  Si  Si24  1  0.211450  0.429786  0.688757  1
  Si  Si25  1  0.790313  0.570587  0.192416  1
  Si  Si26  1  0.069229  0.710965  0.938543  1
  Si  Si27  1  0.795911  0.843594  0.687265  1
  Si  Si28  1  0.201353  0.158312  0.193780  1
  Si  Si29  1  0.843594  0.795911  0.312735  1
  Si  Si30  1  0.348698  0.716292  0.435834  1
  Si  Si31  1  0.658244  0.298589  0.942266  1
  Si  Si32  1  0.716292  0.348698  0.564166  1
  Si  Si33  1  0.298589  0.658244  0.057734  1
  Si  Si34  1  0.158312  0.201353  0.806220  1
  Ag  Ag35  1  0.316942  0.316942  0.500000  1
