# generated using pymatgen
data_Ac2Yb3Ge4
_symmetry_space_group_name_H-M   'P 1'
_cell_length_a   7.77683800
_cell_length_b   8.18557300
_cell_length_c   15.72456300
_cell_angle_alpha   90.00000000
_cell_angle_beta   90.00000000
_cell_angle_gamma   90.00000000
_symmetry_Int_Tables_number   1
_chemical_formula_structural   Ac2Yb3Ge4
_chemical_formula_sum   'Ac8 Yb12 Ge16'
_cell_volume   1000.99226837
_cell_formula_units_Z   4
loop_
 _symmetry_equiv_pos_site_id
 _symmetry_equiv_pos_as_xyz
  1  'x, y, z'
loop_
 _atom_site_type_symbol
 _atom_site_label
 _atom_site_symmetry_multiplicity
 _atom_site_fract_x
 _atom_site_fract_y
 _atom_site_fract_z
 _atom_site_occupancy
  Ac  Ac0  1  0.018638  0.180959  0.401987  1
  Ac  Ac1  1  0.518638  0.319041  0.401987  1
  Ac  Ac2  1  0.481362  0.680959  0.901987  1
  Ac  Ac3  1  0.481362  0.680959  0.598013  1
  Ac  Ac4  1  0.981362  0.819041  0.598013  1
  Ac  Ac5  1  0.981362  0.819041  0.901987  1
  Ac  Ac6  1  0.518638  0.319041  0.098013  1
  Ac  Ac7  1  0.018638  0.180959  0.098013  1
  Yb  Yb8  1  0.323179  0.175583  0.622287  1
  Yb  Yb9  1  0.676821  0.824417  0.377713  1
  Yb  Yb10  1  0.651451  0.006892  0.750000  1
  Yb  Yb11  1  0.176821  0.675583  0.377713  1
  Yb  Yb12  1  0.823179  0.324417  0.877713  1
  Yb  Yb13  1  0.823179  0.324417  0.622287  1
  Yb  Yb14  1  0.848549  0.506892  0.250000  1
  Yb  Yb15  1  0.348549  0.993108  0.250000  1
  Yb  Yb16  1  0.323179  0.175583  0.877713  1
  Yb  Yb17  1  0.176821  0.675583  0.122287  1
  Yb  Yb18  1  0.676821  0.824417  0.122287  1
  Yb  Yb19  1  0.151451  0.493108  0.750000  1
  Ge  Ge20  1  0.270448  0.879072  0.750000  1
  Ge  Ge21  1  0.470397  0.607670  0.250000  1
  Ge  Ge22  1  0.029603  0.107670  0.750000  1
  Ge  Ge23  1  0.529603  0.392330  0.750000  1
  Ge  Ge24  1  0.148720  0.464277  0.539121  1
  Ge  Ge25  1  0.970397  0.892330  0.250000  1
  Ge  Ge26  1  0.729552  0.120928  0.250000  1
  Ge  Ge27  1  0.851280  0.535723  0.039121  1
  Ge  Ge28  1  0.351280  0.964277  0.039121  1
  Ge  Ge29  1  0.148720  0.464277  0.960879  1
  Ge  Ge30  1  0.648720  0.035723  0.539121  1
  Ge  Ge31  1  0.351280  0.964277  0.460879  1
  Ge  Ge32  1  0.851280  0.535723  0.460879  1
  Ge  Ge33  1  0.770448  0.620928  0.750000  1
  Ge  Ge34  1  0.229552  0.379072  0.250000  1
  Ge  Ge35  1  0.648720  0.035723  0.960879  1
