# generated using pymatgen
data_Hf7Zr3ZnGaPb6
_symmetry_space_group_name_H-M   'P 1'
_cell_length_a   8.78973800
_cell_length_b   8.78973902
_cell_length_c   5.92037200
_cell_angle_alpha   90.00000000
_cell_angle_beta   90.00000000
_cell_angle_gamma   120.00000369
_symmetry_Int_Tables_number   1
_chemical_formula_structural   Hf7Zr3ZnGaPb6
_chemical_formula_sum   'Hf7 Zr3 Zn1 Ga1 Pb6'
_cell_volume   396.12433395
_cell_formula_units_Z   1
loop_
 _symmetry_equiv_pos_site_id
 _symmetry_equiv_pos_as_xyz
  1  'x, y, z'
loop_
 _atom_site_type_symbol
 _atom_site_label
 _atom_site_symmetry_multiplicity
 _atom_site_fract_x
 _atom_site_fract_y
 _atom_site_fract_z
 _atom_site_occupancy
  Hf  Hf0  1  0.266066  0.266066  0.251358  1
  Hf  Hf1  1  0.733934  0.000000  0.251358  1
  Hf  Hf2  1  0.000000  0.733934  0.251358  1
  Hf  Hf3  1  0.666667  0.333333  0.000747  1
  Hf  Hf4  1  0.333333  0.666667  0.000747  1
  Hf  Hf5  1  0.333333  0.666667  0.499194  1
  Hf  Hf6  1  0.666667  0.333333  0.499194  1
  Zr  Zr7  1  0.737893  0.737893  0.748300  1
  Zr  Zr8  1  0.262107  0.000000  0.748300  1
  Zr  Zr9  1  0.000000  0.262107  0.748300  1
  Zn  Zn10  1  0.000000  0.000000  0.006308  1
  Ga  Ga11  1  0.000000  0.000000  0.494688  1
  Pb  Pb12  1  0.387767  0.387767  0.750286  1
  Pb  Pb13  1  0.612233  0.000000  0.750286  1
  Pb  Pb14  1  0.000000  0.612233  0.750286  1
  Pb  Pb15  1  0.613855  0.613855  0.249764  1
  Pb  Pb16  1  0.386145  0.000000  0.249764  1
  Pb  Pb17  1  0.000000  0.386145  0.249764  1
