# generated using pymatgen
data_Tb2Dy3Hf3Pt4
_symmetry_space_group_name_H-M   'P 1'
_cell_length_a   4.71936700
_cell_length_b   7.10923714
_cell_length_c   8.33412300
_cell_angle_alpha   89.81730245
_cell_angle_beta   90.00000000
_cell_angle_gamma   90.00000000
_symmetry_Int_Tables_number   1
_chemical_formula_structural   Tb2Dy3Hf3Pt4
_chemical_formula_sum   'Tb2 Dy3 Hf3 Pt4'
_cell_volume   279.61756568
_cell_formula_units_Z   1
loop_
 _symmetry_equiv_pos_site_id
 _symmetry_equiv_pos_as_xyz
  1  'x, y, z'
loop_
 _atom_site_type_symbol
 _atom_site_label
 _atom_site_symmetry_multiplicity
 _atom_site_fract_x
 _atom_site_fract_y
 _atom_site_fract_z
 _atom_site_occupancy
  Tb  Tb0  1  0.750000  0.009487  0.674369  1
  Tb  Tb1  1  0.750000  0.520699  0.828987  1
  Dy  Dy2  1  0.250000  0.353965  0.582424  1
  Dy  Dy3  1  0.250000  0.981860  0.317897  1
  Dy  Dy4  1  0.250000  0.482681  0.178369  1
  Hf  Hf5  1  0.250000  0.852983  0.923373  1
  Hf  Hf6  1  0.750000  0.141538  0.075748  1
  Hf  Hf7  1  0.750000  0.646231  0.420581  1
  Pt  Pt8  1  0.250000  0.224298  0.920729  1
  Pt  Pt9  1  0.250000  0.745946  0.592431  1
  Pt  Pt10  1  0.750000  0.771174  0.096200  1
  Pt  Pt11  1  0.750000  0.269139  0.388892  1
