# generated using pymatgen
data_SmLuThGa2
_symmetry_space_group_name_H-M   'P 1'
_cell_length_a   7.69361300
_cell_length_b   7.70981300
_cell_length_c   4.43973600
_cell_angle_alpha   90.00000000
_cell_angle_beta   90.00000000
_cell_angle_gamma   90.00000000
_symmetry_Int_Tables_number   1
_chemical_formula_structural   SmLuThGa2
_chemical_formula_sum   'Sm2 Lu2 Th2 Ga4'
_cell_volume   263.34879030
_cell_formula_units_Z   2
loop_
 _symmetry_equiv_pos_site_id
 _symmetry_equiv_pos_as_xyz
  1  'x, y, z'
loop_
 _atom_site_type_symbol
 _atom_site_label
 _atom_site_symmetry_multiplicity
 _atom_site_fract_x
 _atom_site_fract_y
 _atom_site_fract_z
 _atom_site_occupancy
  Sm  Sm0  1  0.675347  0.174843  0.500000  1
  Sm  Sm1  1  0.175347  0.325157  0.500000  1
  Lu  Lu2  1  0.000019  0.002422  0.000000  1
  Lu  Lu3  1  0.500019  0.497578  0.000000  1
  Th  Th4  1  0.825647  0.674360  0.500000  1
  Th  Th5  1  0.325647  0.825640  0.500000  1
  Ga  Ga6  1  0.878077  0.379039  0.000000  1
  Ga  Ga7  1  0.378077  0.120961  0.000000  1
  Ga  Ga8  1  0.620910  0.879139  0.000000  1
  Ga  Ga9  1  0.120910  0.620861  0.000000  1
