# generated using pymatgen
data_Ce4Co5Ru7C10
_symmetry_space_group_name_H-M   'P 1'
_cell_length_a   8.70443078
_cell_length_b   8.82612557
_cell_length_c   4.14321300
_cell_angle_alpha   90.00000000
_cell_angle_beta   90.00000000
_cell_angle_gamma   90.59196781
_symmetry_Int_Tables_number   1
_chemical_formula_structural   Ce4Co5Ru7C10
_chemical_formula_sum   'Ce4 Co5 Ru7 C10'
_cell_volume   318.29114633
_cell_formula_units_Z   1
loop_
 _symmetry_equiv_pos_site_id
 _symmetry_equiv_pos_as_xyz
  1  'x, y, z'
loop_
 _atom_site_type_symbol
 _atom_site_label
 _atom_site_symmetry_multiplicity
 _atom_site_fract_x
 _atom_site_fract_y
 _atom_site_fract_z
 _atom_site_occupancy
  Ce  Ce0  1  0.325563  0.824362  0.500000  1
  Ce  Ce1  1  0.824158  0.678115  0.500000  1
  Ce  Ce2  1  0.171655  0.321965  0.500000  1
  Ce  Ce3  1  0.678505  0.175094  0.500000  1
  Co  Co4  1  0.715363  0.433478  0.000000  1
  Co  Co5  1  0.440392  0.280962  0.000000  1
  Co  Co6  1  0.506267  0.004824  0.000000  1
  Co  Co7  1  0.993394  0.499818  0.000000  1
  Co  Co8  1  0.782362  0.935306  0.000000  1
  Ru  Ru9  1  0.988415  0.999231  0.500000  1
  Ru  Ru10  1  0.509166  0.486826  0.500000  1
  Ru  Ru11  1  0.924031  0.217294  0.000000  1
  Ru  Ru12  1  0.063872  0.783352  0.000000  1
  Ru  Ru13  1  0.216481  0.070097  0.000000  1
  Ru  Ru14  1  0.571795  0.714105  0.000000  1
  Ru  Ru15  1  0.286305  0.557026  0.000000  1
  C  C16  1  0.506446  0.489694  0.000000  1
  C  C17  1  0.993074  0.999772  0.000000  1
  C  C18  1  0.871723  0.389317  0.672850  1
  C  C19  1  0.116821  0.613327  0.672437  1
  C  C20  1  0.871723  0.389317  0.327150  1
  C  C21  1  0.387860  0.124717  0.326780  1
  C  C22  1  0.624976  0.886978  0.326283  1
  C  C23  1  0.116821  0.613327  0.327563  1
  C  C24  1  0.624976  0.886978  0.673717  1
  C  C25  1  0.387860  0.124717  0.673220  1
