# generated using pymatgen
data_Nd2HoLuIn4
_symmetry_space_group_name_H-M   'P 1'
_cell_length_a   6.66155184
_cell_length_b   6.66155213
_cell_length_c   9.93313900
_cell_angle_alpha   90.00000000
_cell_angle_beta   90.00000000
_cell_angle_gamma   96.43760421
_symmetry_Int_Tables_number   1
_chemical_formula_structural   Nd2HoLuIn4
_chemical_formula_sum   'Nd4 Ho2 Lu2 In8'
_cell_volume   438.01628939
_cell_formula_units_Z   2
loop_
 _symmetry_equiv_pos_site_id
 _symmetry_equiv_pos_as_xyz
  1  'x, y, z'
loop_
 _atom_site_type_symbol
 _atom_site_label
 _atom_site_symmetry_multiplicity
 _atom_site_fract_x
 _atom_site_fract_y
 _atom_site_fract_z
 _atom_site_occupancy
  Nd  Nd0  1  0.250657  0.749343  0.500000  1
  Nd  Nd1  1  0.250657  0.749343  0.000000  1
  Nd  Nd2  1  0.749343  0.250657  0.500000  1
  Nd  Nd3  1  0.749343  0.250657  0.000000  1
  Ho  Ho4  1  0.971544  0.971543  0.250000  1
  Ho  Ho5  1  0.028457  0.028456  0.750000  1
  Lu  Lu6  1  0.529810  0.529810  0.250000  1
  Lu  Lu7  1  0.470190  0.470190  0.750000  1
  In  In8  1  0.251758  0.251758  0.022353  1
  In  In9  1  0.748242  0.748242  0.977647  1
  In  In10  1  0.251758  0.251758  0.477647  1
  In  In11  1  0.748242  0.748242  0.522353  1
  In  In12  1  0.478661  0.024572  0.250000  1
  In  In13  1  0.975428  0.521339  0.750000  1
  In  In14  1  0.521339  0.975428  0.750000  1
  In  In15  1  0.024572  0.478661  0.250000  1
