# generated using pymatgen
data_Er4Be5B3Ru10
_symmetry_space_group_name_H-M   'P 1'
_cell_length_a   3.15833100
_cell_length_b   8.89959986
_cell_length_c   10.27175809
_cell_angle_alpha   89.69273384
_cell_angle_beta   90.00000000
_cell_angle_gamma   90.00000000
_symmetry_Int_Tables_number   1
_chemical_formula_structural   Er4Be5B3Ru10
_chemical_formula_sum   'Er4 Be5 B3 Ru10'
_cell_volume   288.71321367
_cell_formula_units_Z   1
loop_
 _symmetry_equiv_pos_site_id
 _symmetry_equiv_pos_as_xyz
  1  'x, y, z'
loop_
 _atom_site_type_symbol
 _atom_site_label
 _atom_site_symmetry_multiplicity
 _atom_site_fract_x
 _atom_site_fract_y
 _atom_site_fract_z
 _atom_site_occupancy
  Er  Er0  1  0.500000  0.662240  0.818261  1
  Er  Er1  1  0.500000  0.339151  0.180542  1
  Er  Er2  1  0.500000  0.164310  0.682330  1
  Er  Er3  1  0.500000  0.838137  0.317261  1
  Be  Be4  1  0.500000  0.841597  0.594911  1
  Be  Be5  1  0.500000  0.152222  0.401837  1
  Be  Be6  1  0.500000  0.346608  0.903743  1
  Be  Be7  1  0.500000  0.655098  0.097783  1
  Be  Be8  1  0.500000  0.966554  0.910750  1
  B  B9  1  0.500000  0.035076  0.091433  1
  B  B10  1  0.500000  0.466400  0.587850  1
  B  B11  1  0.500000  0.530448  0.410691  1
  Ru  Ru12  1  0.000000  0.412760  0.734297  1
  Ru  Ru13  1  0.000000  0.587229  0.266608  1
  Ru  Ru14  1  0.000000  0.908878  0.755088  1
  Ru  Ru15  1  0.000000  0.089360  0.235833  1
  Ru  Ru16  1  0.000000  0.000153  0.500923  1
  Ru  Ru17  1  0.000000  0.502661  0.999776  1
  Ru  Ru18  1  0.000000  0.646569  0.542247  1
  Ru  Ru19  1  0.000000  0.348695  0.456716  1
  Ru  Ru20  1  0.000000  0.155116  0.959297  1
  Ru  Ru21  1  0.000000  0.850736  0.051823  1
