# generated using pymatgen
data_ErPa2(GaPt)3
_symmetry_space_group_name_H-M   'P 1'
_cell_length_a   7.16609214
_cell_length_b   7.18895564
_cell_length_c   4.01998000
_cell_angle_alpha   90.00000000
_cell_angle_beta   90.00000000
_cell_angle_gamma   120.10561110
_symmetry_Int_Tables_number   1
_chemical_formula_structural   ErPa2(GaPt)3
_chemical_formula_sum   'Er1 Pa2 Ga3 Pt3'
_cell_volume   179.15938052
_cell_formula_units_Z   1
loop_
 _symmetry_equiv_pos_site_id
 _symmetry_equiv_pos_as_xyz
  1  'x, y, z'
loop_
 _atom_site_type_symbol
 _atom_site_label
 _atom_site_symmetry_multiplicity
 _atom_site_fract_x
 _atom_site_fract_y
 _atom_site_fract_z
 _atom_site_occupancy
  Er  Er0  1  0.000000  0.590490  0.500000  1
  Pa  Pa1  1  0.416642  0.415280  0.500000  1
  Pa  Pa2  1  0.583358  0.998637  0.500000  1
  Ga  Ga3  1  0.761007  0.751280  0.000000  1
  Ga  Ga4  1  0.238993  0.990274  0.000000  1
  Ga  Ga5  1  0.000000  0.253249  0.000000  1
  Pt  Pt6  1  0.654536  0.323623  0.000000  1
  Pt  Pt7  1  0.345464  0.669088  0.000000  1
  Pt  Pt8  1  0.000000  0.008078  0.500000  1
