# generated using pymatgen
data_Cs4NbAsBr12
_symmetry_space_group_name_H-M   'P 1'
_cell_length_a   13.47839008
_cell_length_b   13.47838893
_cell_length_c   13.47839000
_cell_angle_alpha   132.05915402
_cell_angle_beta   132.05915532
_cell_angle_gamma   70.13561721
_symmetry_Int_Tables_number   1
_chemical_formula_structural   Cs4NbAsBr12
_chemical_formula_sum   'Cs8 Nb2 As2 Br24'
_cell_volume   1323.11319297
_cell_formula_units_Z   2
loop_
 _symmetry_equiv_pos_site_id
 _symmetry_equiv_pos_as_xyz
  1  'x, y, z'
loop_
 _atom_site_type_symbol
 _atom_site_label
 _atom_site_symmetry_multiplicity
 _atom_site_fract_x
 _atom_site_fract_y
 _atom_site_fract_z
 _atom_site_occupancy
  Cs  Cs0  1  0.375129  0.348732  0.471768  1
  Cs  Cs1  1  0.096639  0.624871  0.973602  1
  Cs  Cs2  1  0.876964  0.903361  0.528232  1
  Cs  Cs3  1  0.098732  0.126964  0.473602  1
  Cs  Cs4  1  0.374871  0.901268  0.028232  1
  Cs  Cs5  1  0.653361  0.625129  0.526398  1
  Cs  Cs6  1  0.651268  0.123036  0.026398  1
  Cs  Cs7  1  0.873036  0.346639  0.971768  1
  Nb  Nb8  1  0.250000  0.750000  0.500000  1
  Nb  Nb9  1  0.500000  0.500000  0.000000  1
  As  As10  1  0.750000  0.250000  0.500000  1
  As  As11  1  0.000000  0.000000  0.000000  1
  Br  Br12  1  0.015533  0.768262  0.288146  1
  Br  Br13  1  0.016352  0.249238  0.256781  1
  Br  Br14  1  0.272613  0.984467  0.752729  1
  Br  Br15  1  0.999238  0.242457  0.732886  1
  Br  Br16  1  0.134349  0.634349  0.500000  1
  Br  Br17  1  0.269884  0.522613  0.788146  1
  Br  Br18  1  0.480116  0.727387  0.711854  1
  Br  Br19  1  0.509571  0.266352  0.267114  1
  Br  Br20  1  0.477387  0.265533  0.747271  1
  Br  Br21  1  0.615651  0.615651  0.000000  1
  Br  Br22  1  0.518262  0.730116  0.252729  1
  Br  Br23  1  0.121776  0.121776  0.000000  1
  Br  Br24  1  0.878224  0.878224  0.000000  1
  Br  Br25  1  0.992457  0.759571  0.743219  1
  Br  Br26  1  0.750762  0.007543  0.767114  1
  Br  Br27  1  0.240429  0.983648  0.232886  1
  Br  Br28  1  0.734467  0.481738  0.211854  1
  Br  Br29  1  0.231738  0.519884  0.247271  1
  Br  Br30  1  0.365651  0.865651  0.500000  1
  Br  Br31  1  0.871776  0.371776  0.500000  1
  Br  Br32  1  0.384349  0.384349  0.000000  1
  Br  Br33  1  0.628224  0.128224  0.500000  1
  Br  Br34  1  0.757543  0.490429  0.756781  1
  Br  Br35  1  0.733648  0.000762  0.243219  1
