# generated using pymatgen
data_Dy2HoCdIn4
_symmetry_space_group_name_H-M   'P 1'
_cell_length_a   6.36042515
_cell_length_b   6.36042480
_cell_length_c   10.51798200
_cell_angle_alpha   90.00000000
_cell_angle_beta   90.00000000
_cell_angle_gamma   103.56204516
_symmetry_Int_Tables_number   1
_chemical_formula_structural   Dy2HoCdIn4
_chemical_formula_sum   'Dy4 Ho2 Cd2 In8'
_cell_volume   413.64047756
_cell_formula_units_Z   2
loop_
 _symmetry_equiv_pos_site_id
 _symmetry_equiv_pos_as_xyz
  1  'x, y, z'
loop_
 _atom_site_type_symbol
 _atom_site_label
 _atom_site_symmetry_multiplicity
 _atom_site_fract_x
 _atom_site_fract_y
 _atom_site_fract_z
 _atom_site_occupancy
  Dy  Dy0  1  0.204586  0.795414  0.500000  1
  Dy  Dy1  1  0.204586  0.795414  0.000000  1
  Dy  Dy2  1  0.795414  0.204586  0.500000  1
  Dy  Dy3  1  0.795414  0.204586  0.000000  1
  Ho  Ho4  1  0.618151  0.618151  0.250000  1
  Ho  Ho5  1  0.381849  0.381849  0.750000  1
  Cd  Cd6  1  0.009627  0.009627  0.250000  1
  Cd  Cd7  1  0.990373  0.990373  0.750000  1
  In  In8  1  0.307728  0.307728  0.043309  1
  In  In9  1  0.692272  0.692272  0.956691  1
  In  In10  1  0.307728  0.307728  0.456691  1
  In  In11  1  0.692272  0.692272  0.543309  1
  In  In12  1  0.512860  0.073451  0.250000  1
  In  In13  1  0.926549  0.487140  0.750000  1
  In  In14  1  0.487140  0.926549  0.750000  1
  In  In15  1  0.073451  0.512860  0.250000  1
