# generated using pymatgen
data_Dy2Ho10Co6Hg
_symmetry_space_group_name_H-M   'P 1'
_cell_length_a   8.33018740
_cell_length_b   8.33018659
_cell_length_c   8.32500900
_cell_angle_alpha   109.46502804
_cell_angle_beta   109.37355016
_cell_angle_gamma   109.60028252
_symmetry_Int_Tables_number   1
_chemical_formula_structural   Dy2Ho10Co6Hg
_chemical_formula_sum   'Dy2 Ho10 Co6 Hg1'
_cell_volume   444.56564384
_cell_formula_units_Z   1
loop_
 _symmetry_equiv_pos_site_id
 _symmetry_equiv_pos_as_xyz
  1  'x, y, z'
loop_
 _atom_site_type_symbol
 _atom_site_label
 _atom_site_symmetry_multiplicity
 _atom_site_fract_x
 _atom_site_fract_y
 _atom_site_fract_z
 _atom_site_occupancy
  Dy  Dy0  1  0.806245  0.698206  0.504450  1
  Dy  Dy1  1  0.193755  0.301794  0.495550  1
  Ho  Ho2  1  0.193911  0.697797  0.891708  1
  Ho  Ho3  1  0.806089  0.302203  0.108292  1
  Ho  Ho4  1  0.697684  0.503394  0.806418  1
  Ho  Ho5  1  0.302316  0.496606  0.193582  1
  Ho  Ho6  1  0.696977  0.891264  0.193582  1
  Ho  Ho7  1  0.303023  0.108736  0.806418  1
  Ho  Ho8  1  0.503757  0.806886  0.697394  1
  Ho  Ho9  1  0.496243  0.193114  0.302606  1
  Ho  Ho10  1  0.109493  0.806364  0.302606  1
  Ho  Ho11  1  0.890507  0.193636  0.697394  1
  Co  Co12  1  0.886062  0.386062  0.500000  1
  Co  Co13  1  0.113938  0.613938  0.500000  1
  Co  Co14  1  0.386302  0.500011  0.886313  1
  Co  Co15  1  0.613698  0.499989  0.113687  1
  Co  Co16  1  0.499783  0.886385  0.386168  1
  Co  Co17  1  0.500217  0.113615  0.613832  1
  Hg  Hg18  1  0.000000  0.000000  0.000000  1
