# generated using pymatgen
data_La13PrIr6
_symmetry_space_group_name_H-M   'P 1'
_cell_length_a   10.26372900
_cell_length_b   10.22334483
_cell_length_c   6.57829121
_cell_angle_alpha   89.97268264
_cell_angle_beta   90.00000000
_cell_angle_gamma   120.13076079
_symmetry_Int_Tables_number   1
_chemical_formula_structural   La13PrIr6
_chemical_formula_sum   'La13 Pr1 Ir6'
_cell_volume   596.99143040
_cell_formula_units_Z   1
loop_
 _symmetry_equiv_pos_site_id
 _symmetry_equiv_pos_as_xyz
  1  'x, y, z'
loop_
 _atom_site_type_symbol
 _atom_site_label
 _atom_site_symmetry_multiplicity
 _atom_site_fract_x
 _atom_site_fract_y
 _atom_site_fract_z
 _atom_site_occupancy
  La  La0  1  0.334136  0.668274  0.474787  1
  La  La1  1  0.666539  0.333077  0.974115  1
  La  La2  1  0.126122  0.874032  0.248502  1
  La  La3  1  0.747911  0.874032  0.248502  1
  La  La4  1  0.125208  0.250415  0.249382  1
  La  La5  1  0.873105  0.125222  0.749042  1
  La  La6  1  0.252116  0.125222  0.749042  1
  La  La7  1  0.874931  0.749864  0.748560  1
  La  La8  1  0.538565  0.461983  0.433293  1
  La  La9  1  0.923418  0.461983  0.433293  1
  La  La10  1  0.538666  0.077333  0.434335  1
  La  La11  1  0.461647  0.539543  0.932803  1
  La  La12  1  0.077896  0.539543  0.932803  1
  Pr  Pr13  1  0.461538  0.923076  0.937027  1
  Ir  Ir14  1  0.812476  0.188137  0.193759  1
  Ir  Ir15  1  0.375661  0.188137  0.193759  1
  Ir  Ir16  1  0.812113  0.624226  0.192673  1
  Ir  Ir17  1  0.184720  0.810303  0.691228  1
  Ir  Ir18  1  0.625583  0.810303  0.691228  1
  Ir  Ir19  1  0.187648  0.375295  0.693953  1
