# generated using pymatgen
data_Sm4TcRuC4
_symmetry_space_group_name_H-M   'P 1'
_cell_length_a   5.25893500
_cell_length_b   6.61027400
_cell_length_c   10.05660800
_cell_angle_alpha   90.00000000
_cell_angle_beta   90.00000000
_cell_angle_gamma   90.00000000
_symmetry_Int_Tables_number   1
_chemical_formula_structural   Sm4TcRuC4
_chemical_formula_sum   'Sm8 Tc2 Ru2 C8'
_cell_volume   349.59787696
_cell_formula_units_Z   2
loop_
 _symmetry_equiv_pos_site_id
 _symmetry_equiv_pos_as_xyz
  1  'x, y, z'
loop_
 _atom_site_type_symbol
 _atom_site_label
 _atom_site_symmetry_multiplicity
 _atom_site_fract_x
 _atom_site_fract_y
 _atom_site_fract_z
 _atom_site_occupancy
  Sm  Sm0  1  0.250000  0.474517  0.785644  1
  Sm  Sm1  1  0.750000  0.025483  0.285644  1
  Sm  Sm2  1  0.250000  0.972196  0.714187  1
  Sm  Sm3  1  0.750000  0.527804  0.214187  1
  Sm  Sm4  1  0.250000  0.814124  0.054047  1
  Sm  Sm5  1  0.750000  0.685876  0.554047  1
  Sm  Sm6  1  0.250000  0.317450  0.447185  1
  Sm  Sm7  1  0.750000  0.182550  0.947185  1
  Tc  Tc8  1  0.250000  0.272741  0.139692  1
  Tc  Tc9  1  0.750000  0.227259  0.639692  1
  Ru  Ru10  1  0.250000  0.772747  0.360874  1
  Ru  Ru11  1  0.750000  0.727253  0.860874  1
  C  C12  1  0.250000  0.682551  0.542798  1
  C  C13  1  0.750000  0.817449  0.042798  1
  C  C14  1  0.250000  0.184140  0.957051  1
  C  C15  1  0.750000  0.315860  0.457051  1
  C  C16  1  0.250000  0.037070  0.256732  1
  C  C17  1  0.750000  0.462930  0.756732  1
  C  C18  1  0.250000  0.537107  0.241791  1
  C  C19  1  0.750000  0.962893  0.741791  1
