# generated using pymatgen
data_Tb7Ho6Tm3(InRh)4
_symmetry_space_group_name_H-M   'P 1'
_cell_length_a   9.66130884
_cell_length_b   9.66568221
_cell_length_c   9.65499655
_cell_angle_alpha   60.00660629
_cell_angle_beta   59.94988940
_cell_angle_gamma   59.94181635
_symmetry_Int_Tables_number   1
_chemical_formula_structural   Tb7Ho6Tm3(InRh)4
_chemical_formula_sum   'Tb7 Ho6 Tm3 In4 Rh4'
_cell_volume   637.04676499
_cell_formula_units_Z   1
loop_
 _symmetry_equiv_pos_site_id
 _symmetry_equiv_pos_as_xyz
  1  'x, y, z'
loop_
 _atom_site_type_symbol
 _atom_site_label
 _atom_site_symmetry_multiplicity
 _atom_site_fract_x
 _atom_site_fract_y
 _atom_site_fract_z
 _atom_site_occupancy
  Tb  Tb0  1  0.050171  0.650220  0.649508  1
  Tb  Tb1  1  0.438706  0.062685  0.061026  1
  Tb  Tb2  1  0.438024  0.061976  0.438024  1
  Tb  Tb3  1  0.062269  0.437731  0.062269  1
  Tb  Tb4  1  0.649508  0.650102  0.050171  1
  Tb  Tb5  1  0.188054  0.811946  0.188054  1
  Tb  Tb6  1  0.061026  0.437584  0.438706  1
  Ho  Ho7  1  0.649905  0.048860  0.650008  1
  Ho  Ho8  1  0.060376  0.061931  0.439276  1
  Ho  Ho9  1  0.439276  0.438417  0.060376  1
  Ho  Ho10  1  0.650008  0.651227  0.649905  1
  Ho  Ho11  1  0.811723  0.187700  0.188572  1
  Ho  Ho12  1  0.188572  0.812004  0.811723  1
  Tm  Tm13  1  0.811164  0.811530  0.189196  1
  Tm  Tm14  1  0.811504  0.188496  0.811504  1
  Tm  Tm15  1  0.189196  0.188111  0.811164  1
  In  In16  1  0.417643  0.416372  0.416965  1
  In  In17  1  0.418205  0.417043  0.748377  1
  In  In18  1  0.416965  0.749020  0.417643  1
  In  In19  1  0.748377  0.416374  0.418205  1
  Rh  Rh20  1  0.858625  0.424739  0.856951  1
  Rh  Rh21  1  0.856951  0.859686  0.858625  1
  Rh  Rh22  1  0.856116  0.857360  0.427640  1
  Rh  Rh23  1  0.427640  0.858887  0.856116  1
