# generated using pymatgen
data_Sm3Y13(NiAg)4
_symmetry_space_group_name_H-M   'P 1'
_cell_length_a   9.51694289
_cell_length_b   9.53794206
_cell_length_c   9.53794200
_cell_angle_alpha   60.00000022
_cell_angle_beta   59.92698278
_cell_angle_gamma   59.92697878
_symmetry_Int_Tables_number   1
_chemical_formula_structural   Sm3Y13(NiAg)4
_chemical_formula_sum   'Sm3 Y13 Ni4 Ag4'
_cell_volume   611.52133893
_cell_formula_units_Z   1
loop_
 _symmetry_equiv_pos_site_id
 _symmetry_equiv_pos_as_xyz
  1  'x, y, z'
loop_
 _atom_site_type_symbol
 _atom_site_label
 _atom_site_symmetry_multiplicity
 _atom_site_fract_x
 _atom_site_fract_y
 _atom_site_fract_z
 _atom_site_occupancy
  Sm  Sm0  1  0.601571  0.602453  0.602453  1
  Sm  Sm1  1  0.601571  0.602453  0.193523  1
  Sm  Sm2  1  0.601571  0.193523  0.602453  1
  Y  Y3  1  0.194222  0.601926  0.601926  1
  Y  Y4  1  0.061949  0.437861  0.437861  1
  Y  Y5  1  0.437309  0.062324  0.062324  1
  Y  Y6  1  0.437309  0.062324  0.438044  1
  Y  Y7  1  0.061949  0.437861  0.062330  1
  Y  Y8  1  0.437309  0.438044  0.062324  1
  Y  Y9  1  0.061949  0.062330  0.437861  1
  Y  Y10  1  0.184466  0.815251  0.815251  1
  Y  Y11  1  0.815032  0.184954  0.184954  1
  Y  Y12  1  0.815032  0.184954  0.815060  1
  Y  Y13  1  0.184466  0.815251  0.185033  1
  Y  Y14  1  0.815032  0.815060  0.184954  1
  Y  Y15  1  0.184466  0.185033  0.815251  1
  Ni  Ni16  1  0.392839  0.391859  0.391859  1
  Ni  Ni17  1  0.392839  0.391859  0.823442  1
  Ni  Ni18  1  0.392839  0.823442  0.391859  1
  Ni  Ni19  1  0.821534  0.392822  0.392822  1
  Ag  Ag20  1  0.833842  0.831199  0.831199  1
  Ag  Ag21  1  0.833842  0.831199  0.503760  1
  Ag  Ag22  1  0.833842  0.503760  0.831199  1
  Ag  Ag23  1  0.503224  0.832259  0.832259  1
