# generated using pymatgen
data_Tm4FeB16Mo3
_symmetry_space_group_name_H-M   'P 1'
_cell_length_a   3.53491100
_cell_length_b   5.97327503
_cell_length_c   11.54119600
_cell_angle_alpha   89.93256545
_cell_angle_beta   90.00000000
_cell_angle_gamma   90.00000000
_symmetry_Int_Tables_number   1
_chemical_formula_structural   Tm4FeB16Mo3
_chemical_formula_sum   'Tm4 Fe1 B16 Mo3'
_cell_volume   243.69213423
_cell_formula_units_Z   1
loop_
 _symmetry_equiv_pos_site_id
 _symmetry_equiv_pos_as_xyz
  1  'x, y, z'
loop_
 _atom_site_type_symbol
 _atom_site_label
 _atom_site_symmetry_multiplicity
 _atom_site_fract_x
 _atom_site_fract_y
 _atom_site_fract_z
 _atom_site_occupancy
  Tm  Tm0  1  0.500000  0.376472  0.148315  1
  Tm  Tm1  1  0.500000  0.627855  0.852010  1
  Tm  Tm2  1  0.500000  0.127409  0.651110  1
  Tm  Tm3  1  0.500000  0.872378  0.346466  1
  Fe  Fe4  1  0.500000  0.867180  0.085971  1
  B  B5  1  0.000000  0.110093  0.051123  1
  B  B6  1  0.000000  0.881528  0.955643  1
  B  B7  1  0.000000  0.383908  0.546967  1
  B  B8  1  0.000000  0.615883  0.450902  1
  B  B9  1  0.000000  0.131346  0.467109  1
  B  B10  1  0.000000  0.868532  0.531652  1
  B  B11  1  0.000000  0.367929  0.971417  1
  B  B12  1  0.000000  0.636832  0.032931  1
  B  B13  1  0.000000  0.021307  0.192009  1
  B  B14  1  0.000000  0.973633  0.808129  1
  B  B15  1  0.000000  0.475730  0.694759  1
  B  B16  1  0.000000  0.527743  0.303314  1
  B  B17  1  0.000000  0.208865  0.310782  1
  B  B18  1  0.000000  0.788925  0.687521  1
  B  B19  1  0.000000  0.287519  0.814477  1
  B  B20  1  0.000000  0.718891  0.182101  1
  Mo  Mo21  1  0.500000  0.370207  0.413635  1
  Mo  Mo22  1  0.500000  0.629807  0.584202  1
  Mo  Mo23  1  0.500000  0.130028  0.917455  1
