# generated using pymatgen
data_Hf3ZrIn2(CoPd)2
_symmetry_space_group_name_H-M   'P 1'
_cell_length_a   7.46956543
_cell_length_b   7.46956586
_cell_length_c   3.24542100
_cell_angle_alpha   90.00000000
_cell_angle_beta   90.00000000
_cell_angle_gamma   88.92139269
_symmetry_Int_Tables_number   1
_chemical_formula_structural   Hf3ZrIn2(CoPd)2
_chemical_formula_sum   'Hf3 Zr1 In2 Co2 Pd2'
_cell_volume   181.04426786
_cell_formula_units_Z   1
loop_
 _symmetry_equiv_pos_site_id
 _symmetry_equiv_pos_as_xyz
  1  'x, y, z'
loop_
 _atom_site_type_symbol
 _atom_site_label
 _atom_site_symmetry_multiplicity
 _atom_site_fract_x
 _atom_site_fract_y
 _atom_site_fract_z
 _atom_site_occupancy
  Hf  Hf0  1  0.815401  0.684599  0.000000  1
  Hf  Hf1  1  0.651966  0.151136  0.000000  1
  Hf  Hf2  1  0.348864  0.848034  0.000000  1
  Zr  Zr3  1  0.185840  0.314160  0.000000  1
  In  In4  1  0.999555  0.999830  0.500000  1
  In  In5  1  0.500170  0.500445  0.500000  1
  Co  Co6  1  0.375726  0.124274  0.500000  1
  Co  Co7  1  0.626108  0.873892  0.500000  1
  Pd  Pd8  1  0.867941  0.371571  0.500000  1
  Pd  Pd9  1  0.128429  0.632059  0.500000  1
