# generated using pymatgen
data_Y16In4NiPdRu2
_symmetry_space_group_name_H-M   'P 1'
_cell_length_a   9.75018554
_cell_length_b   9.68371500
_cell_length_c   9.70782052
_cell_angle_alpha   59.67408075
_cell_angle_beta   59.82464927
_cell_angle_gamma   59.74519411
_symmetry_Int_Tables_number   1
_chemical_formula_structural   Y16In4NiPdRu2
_chemical_formula_sum   'Y16 In4 Ni1 Pd1 Ru2'
_cell_volume   644.41773751
_cell_formula_units_Z   1
loop_
 _symmetry_equiv_pos_site_id
 _symmetry_equiv_pos_as_xyz
  1  'x, y, z'
loop_
 _atom_site_type_symbol
 _atom_site_label
 _atom_site_symmetry_multiplicity
 _atom_site_fract_x
 _atom_site_fract_y
 _atom_site_fract_z
 _atom_site_occupancy
  Y  Y0  1  0.190452  0.185909  0.811931  1
  Y  Y1  1  0.440708  0.058460  0.059918  1
  Y  Y2  1  0.435446  0.060857  0.442417  1
  Y  Y3  1  0.062349  0.439989  0.063506  1
  Y  Y4  1  0.646172  0.054917  0.652734  1
  Y  Y5  1  0.188417  0.811349  0.811863  1
  Y  Y6  1  0.061197  0.061028  0.442472  1
  Y  Y7  1  0.810987  0.195485  0.182690  1
  Y  Y8  1  0.811606  0.810957  0.180832  1
  Y  Y9  1  0.652260  0.648831  0.046360  1
  Y  Y10  1  0.646845  0.645894  0.656825  1
  Y  Y11  1  0.062737  0.436578  0.438055  1
  Y  Y12  1  0.050610  0.645746  0.656764  1
  Y  Y13  1  0.811691  0.186086  0.811719  1
  Y  Y14  1  0.434132  0.439901  0.063670  1
  Y  Y15  1  0.196441  0.811139  0.180848  1
  In  In16  1  0.416920  0.748126  0.418100  1
  In  In17  1  0.415478  0.419070  0.750051  1
  In  In18  1  0.749899  0.418428  0.415884  1
  In  In19  1  0.415733  0.418644  0.415770  1
  Ni  Ni20  1  0.859182  0.425286  0.856267  1
  Pd  Pd21  1  0.856561  0.858324  0.428487  1
  Ru  Ru22  1  0.427705  0.859502  0.856424  1
  Ru  Ru23  1  0.856469  0.859498  0.856410  1
