# generated using pymatgen
data_Dy4Lu16HgBi11
_symmetry_space_group_name_H-M   'P 1'
_cell_length_a   8.12903142
_cell_length_b   9.38391800
_cell_length_c   11.87081192
_cell_angle_alpha   90.00000000
_cell_angle_beta   90.29090563
_cell_angle_gamma   90.00000000
_symmetry_Int_Tables_number   1
_chemical_formula_structural   Dy4Lu16HgBi11
_chemical_formula_sum   'Dy4 Lu16 Hg1 Bi11'
_cell_volume   905.51955347
_cell_formula_units_Z   1
loop_
 _symmetry_equiv_pos_site_id
 _symmetry_equiv_pos_as_xyz
  1  'x, y, z'
loop_
 _atom_site_type_symbol
 _atom_site_label
 _atom_site_symmetry_multiplicity
 _atom_site_fract_x
 _atom_site_fract_y
 _atom_site_fract_z
 _atom_site_occupancy
  Dy  Dy0  1  0.314119  0.250000  0.218234  1
  Dy  Dy1  1  0.810939  0.250000  0.284492  1
  Dy  Dy2  1  0.679966  0.750000  0.786720  1
  Dy  Dy3  1  0.189787  0.750000  0.718386  1
  Lu  Lu4  1  0.352031  0.750000  0.211123  1
  Lu  Lu5  1  0.850979  0.750000  0.283023  1
  Lu  Lu6  1  0.650922  0.250000  0.781231  1
  Lu  Lu7  1  0.150658  0.250000  0.718497  1
  Lu  Lu8  1  0.685816  0.571220  0.057496  1
  Lu  Lu9  1  0.190277  0.932442  0.437510  1
  Lu  Lu10  1  0.309167  0.054528  0.939777  1
  Lu  Lu11  1  0.809533  0.432268  0.560686  1
  Lu  Lu12  1  0.309167  0.445472  0.939777  1
  Lu  Lu13  1  0.809533  0.067732  0.560686  1
  Lu  Lu14  1  0.685816  0.928780  0.057496  1
  Lu  Lu15  1  0.190277  0.567558  0.437510  1
  Lu  Lu16  1  0.478990  0.250000  0.490565  1
  Lu  Lu17  1  0.981460  0.250000  0.009462  1
  Lu  Lu18  1  0.521179  0.750000  0.509307  1
  Lu  Lu19  1  0.032618  0.750000  0.992003  1
  Hg  Hg20  1  0.402255  0.750000  0.961288  1
  Bi  Bi21  1  0.900157  0.750000  0.543064  1
  Bi  Bi22  1  0.598381  0.250000  0.040221  1
  Bi  Bi23  1  0.100078  0.250000  0.459389  1
  Bi  Bi24  1  0.562700  0.994637  0.326258  1
  Bi  Bi25  1  0.060260  0.503402  0.175853  1
  Bi  Bi26  1  0.437237  0.495072  0.673508  1
  Bi  Bi27  1  0.937751  0.003959  0.825408  1
  Bi  Bi28  1  0.437237  0.004928  0.673508  1
  Bi  Bi29  1  0.937751  0.496041  0.825408  1
  Bi  Bi30  1  0.562700  0.505363  0.326258  1
  Bi  Bi31  1  0.060260  0.996598  0.175853  1
