# generated using pymatgen
data_LiEu2AlGe2
_symmetry_space_group_name_H-M   'P 1'
_cell_length_a   4.44568700
_cell_length_b   7.48549600
_cell_length_c   8.24962100
_cell_angle_alpha   90.00000000
_cell_angle_beta   90.00000000
_cell_angle_gamma   90.00000000
_symmetry_Int_Tables_number   1
_chemical_formula_structural   LiEu2AlGe2
_chemical_formula_sum   'Li2 Eu4 Al2 Ge4'
_cell_volume   274.53230868
_cell_formula_units_Z   2
loop_
 _symmetry_equiv_pos_site_id
 _symmetry_equiv_pos_as_xyz
  1  'x, y, z'
loop_
 _atom_site_type_symbol
 _atom_site_label
 _atom_site_symmetry_multiplicity
 _atom_site_fract_x
 _atom_site_fract_y
 _atom_site_fract_z
 _atom_site_occupancy
  Li  Li0  1  0.250000  0.148910  0.940182  1
  Li  Li1  1  0.250000  0.648910  0.559818  1
  Eu  Eu2  1  0.250000  0.011535  0.309234  1
  Eu  Eu3  1  0.250000  0.511535  0.190766  1
  Eu  Eu4  1  0.750000  0.990514  0.688861  1
  Eu  Eu5  1  0.750000  0.490514  0.811139  1
  Al  Al6  1  0.750000  0.850123  0.072007  1
  Al  Al7  1  0.750000  0.350123  0.427993  1
  Ge  Ge8  1  0.250000  0.282265  0.597758  1
  Ge  Ge9  1  0.250000  0.782265  0.902242  1
  Ge  Ge10  1  0.750000  0.716653  0.388485  1
  Ge  Ge11  1  0.750000  0.216653  0.111515  1
