# generated using pymatgen
data_Sm3(GaCo2)4
_symmetry_space_group_name_H-M   'P 1'
_cell_length_a   7.32506605
_cell_length_b   8.60171348
_cell_length_c   8.60145430
_cell_angle_alpha   119.99880285
_cell_angle_beta   89.99560041
_cell_angle_gamma   90.00205953
_symmetry_Int_Tables_number   1
_chemical_formula_structural   Sm3(GaCo2)4
_chemical_formula_sum   'Sm6 Ga8 Co16'
_cell_volume   469.35805182
_cell_formula_units_Z   2
loop_
 _symmetry_equiv_pos_site_id
 _symmetry_equiv_pos_as_xyz
  1  'x, y, z'
loop_
 _atom_site_type_symbol
 _atom_site_label
 _atom_site_symmetry_multiplicity
 _atom_site_fract_x
 _atom_site_fract_y
 _atom_site_fract_z
 _atom_site_occupancy
  Sm  Sm0  1  0.001590  0.525184  0.050442  1
  Sm  Sm1  1  0.001546  0.525295  0.474789  1
  Sm  Sm2  1  0.001583  0.949507  0.474844  1
  Sm  Sm3  1  0.501627  0.050360  0.525291  1
  Sm  Sm4  1  0.501606  0.474900  0.525193  1
  Sm  Sm5  1  0.501644  0.474757  0.949626  1
  Ga  Ga6  1  0.292753  0.336622  0.168295  1
  Ga  Ga7  1  0.292822  0.831676  0.168360  1
  Ga  Ga8  1  0.671894  0.666711  0.333317  1
  Ga  Ga9  1  0.792830  0.168329  0.336614  1
  Ga  Ga10  1  0.292711  0.831724  0.663409  1
  Ga  Ga11  1  0.172112  0.333300  0.666648  1
  Ga  Ga12  1  0.792894  0.168197  0.831759  1
  Ga  Ga13  1  0.792847  0.663471  0.831673  1
  Co  Co14  1  0.220510  0.000000  0.999983  1
  Co  Co15  1  0.720494  0.000000  0.999966  1
  Co  Co16  1  0.972831  0.199703  0.099865  1
  Co  Co17  1  0.972863  0.900179  0.099804  1
  Co  Co18  1  0.665245  0.322780  0.161385  1
  Co  Co19  1  0.665294  0.838637  0.161344  1
  Co  Co20  1  0.472846  0.099818  0.199609  1
  Co  Co21  1  0.165292  0.161356  0.322723  1
  Co  Co22  1  0.329617  0.666668  0.333357  1
  Co  Co23  1  0.829711  0.333324  0.666702  1
  Co  Co24  1  0.665182  0.838601  0.677203  1
  Co  Co25  1  0.972849  0.900108  0.800247  1
  Co  Co26  1  0.165251  0.161375  0.838638  1
  Co  Co27  1  0.165295  0.677254  0.838636  1
  Co  Co28  1  0.472839  0.099851  0.900141  1
  Co  Co29  1  0.472824  0.800312  0.900138  1
