# generated using pymatgen
data_Y3Ag(Rh2O7)2
_symmetry_space_group_name_H-M   'P 1'
_cell_length_a   7.14162009
_cell_length_b   7.30803614
_cell_length_c   7.30803500
_cell_angle_alpha   60.00000064
_cell_angle_beta   59.22612648
_cell_angle_gamma   59.22612966
_symmetry_Int_Tables_number   1
_chemical_formula_structural   Y3Ag(Rh2O7)2
_chemical_formula_sum   'Y3 Ag1 Rh4 O14'
_cell_volume   266.50341843
_cell_formula_units_Z   1
loop_
 _symmetry_equiv_pos_site_id
 _symmetry_equiv_pos_as_xyz
  1  'x, y, z'
loop_
 _atom_site_type_symbol
 _atom_site_label
 _atom_site_symmetry_multiplicity
 _atom_site_fract_x
 _atom_site_fract_y
 _atom_site_fract_z
 _atom_site_occupancy
  Y  Y0  1  0.125000  0.625000  0.125000  1
  Y  Y1  1  0.125000  0.125000  0.625000  1
  Y  Y2  1  0.125000  0.125000  0.125000  1
  Ag  Ag3  1  0.625000  0.125000  0.125000  1
  Rh  Rh4  1  0.625000  0.625000  0.625000  1
  Rh  Rh5  1  0.125000  0.625000  0.625000  1
  Rh  Rh6  1  0.625000  0.625000  0.125000  1
  Rh  Rh7  1  0.625000  0.125000  0.625000  1
  O  O8  1  0.284649  0.712824  0.712824  1
  O  O9  1  0.541134  0.952233  0.952233  1
  O  O10  1  0.708866  0.695600  0.297767  1
  O  O11  1  0.284649  0.289703  0.712824  1
  O  O12  1  0.991864  0.002712  0.002712  1
  O  O13  1  0.284649  0.712824  0.289703  1
  O  O14  1  0.708866  0.297767  0.695600  1
  O  O15  1  0.965351  0.537176  0.960297  1
  O  O16  1  0.541134  0.554400  0.952233  1
  O  O17  1  0.965351  0.960297  0.537176  1
  O  O18  1  0.258136  0.247288  0.247288  1
  O  O19  1  0.541134  0.952233  0.554400  1
  O  O20  1  0.708866  0.297767  0.297767  1
  O  O21  1  0.965351  0.537176  0.537176  1
