# generated using pymatgen
data_ErLu2Mg3SiHg2
_symmetry_space_group_name_H-M   'P 1'
_cell_length_a   7.38469640
_cell_length_b   7.39542443
_cell_length_c   4.30888200
_cell_angle_alpha   90.00000000
_cell_angle_beta   90.00000000
_cell_angle_gamma   119.81359689
_symmetry_Int_Tables_number   1
_chemical_formula_structural   ErLu2Mg3SiHg2
_chemical_formula_sum   'Er1 Lu2 Mg3 Si1 Hg2'
_cell_volume   204.17551772
_cell_formula_units_Z   1
loop_
 _symmetry_equiv_pos_site_id
 _symmetry_equiv_pos_as_xyz
  1  'x, y, z'
loop_
 _atom_site_type_symbol
 _atom_site_label
 _atom_site_symmetry_multiplicity
 _atom_site_fract_x
 _atom_site_fract_y
 _atom_site_fract_z
 _atom_site_occupancy
  Er  Er0  1  0.578267  0.007823  0.000000  1
  Lu  Lu1  1  0.992327  0.570857  0.000000  1
  Lu  Lu2  1  0.429119  0.421591  0.000000  1
  Mg  Mg3  1  0.250623  0.001977  0.500000  1
  Mg  Mg4  1  0.998438  0.249372  0.500000  1
  Mg  Mg5  1  0.750850  0.748755  0.500000  1
  Si  Si6  1  0.667057  0.334318  0.500000  1
  Hg  Hg7  1  0.332321  0.665252  0.500000  1
  Hg  Hg8  1  0.000999  0.000054  0.000000  1
