# generated using pymatgen
data_Ce3HfBi3Sb2
_symmetry_space_group_name_H-M   'P 1'
_cell_length_a   9.75033700
_cell_length_b   9.60896910
_cell_length_c   6.43133600
_cell_angle_alpha   90.00000000
_cell_angle_beta   90.00000000
_cell_angle_gamma   120.48787328
_symmetry_Int_Tables_number   1
_chemical_formula_structural   Ce3HfBi3Sb2
_chemical_formula_sum   'Ce6 Hf2 Bi6 Sb4'
_cell_volume   519.24478410
_cell_formula_units_Z   2
loop_
 _symmetry_equiv_pos_site_id
 _symmetry_equiv_pos_as_xyz
  1  'x, y, z'
loop_
 _atom_site_type_symbol
 _atom_site_label
 _atom_site_symmetry_multiplicity
 _atom_site_fract_x
 _atom_site_fract_y
 _atom_site_fract_z
 _atom_site_occupancy
  Ce  Ce0  1  0.628664  0.000000  0.250000  1
  Ce  Ce1  1  0.371336  0.000000  0.750000  1
  Ce  Ce2  1  0.993927  0.614765  0.250000  1
  Ce  Ce3  1  0.006073  0.385235  0.750000  1
  Ce  Ce4  1  0.379163  0.385235  0.250000  1
  Ce  Ce5  1  0.620837  0.614765  0.750000  1
  Hf  Hf6  1  0.000000  0.000000  0.000000  1
  Hf  Hf7  1  0.000000  0.000000  0.500000  1
  Bi  Bi8  1  0.266740  0.000000  0.250000  1
  Bi  Bi9  1  0.733260  0.000000  0.750000  1
  Bi  Bi10  1  0.335126  0.670253  0.000000  1
  Bi  Bi11  1  0.664874  0.329747  0.000000  1
  Bi  Bi12  1  0.664874  0.329747  0.500000  1
  Bi  Bi13  1  0.335126  0.670253  0.500000  1
  Sb  Sb14  1  0.003729  0.263646  0.250000  1
  Sb  Sb15  1  0.996271  0.736354  0.750000  1
  Sb  Sb16  1  0.740082  0.736354  0.250000  1
  Sb  Sb17  1  0.259918  0.263646  0.750000  1
