# generated using pymatgen
data_TbDy3Er2Ta2O14
_symmetry_space_group_name_H-M   'P 1'
_cell_length_a   6.48830535
_cell_length_b   6.48825773
_cell_length_c   7.46182812
_cell_angle_alpha   89.97576867
_cell_angle_beta   89.94303987
_cell_angle_gamma   108.55738618
_symmetry_Int_Tables_number   1
_chemical_formula_structural   TbDy3Er2Ta2O14
_chemical_formula_sum   'Tb1 Dy3 Er2 Ta2 O14'
_cell_volume   297.79339882
_cell_formula_units_Z   1
loop_
 _symmetry_equiv_pos_site_id
 _symmetry_equiv_pos_as_xyz
  1  'x, y, z'
loop_
 _atom_site_type_symbol
 _atom_site_label
 _atom_site_symmetry_multiplicity
 _atom_site_fract_x
 _atom_site_fract_y
 _atom_site_fract_z
 _atom_site_occupancy
  Tb  Tb0  1  0.464338  0.463463  0.000846  1
  Dy  Dy1  1  0.538057  0.537089  0.499191  1
  Dy  Dy2  1  0.999965  0.465078  0.741071  1
  Dy  Dy3  1  0.534964  0.999941  0.758544  1
  Er  Er4  1  0.000624  0.535168  0.241133  1
  Er  Er5  1  0.464855  0.999293  0.259229  1
  Ta  Ta6  1  0.002375  0.002921  0.498810  1
  Ta  Ta7  1  0.997086  0.997629  0.001187  1
  O  O8  1  0.931986  0.068035  0.750032  1
  O  O9  1  0.639876  0.360179  0.749150  1
  O  O10  1  0.308658  0.050808  0.543165  1
  O  O11  1  0.949168  0.691217  0.956848  1
  O  O12  1  0.630895  0.369345  0.251162  1
  O  O13  1  0.917269  0.670826  0.522939  1
  O  O14  1  0.328781  0.081513  0.977004  1
  O  O15  1  0.080965  0.328498  0.026194  1
  O  O16  1  0.671131  0.917863  0.473875  1
  O  O17  1  0.370596  0.629633  0.748845  1
  O  O18  1  0.692806  0.952937  0.047309  1
  O  O19  1  0.047028  0.307063  0.452678  1
  O  O20  1  0.357955  0.642102  0.250813  1
  O  O21  1  0.070622  0.929397  0.249973  1
