# generated using pymatgen
data_TbEr2Co(P3Ir4)2
_symmetry_space_group_name_H-M   'P 1'
_cell_length_a   3.92905600
_cell_length_b   11.09515600
_cell_length_c   12.77772200
_cell_angle_alpha   90.00000000
_cell_angle_beta   90.00000000
_cell_angle_gamma   90.00000000
_symmetry_Int_Tables_number   1
_chemical_formula_structural   TbEr2Co(P3Ir4)2
_chemical_formula_sum   'Tb2 Er4 Co2 P12 Ir16'
_cell_volume   557.02548668
_cell_formula_units_Z   2
loop_
 _symmetry_equiv_pos_site_id
 _symmetry_equiv_pos_as_xyz
  1  'x, y, z'
loop_
 _atom_site_type_symbol
 _atom_site_label
 _atom_site_symmetry_multiplicity
 _atom_site_fract_x
 _atom_site_fract_y
 _atom_site_fract_z
 _atom_site_occupancy
  Tb  Tb0  1  0.000000  0.500000  0.522686  1
  Tb  Tb1  1  0.500000  0.000000  0.477314  1
  Er  Er2  1  0.500000  0.815833  0.200406  1
  Er  Er3  1  0.500000  0.184167  0.200406  1
  Er  Er4  1  0.000000  0.684167  0.799594  1
  Er  Er5  1  0.000000  0.315833  0.799594  1
  Co  Co6  1  0.000000  0.500000  0.976649  1
  Co  Co7  1  0.500000  0.000000  0.023351  1
  P  P8  1  0.500000  0.500000  0.880507  1
  P  P9  1  0.000000  0.000000  0.119493  1
  P  P10  1  0.500000  0.500000  0.357725  1
  P  P11  1  0.000000  0.000000  0.642275  1
  P  P12  1  0.500000  0.315707  0.619699  1
  P  P13  1  0.500000  0.684293  0.619699  1
  P  P14  1  0.000000  0.184293  0.380301  1
  P  P15  1  0.000000  0.815707  0.380301  1
  P  P16  1  0.500000  0.851624  0.896598  1
  P  P17  1  0.500000  0.148376  0.896598  1
  P  P18  1  0.000000  0.648376  0.103402  1
  P  P19  1  0.000000  0.351624  0.103402  1
  Ir  Ir20  1  0.500000  0.500000  0.177727  1
  Ir  Ir21  1  0.000000  0.000000  0.822273  1
  Ir  Ir22  1  0.500000  0.500000  0.703479  1
  Ir  Ir23  1  0.000000  0.000000  0.296521  1
  Ir  Ir24  1  0.500000  0.338920  0.997665  1
  Ir  Ir25  1  0.500000  0.661080  0.997665  1
  Ir  Ir26  1  0.000000  0.161080  0.002335  1
  Ir  Ir27  1  0.000000  0.838920  0.002335  1
  Ir  Ir28  1  0.500000  0.292586  0.428995  1
  Ir  Ir29  1  0.500000  0.707414  0.428995  1
  Ir  Ir30  1  0.000000  0.207414  0.571005  1
  Ir  Ir31  1  0.000000  0.792586  0.571005  1
  Ir  Ir32  1  0.500000  0.869472  0.715330  1
  Ir  Ir33  1  0.500000  0.130528  0.715330  1
  Ir  Ir34  1  0.000000  0.630528  0.284670  1
  Ir  Ir35  1  0.000000  0.369472  0.284670  1
