# generated using pymatgen
data_Tm6HgRh7
_symmetry_space_group_name_H-M   'P 1'
_cell_length_a   7.53916651
_cell_length_b   7.53916599
_cell_length_c   7.53916543
_cell_angle_alpha   113.74394712
_cell_angle_beta   113.74395915
_cell_angle_gamma   113.74395120
_symmetry_Int_Tables_number   1
_chemical_formula_structural   Tm6HgRh7
_chemical_formula_sum   'Tm6 Hg1 Rh7'
_cell_volume   265.21742677
_cell_formula_units_Z   1
loop_
 _symmetry_equiv_pos_site_id
 _symmetry_equiv_pos_as_xyz
  1  'x, y, z'
loop_
 _atom_site_type_symbol
 _atom_site_label
 _atom_site_symmetry_multiplicity
 _atom_site_fract_x
 _atom_site_fract_y
 _atom_site_fract_z
 _atom_site_occupancy
  Tm  Tm0  1  0.370421  0.956378  0.229943  1
  Tm  Tm1  1  0.956378  0.229943  0.370421  1
  Tm  Tm2  1  0.229943  0.370421  0.956378  1
  Tm  Tm3  1  0.629579  0.043622  0.770057  1
  Tm  Tm4  1  0.043622  0.770057  0.629579  1
  Tm  Tm5  1  0.770057  0.629579  0.043622  1
  Hg  Hg6  1  0.500000  0.500000  0.500000  1
  Rh  Rh7  1  0.000000  0.000000  0.000000  1
  Rh  Rh8  1  0.275617  0.127594  0.569717  1
  Rh  Rh9  1  0.127594  0.569717  0.275617  1
  Rh  Rh10  1  0.569717  0.275617  0.127594  1
  Rh  Rh11  1  0.724383  0.872406  0.430283  1
  Rh  Rh12  1  0.872406  0.430283  0.724383  1
  Rh  Rh13  1  0.430283  0.724383  0.872406  1
