# generated using pymatgen
data_Pr6Nd10Cd4Ir3Au
_symmetry_space_group_name_H-M   'P 1'
_cell_length_a   10.02192533
_cell_length_b   10.02192281
_cell_length_c   10.02192358
_cell_angle_alpha   60.25379916
_cell_angle_beta   60.25380639
_cell_angle_gamma   60.25379948
_symmetry_Int_Tables_number   1
_chemical_formula_structural   Pr6Nd10Cd4Ir3Au
_chemical_formula_sum   'Pr6 Nd10 Cd4 Ir3 Au1'
_cell_volume   715.85688209
_cell_formula_units_Z   1
loop_
 _symmetry_equiv_pos_site_id
 _symmetry_equiv_pos_as_xyz
  1  'x, y, z'
loop_
 _atom_site_type_symbol
 _atom_site_label
 _atom_site_symmetry_multiplicity
 _atom_site_fract_x
 _atom_site_fract_y
 _atom_site_fract_z
 _atom_site_occupancy
  Pr  Pr0  1  0.940806  0.562297  0.562297  1
  Pr  Pr1  1  0.562018  0.939584  0.939584  1
  Pr  Pr2  1  0.562297  0.940806  0.562297  1
  Pr  Pr3  1  0.939584  0.562018  0.939584  1
  Pr  Pr4  1  0.562297  0.562297  0.940806  1
  Pr  Pr5  1  0.939584  0.939584  0.562018  1
  Nd  Nd6  1  0.346217  0.346217  0.346217  1
  Nd  Nd7  1  0.356172  0.356172  0.945929  1
  Nd  Nd8  1  0.356172  0.945929  0.356172  1
  Nd  Nd9  1  0.945929  0.356172  0.356172  1
  Nd  Nd10  1  0.799935  0.191054  0.191054  1
  Nd  Nd11  1  0.188428  0.809996  0.809996  1
  Nd  Nd12  1  0.191054  0.799935  0.191054  1
  Nd  Nd13  1  0.809996  0.188428  0.809996  1
  Nd  Nd14  1  0.191054  0.191054  0.799935  1
  Nd  Nd15  1  0.809996  0.809996  0.188428  1
  Cd  Cd16  1  0.580472  0.580472  0.580472  1
  Cd  Cd17  1  0.579844  0.579844  0.259780  1
  Cd  Cd18  1  0.579844  0.259780  0.579844  1
  Cd  Cd19  1  0.259780  0.579844  0.579844  1
  Ir  Ir20  1  0.140955  0.140955  0.572822  1
  Ir  Ir21  1  0.140955  0.572822  0.140955  1
  Ir  Ir22  1  0.572822  0.140955  0.140955  1
  Au  Au23  1  0.143788  0.143788  0.143788  1
