# generated using pymatgen
data_BaLiC12
_symmetry_space_group_name_H-M   'P 1'
_cell_length_a   4.32846800
_cell_length_b   4.32846729
_cell_length_c   9.35540300
_cell_angle_alpha   90.00000000
_cell_angle_beta   90.00000000
_cell_angle_gamma   119.99999017
_symmetry_Int_Tables_number   1
_chemical_formula_structural   BaLiC12
_chemical_formula_sum   'Ba1 Li1 C12'
_cell_volume   151.79641874
_cell_formula_units_Z   1
loop_
 _symmetry_equiv_pos_site_id
 _symmetry_equiv_pos_as_xyz
  1  'x, y, z'
loop_
 _atom_site_type_symbol
 _atom_site_label
 _atom_site_symmetry_multiplicity
 _atom_site_fract_x
 _atom_site_fract_y
 _atom_site_fract_z
 _atom_site_occupancy
  Ba  Ba0  1  0.666667  0.333333  0.750000  1
  Li  Li1  1  0.333333  0.666667  0.250000  1
  C  C2  1  0.333435  0.333215  0.460453  1
  C  C3  1  0.666785  0.000220  0.460453  1
  C  C4  1  0.999780  0.666565  0.460453  1
  C  C5  1  0.666785  0.666565  0.460453  1
  C  C6  1  0.999780  0.333215  0.460453  1
  C  C7  1  0.333435  0.000220  0.460453  1
  C  C8  1  0.666785  0.666565  0.039547  1
  C  C9  1  0.333435  0.000220  0.039547  1
  C  C10  1  0.999780  0.333215  0.039547  1
  C  C11  1  0.333435  0.333215  0.039547  1
  C  C12  1  0.999780  0.666565  0.039547  1
  C  C13  1  0.666785  0.000220  0.039547  1
