# generated using pymatgen
data_Hf2NiN2
_symmetry_space_group_name_H-M   'P 1'
_cell_length_a   3.17335200
_cell_length_b   3.17360900
_cell_length_c   11.72029400
_cell_angle_alpha   90.00000000
_cell_angle_beta   90.00000000
_cell_angle_gamma   90.00000000
_symmetry_Int_Tables_number   1
_chemical_formula_structural   Hf2NiN2
_chemical_formula_sum   'Hf4 Ni2 N4'
_cell_volume   118.03482851
_cell_formula_units_Z   2
loop_
 _symmetry_equiv_pos_site_id
 _symmetry_equiv_pos_as_xyz
  1  'x, y, z'
loop_
 _atom_site_type_symbol
 _atom_site_label
 _atom_site_symmetry_multiplicity
 _atom_site_fract_x
 _atom_site_fract_y
 _atom_site_fract_z
 _atom_site_occupancy
  Hf  Hf0  1  0.249407  0.250000  0.896541  1
  Hf  Hf1  1  0.249407  0.250000  0.603459  1
  Hf  Hf2  1  0.750593  0.750000  0.103459  1
  Hf  Hf3  1  0.750593  0.750000  0.396541  1
  Ni  Ni4  1  0.251440  0.250000  0.250000  1
  Ni  Ni5  1  0.748560  0.750000  0.750000  1
  N  N6  1  0.250610  0.250000  0.414574  1
  N  N7  1  0.250610  0.250000  0.085426  1
  N  N8  1  0.749390  0.750000  0.585426  1
  N  N9  1  0.749390  0.750000  0.914574  1
