# generated using pymatgen
data_Lu8Sc11Si16Rh
_symmetry_space_group_name_H-M   'P 1'
_cell_length_a   6.91618204
_cell_length_b   7.33659419
_cell_length_c   13.78469800
_cell_angle_alpha   90.00000000
_cell_angle_beta   90.00000000
_cell_angle_gamma   89.89801770
_symmetry_Int_Tables_number   1
_chemical_formula_structural   Lu8Sc11Si16Rh
_chemical_formula_sum   'Lu8 Sc11 Si16 Rh1'
_cell_volume   699.45129973
_cell_formula_units_Z   1
loop_
 _symmetry_equiv_pos_site_id
 _symmetry_equiv_pos_as_xyz
  1  'x, y, z'
loop_
 _atom_site_type_symbol
 _atom_site_label
 _atom_site_symmetry_multiplicity
 _atom_site_fract_x
 _atom_site_fract_y
 _atom_site_fract_z
 _atom_site_occupancy
  Lu  Lu0  1  0.012375  0.179805  0.093327  1
  Lu  Lu1  1  0.990523  0.813978  0.902474  1
  Lu  Lu2  1  0.489212  0.674967  0.903285  1
  Lu  Lu3  1  0.990523  0.813978  0.597526  1
  Lu  Lu4  1  0.510031  0.321616  0.093840  1
  Lu  Lu5  1  0.012375  0.179805  0.406673  1
  Lu  Lu6  1  0.510031  0.321616  0.406160  1
  Lu  Lu7  1  0.489212  0.674967  0.596715  1
  Sc  Sc8  1  0.840634  0.495653  0.250000  1
  Sc  Sc9  1  0.342296  0.005572  0.250000  1
  Sc  Sc10  1  0.653177  0.996327  0.750000  1
  Sc  Sc11  1  0.321440  0.176632  0.628149  1
  Sc  Sc12  1  0.672457  0.825222  0.374405  1
  Sc  Sc13  1  0.173342  0.673644  0.376135  1
  Sc  Sc14  1  0.672457  0.825222  0.125595  1
  Sc  Sc15  1  0.830936  0.328491  0.629526  1
  Sc  Sc16  1  0.321440  0.176632  0.871851  1
  Sc  Sc17  1  0.830936  0.328491  0.870474  1
  Sc  Sc18  1  0.173342  0.673644  0.123865  1
  Si  Si19  1  0.023196  0.092095  0.750000  1
  Si  Si20  1  0.973606  0.890460  0.250000  1
  Si  Si21  1  0.470095  0.611463  0.250000  1
  Si  Si22  1  0.516561  0.397832  0.750000  1
  Si  Si23  1  0.282556  0.860390  0.750000  1
  Si  Si24  1  0.716888  0.133461  0.250000  1
  Si  Si25  1  0.215344  0.368285  0.250000  1
  Si  Si26  1  0.792154  0.631381  0.750000  1
  Si  Si27  1  0.162036  0.464814  0.542453  1
  Si  Si28  1  0.841260  0.534320  0.463757  1
  Si  Si29  1  0.342790  0.965421  0.463155  1
  Si  Si30  1  0.841260  0.534320  0.036243  1
  Si  Si31  1  0.660383  0.034251  0.540185  1
  Si  Si32  1  0.162036  0.464814  0.957547  1
  Si  Si33  1  0.660383  0.034251  0.959815  1
  Si  Si34  1  0.342790  0.965421  0.036845  1
  Rh  Rh35  1  0.159928  0.530760  0.750000  1
