# generated using pymatgen
data_Er9Tm(AlSb2)2
_symmetry_space_group_name_H-M   'P 1'
_cell_length_a   8.79140600
_cell_length_b   8.76666993
_cell_length_c   6.32506500
_cell_angle_alpha   90.00000000
_cell_angle_beta   90.00000000
_cell_angle_gamma   119.75200769
_symmetry_Int_Tables_number   1
_chemical_formula_structural   Er9Tm(AlSb2)2
_chemical_formula_sum   'Er9 Tm1 Al2 Sb4'
_cell_volume   423.22223411
_cell_formula_units_Z   1
loop_
 _symmetry_equiv_pos_site_id
 _symmetry_equiv_pos_as_xyz
  1  'x, y, z'
loop_
 _atom_site_type_symbol
 _atom_site_label
 _atom_site_symmetry_multiplicity
 _atom_site_fract_x
 _atom_site_fract_y
 _atom_site_fract_z
 _atom_site_occupancy
  Er  Er0  1  0.339468  0.680741  0.000044  1
  Er  Er1  1  0.660418  0.319846  0.499847  1
  Er  Er2  1  0.660418  0.319846  0.000153  1
  Er  Er3  1  0.339468  0.680741  0.499956  1
  Er  Er4  1  0.243523  0.999656  0.250000  1
  Er  Er5  1  0.756782  0.999572  0.750000  1
  Er  Er6  1  0.988457  0.231333  0.250000  1
  Er  Er7  1  0.755105  0.766539  0.250000  1
  Er  Er8  1  0.244996  0.232891  0.750000  1
  Tm  Tm9  1  0.011697  0.769513  0.750000  1
  Al  Al10  1  0.600434  0.999915  0.250000  1
  Al  Al11  1  0.400452  0.000492  0.750000  1
  Sb  Sb12  1  0.993998  0.605837  0.250000  1
  Sb  Sb13  1  0.387317  0.393644  0.250000  1
  Sb  Sb14  1  0.611326  0.605688  0.750000  1
  Sb  Sb15  1  0.006141  0.393745  0.750000  1
