# generated using pymatgen
data_Pr5Sm(CI5)2
_symmetry_space_group_name_H-M   'P 1'
_cell_length_a   7.97432378
_cell_length_b   9.78231859
_cell_length_c   9.87362716
_cell_angle_alpha   107.03096053
_cell_angle_beta   96.59322552
_cell_angle_gamma   104.36517795
_symmetry_Int_Tables_number   1
_chemical_formula_structural   Pr5Sm(CI5)2
_chemical_formula_sum   'Pr5 Sm1 C2 I10'
_cell_volume   698.64624740
_cell_formula_units_Z   1
loop_
 _symmetry_equiv_pos_site_id
 _symmetry_equiv_pos_as_xyz
  1  'x, y, z'
loop_
 _atom_site_type_symbol
 _atom_site_label
 _atom_site_symmetry_multiplicity
 _atom_site_fract_x
 _atom_site_fract_y
 _atom_site_fract_z
 _atom_site_occupancy
  Pr  Pr0  1  0.107416  0.040291  0.775593  1
  Pr  Pr1  1  0.373175  0.133501  0.180049  1
  Pr  Pr2  1  0.890673  0.958778  0.223448  1
  Pr  Pr3  1  0.032076  0.734339  0.923144  1
  Pr  Pr4  1  0.966734  0.265644  0.076152  1
  Sm  Sm5  1  0.629735  0.868012  0.821873  1
  C  C6  1  0.911627  0.969880  0.958607  1
  C  C7  1  0.084889  0.029147  0.039997  1
  I  I8  1  0.200122  0.736158  0.646860  1
  I  I9  1  0.088542  0.370770  0.819559  1
  I  I10  1  0.459188  0.807959  0.087486  1
  I  I11  1  0.252650  0.083767  0.461179  1
  I  I12  1  0.544152  0.185990  0.904589  1
  I  I13  1  0.807497  0.265871  0.356446  1
  I  I14  1  0.343551  0.456590  0.272992  1
  I  I15  1  0.912124  0.629557  0.180574  1
  I  I16  1  0.653387  0.549295  0.727649  1
  I  I17  1  0.742461  0.914451  0.543805  1
