# generated using pymatgen
data_LiCrPdO4
_symmetry_space_group_name_H-M   'P 1'
_cell_length_a   6.02859858
_cell_length_b   6.02859902
_cell_length_c   6.02859865
_cell_angle_alpha   119.33524768
_cell_angle_beta   120.39923300
_cell_angle_gamma   90.23256299
_symmetry_Int_Tables_number   1
_chemical_formula_structural   LiCrPdO4
_chemical_formula_sum   'Li2 Cr2 Pd2 O8'
_cell_volume   155.22236353
_cell_formula_units_Z   2
loop_
 _symmetry_equiv_pos_site_id
 _symmetry_equiv_pos_as_xyz
  1  'x, y, z'
loop_
 _atom_site_type_symbol
 _atom_site_label
 _atom_site_symmetry_multiplicity
 _atom_site_fract_x
 _atom_site_fract_y
 _atom_site_fract_z
 _atom_site_occupancy
  Li  Li0  1  0.636225  0.886225  0.750000  1
  Li  Li1  1  0.363775  0.113775  0.250000  1
  Cr  Cr2  1  0.500000  0.500000  0.000000  1
  Cr  Cr3  1  0.000000  0.500000  0.500000  1
  Pd  Pd4  1  0.000000  0.500000  0.000000  1
  Pd  Pd5  1  0.000000  0.000000  0.500000  1
  O  O6  1  0.759919  0.287525  0.027606  1
  O  O7  1  0.762140  0.738838  0.023302  1
  O  O8  1  0.215536  0.738838  0.476698  1
  O  O9  1  0.759919  0.732313  0.472394  1
  O  O10  1  0.240081  0.267687  0.527606  1
  O  O11  1  0.237860  0.261162  0.976698  1
  O  O12  1  0.784464  0.261162  0.523302  1
  O  O13  1  0.240081  0.712475  0.972394  1
