# generated using pymatgen
data_Dy(HoSe2)2
_symmetry_space_group_name_H-M   'P 1'
_cell_length_a   4.05640800
_cell_length_b   6.98599189
_cell_length_c   6.97369205
_cell_angle_alpha   71.69784790
_cell_angle_beta   90.00000000
_cell_angle_gamma   90.00000000
_symmetry_Int_Tables_number   1
_chemical_formula_structural   Dy(HoSe2)2
_chemical_formula_sum   'Dy1 Ho2 Se4'
_cell_volume   187.62381379
_cell_formula_units_Z   1
loop_
 _symmetry_equiv_pos_site_id
 _symmetry_equiv_pos_as_xyz
  1  'x, y, z'
loop_
 _atom_site_type_symbol
 _atom_site_label
 _atom_site_symmetry_multiplicity
 _atom_site_fract_x
 _atom_site_fract_y
 _atom_site_fract_z
 _atom_site_occupancy
  Dy  Dy0  1  0.000000  0.500000  0.500000  1
  Ho  Ho1  1  0.000000  0.000000  0.000000  1
  Ho  Ho2  1  0.500000  0.500000  0.000000  1
  Se  Se3  1  0.500000  0.755756  0.254207  1
  Se  Se4  1  0.000000  0.253740  0.245669  1
  Se  Se5  1  0.500000  0.244244  0.745793  1
  Se  Se6  1  0.000000  0.746260  0.754331  1
