# generated using pymatgen
data_Tm2AlOs2Ru
_symmetry_space_group_name_H-M   'P 1'
_cell_length_a   5.29818681
_cell_length_b   5.24904471
_cell_length_c   8.82553800
_cell_angle_alpha   90.00000000
_cell_angle_beta   90.00000000
_cell_angle_gamma   119.69366144
_symmetry_Int_Tables_number   1
_chemical_formula_structural   Tm2AlOs2Ru
_chemical_formula_sum   'Tm4 Al2 Os4 Ru2'
_cell_volume   213.21203317
_cell_formula_units_Z   2
loop_
 _symmetry_equiv_pos_site_id
 _symmetry_equiv_pos_as_xyz
  1  'x, y, z'
loop_
 _atom_site_type_symbol
 _atom_site_label
 _atom_site_symmetry_multiplicity
 _atom_site_fract_x
 _atom_site_fract_y
 _atom_site_fract_z
 _atom_site_occupancy
  Tm  Tm0  1  0.331737  0.667813  0.062849  1
  Tm  Tm1  1  0.668263  0.336075  0.562849  1
  Tm  Tm2  1  0.331737  0.667813  0.437151  1
  Tm  Tm3  1  0.668263  0.336075  0.937151  1
  Al  Al4  1  0.835958  0.168828  0.250000  1
  Al  Al5  1  0.164042  0.332871  0.750000  1
  Os  Os6  1  0.828801  0.661457  0.250000  1
  Os  Os7  1  0.171199  0.832659  0.750000  1
  Os  Os8  1  0.647556  0.828550  0.750000  1
  Os  Os9  1  0.352444  0.180993  0.250000  1
  Ru  Ru10  1  0.000000  0.993435  0.500000  1
  Ru  Ru11  1  0.000000  0.993435  0.000000  1
