# generated using pymatgen
data_Nd2DyY(SbAu)4
_symmetry_space_group_name_H-M   'P 1'
_cell_length_a   4.61737100
_cell_length_b   4.61737074
_cell_length_c   16.52134000
_cell_angle_alpha   90.00000000
_cell_angle_beta   90.00000000
_cell_angle_gamma   120.00000900
_symmetry_Int_Tables_number   1
_chemical_formula_structural   Nd2DyY(SbAu)4
_chemical_formula_sum   'Nd2 Dy1 Y1 Sb4 Au4'
_cell_volume   305.04603119
_cell_formula_units_Z   1
loop_
 _symmetry_equiv_pos_site_id
 _symmetry_equiv_pos_as_xyz
  1  'x, y, z'
loop_
 _atom_site_type_symbol
 _atom_site_label
 _atom_site_symmetry_multiplicity
 _atom_site_fract_x
 _atom_site_fract_y
 _atom_site_fract_z
 _atom_site_occupancy
  Nd  Nd0  1  0.000000  0.000000  0.499999  1
  Nd  Nd1  1  0.000000  0.000000  0.000001  1
  Dy  Dy2  1  0.000000  0.000000  0.750000  1
  Y  Y3  1  0.000000  0.000000  0.250000  1
  Sb  Sb4  1  0.333333  0.666667  0.387906  1
  Sb  Sb5  1  0.666667  0.333333  0.612107  1
  Sb  Sb6  1  0.666667  0.333333  0.887893  1
  Sb  Sb7  1  0.333333  0.666667  0.112094  1
  Au  Au8  1  0.666667  0.333333  0.337573  1
  Au  Au9  1  0.333333  0.666667  0.662518  1
  Au  Au10  1  0.333333  0.666667  0.837482  1
  Au  Au11  1  0.666667  0.333333  0.162427  1
