# generated using pymatgen
data_La8Ga7HgRh8
_symmetry_space_group_name_H-M   'P 1'
_cell_length_a   4.14952100
_cell_length_b   7.50564078
_cell_length_c   16.60247435
_cell_angle_alpha   89.24891501
_cell_angle_beta   90.00000000
_cell_angle_gamma   90.00000000
_symmetry_Int_Tables_number   1
_chemical_formula_structural   La8Ga7HgRh8
_chemical_formula_sum   'La8 Ga7 Hg1 Rh8'
_cell_volume   517.03654843
_cell_formula_units_Z   1
loop_
 _symmetry_equiv_pos_site_id
 _symmetry_equiv_pos_as_xyz
  1  'x, y, z'
loop_
 _atom_site_type_symbol
 _atom_site_label
 _atom_site_symmetry_multiplicity
 _atom_site_fract_x
 _atom_site_fract_y
 _atom_site_fract_z
 _atom_site_occupancy
  La  La0  1  0.750000  0.324559  0.441829  1
  La  La1  1  0.250000  0.046748  0.718917  1
  La  La2  1  0.250000  0.546671  0.783150  1
  La  La3  1  0.250000  0.671440  0.561089  1
  La  La4  1  0.750000  0.831097  0.058590  1
  La  La5  1  0.250000  0.168769  0.940364  1
  La  La6  1  0.750000  0.447326  0.212297  1
  La  La7  1  0.750000  0.955679  0.281962  1
  Ga  Ga8  1  0.250000  0.123422  0.149225  1
  Ga  Ga9  1  0.250000  0.004092  0.439318  1
  Ga  Ga10  1  0.750000  0.873453  0.850175  1
  Ga  Ga11  1  0.750000  0.002466  0.566449  1
  Ga  Ga12  1  0.250000  0.501176  0.059556  1
  Ga  Ga13  1  0.750000  0.374250  0.650908  1
  Ga  Ga14  1  0.750000  0.499060  0.938480  1
  Hg  Hg15  1  0.250000  0.621158  0.347596  1
  Rh  Rh16  1  0.750000  0.252660  0.817636  1
  Rh  Rh17  1  0.250000  0.229770  0.314356  1
  Rh  Rh18  1  0.250000  0.733855  0.929060  1
  Rh  Rh19  1  0.250000  0.233836  0.570385  1
  Rh  Rh20  1  0.250000  0.756249  0.174339  1
  Rh  Rh21  1  0.750000  0.787496  0.441677  1
  Rh  Rh22  1  0.750000  0.267898  0.069409  1
  Rh  Rh23  1  0.750000  0.746872  0.683231  1
