# generated using pymatgen
data_NaTbP2S7
_symmetry_space_group_name_H-M   'P 1'
_cell_length_a   9.08592500
_cell_length_b   9.84675689
_cell_length_c   12.53161500
_cell_angle_alpha   90.00000000
_cell_angle_beta   90.00000000
_cell_angle_gamma   90.28509065
_symmetry_Int_Tables_number   1
_chemical_formula_structural   NaTbP2S7
_chemical_formula_sum   'Na4 Tb4 P8 S28'
_cell_volume   1121.15079976
_cell_formula_units_Z   4
loop_
 _symmetry_equiv_pos_site_id
 _symmetry_equiv_pos_as_xyz
  1  'x, y, z'
loop_
 _atom_site_type_symbol
 _atom_site_label
 _atom_site_symmetry_multiplicity
 _atom_site_fract_x
 _atom_site_fract_y
 _atom_site_fract_z
 _atom_site_occupancy
  Na  Na0  1  0.872820  0.440427  0.155615  1
  Na  Na1  1  0.372820  0.440427  0.344385  1
  Na  Na2  1  0.627180  0.559573  0.655615  1
  Na  Na3  1  0.127180  0.559573  0.844385  1
  Tb  Tb4  1  0.388243  0.138935  0.641485  1
  Tb  Tb5  1  0.111757  0.861065  0.141485  1
  Tb  Tb6  1  0.611757  0.861065  0.358515  1
  Tb  Tb7  1  0.888243  0.138935  0.858515  1
  P  P8  1  0.019761  0.274820  0.606921  1
  P  P9  1  0.804068  0.821101  0.963441  1
  P  P10  1  0.980239  0.725180  0.393079  1
  P  P11  1  0.695932  0.178899  0.463441  1
  P  P12  1  0.519761  0.274820  0.893079  1
  P  P13  1  0.304068  0.821101  0.536559  1
  P  P14  1  0.480239  0.725180  0.106921  1
  P  P15  1  0.195932  0.178899  0.036559  1
  S  S16  1  0.789393  0.639936  0.443063  1
  S  S17  1  0.323445  0.989952  0.443773  1
  S  S18  1  0.442040  0.675862  0.477106  1
  S  S19  1  0.426815  0.905852  0.177126  1
  S  S20  1  0.650502  0.143634  0.307898  1
  S  S21  1  0.581978  0.749829  0.953586  1
  S  S22  1  0.573185  0.094148  0.822874  1
  S  S23  1  0.073185  0.094148  0.677126  1
  S  S24  1  0.609965  0.626694  0.214357  1
  S  S25  1  0.210607  0.360064  0.556937  1
  S  S26  1  0.890035  0.373306  0.714357  1
  S  S27  1  0.390035  0.373306  0.785643  1
  S  S28  1  0.710607  0.360064  0.943063  1
  S  S29  1  0.557960  0.324138  0.522894  1
  S  S30  1  0.289393  0.639936  0.056937  1
  S  S31  1  0.918022  0.250171  0.453586  1
  S  S32  1  0.676555  0.010048  0.556227  1
  S  S33  1  0.109965  0.626694  0.285643  1
  S  S34  1  0.057960  0.324138  0.977106  1
  S  S35  1  0.081978  0.749829  0.546414  1
  S  S36  1  0.849498  0.856366  0.807898  1
  S  S37  1  0.823445  0.989952  0.056227  1
  S  S38  1  0.150502  0.143634  0.192102  1
  S  S39  1  0.176555  0.010048  0.943773  1
  S  S40  1  0.418022  0.250171  0.046414  1
  S  S41  1  0.926815  0.905852  0.322874  1
  S  S42  1  0.349498  0.856366  0.692102  1
  S  S43  1  0.942040  0.675862  0.022894  1
