# generated using pymatgen
data_SrLiCuF6
_symmetry_space_group_name_H-M   'P 1'
_cell_length_a   5.21087200
_cell_length_b   5.21087154
_cell_length_c   10.45518400
_cell_angle_alpha   90.00000000
_cell_angle_beta   90.00000000
_cell_angle_gamma   120.00000290
_symmetry_Int_Tables_number   1
_chemical_formula_structural   SrLiCuF6
_chemical_formula_sum   'Sr2 Li2 Cu2 F12'
_cell_volume   245.85727956
_cell_formula_units_Z   2
loop_
 _symmetry_equiv_pos_site_id
 _symmetry_equiv_pos_as_xyz
  1  'x, y, z'
loop_
 _atom_site_type_symbol
 _atom_site_label
 _atom_site_symmetry_multiplicity
 _atom_site_fract_x
 _atom_site_fract_y
 _atom_site_fract_z
 _atom_site_occupancy
  Sr  Sr0  1  0.000000  0.000000  0.500000  1
  Sr  Sr1  1  0.000000  0.000000  0.000000  1
  Li  Li2  1  0.333333  0.666667  0.750000  1
  Li  Li3  1  0.666667  0.333333  0.250000  1
  Cu  Cu4  1  0.666667  0.333333  0.750000  1
  Cu  Cu5  1  0.333333  0.666667  0.250000  1
  F  F6  1  0.638503  0.015960  0.644986  1
  F  F7  1  0.361497  0.984040  0.355014  1
  F  F8  1  0.984040  0.622542  0.644986  1
  F  F9  1  0.638503  0.622542  0.855014  1
  F  F10  1  0.015960  0.377458  0.355014  1
  F  F11  1  0.361497  0.377458  0.144986  1
  F  F12  1  0.377458  0.361497  0.644986  1
  F  F13  1  0.984040  0.361497  0.855014  1
  F  F14  1  0.622542  0.638503  0.355014  1
  F  F15  1  0.015960  0.638503  0.144986  1
  F  F16  1  0.377458  0.015960  0.855014  1
  F  F17  1  0.622542  0.984040  0.144986  1
