# generated using pymatgen
data_Y3Er(Si2Tc)2
_symmetry_space_group_name_H-M   'P 1'
_cell_length_a   5.80197484
_cell_length_b   5.80197488
_cell_length_c   10.08711724
_cell_angle_alpha   63.56161460
_cell_angle_beta   63.56161377
_cell_angle_gamma   42.31038439
_symmetry_Int_Tables_number   1
_chemical_formula_structural   Y3Er(Si2Tc)2
_chemical_formula_sum   'Y3 Er1 Si4 Tc2'
_cell_volume   200.84432514
_cell_formula_units_Z   1
loop_
 _symmetry_equiv_pos_site_id
 _symmetry_equiv_pos_as_xyz
  1  'x, y, z'
loop_
 _atom_site_type_symbol
 _atom_site_label
 _atom_site_symmetry_multiplicity
 _atom_site_fract_x
 _atom_site_fract_y
 _atom_site_fract_z
 _atom_site_occupancy
  Y  Y0  1  0.187286  0.187286  0.891173  1
  Y  Y1  1  0.994322  0.994322  0.677130  1
  Y  Y2  1  0.812263  0.812263  0.109625  1
  Er  Er3  1  0.004682  0.004682  0.323646  1
  Si  Si4  1  0.357194  0.357194  0.559847  1
  Si  Si5  1  0.499068  0.499068  0.877826  1
  Si  Si6  1  0.642996  0.642996  0.439050  1
  Si  Si7  1  0.501371  0.501371  0.123135  1
  Tc  Tc8  1  0.727934  0.727934  0.628523  1
  Tc  Tc9  1  0.272884  0.272884  0.370045  1
