# generated using pymatgen
data_Sc36In5Ni13
_symmetry_space_group_name_H-M   'P 1'
_cell_length_a   7.80057687
_cell_length_b   7.80057687
_cell_length_c   19.94998400
_cell_angle_alpha   77.16287144
_cell_angle_beta   77.16287145
_cell_angle_gamma   68.62998403
_symmetry_Int_Tables_number   1
_chemical_formula_structural   Sc36In5Ni13
_chemical_formula_sum   'Sc36 In5 Ni13'
_cell_volume   1088.80541427
_cell_formula_units_Z   1
loop_
 _symmetry_equiv_pos_site_id
 _symmetry_equiv_pos_as_xyz
  1  'x, y, z'
loop_
 _atom_site_type_symbol
 _atom_site_label
 _atom_site_symmetry_multiplicity
 _atom_site_fract_x
 _atom_site_fract_y
 _atom_site_fract_z
 _atom_site_occupancy
  Sc  Sc0  1  0.105190  0.105190  0.840238  1
  Sc  Sc1  1  0.438984  0.438984  0.175895  1
  Sc  Sc2  1  0.786109  0.786109  0.508340  1
  Sc  Sc3  1  0.894810  0.894810  0.159762  1
  Sc  Sc4  1  0.213891  0.213891  0.491660  1
  Sc  Sc5  1  0.561016  0.561016  0.824105  1
  Sc  Sc6  1  0.752340  0.752340  0.018687  1
  Sc  Sc7  1  0.081210  0.081210  0.364321  1
  Sc  Sc8  1  0.423197  0.423197  0.679785  1
  Sc  Sc9  1  0.247660  0.247660  0.981313  1
  Sc  Sc10  1  0.576803  0.576803  0.320215  1
  Sc  Sc11  1  0.918790  0.918790  0.635679  1
  Sc  Sc12  1  0.821365  0.414951  0.940379  1
  Sc  Sc13  1  0.154795  0.751583  0.276783  1
  Sc  Sc14  1  0.484388  0.082109  0.605911  1
  Sc  Sc15  1  0.585049  0.178635  0.059621  1
  Sc  Sc16  1  0.917891  0.515612  0.394089  1
  Sc  Sc17  1  0.248417  0.845205  0.723217  1
  Sc  Sc18  1  0.178635  0.585049  0.059621  1
  Sc  Sc19  1  0.515612  0.917891  0.394089  1
  Sc  Sc20  1  0.845205  0.248417  0.723217  1
  Sc  Sc21  1  0.414951  0.821365  0.940379  1
  Sc  Sc22  1  0.751583  0.154795  0.276783  1
  Sc  Sc23  1  0.082109  0.484388  0.605911  1
  Sc  Sc24  1  0.315325  0.894833  0.104863  1
  Sc  Sc25  1  0.656033  0.216181  0.441876  1
  Sc  Sc26  1  0.980336  0.565963  0.767594  1
  Sc  Sc27  1  0.105167  0.684675  0.895137  1
  Sc  Sc28  1  0.434037  0.019664  0.232406  1
  Sc  Sc29  1  0.783819  0.343967  0.558124  1
  Sc  Sc30  1  0.894833  0.315325  0.104863  1
  Sc  Sc31  1  0.216181  0.656033  0.441876  1
  Sc  Sc32  1  0.565963  0.980336  0.767594  1
  Sc  Sc33  1  0.684675  0.105167  0.895137  1
  Sc  Sc34  1  0.019664  0.434037  0.232406  1
  Sc  Sc35  1  0.343967  0.783819  0.558124  1
  In  In36  1  0.000000  0.000000  0.000000  1
  In  In37  1  0.332973  0.332973  0.334901  1
  In  In38  1  0.667027  0.667027  0.665099  1
  In  In39  1  0.333807  0.333807  0.830308  1
  In  In40  1  0.666193  0.666193  0.169692  1
  Ni  Ni41  1  0.451738  0.451738  0.950907  1
  Ni  Ni42  1  0.782336  0.782336  0.284720  1
  Ni  Ni43  1  0.119343  0.119343  0.619052  1
  Ni  Ni44  1  0.548262  0.548262  0.049093  1
  Ni  Ni45  1  0.880657  0.880657  0.380948  1
  Ni  Ni46  1  0.217664  0.217664  0.715280  1
  Ni  Ni47  1  0.000000  0.000000  0.500000  1
  Ni  Ni48  1  0.747054  0.747054  0.875962  1
  Ni  Ni49  1  0.080059  0.080059  0.209775  1
  Ni  Ni50  1  0.415663  0.415663  0.541703  1
  Ni  Ni51  1  0.252946  0.252946  0.124038  1
  Ni  Ni52  1  0.584337  0.584337  0.458297  1
  Ni  Ni53  1  0.919941  0.919941  0.790225  1
