# generated using pymatgen
data_Dy3Th5(Ta3Si4)4
_symmetry_space_group_name_H-M   'P 1'
_cell_length_a   7.11962610
_cell_length_b   7.12132482
_cell_length_c   13.26884778
_cell_angle_alpha   90.07380829
_cell_angle_beta   89.88222484
_cell_angle_gamma   89.92954948
_symmetry_Int_Tables_number   1
_chemical_formula_structural   Dy3Th5(Ta3Si4)4
_chemical_formula_sum   'Dy3 Th5 Ta12 Si16'
_cell_volume   672.74361817
_cell_formula_units_Z   1
loop_
 _symmetry_equiv_pos_site_id
 _symmetry_equiv_pos_as_xyz
  1  'x, y, z'
loop_
 _atom_site_type_symbol
 _atom_site_label
 _atom_site_symmetry_multiplicity
 _atom_site_fract_x
 _atom_site_fract_y
 _atom_site_fract_z
 _atom_site_occupancy
  Dy  Dy0  1  0.001645  0.338648  0.218547  1
  Dy  Dy1  1  0.998808  0.661065  0.716759  1
  Dy  Dy2  1  0.160570  0.500989  0.467500  1
  Th  Th3  1  0.501620  0.836421  0.032149  1
  Th  Th4  1  0.836898  0.502252  0.967838  1
  Th  Th5  1  0.498310  0.163556  0.531897  1
  Th  Th6  1  0.335697  0.998678  0.780795  1
  Th  Th7  1  0.663329  0.001946  0.283057  1
  Ta  Ta8  1  0.168549  0.169555  0.999557  1
  Ta  Ta9  1  0.830504  0.831558  0.499174  1
  Ta  Ta10  1  0.332238  0.669789  0.250766  1
  Ta  Ta11  1  0.667645  0.330521  0.749251  1
  Ta  Ta12  1  0.157796  0.991426  0.374980  1
  Ta  Ta13  1  0.842001  0.007541  0.874278  1
  Ta  Ta14  1  0.507574  0.658151  0.623899  1
  Ta  Ta15  1  0.340743  0.495303  0.875417  1
  Ta  Ta16  1  0.493783  0.341025  0.125490  1
  Ta  Ta17  1  0.658502  0.504546  0.376257  1
  Ta  Ta18  1  0.995476  0.158399  0.625073  1
  Ta  Ta19  1  0.005628  0.840117  0.126666  1
  Si  Si20  1  0.286136  0.043952  0.186983  1
  Si  Si21  1  0.713868  0.957009  0.685637  1
  Si  Si22  1  0.455860  0.786345  0.436725  1
  Si  Si23  1  0.207569  0.536989  0.066504  1
  Si  Si24  1  0.539612  0.210556  0.935770  1
  Si  Si25  1  0.797770  0.462669  0.563906  1
  Si  Si26  1  0.039111  0.295826  0.811351  1
  Si  Si27  1  0.962748  0.702311  0.314577  1
  Si  Si28  1  0.366845  0.301204  0.315927  1
  Si  Si29  1  0.629908  0.702256  0.812485  1
  Si  Si30  1  0.198870  0.866043  0.565359  1
  Si  Si31  1  0.124256  0.797688  0.933973  1
  Si  Si32  1  0.801457  0.128387  0.067540  1
  Si  Si33  1  0.879091  0.206492  0.434209  1
  Si  Si34  1  0.293602  0.379423  0.683467  1
  Si  Si35  1  0.705980  0.621362  0.186237  1
