# generated using pymatgen
data_Dy7Tm4In9Ru4
_symmetry_space_group_name_H-M   'P 1'
_cell_length_a   3.77343900
_cell_length_b   12.90627815
_cell_length_c   12.90627704
_cell_angle_alpha   112.87508872
_cell_angle_beta   90.00000000
_cell_angle_gamma   90.00000000
_symmetry_Int_Tables_number   1
_chemical_formula_structural   Dy7Tm4In9Ru4
_chemical_formula_sum   'Dy7 Tm4 In9 Ru4'
_cell_volume   579.11671575
_cell_formula_units_Z   1
loop_
 _symmetry_equiv_pos_site_id
 _symmetry_equiv_pos_as_xyz
  1  'x, y, z'
loop_
 _atom_site_type_symbol
 _atom_site_label
 _atom_site_symmetry_multiplicity
 _atom_site_fract_x
 _atom_site_fract_y
 _atom_site_fract_z
 _atom_site_occupancy
  Dy  Dy0  1  0.000000  0.162002  0.837998  1
  Dy  Dy1  1  0.000000  0.837998  0.162002  1
  Dy  Dy2  1  0.000000  0.374006  0.625994  1
  Dy  Dy3  1  0.000000  0.625994  0.374006  1
  Dy  Dy4  1  0.000000  0.690323  0.690323  1
  Dy  Dy5  1  0.000000  0.309677  0.309677  1
  Dy  Dy6  1  0.000000  0.000000  0.000000  1
  Tm  Tm7  1  0.000000  0.915827  0.581352  1
  Tm  Tm8  1  0.000000  0.084173  0.418648  1
  Tm  Tm9  1  0.000000  0.581352  0.915827  1
  Tm  Tm10  1  0.000000  0.418648  0.084173  1
  In  In11  1  0.500000  0.155496  0.630342  1
  In  In12  1  0.500000  0.844504  0.369658  1
  In  In13  1  0.500000  0.630342  0.155496  1
  In  In14  1  0.500000  0.369658  0.844504  1
  In  In15  1  0.500000  0.925570  0.778849  1
  In  In16  1  0.500000  0.074430  0.221151  1
  In  In17  1  0.500000  0.778849  0.925570  1
  In  In18  1  0.500000  0.221151  0.074430  1
  In  In19  1  0.500000  0.500000  0.500000  1
  Ru  Ru20  1  0.500000  0.747147  0.549056  1
  Ru  Ru21  1  0.500000  0.252853  0.450944  1
  Ru  Ru22  1  0.500000  0.549056  0.747147  1
  Ru  Ru23  1  0.500000  0.450944  0.252853  1
