# generated using pymatgen
data_Ta2Nb3GaSi2
_symmetry_space_group_name_H-M   'P 1'
_cell_length_a   7.62111678
_cell_length_b   7.62111578
_cell_length_c   7.61879771
_cell_angle_alpha   128.30325414
_cell_angle_beta   128.30324789
_cell_angle_gamma   76.15652954
_symmetry_Int_Tables_number   1
_chemical_formula_structural   Ta2Nb3GaSi2
_chemical_formula_sum   'Ta4 Nb6 Ga2 Si4'
_cell_volume   264.85411935
_cell_formula_units_Z   2
loop_
 _symmetry_equiv_pos_site_id
 _symmetry_equiv_pos_as_xyz
  1  'x, y, z'
loop_
 _atom_site_type_symbol
 _atom_site_label
 _atom_site_symmetry_multiplicity
 _atom_site_fract_x
 _atom_site_fract_y
 _atom_site_fract_z
 _atom_site_occupancy
  Ta  Ta0  1  0.484259  0.984259  0.171396  1
  Ta  Ta1  1  0.812862  0.312862  0.828604  1
  Ta  Ta2  1  0.000154  0.000154  0.000000  1
  Ta  Ta3  1  0.500154  0.500154  0.000000  1
  Nb  Nb4  1  0.015841  0.187452  0.500000  1
  Nb  Nb5  1  0.687452  0.515841  0.500000  1
  Nb  Nb6  1  0.517321  0.017321  0.830213  1
  Nb  Nb7  1  0.187108  0.687108  0.169787  1
  Nb  Nb8  1  0.983234  0.811983  0.500000  1
  Nb  Nb9  1  0.311983  0.483234  0.500000  1
  Ga  Ga10  1  0.749873  0.749873  0.000000  1
  Ga  Ga11  1  0.249873  0.249873  0.000000  1
  Si  Si12  1  0.370070  0.129866  0.500000  1
  Si  Si13  1  0.629866  0.870070  0.500000  1
  Si  Si14  1  0.869976  0.369976  0.240003  1
  Si  Si15  1  0.129972  0.629972  0.759997  1
