# generated using pymatgen
data_Pr7Nd(Al5Br2)2
_symmetry_space_group_name_H-M   'P 1'
_cell_length_a   11.69861600
_cell_length_b   11.69861578
_cell_length_c   4.32812600
_cell_angle_alpha   90.00000000
_cell_angle_beta   90.00000000
_cell_angle_gamma   93.81681210
_symmetry_Int_Tables_number   1
_chemical_formula_structural   Pr7Nd(Al5Br2)2
_chemical_formula_sum   'Pr7 Nd1 Al10 Br4'
_cell_volume   591.02318021
_cell_formula_units_Z   1
loop_
 _symmetry_equiv_pos_site_id
 _symmetry_equiv_pos_as_xyz
  1  'x, y, z'
loop_
 _atom_site_type_symbol
 _atom_site_label
 _atom_site_symmetry_multiplicity
 _atom_site_fract_x
 _atom_site_fract_y
 _atom_site_fract_z
 _atom_site_occupancy
  Pr  Pr0  1  0.675493  0.039120  0.500000  1
  Pr  Pr1  1  0.324032  0.961141  0.500000  1
  Pr  Pr2  1  0.039120  0.675493  0.500000  1
  Pr  Pr3  1  0.961141  0.324032  0.500000  1
  Pr  Pr4  1  0.733418  0.733418  0.000000  1
  Pr  Pr5  1  0.364292  0.635382  0.000000  1
  Pr  Pr6  1  0.635382  0.364292  0.000000  1
  Nd  Nd7  1  0.267187  0.267187  0.000000  1
  Al  Al8  1  0.579167  0.579167  0.500000  1
  Al  Al9  1  0.420307  0.420307  0.500000  1
  Al  Al10  1  0.528022  0.897177  0.000000  1
  Al  Al11  1  0.470975  0.103184  0.000000  1
  Al  Al12  1  0.897177  0.528022  0.000000  1
  Al  Al13  1  0.103184  0.470975  0.000000  1
  Al  Al14  1  0.518539  0.783280  0.500000  1
  Al  Al15  1  0.480955  0.216617  0.500000  1
  Al  Al16  1  0.216617  0.480955  0.500000  1
  Al  Al17  1  0.783280  0.518539  0.500000  1
  Br  Br18  1  0.125758  0.125758  0.500000  1
  Br  Br19  1  0.876066  0.876066  0.500000  1
  Br  Br20  1  0.825554  0.174335  0.000000  1
  Br  Br21  1  0.174335  0.825554  0.000000  1
