# generated using pymatgen
data_Ti3Nb5As6
_symmetry_space_group_name_H-M   'P 1'
_cell_length_a   7.44962036
_cell_length_b   7.44962043
_cell_length_c   19.10306289
_cell_angle_alpha   89.43331588
_cell_angle_beta   90.56668391
_cell_angle_gamma   152.58476653
_symmetry_Int_Tables_number   1
_chemical_formula_structural   Ti3Nb5As6
_chemical_formula_sum   'Ti6 Nb10 As12'
_cell_volume   488.11020160
_cell_formula_units_Z   2
loop_
 _symmetry_equiv_pos_site_id
 _symmetry_equiv_pos_as_xyz
  1  'x, y, z'
loop_
 _atom_site_type_symbol
 _atom_site_label
 _atom_site_symmetry_multiplicity
 _atom_site_fract_x
 _atom_site_fract_y
 _atom_site_fract_z
 _atom_site_occupancy
  Ti  Ti0  1  0.737054  0.262946  0.159639  1
  Ti  Ti1  1  0.262946  0.737054  0.840361  1
  Ti  Ti2  1  0.265122  0.734878  0.662331  1
  Ti  Ti3  1  0.734878  0.265122  0.337669  1
  Ti  Ti4  1  0.534402  0.465598  0.118546  1
  Ti  Ti5  1  0.465598  0.534402  0.881454  1
  Nb  Nb6  1  0.465704  0.534296  0.623042  1
  Nb  Nb7  1  0.534296  0.465704  0.376958  1
  Nb  Nb8  1  0.668279  0.331721  0.974042  1
  Nb  Nb9  1  0.331721  0.668279  0.025958  1
  Nb  Nb10  1  0.334693  0.665307  0.472885  1
  Nb  Nb11  1  0.665307  0.334693  0.527115  1
  Nb  Nb12  1  0.000000  0.000000  0.000000  1
  Nb  Nb13  1  0.000000  0.000000  0.500000  1
  Nb  Nb14  1  0.057087  0.942913  0.749101  1
  Nb  Nb15  1  0.942913  0.057087  0.250899  1
  As  As16  1  0.902402  0.097598  0.117864  1
  As  As17  1  0.097598  0.902402  0.882136  1
  As  As18  1  0.100964  0.899036  0.618578  1
  As  As19  1  0.899036  0.100964  0.381422  1
  As  As20  1  0.842130  0.157870  0.920265  1
  As  As21  1  0.157870  0.842130  0.079735  1
  As  As22  1  0.160177  0.839823  0.420774  1
  As  As23  1  0.839823  0.160177  0.579226  1
  As  As24  1  0.700426  0.299574  0.750330  1
  As  As25  1  0.299574  0.700426  0.249670  1
  As  As26  1  0.414256  0.585744  0.753348  1
  As  As27  1  0.585744  0.414256  0.246652  1
