# generated using pymatgen
data_Er2CrFe11P7
_symmetry_space_group_name_H-M   'P 1'
_cell_length_a   8.94597905
_cell_length_b   8.98511381
_cell_length_c   3.61997800
_cell_angle_alpha   90.00000000
_cell_angle_beta   90.00000000
_cell_angle_gamma   119.79470014
_symmetry_Int_Tables_number   1
_chemical_formula_structural   Er2CrFe11P7
_chemical_formula_sum   'Er2 Cr1 Fe11 P7'
_cell_volume   252.51242420
_cell_formula_units_Z   1
loop_
 _symmetry_equiv_pos_site_id
 _symmetry_equiv_pos_as_xyz
  1  'x, y, z'
loop_
 _atom_site_type_symbol
 _atom_site_label
 _atom_site_symmetry_multiplicity
 _atom_site_fract_x
 _atom_site_fract_y
 _atom_site_fract_z
 _atom_site_occupancy
  Er  Er0  1  0.332227  0.663263  0.000000  1
  Er  Er1  1  0.667091  0.334879  0.500000  1
  Cr  Cr2  1  0.215388  0.099659  0.500000  1
  Fe  Fe3  1  0.429403  0.053260  0.000000  1
  Fe  Fe4  1  0.152578  0.272547  0.000000  1
  Fe  Fe5  1  0.944182  0.371595  0.000000  1
  Fe  Fe6  1  0.630893  0.574276  0.000000  1
  Fe  Fe7  1  0.118329  0.845074  0.000000  1
  Fe  Fe8  1  0.722299  0.881152  0.000000  1
  Fe  Fe9  1  0.904378  0.121385  0.500000  1
  Fe  Fe10  1  0.384873  0.433458  0.500000  1
  Fe  Fe11  1  0.048619  0.614502  0.500000  1
  Fe  Fe12  1  0.880876  0.785433  0.500000  1
  Fe  Fe13  1  0.566791  0.952522  0.500000  1
  P  P14  1  0.708599  0.118757  0.000000  1
  P  P15  1  0.412382  0.300569  0.000000  1
  P  P16  1  0.887698  0.589763  0.000000  1
  P  P17  1  0.995722  0.998986  0.000000  1
  P  P18  1  0.113364  0.401627  0.500000  1
  P  P19  1  0.598182  0.707792  0.500000  1
  P  P20  1  0.286127  0.879501  0.500000  1
