# generated using pymatgen
data_Er8Lu4InCo4Cu
_symmetry_space_group_name_H-M   'P 1'
_cell_length_a   8.18775358
_cell_length_b   8.18736990
_cell_length_c   8.18775182
_cell_angle_alpha   111.11461087
_cell_angle_beta   110.78442264
_cell_angle_gamma   106.55541949
_symmetry_Int_Tables_number   1
_chemical_formula_structural   Er8Lu4InCo4Cu
_chemical_formula_sum   'Er8 Lu4 In1 Co4 Cu1'
_cell_volume   421.69556659
_cell_formula_units_Z   1
loop_
 _symmetry_equiv_pos_site_id
 _symmetry_equiv_pos_as_xyz
  1  'x, y, z'
loop_
 _atom_site_type_symbol
 _atom_site_label
 _atom_site_symmetry_multiplicity
 _atom_site_fract_x
 _atom_site_fract_y
 _atom_site_fract_z
 _atom_site_occupancy
  Er  Er0  1  0.419151  0.219800  0.199355  1
  Er  Er1  1  0.580849  0.780200  0.800645  1
  Er  Er2  1  0.020446  0.219800  0.800650  1
  Er  Er3  1  0.979554  0.780200  0.199350  1
  Er  Er4  1  0.185891  0.288727  0.474610  1
  Er  Er5  1  0.814109  0.711273  0.525390  1
  Er  Er6  1  0.185884  0.711273  0.897163  1
  Er  Er7  1  0.814116  0.288727  0.102837  1
  Lu  Lu8  1  0.316174  0.621835  0.305663  1
  Lu  Lu9  1  0.683826  0.378165  0.694337  1
  Lu  Lu10  1  0.316176  0.010518  0.694342  1
  Lu  Lu11  1  0.683824  0.989482  0.305658  1
  In  In12  1  0.500000  0.500000  0.000000  1
  Co  Co13  1  0.376563  0.000000  0.376563  1
  Co  Co14  1  0.623437  0.000000  0.623437  1
  Co  Co15  1  0.113899  0.613905  0.500005  1
  Co  Co16  1  0.886101  0.386095  0.499995  1
  Cu  Cu17  1  0.000000  0.000000  0.000000  1
