# generated using pymatgen
data_Ho5(FeB3)2
_symmetry_space_group_name_H-M   'P 1'
_cell_length_a   5.40388607
_cell_length_b   5.40388636
_cell_length_c   8.23371055
_cell_angle_alpha   70.84310466
_cell_angle_beta   70.84310323
_cell_angle_gamma   59.99999725
_symmetry_Int_Tables_number   1
_chemical_formula_structural   Ho5(FeB3)2
_chemical_formula_sum   'Ho5 Fe2 B6'
_cell_volume   192.69991700
_cell_formula_units_Z   1
loop_
 _symmetry_equiv_pos_site_id
 _symmetry_equiv_pos_as_xyz
  1  'x, y, z'
loop_
 _atom_site_type_symbol
 _atom_site_label
 _atom_site_symmetry_multiplicity
 _atom_site_fract_x
 _atom_site_fract_y
 _atom_site_fract_z
 _atom_site_occupancy
  Ho  Ho0  1  0.000000  0.000000  0.000000  1
  Ho  Ho1  1  0.251170  0.251170  0.246490  1
  Ho  Ho2  1  0.748830  0.748830  0.753510  1
  Ho  Ho3  1  0.416586  0.416586  0.750240  1
  Ho  Ho4  1  0.583414  0.583414  0.249760  1
  Fe  Fe5  1  0.117475  0.117475  0.647576  1
  Fe  Fe6  1  0.882525  0.882525  0.352424  1
  B  B7  1  0.167939  0.832061  0.500000  1
  B  B8  1  0.832061  0.500000  0.500000  1
  B  B9  1  0.500000  0.167939  0.500000  1
  B  B10  1  0.167939  0.500000  0.500000  1
  B  B11  1  0.500000  0.832061  0.500000  1
  B  B12  1  0.832061  0.167939  0.500000  1
