# generated using pymatgen
data_La4Tm(MoO4)3
_symmetry_space_group_name_H-M   'P 1'
_cell_length_a   5.76723108
_cell_length_b   5.98842152
_cell_length_c   8.26897542
_cell_angle_alpha   89.59992388
_cell_angle_beta   89.85843632
_cell_angle_gamma   89.94703431
_symmetry_Int_Tables_number   1
_chemical_formula_structural   La4Tm(MoO4)3
_chemical_formula_sum   'La4 Tm1 Mo3 O12'
_cell_volume   285.57443404
_cell_formula_units_Z   1
loop_
 _symmetry_equiv_pos_site_id
 _symmetry_equiv_pos_as_xyz
  1  'x, y, z'
loop_
 _atom_site_type_symbol
 _atom_site_label
 _atom_site_symmetry_multiplicity
 _atom_site_fract_x
 _atom_site_fract_y
 _atom_site_fract_z
 _atom_site_occupancy
  La  La0  1  0.982363  0.052011  0.246478  1
  La  La1  1  0.485450  0.444980  0.753195  1
  La  La2  1  0.514550  0.555020  0.246805  1
  La  La3  1  0.017637  0.947989  0.753522  1
  Tm  Tm4  1  0.000000  0.500000  0.500000  1
  Mo  Mo5  1  0.000000  0.500000  0.000000  1
  Mo  Mo6  1  0.500000  0.000000  0.000000  1
  Mo  Mo7  1  0.500000  0.000000  0.500000  1
  O  O8  1  0.307886  0.699989  0.561445  1
  O  O9  1  0.801031  0.804096  0.436990  1
  O  O10  1  0.197064  0.199938  0.939504  1
  O  O11  1  0.696434  0.299179  0.060103  1
  O  O12  1  0.692114  0.300011  0.438555  1
  O  O13  1  0.198969  0.195904  0.563010  1
  O  O14  1  0.802936  0.800062  0.060496  1
  O  O15  1  0.303566  0.700821  0.939897  1
  O  O16  1  0.115490  0.451880  0.246001  1
  O  O17  1  0.616818  0.049138  0.750613  1
  O  O18  1  0.383182  0.950862  0.249387  1
  O  O19  1  0.884510  0.548120  0.753999  1
