# generated using pymatgen
data_Tb3Tm3Al23VOs8
_symmetry_space_group_name_H-M   'P 1'
_cell_length_a   8.82593483
_cell_length_b   8.83023764
_cell_length_c   9.54759145
_cell_angle_alpha   90.03531642
_cell_angle_beta   89.98086536
_cell_angle_gamma   119.93812773
_symmetry_Int_Tables_number   1
_chemical_formula_structural   Tb3Tm3Al23VOs8
_chemical_formula_sum   'Tb3 Tm3 Al23 V1 Os8'
_cell_volume   644.80428339
_cell_formula_units_Z   1
loop_
 _symmetry_equiv_pos_site_id
 _symmetry_equiv_pos_as_xyz
  1  'x, y, z'
loop_
 _atom_site_type_symbol
 _atom_site_label
 _atom_site_symmetry_multiplicity
 _atom_site_fract_x
 _atom_site_fract_y
 _atom_site_fract_z
 _atom_site_occupancy
  Tb  Tb0  1  0.384992  0.192422  0.751210  1
  Tb  Tb1  1  0.194728  0.805455  0.246054  1
  Tb  Tb2  1  0.807595  0.192562  0.750956  1
  Tm  Tm3  1  0.196953  0.394122  0.244792  1
  Tm  Tm4  1  0.805417  0.610660  0.750217  1
  Tm  Tm5  1  0.607296  0.803829  0.244921  1
  Al  Al6  1  0.667053  0.333526  0.978024  1
  Al  Al7  1  0.666561  0.332920  0.518963  1
  Al  Al8  1  0.333769  0.666802  0.481409  1
  Al  Al9  1  0.162520  0.324800  0.574799  1
  Al  Al10  1  0.837007  0.675107  0.424705  1
  Al  Al11  1  0.675921  0.837497  0.574828  1
  Al  Al12  1  0.835509  0.671723  0.076788  1
  Al  Al13  1  0.325576  0.163400  0.423664  1
  Al  Al14  1  0.160893  0.321654  0.925865  1
  Al  Al15  1  0.161933  0.837360  0.575902  1
  Al  Al16  1  0.328799  0.164823  0.077992  1
  Al  Al17  1  0.837588  0.162413  0.423629  1
  Al  Al18  1  0.679164  0.838800  0.925658  1
  Al  Al19  1  0.836069  0.163972  0.077894  1
  Al  Al20  1  0.160076  0.838458  0.924781  1
  Al  Al21  1  0.562815  0.124341  0.253142  1
  Al  Al22  1  0.441296  0.881890  0.751168  1
  Al  Al23  1  0.875735  0.437511  0.253265  1
  Al  Al24  1  0.117009  0.558944  0.751531  1
  Al  Al25  1  0.561901  0.438722  0.253556  1
  Al  Al26  1  0.442333  0.559298  0.751457  1
  Al  Al27  1  0.998782  0.002241  0.250571  1
  Al  Al28  1  0.998128  0.996176  0.749960  1
  V  V29  1  0.333846  0.667174  0.983279  1
  Os  Os30  1  0.495602  0.990230  0.005886  1
  Os  Os31  1  0.009814  0.504724  0.005751  1
  Os  Os32  1  0.499721  0.998430  0.503138  1
  Os  Os33  1  0.495251  0.505541  0.006389  1
  Os  Os34  1  0.001395  0.500844  0.503551  1
  Os  Os35  1  0.499961  0.501105  0.503564  1
  Os  Os36  1  0.000456  0.000140  0.001043  1
  Os  Os37  1  0.000536  0.000385  0.499696  1
