# generated using pymatgen
data_DyMg(NbSe2)6
_symmetry_space_group_name_H-M   'P 1'
_cell_length_a   6.09129100
_cell_length_b   6.09129147
_cell_length_c   14.07794600
_cell_angle_alpha   90.00000000
_cell_angle_beta   90.00000000
_cell_angle_gamma   120.00000289
_symmetry_Int_Tables_number   1
_chemical_formula_structural   DyMg(NbSe2)6
_chemical_formula_sum   'Dy1 Mg1 Nb6 Se12'
_cell_volume   452.36463229
_cell_formula_units_Z   1
loop_
 _symmetry_equiv_pos_site_id
 _symmetry_equiv_pos_as_xyz
  1  'x, y, z'
loop_
 _atom_site_type_symbol
 _atom_site_label
 _atom_site_symmetry_multiplicity
 _atom_site_fract_x
 _atom_site_fract_y
 _atom_site_fract_z
 _atom_site_occupancy
  Dy  Dy0  1  0.000000  0.000000  0.000000  1
  Mg  Mg1  1  0.000000  0.000000  0.500000  1
  Nb  Nb2  1  0.333333  0.666667  0.255112  1
  Nb  Nb3  1  0.000000  0.000000  0.252475  1
  Nb  Nb4  1  0.000000  0.000000  0.747525  1
  Nb  Nb5  1  0.333333  0.666667  0.744888  1
  Nb  Nb6  1  0.666667  0.333333  0.744888  1
  Nb  Nb7  1  0.666667  0.333333  0.255112  1
  Se  Se8  1  0.000000  0.664714  0.627072  1
  Se  Se9  1  0.000000  0.658583  0.864701  1
  Se  Se10  1  0.000000  0.341417  0.135299  1
  Se  Se11  1  0.000000  0.335286  0.372928  1
  Se  Se12  1  0.335286  0.335286  0.627072  1
  Se  Se13  1  0.341417  0.341417  0.864701  1
  Se  Se14  1  0.658583  0.658583  0.135299  1
  Se  Se15  1  0.664714  0.664714  0.372928  1
  Se  Se16  1  0.341417  0.000000  0.135299  1
  Se  Se17  1  0.335286  0.000000  0.372928  1
  Se  Se18  1  0.664714  0.000000  0.627072  1
  Se  Se19  1  0.658583  0.000000  0.864701  1
