# generated using pymatgen
data_HfMn(As2O7)2
_symmetry_space_group_name_H-M   'P 1'
_cell_length_a   5.10203153
_cell_length_b   8.37283321
_cell_length_c   7.41544035
_cell_angle_alpha   90.72613319
_cell_angle_beta   105.83993137
_cell_angle_gamma   91.06204336
_symmetry_Int_Tables_number   1
_chemical_formula_structural   HfMn(As2O7)2
_chemical_formula_sum   'Hf1 Mn1 As4 O14'
_cell_volume   304.64342466
_cell_formula_units_Z   1
loop_
 _symmetry_equiv_pos_site_id
 _symmetry_equiv_pos_as_xyz
  1  'x, y, z'
loop_
 _atom_site_type_symbol
 _atom_site_label
 _atom_site_symmetry_multiplicity
 _atom_site_fract_x
 _atom_site_fract_y
 _atom_site_fract_z
 _atom_site_occupancy
  Hf  Hf0  1  0.218394  0.507309  0.733478  1
  Mn  Mn1  1  0.781684  0.007873  0.270026  1
  As  As2  1  0.400950  0.175336  0.500621  1
  As  As3  1  0.216208  0.789263  0.109042  1
  As  As4  1  0.755907  0.257365  0.903990  1
  As  As5  1  0.618098  0.695326  0.487763  1
  O  O6  1  0.019170  0.322200  0.824219  1
  O  O7  1  0.136588  0.681020  0.906403  1
  O  O8  1  0.148730  0.032703  0.438483  1
  O  O9  1  0.301241  0.364920  0.524414  1
  O  O10  1  0.445468  0.686932  0.651945  1
  O  O11  1  0.559855  0.414858  0.924079  1
  O  O12  1  0.567691  0.114052  0.734972  1
  O  O13  1  0.394179  0.641690  0.265002  1
  O  O14  1  0.422482  0.953329  0.104821  1
  O  O15  1  0.629616  0.187904  0.367765  1
  O  O16  1  0.713798  0.891101  0.473572  1
  O  O17  1  0.872345  0.563577  0.524173  1
  O  O18  1  0.889538  0.152217  0.101409  1
  O  O19  1  0.913360  0.824586  0.158426  1
