# generated using pymatgen
data_Er4Ga2As4Ir7
_symmetry_space_group_name_H-M   'P 1'
_cell_length_a   7.26234934
_cell_length_b   7.26234912
_cell_length_c   7.26345138
_cell_angle_alpha   109.19014765
_cell_angle_beta   109.19015128
_cell_angle_gamma   110.02876423
_symmetry_Int_Tables_number   1
_chemical_formula_structural   Er4Ga2As4Ir7
_chemical_formula_sum   'Er4 Ga2 As4 Ir7'
_cell_volume   294.90133179
_cell_formula_units_Z   1
loop_
 _symmetry_equiv_pos_site_id
 _symmetry_equiv_pos_as_xyz
  1  'x, y, z'
loop_
 _atom_site_type_symbol
 _atom_site_label
 _atom_site_symmetry_multiplicity
 _atom_site_fract_x
 _atom_site_fract_y
 _atom_site_fract_z
 _atom_site_occupancy
  Er  Er0  1  0.998824  0.998824  0.495093  1
  Er  Er1  1  0.997841  0.497841  0.995683  1
  Er  Er2  1  0.497841  0.997841  0.995683  1
  Er  Er3  1  0.496268  0.496268  0.495093  1
  Ga  Ga4  1  0.689826  0.996983  0.686810  1
  Ga  Ga5  1  0.996983  0.689826  0.686810  1
  As  As6  1  0.682897  0.682897  0.995419  1
  As  As7  1  0.326346  0.997357  0.323704  1
  As  As8  1  0.997357  0.326346  0.323704  1
  As  As9  1  0.312521  0.312521  0.995419  1
  Ir  Ir10  1  0.750335  0.250335  0.500669  1
  Ir  Ir11  1  0.746283  0.500948  0.247231  1
  Ir  Ir12  1  0.500263  0.249376  0.749639  1
  Ir  Ir13  1  0.249376  0.500263  0.749639  1
  Ir  Ir14  1  0.250335  0.750335  0.500669  1
  Ir  Ir15  1  0.500948  0.746283  0.247231  1
  Ir  Ir16  1  0.005755  0.005755  0.011509  1
