# generated using pymatgen
data_Ti6Al6Ir11Rh
_symmetry_space_group_name_H-M   'P 1'
_cell_length_a   4.13131200
_cell_length_b   6.80093500
_cell_length_c   12.39297600
_cell_angle_alpha   90.00000000
_cell_angle_beta   90.00000000
_cell_angle_gamma   90.00000000
_symmetry_Int_Tables_number   1
_chemical_formula_structural   Ti6Al6Ir11Rh
_chemical_formula_sum   'Ti6 Al6 Ir11 Rh1'
_cell_volume   348.20277446
_cell_formula_units_Z   1
loop_
 _symmetry_equiv_pos_site_id
 _symmetry_equiv_pos_as_xyz
  1  'x, y, z'
loop_
 _atom_site_type_symbol
 _atom_site_label
 _atom_site_symmetry_multiplicity
 _atom_site_fract_x
 _atom_site_fract_y
 _atom_site_fract_z
 _atom_site_occupancy
  Ti  Ti0  1  0.000000  0.499997  0.999891  1
  Ti  Ti1  1  0.500003  0.999900  0.166625  1
  Ti  Ti2  1  0.000000  0.499755  0.333333  1
  Ti  Ti3  1  0.500000  0.999900  0.500041  1
  Ti  Ti4  1  0.000000  0.499997  0.666777  1
  Ti  Ti5  1  0.499996  0.000454  0.833334  1
  Al  Al6  1  0.000000  0.999649  0.999668  1
  Al  Al7  1  0.500003  0.499983  0.166739  1
  Al  Al8  1  0.000000  0.000154  0.333333  1
  Al  Al9  1  0.500000  0.499983  0.499926  1
  Al  Al10  1  0.000000  0.999649  0.667000  1
  Al  Al11  1  0.499998  0.500648  0.833335  1
  Ir  Ir12  1  0.500000  0.249968  0.000312  1
  Ir  Ir13  1  0.500000  0.749931  0.999658  1
  Ir  Ir14  1  0.000000  0.250095  0.166615  1
  Ir  Ir15  1  0.000000  0.750197  0.166795  1
  Ir  Ir16  1  0.500003  0.250107  0.333333  1
  Ir  Ir17  1  0.500003  0.749972  0.333333  1
  Ir  Ir18  1  0.000000  0.250095  0.500051  1
  Ir  Ir19  1  0.000000  0.750197  0.499871  1
  Ir  Ir20  1  0.499998  0.249968  0.666356  1
  Ir  Ir21  1  0.499998  0.749931  0.667010  1
  Ir  Ir22  1  0.000000  0.249547  0.833334  1
  Rh  Rh23  1  0.000000  0.749925  0.833334  1
