# generated using pymatgen
data_La10Pr6Cd4RuPt3
_symmetry_space_group_name_H-M   'P 1'
_cell_length_a   10.15861442
_cell_length_b   10.15835290
_cell_length_c   10.15853670
_cell_angle_alpha   59.81346472
_cell_angle_beta   59.80937848
_cell_angle_gamma   59.80887011
_symmetry_Int_Tables_number   1
_chemical_formula_structural   La10Pr6Cd4RuPt3
_chemical_formula_sum   'La10 Pr6 Cd4 Ru1 Pt3'
_cell_volume   738.07835776
_cell_formula_units_Z   1
loop_
 _symmetry_equiv_pos_site_id
 _symmetry_equiv_pos_as_xyz
  1  'x, y, z'
loop_
 _atom_site_type_symbol
 _atom_site_label
 _atom_site_symmetry_multiplicity
 _atom_site_fract_x
 _atom_site_fract_y
 _atom_site_fract_z
 _atom_site_occupancy
  La  La0  1  0.350188  0.350467  0.350456  1
  La  La1  1  0.346008  0.345951  0.955264  1
  La  La2  1  0.345998  0.955308  0.345838  1
  La  La3  1  0.955181  0.345946  0.345997  1
  La  La4  1  0.816890  0.189515  0.189585  1
  La  La5  1  0.191239  0.806719  0.806803  1
  La  La6  1  0.189598  0.816793  0.189523  1
  La  La7  1  0.806762  0.191159  0.806761  1
  La  La8  1  0.189608  0.189443  0.816841  1
  La  La9  1  0.806718  0.806848  0.191156  1
  Pr  Pr10  1  0.936392  0.565241  0.565255  1
  Pr  Pr11  1  0.560061  0.935792  0.935772  1
  Pr  Pr12  1  0.565244  0.936364  0.565293  1
  Pr  Pr13  1  0.935770  0.560091  0.935800  1
  Pr  Pr14  1  0.565275  0.565251  0.936373  1
  Pr  Pr15  1  0.935778  0.935767  0.560092  1
  Cd  Cd16  1  0.579816  0.579837  0.579809  1
  Cd  Cd17  1  0.580583  0.580602  0.257823  1
  Cd  Cd18  1  0.580558  0.257870  0.580543  1
  Cd  Cd19  1  0.257817  0.580595  0.580572  1
  Ru  Ru20  1  0.141657  0.141676  0.141723  1
  Pt  Pt21  1  0.144281  0.144263  0.574238  1
  Pt  Pt22  1  0.144295  0.574282  0.144227  1
  Pt  Pt23  1  0.574283  0.144220  0.144252  1
