# generated using pymatgen
data_Dy4NbReOs6
_symmetry_space_group_name_H-M   'P 1'
_cell_length_a   5.27317427
_cell_length_b   5.27317455
_cell_length_c   9.03426200
_cell_angle_alpha   90.00000000
_cell_angle_beta   90.00000000
_cell_angle_gamma   116.51041452
_symmetry_Int_Tables_number   1
_chemical_formula_structural   Dy4NbReOs6
_chemical_formula_sum   'Dy4 Nb1 Re1 Os6'
_cell_volume   224.79609825
_cell_formula_units_Z   1
loop_
 _symmetry_equiv_pos_site_id
 _symmetry_equiv_pos_as_xyz
  1  'x, y, z'
loop_
 _atom_site_type_symbol
 _atom_site_label
 _atom_site_symmetry_multiplicity
 _atom_site_fract_x
 _atom_site_fract_y
 _atom_site_fract_z
 _atom_site_occupancy
  Dy  Dy0  1  0.329063  0.670937  0.438952  1
  Dy  Dy1  1  0.667651  0.332349  0.567090  1
  Dy  Dy2  1  0.667651  0.332349  0.932910  1
  Dy  Dy3  1  0.329063  0.670937  0.061048  1
  Nb  Nb4  1  0.836955  0.163045  0.250000  1
  Re  Re5  1  0.171042  0.828958  0.750000  1
  Os  Os6  1  0.001404  0.998596  0.505911  1
  Os  Os7  1  0.001404  0.998596  0.994089  1
  Os  Os8  1  0.822209  0.653595  0.250000  1
  Os  Os9  1  0.346405  0.177791  0.250000  1
  Os  Os10  1  0.172795  0.345641  0.750000  1
  Os  Os11  1  0.654359  0.827205  0.750000  1
