# generated using pymatgen
data_CuBi3Ir2(RuO7)2
_symmetry_space_group_name_H-M   'P 1'
_cell_length_a   7.35268912
_cell_length_b   7.35268961
_cell_length_c   7.16577666
_cell_angle_alpha   59.25258526
_cell_angle_beta   59.25258513
_cell_angle_gamma   60.05369958
_symmetry_Int_Tables_number   1
_chemical_formula_structural   CuBi3Ir2(RuO7)2
_chemical_formula_sum   'Cu1 Bi3 Ir2 Ru2 O14'
_cell_volume   270.90232126
_cell_formula_units_Z   1
loop_
 _symmetry_equiv_pos_site_id
 _symmetry_equiv_pos_as_xyz
  1  'x, y, z'
loop_
 _atom_site_type_symbol
 _atom_site_label
 _atom_site_symmetry_multiplicity
 _atom_site_fract_x
 _atom_site_fract_y
 _atom_site_fract_z
 _atom_site_occupancy
  Cu  Cu0  1  0.125000  0.125000  0.625000  1
  Bi  Bi1  1  0.125000  0.625000  0.125000  1
  Bi  Bi2  1  0.625000  0.125000  0.125000  1
  Bi  Bi3  1  0.125000  0.125000  0.125000  1
  Ir  Ir4  1  0.625000  0.625000  0.125000  1
  Ir  Ir5  1  0.625000  0.625000  0.625000  1
  Ru  Ru6  1  0.625000  0.125000  0.625000  1
  Ru  Ru7  1  0.125000  0.625000  0.625000  1
  O  O8  1  0.234553  0.234553  0.296267  1
  O  O9  1  0.015447  0.015447  0.953733  1
  O  O10  1  0.555341  0.948951  0.546806  1
  O  O11  1  0.293993  0.709976  0.288100  1
  O  O12  1  0.539728  0.539728  0.962954  1
  O  O13  1  0.948951  0.555341  0.546806  1
  O  O14  1  0.540024  0.956007  0.961900  1
  O  O15  1  0.943901  0.943901  0.547008  1
  O  O16  1  0.956007  0.540024  0.961900  1
  O  O17  1  0.709976  0.293993  0.288100  1
  O  O18  1  0.301049  0.694659  0.703194  1
  O  O19  1  0.694659  0.301049  0.703194  1
  O  O20  1  0.306099  0.306099  0.702992  1
  O  O21  1  0.710272  0.710272  0.287046  1
