# generated using pymatgen
data_Th2ZnIr6
_symmetry_space_group_name_H-M   'P 1'
_cell_length_a   5.41253955
_cell_length_b   5.41254052
_cell_length_c   13.34708807
_cell_angle_alpha   78.30153122
_cell_angle_beta   78.30153864
_cell_angle_gamma   60.00000440
_symmetry_Int_Tables_number   1
_chemical_formula_structural   Th2ZnIr6
_chemical_formula_sum   'Th4 Zn2 Ir12'
_cell_volume   329.21346200
_cell_formula_units_Z   2
loop_
 _symmetry_equiv_pos_site_id
 _symmetry_equiv_pos_as_xyz
  1  'x, y, z'
loop_
 _atom_site_type_symbol
 _atom_site_label
 _atom_site_symmetry_multiplicity
 _atom_site_fract_x
 _atom_site_fract_y
 _atom_site_fract_z
 _atom_site_occupancy
  Th  Th0  1  0.950196  0.950196  0.149413  1
  Th  Th1  1  0.049804  0.049804  0.850587  1
  Th  Th2  1  0.853670  0.853670  0.438990  1
  Th  Th3  1  0.146330  0.146330  0.561010  1
  Zn  Zn4  1  0.721199  0.721199  0.836401  1
  Zn  Zn5  1  0.278801  0.278801  0.163599  1
  Ir  Ir6  1  0.500000  0.500000  0.500000  1
  Ir  Ir7  1  0.611060  0.611060  0.166819  1
  Ir  Ir8  1  0.388940  0.388940  0.833181  1
  Ir  Ir9  1  0.000000  0.500000  0.000000  1
  Ir  Ir10  1  0.500000  0.000000  0.000000  1
  Ir  Ir11  1  0.500000  0.500000  0.000000  1
  Ir  Ir12  1  0.386805  0.386805  0.331644  1
  Ir  Ir13  1  0.894746  0.386805  0.331644  1
  Ir  Ir14  1  0.386805  0.894746  0.331644  1
  Ir  Ir15  1  0.613195  0.613195  0.668356  1
  Ir  Ir16  1  0.105254  0.613195  0.668356  1
  Ir  Ir17  1  0.613195  0.105254  0.668356  1
