# generated using pymatgen
data_Ag3BiRu3PtO14
_symmetry_space_group_name_H-M   'P 1'
_cell_length_a   7.28413574
_cell_length_b   7.19211951
_cell_length_c   7.24665100
_cell_angle_alpha   59.74887163
_cell_angle_beta   60.17008998
_cell_angle_gamma   60.39516988
_symmetry_Int_Tables_number   1
_chemical_formula_structural   Ag3BiRu3PtO14
_chemical_formula_sum   'Ag3 Bi1 Ru3 Pt1 O14'
_cell_volume   269.06553480
_cell_formula_units_Z   1
loop_
 _symmetry_equiv_pos_site_id
 _symmetry_equiv_pos_as_xyz
  1  'x, y, z'
loop_
 _atom_site_type_symbol
 _atom_site_label
 _atom_site_symmetry_multiplicity
 _atom_site_fract_x
 _atom_site_fract_y
 _atom_site_fract_z
 _atom_site_occupancy
  Ag  Ag0  1  0.125000  0.125000  0.625000  1
  Ag  Ag1  1  0.125000  0.625000  0.125000  1
  Ag  Ag2  1  0.125000  0.125000  0.125000  1
  Bi  Bi3  1  0.625000  0.125000  0.125000  1
  Ru  Ru4  1  0.625000  0.625000  0.125000  1
  Ru  Ru5  1  0.125000  0.625000  0.625000  1
  Ru  Ru6  1  0.625000  0.625000  0.625000  1
  Pt  Pt7  1  0.625000  0.125000  0.625000  1
  O  O8  1  0.235785  0.257216  0.253499  1
  O  O9  1  0.014215  0.992784  0.996501  1
  O  O10  1  0.547344  0.954958  0.538250  1
  O  O11  1  0.319619  0.673980  0.312886  1
  O  O12  1  0.559991  0.540890  0.949560  1
  O  O13  1  0.930381  0.576020  0.556484  1
  O  O14  1  0.547344  0.954958  0.959448  1
  O  O15  1  0.960200  0.952539  0.543631  1
  O  O16  1  0.930381  0.576020  0.937114  1
  O  O17  1  0.702656  0.295042  0.290552  1
  O  O18  1  0.319619  0.673980  0.693516  1
  O  O19  1  0.702656  0.295042  0.711750  1
  O  O20  1  0.289800  0.297461  0.706369  1
  O  O21  1  0.690009  0.709110  0.300440  1
