# generated using pymatgen
data_CsLi3Lu2Se5
_symmetry_space_group_name_H-M   'P 1'
_cell_length_a   4.12626200
_cell_length_b   7.83086600
_cell_length_c   17.32155400
_cell_angle_alpha   90.00000000
_cell_angle_beta   90.00000000
_cell_angle_gamma   74.72445042
_symmetry_Int_Tables_number   1
_chemical_formula_structural   CsLi3Lu2Se5
_chemical_formula_sum   'Cs2 Li6 Lu4 Se10'
_cell_volume   539.92344809
_cell_formula_units_Z   2
loop_
 _symmetry_equiv_pos_site_id
 _symmetry_equiv_pos_as_xyz
  1  'x, y, z'
loop_
 _atom_site_type_symbol
 _atom_site_label
 _atom_site_symmetry_multiplicity
 _atom_site_fract_x
 _atom_site_fract_y
 _atom_site_fract_z
 _atom_site_occupancy
  Cs  Cs0  1  0.931968  0.136064  0.250000  1
  Cs  Cs1  1  0.068032  0.863936  0.750000  1
  Li  Li2  1  0.419815  0.160371  0.041623  1
  Li  Li3  1  0.643378  0.713245  0.250000  1
  Li  Li4  1  0.419815  0.160371  0.458377  1
  Li  Li5  1  0.580185  0.839627  0.541623  1
  Li  Li6  1  0.356622  0.286755  0.750000  1
  Li  Li7  1  0.580185  0.839627  0.958377  1
  Lu  Lu8  1  0.195090  0.609820  0.094055  1
  Lu  Lu9  1  0.195090  0.609820  0.405945  1
  Lu  Lu10  1  0.804910  0.390180  0.594055  1
  Lu  Lu11  1  0.804910  0.390180  0.905945  1
  Se  Se12  1  0.823925  0.352150  0.068204  1
  Se  Se13  1  0.570111  0.859776  0.109787  1
  Se  Se14  1  0.233340  0.533317  0.250000  1
  Se  Se15  1  0.570111  0.859776  0.390213  1
  Se  Se16  1  0.823925  0.352150  0.431796  1
  Se  Se17  1  0.176075  0.647850  0.568204  1
  Se  Se18  1  0.429888  0.140224  0.609787  1
  Se  Se19  1  0.766659  0.466683  0.750000  1
  Se  Se20  1  0.429888  0.140224  0.890213  1
  Se  Se21  1  0.176075  0.647850  0.931796  1
