# generated using pymatgen
data_NdY(SnRh)2
_symmetry_space_group_name_H-M   'P 1'
_cell_length_a   7.55776300
_cell_length_b   7.55776346
_cell_length_c   8.02640500
_cell_angle_alpha   90.00000000
_cell_angle_beta   90.00000000
_cell_angle_gamma   120.00000235
_symmetry_Int_Tables_number   1
_chemical_formula_structural   NdY(SnRh)2
_chemical_formula_sum   'Nd3 Y3 Sn6 Rh6'
_cell_volume   397.04365102
_cell_formula_units_Z   3
loop_
 _symmetry_equiv_pos_site_id
 _symmetry_equiv_pos_as_xyz
  1  'x, y, z'
loop_
 _atom_site_type_symbol
 _atom_site_label
 _atom_site_symmetry_multiplicity
 _atom_site_fract_x
 _atom_site_fract_y
 _atom_site_fract_z
 _atom_site_occupancy
  Nd  Nd0  1  0.000018  0.409405  0.750000  1
  Nd  Nd1  1  0.590595  0.590613  0.750000  1
  Nd  Nd2  1  0.409387  0.999982  0.750000  1
  Y  Y3  1  0.999821  0.404240  0.250000  1
  Y  Y4  1  0.595760  0.595582  0.250000  1
  Y  Y5  1  0.404418  0.000179  0.250000  1
  Sn  Sn6  1  0.256891  0.257010  0.494748  1
  Sn  Sn7  1  0.000119  0.743109  0.494748  1
  Sn  Sn8  1  0.000119  0.743109  0.005252  1
  Sn  Sn9  1  0.742990  0.999881  0.494748  1
  Sn  Sn10  1  0.742990  0.999881  0.005252  1
  Sn  Sn11  1  0.256891  0.257010  0.005252  1
  Rh  Rh12  1  0.333333  0.666667  0.487654  1
  Rh  Rh13  1  0.666667  0.333333  0.488316  1
  Rh  Rh14  1  0.333333  0.666667  0.012346  1
  Rh  Rh15  1  0.000000  0.000000  0.750000  1
  Rh  Rh16  1  0.000000  0.000000  0.250000  1
  Rh  Rh17  1  0.666667  0.333333  0.011684  1
