# generated using pymatgen
data_Be6SiNiMo4
_symmetry_space_group_name_H-M   'P 1'
_cell_length_a   4.49994190
_cell_length_b   4.49994238
_cell_length_c   7.45077894
_cell_angle_alpha   89.95001958
_cell_angle_beta   90.04997709
_cell_angle_gamma   119.52619409
_symmetry_Int_Tables_number   1
_chemical_formula_structural   Be6SiNiMo4
_chemical_formula_sum   'Be6 Si1 Ni1 Mo4'
_cell_volume   131.28034188
_cell_formula_units_Z   1
loop_
 _symmetry_equiv_pos_site_id
 _symmetry_equiv_pos_as_xyz
  1  'x, y, z'
loop_
 _atom_site_type_symbol
 _atom_site_label
 _atom_site_symmetry_multiplicity
 _atom_site_fract_x
 _atom_site_fract_y
 _atom_site_fract_z
 _atom_site_occupancy
  Be  Be0  1  0.000580  0.999420  0.999917  1
  Be  Be1  1  0.826964  0.655207  0.242204  1
  Be  Be2  1  0.344793  0.173036  0.242204  1
  Be  Be3  1  0.171016  0.828984  0.757377  1
  Be  Be4  1  0.168552  0.342504  0.755974  1
  Be  Be5  1  0.657496  0.831448  0.755974  1
  Si  Si6  1  0.000205  0.999795  0.498561  1
  Ni  Ni7  1  0.833140  0.166860  0.245642  1
  Mo  Mo8  1  0.334317  0.665683  0.441988  1
  Mo  Mo9  1  0.663365  0.336635  0.565247  1
  Mo  Mo10  1  0.662385  0.337615  0.936922  1
  Mo  Mo11  1  0.337186  0.662814  0.057992  1
