# generated using pymatgen
data_Dy16MgCd3OsPt3
_symmetry_space_group_name_H-M   'P 1'
_cell_length_a   9.72670077
_cell_length_b   9.72669971
_cell_length_c   9.72670077
_cell_angle_alpha   59.44383616
_cell_angle_beta   59.44383635
_cell_angle_gamma   59.44383472
_symmetry_Int_Tables_number   1
_chemical_formula_structural   Dy16MgCd3OsPt3
_chemical_formula_sum   'Dy16 Mg1 Cd3 Os1 Pt3'
_cell_volume   642.46791858
_cell_formula_units_Z   1
loop_
 _symmetry_equiv_pos_site_id
 _symmetry_equiv_pos_as_xyz
  1  'x, y, z'
loop_
 _atom_site_type_symbol
 _atom_site_label
 _atom_site_symmetry_multiplicity
 _atom_site_fract_x
 _atom_site_fract_y
 _atom_site_fract_z
 _atom_site_occupancy
  Dy  Dy0  1  0.352108  0.352108  0.352108  1
  Dy  Dy1  1  0.348285  0.348285  0.951250  1
  Dy  Dy2  1  0.348285  0.951250  0.348285  1
  Dy  Dy3  1  0.951250  0.348285  0.348285  1
  Dy  Dy4  1  0.813663  0.189635  0.189635  1
  Dy  Dy5  1  0.187746  0.810715  0.810715  1
  Dy  Dy6  1  0.189635  0.813663  0.189635  1
  Dy  Dy7  1  0.810715  0.187746  0.810715  1
  Dy  Dy8  1  0.189635  0.189635  0.813663  1
  Dy  Dy9  1  0.810715  0.810715  0.187746  1
  Dy  Dy10  1  0.936143  0.566015  0.566015  1
  Dy  Dy11  1  0.558793  0.937469  0.937469  1
  Dy  Dy12  1  0.566015  0.936143  0.566015  1
  Dy  Dy13  1  0.937469  0.558792  0.937469  1
  Dy  Dy14  1  0.566015  0.566015  0.936143  1
  Dy  Dy15  1  0.937469  0.937469  0.558792  1
  Mg  Mg16  1  0.575822  0.575822  0.575822  1
  Cd  Cd17  1  0.581572  0.581572  0.253678  1
  Cd  Cd18  1  0.581572  0.253678  0.581572  1
  Cd  Cd19  1  0.253678  0.581572  0.581572  1
  Os  Os20  1  0.142955  0.142955  0.142955  1
  Pt  Pt21  1  0.143976  0.143976  0.572509  1
  Pt  Pt22  1  0.143976  0.572509  0.143976  1
  Pt  Pt23  1  0.572509  0.143976  0.143976  1
