# generated using pymatgen
data_YbTh3(Cu5Ag)4
_symmetry_space_group_name_H-M   'P 1'
_cell_length_a   5.07987900
_cell_length_b   8.32931809
_cell_length_c   10.60329500
_cell_angle_alpha   90.00850221
_cell_angle_beta   90.00000000
_cell_angle_gamma   90.00000000
_symmetry_Int_Tables_number   1
_chemical_formula_structural   YbTh3(Cu5Ag)4
_chemical_formula_sum   'Yb1 Th3 Cu20 Ag4'
_cell_volume   448.64585028
_cell_formula_units_Z   1
loop_
 _symmetry_equiv_pos_site_id
 _symmetry_equiv_pos_as_xyz
  1  'x, y, z'
loop_
 _atom_site_type_symbol
 _atom_site_label
 _atom_site_symmetry_multiplicity
 _atom_site_fract_x
 _atom_site_fract_y
 _atom_site_fract_z
 _atom_site_occupancy
  Yb  Yb0  1  0.750000  0.242268  0.933785  1
  Th  Th1  1  0.250000  0.754598  0.066190  1
  Th  Th2  1  0.750000  0.744577  0.564362  1
  Th  Th3  1  0.250000  0.255637  0.433732  1
  Cu  Cu4  1  0.001522  0.429709  0.186521  1
  Cu  Cu5  1  0.501301  0.569271  0.813678  1
  Cu  Cu6  1  0.498756  0.930590  0.313085  1
  Cu  Cu7  1  0.999235  0.070726  0.687376  1
  Cu  Cu8  1  0.998699  0.569271  0.813678  1
  Cu  Cu9  1  0.498478  0.429709  0.186521  1
  Cu  Cu10  1  0.500765  0.070726  0.687376  1
  Cu  Cu11  1  0.001244  0.930590  0.313085  1
  Cu  Cu12  1  0.750000  0.445202  0.392504  1
  Cu  Cu13  1  0.250000  0.557739  0.607875  1
  Cu  Cu14  1  0.750000  0.949094  0.108124  1
  Cu  Cu15  1  0.250000  0.062362  0.892013  1
  Cu  Cu16  1  0.750000  0.183390  0.257023  1
  Cu  Cu17  1  0.250000  0.819164  0.746814  1
  Cu  Cu18  1  0.750000  0.682237  0.241841  1
  Cu  Cu19  1  0.250000  0.319238  0.754243  1
  Cu  Cu20  1  0.750000  0.085846  0.485049  1
  Cu  Cu21  1  0.250000  0.912992  0.516460  1
  Cu  Cu22  1  0.750000  0.576792  0.013863  1
  Cu  Cu23  1  0.250000  0.405134  0.981897  1
  Ag  Ag24  1  0.750000  0.362446  0.639246  1
  Ag  Ag25  1  0.250000  0.636771  0.362750  1
  Ag  Ag26  1  0.750000  0.866867  0.864748  1
  Ag  Ag27  1  0.250000  0.137051  0.136162  1
