# generated using pymatgen
data_Tm2Lu3W2C7
_symmetry_space_group_name_H-M   'P 1'
_cell_length_a   8.27782238
_cell_length_b   8.27290414
_cell_length_c   3.35796400
_cell_angle_alpha   90.00000000
_cell_angle_beta   90.00000000
_cell_angle_gamma   121.81223799
_symmetry_Int_Tables_number   1
_chemical_formula_structural   Tm2Lu3W2C7
_chemical_formula_sum   'Tm2 Lu3 W2 C7'
_cell_volume   195.41446037
_cell_formula_units_Z   1
loop_
 _symmetry_equiv_pos_site_id
 _symmetry_equiv_pos_as_xyz
  1  'x, y, z'
loop_
 _atom_site_type_symbol
 _atom_site_label
 _atom_site_symmetry_multiplicity
 _atom_site_fract_x
 _atom_site_fract_y
 _atom_site_fract_z
 _atom_site_occupancy
  Tm  Tm0  1  0.076123  0.332714  0.500000  1
  Tm  Tm1  1  0.923877  0.667286  0.500000  1
  Lu  Lu2  1  0.500000  0.500000  0.000000  1
  Lu  Lu3  1  0.664945  0.923172  0.500000  1
  Lu  Lu4  1  0.335055  0.076828  0.500000  1
  W  W5  1  0.713253  0.286723  0.000000  1
  W  W6  1  0.286747  0.713277  0.000000  1
  C  C7  1  0.621193  0.377407  0.500000  1
  C  C8  1  0.378807  0.622593  0.500000  1
  C  C9  1  0.000000  0.000000  0.000000  1
  C  C10  1  0.169698  0.167179  0.000000  1
  C  C11  1  0.830302  0.832821  0.000000  1
  C  C12  1  0.000000  0.500000  0.000000  1
  C  C13  1  0.500000  0.000000  0.000000  1
