# generated using pymatgen
data_CaLa(InPd)2
_symmetry_space_group_name_H-M   'P 1'
_cell_length_a   4.44950000
_cell_length_b   7.45239400
_cell_length_c   8.65556100
_cell_angle_alpha   90.00000000
_cell_angle_beta   90.00000000
_cell_angle_gamma   90.00000000
_symmetry_Int_Tables_number   1
_chemical_formula_structural   CaLa(InPd)2
_chemical_formula_sum   'Ca2 La2 In4 Pd4'
_cell_volume   287.01344402
_cell_formula_units_Z   2
loop_
 _symmetry_equiv_pos_site_id
 _symmetry_equiv_pos_as_xyz
  1  'x, y, z'
loop_
 _atom_site_type_symbol
 _atom_site_label
 _atom_site_symmetry_multiplicity
 _atom_site_fract_x
 _atom_site_fract_y
 _atom_site_fract_z
 _atom_site_occupancy
  Ca  Ca0  1  0.750000  0.536866  0.183414  1
  Ca  Ca1  1  0.250000  0.963134  0.683414  1
  La  La2  1  0.750000  0.037677  0.322478  1
  La  La3  1  0.250000  0.462323  0.822478  1
  In  In4  1  0.250000  0.851614  0.058824  1
  In  In5  1  0.250000  0.360161  0.438046  1
  In  In6  1  0.750000  0.648386  0.558824  1
  In  In7  1  0.750000  0.139839  0.938046  1
  Pd  Pd8  1  0.250000  0.741209  0.368922  1
  Pd  Pd9  1  0.750000  0.265003  0.628317  1
  Pd  Pd10  1  0.750000  0.758791  0.868922  1
  Pd  Pd11  1  0.250000  0.234997  0.128317  1
