# generated using pymatgen
data_Eu4In2N
_symmetry_space_group_name_H-M   'P 1'
_cell_length_a   5.10507271
_cell_length_b   5.08872359
_cell_length_c   15.09883959
_cell_angle_alpha   99.70142225
_cell_angle_beta   99.73288724
_cell_angle_gamma   89.99999553
_symmetry_Int_Tables_number   1
_chemical_formula_structural   Eu4In2N
_chemical_formula_sum   'Eu8 In4 N2'
_cell_volume   380.90406791
_cell_formula_units_Z   2
loop_
 _symmetry_equiv_pos_site_id
 _symmetry_equiv_pos_as_xyz
  1  'x, y, z'
loop_
 _atom_site_type_symbol
 _atom_site_label
 _atom_site_symmetry_multiplicity
 _atom_site_fract_x
 _atom_site_fract_y
 _atom_site_fract_z
 _atom_site_occupancy
  Eu  Eu0  1  0.041507  0.791507  0.083013  1
  Eu  Eu1  1  0.124886  0.374886  0.249770  1
  Eu  Eu2  1  0.625079  0.875079  0.250157  1
  Eu  Eu3  1  0.208478  0.958478  0.416958  1
  Eu  Eu4  1  0.791521  0.041521  0.583042  1
  Eu  Eu5  1  0.374922  0.124922  0.749843  1
  Eu  Eu6  1  0.875114  0.625114  0.750230  1
  Eu  Eu7  1  0.958494  0.208494  0.916987  1
  In  In8  1  0.538209  0.288209  0.076416  1
  In  In9  1  0.711778  0.461778  0.423558  1
  In  In10  1  0.288221  0.538221  0.576442  1
  In  In11  1  0.461792  0.711792  0.923584  1
  N  N12  1  0.125004  0.875004  0.250008  1
  N  N13  1  0.874996  0.124996  0.749992  1
