# generated using pymatgen
data_ErHfBIr5Rh
_symmetry_space_group_name_H-M   'P 1'
_cell_length_a   5.76895553
_cell_length_b   5.76895646
_cell_length_c   5.74616200
_cell_angle_alpha   60.13060827
_cell_angle_beta   60.13060296
_cell_angle_gamma   60.10920665
_symmetry_Int_Tables_number   1
_chemical_formula_structural   ErHfBIr5Rh
_chemical_formula_sum   'Er1 Hf1 B1 Ir5 Rh1'
_cell_volume   135.60334824
_cell_formula_units_Z   1
loop_
 _symmetry_equiv_pos_site_id
 _symmetry_equiv_pos_as_xyz
  1  'x, y, z'
loop_
 _atom_site_type_symbol
 _atom_site_label
 _atom_site_symmetry_multiplicity
 _atom_site_fract_x
 _atom_site_fract_y
 _atom_site_fract_z
 _atom_site_occupancy
  Er  Er0  1  0.750393  0.750393  0.749607  1
  Hf  Hf1  1  0.249019  0.249019  0.250981  1
  B  B2  1  0.000697  0.000697  0.999303  1
  Ir  Ir3  1  0.258116  0.741285  0.257638  1
  Ir  Ir4  1  0.741285  0.258116  0.257638  1
  Ir  Ir5  1  0.258807  0.258807  0.741193  1
  Ir  Ir6  1  0.741285  0.258116  0.742960  1
  Ir  Ir7  1  0.258116  0.741285  0.742960  1
  Rh  Rh8  1  0.742281  0.742281  0.257719  1
