# generated using pymatgen
data_Na2HoHf(Al8Pt3)3
_symmetry_space_group_name_H-M   'P 1'
_cell_length_a   7.48765701
_cell_length_b   7.50408790
_cell_length_c   13.20979716
_cell_angle_alpha   84.63659673
_cell_angle_beta   79.25408124
_cell_angle_gamma   59.83115048
_symmetry_Int_Tables_number   1
_chemical_formula_structural   Na2HoHf(Al8Pt3)3
_chemical_formula_sum   'Na2 Ho1 Hf1 Al24 Pt9'
_cell_volume   630.44278887
_cell_formula_units_Z   1
loop_
 _symmetry_equiv_pos_site_id
 _symmetry_equiv_pos_as_xyz
  1  'x, y, z'
loop_
 _atom_site_type_symbol
 _atom_site_label
 _atom_site_symmetry_multiplicity
 _atom_site_fract_x
 _atom_site_fract_y
 _atom_site_fract_z
 _atom_site_occupancy
  Na  Na0  1  0.733815  0.499262  0.807003  1
  Na  Na1  1  0.266200  0.500954  0.191797  1
  Ho  Ho2  1  0.608174  0.830684  0.189230  1
  Hf  Hf3  1  0.393236  0.168841  0.809792  1
  Al  Al4  1  0.681643  0.833561  0.938950  1
  Al  Al5  1  0.315314  0.168831  0.053516  1
  Al  Al6  1  0.146559  0.831631  0.563134  1
  Al  Al7  1  0.852538  0.168169  0.439501  1
  Al  Al8  1  0.479237  0.167226  0.561311  1
  Al  Al9  1  0.520238  0.832820  0.441698  1
  Al  Al10  1  0.216926  0.167952  0.327884  1
  Al  Al11  1  0.777860  0.833887  0.677734  1
  Al  Al12  1  0.438594  0.503433  0.679080  1
  Al  Al13  1  0.560550  0.493329  0.326375  1
  Al  Al14  1  0.105765  0.164069  0.677491  1
  Al  Al15  1  0.893913  0.837143  0.328668  1
  Al  Al16  1  0.357715  0.496330  0.941957  1
  Al  Al17  1  0.647525  0.498463  0.051469  1
  Al  Al18  1  0.017501  0.172219  0.946591  1
  Al  Al19  1  0.988454  0.831067  0.043827  1
  Al  Al20  1  0.186060  0.499453  0.441548  1
  Al  Al21  1  0.813676  0.500673  0.560422  1
  Al  Al22  1  0.733321  0.161203  0.182950  1
  Al  Al23  1  0.267724  0.844521  0.817019  1
  Al  Al24  1  0.070563  0.620514  0.816085  1
  Al  Al25  1  0.935049  0.372658  0.183246  1
  Al  Al26  1  0.843961  0.043724  0.816263  1
  Al  Al27  1  0.149145  0.957580  0.183123  1
  Pt  Pt28  1  0.122608  0.491253  0.638215  1
  Pt  Pt29  1  0.876963  0.507837  0.363324  1
  Pt  Pt30  1  0.659060  0.167459  0.999167  1
  Pt  Pt31  1  0.341696  0.831625  0.998937  1
  Pt  Pt32  1  0.538173  0.164880  0.364112  1
  Pt  Pt33  1  0.461010  0.835706  0.638061  1
  Pt  Pt34  1  0.779637  0.173333  0.636788  1
  Pt  Pt35  1  0.219359  0.827107  0.365222  1
  Pt  Pt36  1  0.000240  0.500602  0.998507  1
