# generated using pymatgen
data_LiLuBPt6
_symmetry_space_group_name_H-M   'P 1'
_cell_length_a   5.78543020
_cell_length_b   5.78542990
_cell_length_c   5.78542900
_cell_angle_alpha   59.99998798
_cell_angle_beta   59.99998968
_cell_angle_gamma   59.99998812
_symmetry_Int_Tables_number   1
_chemical_formula_structural   LiLuBPt6
_chemical_formula_sum   'Li1 Lu1 B1 Pt6'
_cell_volume   136.92783818
_cell_formula_units_Z   1
loop_
 _symmetry_equiv_pos_site_id
 _symmetry_equiv_pos_as_xyz
  1  'x, y, z'
loop_
 _atom_site_type_symbol
 _atom_site_label
 _atom_site_symmetry_multiplicity
 _atom_site_fract_x
 _atom_site_fract_y
 _atom_site_fract_z
 _atom_site_occupancy
  Li  Li0  1  0.250000  0.250000  0.250000  1
  Lu  Lu1  1  0.750000  0.750000  0.750000  1
  B  B2  1  0.499999  0.499999  0.499999  1
  Pt  Pt3  1  0.242200  0.757799  0.242200  1
  Pt  Pt4  1  0.757799  0.757799  0.242200  1
  Pt  Pt5  1  0.757799  0.242200  0.242200  1
  Pt  Pt6  1  0.242200  0.242200  0.757799  1
  Pt  Pt7  1  0.757799  0.242200  0.757799  1
  Pt  Pt8  1  0.242200  0.757799  0.757799  1
