# generated using pymatgen
data_Tb8AlPd23Pt
_symmetry_space_group_name_H-M   'P 1'
_cell_length_a   8.36335800
_cell_length_b   8.36487600
_cell_length_c   8.36487600
_cell_angle_alpha   90.00000000
_cell_angle_beta   90.00000000
_cell_angle_gamma   90.00000000
_symmetry_Int_Tables_number   1
_chemical_formula_structural   Tb8AlPd23Pt
_chemical_formula_sum   'Tb8 Al1 Pd23 Pt1'
_cell_volume   585.19378126
_cell_formula_units_Z   1
loop_
 _symmetry_equiv_pos_site_id
 _symmetry_equiv_pos_as_xyz
  1  'x, y, z'
loop_
 _atom_site_type_symbol
 _atom_site_label
 _atom_site_symmetry_multiplicity
 _atom_site_fract_x
 _atom_site_fract_y
 _atom_site_fract_z
 _atom_site_occupancy
  Tb  Tb0  1  0.251645  0.251333  0.251333  1
  Tb  Tb1  1  0.748181  0.747860  0.747860  1
  Tb  Tb2  1  0.748181  0.747860  0.252140  1
  Tb  Tb3  1  0.748181  0.252140  0.747860  1
  Tb  Tb4  1  0.251645  0.251333  0.748667  1
  Tb  Tb5  1  0.251645  0.748667  0.251333  1
  Tb  Tb6  1  0.251645  0.748667  0.748667  1
  Tb  Tb7  1  0.748181  0.252140  0.252140  1
  Al  Al8  1  0.000928  0.000000  0.000000  1
  Pd  Pd9  1  0.259834  0.500000  0.000000  1
  Pd  Pd10  1  0.739759  0.500000  0.000000  1
  Pd  Pd11  1  0.999963  0.260113  0.500000  1
  Pd  Pd12  1  0.500067  0.260211  0.000000  1
  Pd  Pd13  1  0.999963  0.739887  0.500000  1
  Pd  Pd14  1  0.500067  0.739789  0.000000  1
  Pd  Pd15  1  0.500067  0.000000  0.260211  1
  Pd  Pd16  1  0.259834  0.000000  0.500000  1
  Pd  Pd17  1  0.500067  0.000000  0.739789  1
  Pd  Pd18  1  0.739759  0.000000  0.500000  1
  Pd  Pd19  1  0.999963  0.500000  0.260113  1
  Pd  Pd20  1  0.999963  0.500000  0.739887  1
  Pd  Pd21  1  0.252899  0.500000  0.500000  1
  Pd  Pd22  1  0.747188  0.500000  0.500000  1
  Pd  Pd23  1  0.500060  0.253219  0.500000  1
  Pd  Pd24  1  0.500060  0.746781  0.500000  1
  Pd  Pd25  1  0.500060  0.500000  0.253219  1
  Pd  Pd26  1  0.500060  0.500000  0.746781  1
  Pd  Pd27  1  0.711735  0.000000  0.000000  1
  Pd  Pd28  1  0.999502  0.290060  0.000000  1
  Pd  Pd29  1  0.999502  0.709940  0.000000  1
  Pd  Pd30  1  0.999502  0.000000  0.290060  1
  Pd  Pd31  1  0.999502  0.000000  0.709940  1
  Pt  Pt32  1  0.290393  0.000000  0.000000  1
