# generated using pymatgen
data_Sc22Os6RuAu
_symmetry_space_group_name_H-M   'P 1'
_cell_length_a   9.52990119
_cell_length_b   9.52990030
_cell_length_c   9.41922900
_cell_angle_alpha   60.38341564
_cell_angle_beta   60.38341867
_cell_angle_gamma   59.83316927
_symmetry_Int_Tables_number   1
_chemical_formula_structural   Sc22Os6RuAu
_chemical_formula_sum   'Sc22 Os6 Ru1 Au1'
_cell_volume   607.59340060
_cell_formula_units_Z   1
loop_
 _symmetry_equiv_pos_site_id
 _symmetry_equiv_pos_as_xyz
  1  'x, y, z'
loop_
 _atom_site_type_symbol
 _atom_site_label
 _atom_site_symmetry_multiplicity
 _atom_site_fract_x
 _atom_site_fract_y
 _atom_site_fract_z
 _atom_site_occupancy
  Sc  Sc0  1  0.801937  0.801937  0.198063  1
  Sc  Sc1  1  0.194820  0.805180  0.197989  1
  Sc  Sc2  1  0.805180  0.194820  0.197989  1
  Sc  Sc3  1  0.198063  0.198063  0.801937  1
  Sc  Sc4  1  0.805180  0.194820  0.802011  1
  Sc  Sc5  1  0.194820  0.805180  0.802011  1
  Sc  Sc6  1  0.613985  0.613985  0.148986  1
  Sc  Sc7  1  0.604205  0.150875  0.622460  1
  Sc  Sc8  1  0.150875  0.604205  0.622460  1
  Sc  Sc9  1  0.613985  0.613985  0.623045  1
  Sc  Sc10  1  0.386015  0.386015  0.851014  1
  Sc  Sc11  1  0.395795  0.849125  0.377540  1
  Sc  Sc12  1  0.849125  0.395795  0.377540  1
  Sc  Sc13  1  0.386015  0.386015  0.376955  1
  Sc  Sc14  1  0.835675  0.835675  0.475108  1
  Sc  Sc15  1  0.844305  0.465062  0.845316  1
  Sc  Sc16  1  0.465062  0.844305  0.845316  1
  Sc  Sc17  1  0.835675  0.835675  0.853539  1
  Sc  Sc18  1  0.164325  0.164325  0.524892  1
  Sc  Sc19  1  0.155695  0.534938  0.154684  1
  Sc  Sc20  1  0.534938  0.155695  0.154684  1
  Sc  Sc21  1  0.164325  0.164325  0.146461  1
  Os  Os22  1  0.500000  0.500000  0.500000  1
  Os  Os23  1  0.500000  0.000000  0.500000  1
  Os  Os24  1  0.000000  0.500000  0.500000  1
  Os  Os25  1  0.500000  0.500000  0.000000  1
  Os  Os26  1  0.000000  0.500000  0.000000  1
  Os  Os27  1  0.500000  0.000000  0.000000  1
  Ru  Ru28  1  0.000000  0.000000  0.000000  1
  Au  Au29  1  0.000000  0.000000  0.500000  1
