# generated using pymatgen
data_CaNi9P5
_symmetry_space_group_name_H-M   'P 1'
_cell_length_a   6.50387300
_cell_length_b   6.50387304
_cell_length_c   10.74114700
_cell_angle_alpha   90.00000000
_cell_angle_beta   90.00000000
_cell_angle_gamma   120.00000488
_symmetry_Int_Tables_number   1
_chemical_formula_structural   CaNi9P5
_chemical_formula_sum   'Ca2 Ni18 P10'
_cell_volume   393.48246003
_cell_formula_units_Z   2
loop_
 _symmetry_equiv_pos_site_id
 _symmetry_equiv_pos_as_xyz
  1  'x, y, z'
loop_
 _atom_site_type_symbol
 _atom_site_label
 _atom_site_symmetry_multiplicity
 _atom_site_fract_x
 _atom_site_fract_y
 _atom_site_fract_z
 _atom_site_occupancy
  Ca  Ca0  1  0.000000  0.000000  0.500000  1
  Ca  Ca1  1  0.000000  0.000000  0.000000  1
  Ni  Ni2  1  0.464046  0.928093  0.892920  1
  Ni  Ni3  1  0.928093  0.464046  0.107080  1
  Ni  Ni4  1  0.535954  0.071907  0.107080  1
  Ni  Ni5  1  0.071907  0.535954  0.607080  1
  Ni  Ni6  1  0.202541  0.405081  0.250000  1
  Ni  Ni7  1  0.797459  0.202541  0.750000  1
  Ni  Ni8  1  0.405081  0.202541  0.750000  1
  Ni  Ni9  1  0.594919  0.797459  0.250000  1
  Ni  Ni10  1  0.202541  0.797459  0.250000  1
  Ni  Ni11  1  0.797459  0.594919  0.750000  1
  Ni  Ni12  1  0.464046  0.928093  0.607080  1
  Ni  Ni13  1  0.535954  0.464046  0.392920  1
  Ni  Ni14  1  0.928093  0.464046  0.392920  1
  Ni  Ni15  1  0.071907  0.535954  0.892920  1
  Ni  Ni16  1  0.464046  0.535954  0.892920  1
  Ni  Ni17  1  0.535954  0.071907  0.392920  1
  Ni  Ni18  1  0.535954  0.464046  0.107080  1
  Ni  Ni19  1  0.464046  0.535954  0.607080  1
  P  P20  1  0.173220  0.346441  0.750000  1
  P  P21  1  0.826780  0.173220  0.250000  1
  P  P22  1  0.173220  0.826780  0.750000  1
  P  P23  1  0.826780  0.653559  0.250000  1
  P  P24  1  0.333333  0.666667  0.438425  1
  P  P25  1  0.666667  0.333333  0.938425  1
  P  P26  1  0.666667  0.333333  0.561575  1
  P  P27  1  0.333333  0.666667  0.061575  1
  P  P28  1  0.346441  0.173220  0.250000  1
  P  P29  1  0.653559  0.826780  0.750000  1
