# generated using pymatgen
data_Ac5Pr(In2Pb3)2
_symmetry_space_group_name_H-M   'P 1'
_cell_length_a   6.94254807
_cell_length_b   6.94254864
_cell_length_c   11.10412100
_cell_angle_alpha   90.00000000
_cell_angle_beta   90.00000000
_cell_angle_gamma   102.28466422
_symmetry_Int_Tables_number   1
_chemical_formula_structural   Ac5Pr(In2Pb3)2
_chemical_formula_sum   'Ac5 Pr1 In4 Pb6'
_cell_volume   522.95240296
_cell_formula_units_Z   1
loop_
 _symmetry_equiv_pos_site_id
 _symmetry_equiv_pos_as_xyz
  1  'x, y, z'
loop_
 _atom_site_type_symbol
 _atom_site_label
 _atom_site_symmetry_multiplicity
 _atom_site_fract_x
 _atom_site_fract_y
 _atom_site_fract_z
 _atom_site_occupancy
  Ac  Ac0  1  0.633810  0.633810  0.250000  1
  Ac  Ac1  1  0.202280  0.796014  0.500732  1
  Ac  Ac2  1  0.202280  0.796014  0.999268  1
  Ac  Ac3  1  0.796014  0.202280  0.500732  1
  Ac  Ac4  1  0.796014  0.202280  0.999268  1
  Pr  Pr5  1  0.364576  0.364576  0.750000  1
  In  In6  1  0.313387  0.313387  0.039350  1
  In  In7  1  0.684474  0.684474  0.949978  1
  In  In8  1  0.313387  0.313387  0.460650  1
  In  In9  1  0.684474  0.684474  0.550022  1
  Pb  Pb10  1  0.025158  0.025158  0.250000  1
  Pb  Pb11  1  0.979830  0.979830  0.750000  1
  Pb  Pb12  1  0.493575  0.085051  0.250000  1
  Pb  Pb13  1  0.922673  0.503016  0.750000  1
  Pb  Pb14  1  0.503016  0.922673  0.750000  1
  Pb  Pb15  1  0.085051  0.493575  0.250000  1
