# generated using pymatgen
data_Sm6FeBr10
_symmetry_space_group_name_H-M   'P 1'
_cell_length_a   7.51921367
_cell_length_b   9.30943812
_cell_length_c   9.36052333
_cell_angle_alpha   108.07617663
_cell_angle_beta   96.81870044
_cell_angle_gamma   105.79320895
_symmetry_Int_Tables_number   1
_chemical_formula_structural   Sm6FeBr10
_chemical_formula_sum   'Sm6 Fe1 Br10'
_cell_volume   584.40872234
_cell_formula_units_Z   1
loop_
 _symmetry_equiv_pos_site_id
 _symmetry_equiv_pos_as_xyz
  1  'x, y, z'
loop_
 _atom_site_type_symbol
 _atom_site_label
 _atom_site_symmetry_multiplicity
 _atom_site_fract_x
 _atom_site_fract_y
 _atom_site_fract_z
 _atom_site_occupancy
  Sm  Sm0  1  0.863196  0.136738  0.681801  1
  Sm  Sm1  1  0.529062  0.711302  0.411136  1
  Sm  Sm2  1  0.470938  0.288698  0.588864  1
  Sm  Sm3  1  0.136804  0.863262  0.318199  1
  Sm  Sm4  1  0.622773  0.046136  0.259923  1
  Sm  Sm5  1  0.377227  0.953864  0.740077  1
  Fe  Fe6  1  0.500000  0.000000  0.500000  1
  Br  Br7  1  0.412265  0.631289  0.673069  1
  Br  Br8  1  0.751248  0.084709  0.956159  1
  Br  Br9  1  0.248752  0.915291  0.043841  1
  Br  Br10  1  0.952357  0.821889  0.583717  1
  Br  Br11  1  0.294033  0.258473  0.848093  1
  Br  Br12  1  0.705967  0.741527  0.151907  1
  Br  Br13  1  0.047643  0.178111  0.416283  1
  Br  Br14  1  0.587735  0.368711  0.326931  1
  Br  Br15  1  0.854172  0.455164  0.771840  1
  Br  Br16  1  0.145828  0.544836  0.228160  1
