# generated using pymatgen
data_YEr3OsBr4
_symmetry_space_group_name_H-M   'P 1'
_cell_length_a   8.94550265
_cell_length_b   8.91082729
_cell_length_c   6.53529066
_cell_angle_alpha   89.57988383
_cell_angle_beta   89.41193431
_cell_angle_gamma   89.38885101
_symmetry_Int_Tables_number   1
_chemical_formula_structural   YEr3OsBr4
_chemical_formula_sum   'Y2 Er6 Os2 Br8'
_cell_volume   520.86931029
_cell_formula_units_Z   2
loop_
 _symmetry_equiv_pos_site_id
 _symmetry_equiv_pos_as_xyz
  1  'x, y, z'
loop_
 _atom_site_type_symbol
 _atom_site_label
 _atom_site_symmetry_multiplicity
 _atom_site_fract_x
 _atom_site_fract_y
 _atom_site_fract_z
 _atom_site_occupancy
  Y  Y0  1  0.251926  0.899991  0.009381  1
  Y  Y1  1  0.748074  0.100009  0.990619  1
  Er  Er2  1  0.097975  0.752457  0.488579  1
  Er  Er3  1  0.902025  0.247543  0.511421  1
  Er  Er4  1  0.753707  0.903195  0.508808  1
  Er  Er5  1  0.246293  0.096805  0.491192  1
  Er  Er6  1  0.096138  0.246684  0.991144  1
  Er  Er7  1  0.903862  0.753316  0.008856  1
  Os  Os8  1  0.995062  0.005016  0.250800  1
  Os  Os9  1  0.004938  0.994984  0.749200  1
  Br  Br10  1  0.418392  0.818080  0.409040  1
  Br  Br11  1  0.581608  0.181920  0.590960  1
  Br  Br12  1  0.180467  0.579734  0.094051  1
  Br  Br13  1  0.819533  0.420266  0.905949  1
  Br  Br14  1  0.412580  0.193487  0.094991  1
  Br  Br15  1  0.587420  0.806513  0.905009  1
  Br  Br16  1  0.809735  0.586196  0.404446  1
  Br  Br17  1  0.190265  0.413804  0.595554  1
