# generated using pymatgen
data_Tb4UNbRu6
_symmetry_space_group_name_H-M   'P 1'
_cell_length_a   5.80372600
_cell_length_b   5.80372500
_cell_length_c   7.93220200
_cell_angle_alpha   90.00000000
_cell_angle_beta   90.00000000
_cell_angle_gamma   120.00000569
_symmetry_Int_Tables_number   1
_chemical_formula_structural   Tb4UNbRu6
_chemical_formula_sum   'Tb4 U1 Nb1 Ru6'
_cell_volume   231.38654371
_cell_formula_units_Z   1
loop_
 _symmetry_equiv_pos_site_id
 _symmetry_equiv_pos_as_xyz
  1  'x, y, z'
loop_
 _atom_site_type_symbol
 _atom_site_label
 _atom_site_symmetry_multiplicity
 _atom_site_fract_x
 _atom_site_fract_y
 _atom_site_fract_z
 _atom_site_occupancy
  Tb  Tb0  1  0.333333  0.666667  0.436613  1
  Tb  Tb1  1  0.666667  0.333333  0.563387  1
  Tb  Tb2  1  0.666667  0.333333  0.945461  1
  Tb  Tb3  1  0.333333  0.666667  0.054539  1
  U  U4  1  0.000000  0.000000  0.500000  1
  Nb  Nb5  1  0.000000  0.000000  0.000000  1
  Ru  Ru6  1  0.832158  0.167842  0.255501  1
  Ru  Ru7  1  0.832158  0.664316  0.255501  1
  Ru  Ru8  1  0.335684  0.167842  0.255501  1
  Ru  Ru9  1  0.167842  0.832158  0.744499  1
  Ru  Ru10  1  0.167842  0.335684  0.744499  1
  Ru  Ru11  1  0.664316  0.832158  0.744499  1
