# generated using pymatgen
data_Sr7Yb3(Bi3H)2
_symmetry_space_group_name_H-M   'P 1'
_cell_length_a   9.59934400
_cell_length_b   9.59934644
_cell_length_c   7.17381600
_cell_angle_alpha   90.00000000
_cell_angle_beta   90.00000000
_cell_angle_gamma   119.99999850
_symmetry_Int_Tables_number   1
_chemical_formula_structural   Sr7Yb3(Bi3H)2
_chemical_formula_sum   'Sr7 Yb3 Bi6 H2'
_cell_volume   572.48497412
_cell_formula_units_Z   1
loop_
 _symmetry_equiv_pos_site_id
 _symmetry_equiv_pos_as_xyz
  1  'x, y, z'
loop_
 _atom_site_type_symbol
 _atom_site_label
 _atom_site_symmetry_multiplicity
 _atom_site_fract_x
 _atom_site_fract_y
 _atom_site_fract_z
 _atom_site_occupancy
  Sr  Sr0  1  0.756270  0.755619  0.251014  1
  Sr  Sr1  1  0.756270  0.000651  0.748986  1
  Sr  Sr2  1  0.999349  0.243730  0.251014  1
  Sr  Sr3  1  0.999349  0.755619  0.748986  1
  Sr  Sr4  1  0.244381  0.243730  0.748986  1
  Sr  Sr5  1  0.244381  0.000651  0.251014  1
  Sr  Sr6  1  0.333333  0.666667  0.000000  1
  Yb  Yb7  1  0.333333  0.666667  0.500000  1
  Yb  Yb8  1  0.666667  0.333333  0.000000  1
  Yb  Yb9  1  0.666667  0.333333  0.500000  1
  Bi  Bi10  1  0.397777  0.003204  0.746883  1
  Bi  Bi11  1  0.397777  0.394572  0.253117  1
  Bi  Bi12  1  0.996796  0.602223  0.253117  1
  Bi  Bi13  1  0.996796  0.394572  0.746883  1
  Bi  Bi14  1  0.605428  0.602223  0.746883  1
  Bi  Bi15  1  0.605428  0.003204  0.253117  1
  H  H16  1  0.000000  0.000000  0.500000  1
  H  H17  1  0.000000  0.000000  0.000000  1
