# generated using pymatgen
data_Cs8Na4SmEr3Sb8
_symmetry_space_group_name_H-M   'P 1'
_cell_length_a   11.66665665
_cell_length_b   11.66665612
_cell_length_c   7.59352558
_cell_angle_alpha   90.03432317
_cell_angle_beta   89.96567940
_cell_angle_gamma   100.00192152
_symmetry_Int_Tables_number   1
_chemical_formula_structural   Cs8Na4SmEr3Sb8
_chemical_formula_sum   'Cs8 Na4 Sm1 Er3 Sb8'
_cell_volume   1017.85293162
_cell_formula_units_Z   1
loop_
 _symmetry_equiv_pos_site_id
 _symmetry_equiv_pos_as_xyz
  1  'x, y, z'
loop_
 _atom_site_type_symbol
 _atom_site_label
 _atom_site_symmetry_multiplicity
 _atom_site_fract_x
 _atom_site_fract_y
 _atom_site_fract_z
 _atom_site_occupancy
  Cs  Cs0  1  0.071028  0.429479  0.250181  1
  Cs  Cs1  1  0.429479  0.071028  0.749819  1
  Cs  Cs2  1  0.928717  0.570945  0.749813  1
  Cs  Cs3  1  0.570945  0.928717  0.250187  1
  Cs  Cs4  1  0.676779  0.323315  0.213088  1
  Cs  Cs5  1  0.822718  0.176770  0.712773  1
  Cs  Cs6  1  0.323315  0.676779  0.786912  1
  Cs  Cs7  1  0.176770  0.822718  0.287227  1
  Na  Na8  1  0.382434  0.382434  0.000000  1
  Na  Na9  1  0.118226  0.118226  0.500000  1
  Na  Na10  1  0.618184  0.618184  0.000000  1
  Na  Na11  1  0.881422  0.881422  0.500000  1
  Sm  Sm12  1  0.131417  0.131417  0.000000  1
  Er  Er13  1  0.370285  0.370285  0.500000  1
  Er  Er14  1  0.868348  0.868348  0.000000  1
  Er  Er15  1  0.630466  0.630466  0.500000  1
  Sb  Sb16  1  0.840359  0.659438  0.249879  1
  Sb  Sb17  1  0.659438  0.840359  0.750121  1
  Sb  Sb18  1  0.159587  0.344296  0.745759  1
  Sb  Sb19  1  0.344296  0.159587  0.254241  1
  Sb  Sb20  1  0.901808  0.093456  0.211724  1
  Sb  Sb21  1  0.594957  0.405565  0.709400  1
  Sb  Sb22  1  0.093456  0.901808  0.788276  1
  Sb  Sb23  1  0.405565  0.594957  0.290600  1
