# generated using pymatgen
data_Sc8TaNb3Sn10
_symmetry_space_group_name_H-M   'P 1'
_cell_length_a   10.83441599
_cell_length_b   10.83441670
_cell_length_c   10.83511664
_cell_angle_alpha   148.96223831
_cell_angle_beta   131.67849158
_cell_angle_gamma   58.54183598
_symmetry_Int_Tables_number   1
_chemical_formula_structural   Sc8TaNb3Sn10
_chemical_formula_sum   'Sc8 Ta1 Nb3 Sn10'
_cell_volume   485.99697758
_cell_formula_units_Z   1
loop_
 _symmetry_equiv_pos_site_id
 _symmetry_equiv_pos_as_xyz
  1  'x, y, z'
loop_
 _atom_site_type_symbol
 _atom_site_label
 _atom_site_symmetry_multiplicity
 _atom_site_fract_x
 _atom_site_fract_y
 _atom_site_fract_z
 _atom_site_occupancy
  Sc  Sc0  1  0.674554  0.436088  0.238768  1
  Sc  Sc1  1  0.325308  0.564016  0.761313  1
  Sc  Sc2  1  0.197319  0.935786  0.261232  1
  Sc  Sc3  1  0.802704  0.063994  0.738687  1
  Sc  Sc4  1  0.259452  0.146499  0.113105  1
  Sc  Sc5  1  0.740583  0.853644  0.886795  1
  Sc  Sc6  1  0.033395  0.646349  0.386895  1
  Sc  Sc7  1  0.966849  0.353788  0.613205  1
  Ta  Ta8  1  0.307926  0.557926  0.250000  1
  Nb  Nb9  1  0.692105  0.442105  0.750000  1
  Nb  Nb10  1  0.692106  0.942106  0.250000  1
  Nb  Nb11  1  0.307816  0.057816  0.750000  1
  Sn  Sn12  1  0.587244  0.288413  0.299267  1
  Sn  Sn13  1  0.412518  0.711532  0.700480  1
  Sn  Sn14  1  0.989146  0.787977  0.200733  1
  Sn  Sn15  1  0.011052  0.212037  0.799520  1
  Sn  Sn16  1  0.999982  0.249982  0.250000  1
  Sn  Sn17  1  0.999988  0.749988  0.750000  1
  Sn  Sn18  1  0.469735  0.071006  0.398711  1
  Sn  Sn19  1  0.530269  0.928683  0.601031  1
  Sn  Sn20  1  0.672295  0.571023  0.101289  1
  Sn  Sn21  1  0.327653  0.429241  0.898969  1
