# generated using pymatgen
data_Lu4ScInPb2
_symmetry_space_group_name_H-M   'P 1'
_cell_length_a   6.41190704
_cell_length_b   8.78465030
_cell_length_c   8.81217517
_cell_angle_alpha   120.08977306
_cell_angle_beta   89.99040023
_cell_angle_gamma   90.00980653
_symmetry_Int_Tables_number   1
_chemical_formula_structural   Lu4ScInPb2
_chemical_formula_sum   'Lu8 Sc2 In2 Pb4'
_cell_volume   429.46903935
_cell_formula_units_Z   2
loop_
 _symmetry_equiv_pos_site_id
 _symmetry_equiv_pos_as_xyz
  1  'x, y, z'
loop_
 _atom_site_type_symbol
 _atom_site_label
 _atom_site_symmetry_multiplicity
 _atom_site_fract_x
 _atom_site_fract_y
 _atom_site_fract_z
 _atom_site_occupancy
  Lu  Lu0  1  0.748947  0.239381  0.005485  1
  Lu  Lu1  1  0.749063  0.760919  0.766451  1
  Lu  Lu2  1  0.749104  0.000025  0.234479  1
  Lu  Lu3  1  0.251468  0.764658  0.999326  1
  Lu  Lu4  1  0.251410  0.235159  0.234192  1
  Lu  Lu5  1  0.251135  0.999927  0.764554  1
  Lu  Lu6  1  0.995326  0.662994  0.329981  1
  Lu  Lu7  1  0.995318  0.337014  0.666764  1
  Sc  Sc8  1  0.504287  0.337190  0.667116  1
  Sc  Sc9  1  0.504298  0.662784  0.329928  1
  In  In10  1  0.744471  0.601953  0.001257  1
  In  In11  1  0.744412  0.398086  0.399188  1
  Pb  Pb12  1  0.744920  0.000125  0.605783  1
  Pb  Pb13  1  0.255254  0.398494  0.997828  1
  Pb  Pb14  1  0.255710  0.601334  0.599319  1
  Pb  Pb15  1  0.254876  0.999955  0.398349  1
