# generated using pymatgen
data_La2TmSbO7
_symmetry_space_group_name_H-M   'P 1'
_cell_length_a   6.63909200
_cell_length_b   6.60786088
_cell_length_c   7.72968300
_cell_angle_alpha   90.00000000
_cell_angle_beta   90.00000000
_cell_angle_gamma   109.43844377
_symmetry_Int_Tables_number   1
_chemical_formula_structural   La2TmSbO7
_chemical_formula_sum   'La4 Tm2 Sb2 O14'
_cell_volume   319.77371189
_cell_formula_units_Z   2
loop_
 _symmetry_equiv_pos_site_id
 _symmetry_equiv_pos_as_xyz
  1  'x, y, z'
loop_
 _atom_site_type_symbol
 _atom_site_label
 _atom_site_symmetry_multiplicity
 _atom_site_fract_x
 _atom_site_fract_y
 _atom_site_fract_z
 _atom_site_occupancy
  La  La0  1  0.525610  0.998372  0.750776  1
  La  La1  1  0.474390  0.001628  0.250776  1
  La  La2  1  0.503524  0.501396  0.500496  1
  La  La3  1  0.496476  0.498604  0.000496  1
  Tm  Tm4  1  0.998583  0.470752  0.749184  1
  Tm  Tm5  1  0.001417  0.529248  0.249184  1
  Sb  Sb6  1  0.999502  0.999941  0.499851  1
  Sb  Sb7  1  0.000498  0.000059  0.999851  1
  O  O8  1  0.650966  0.369002  0.750996  1
  O  O9  1  0.349034  0.630998  0.250996  1
  O  O10  1  0.950060  0.078655  0.750006  1
  O  O11  1  0.049940  0.921345  0.250006  1
  O  O12  1  0.956004  0.687494  0.534088  1
  O  O13  1  0.043996  0.312506  0.034088  1
  O  O14  1  0.319389  0.089413  0.977832  1
  O  O15  1  0.680611  0.910587  0.477832  1
  O  O16  1  0.350801  0.615424  0.748966  1
  O  O17  1  0.649199  0.384576  0.248966  1
  O  O18  1  0.961425  0.689519  0.964249  1
  O  O19  1  0.038575  0.310481  0.464249  1
  O  O20  1  0.318022  0.088857  0.523558  1
  O  O21  1  0.681978  0.911143  0.023558  1
