# generated using pymatgen
data_ErMgReH6
_symmetry_space_group_name_H-M   'P 1'
_cell_length_a   4.88288188
_cell_length_b   4.88286172
_cell_length_c   4.88288600
_cell_angle_alpha   119.99998004
_cell_angle_beta   119.99936061
_cell_angle_gamma   90.00061160
_symmetry_Int_Tables_number   1
_chemical_formula_structural   ErMgReH6
_chemical_formula_sum   'Er1 Mg1 Re1 H6'
_cell_volume   82.32168320
_cell_formula_units_Z   1
loop_
 _symmetry_equiv_pos_site_id
 _symmetry_equiv_pos_as_xyz
  1  'x, y, z'
loop_
 _atom_site_type_symbol
 _atom_site_label
 _atom_site_symmetry_multiplicity
 _atom_site_fract_x
 _atom_site_fract_y
 _atom_site_fract_z
 _atom_site_occupancy
  Er  Er0  1  0.749999  0.249999  0.500008  1
  Mg  Mg1  1  0.249998  0.749990  0.500011  1
  Re  Re2  1  0.000006  0.999987  0.999976  1
  H  H3  1  0.254843  0.254844  0.999994  1
  H  H4  1  0.745144  0.254860  0.999997  1
  H  H5  1  0.254844  0.745154  0.999994  1
  H  H6  1  0.745146  0.745147  0.999996  1
  H  H7  1  0.745160  0.745162  0.490316  1
  H  H8  1  0.254854  0.254853  0.509702  1
