# generated using pymatgen
data_Tb11Dy(TmRh3)2
_symmetry_space_group_name_H-M   'P 1'
_cell_length_a   9.82201121
_cell_length_b   9.82201050
_cell_length_c   6.18527617
_cell_angle_alpha   89.97662227
_cell_angle_beta   90.02337465
_cell_angle_gamma   120.00182646
_symmetry_Int_Tables_number   1
_chemical_formula_structural   Tb11Dy(TmRh3)2
_chemical_formula_sum   'Tb11 Dy1 Tm2 Rh6'
_cell_volume   516.75240344
_cell_formula_units_Z   1
loop_
 _symmetry_equiv_pos_site_id
 _symmetry_equiv_pos_as_xyz
  1  'x, y, z'
loop_
 _atom_site_type_symbol
 _atom_site_label
 _atom_site_symmetry_multiplicity
 _atom_site_fract_x
 _atom_site_fract_y
 _atom_site_fract_z
 _atom_site_occupancy
  Tb  Tb0  1  0.875810  0.751646  0.741186  1
  Tb  Tb1  1  0.248354  0.124190  0.741186  1
  Tb  Tb2  1  0.875833  0.124167  0.741184  1
  Tb  Tb3  1  0.124213  0.248332  0.241151  1
  Tb  Tb4  1  0.751668  0.875787  0.241151  1
  Tb  Tb5  1  0.124162  0.875838  0.241157  1
  Tb  Tb6  1  0.459091  0.918142  0.547796  1
  Tb  Tb7  1  0.081858  0.540909  0.547796  1
  Tb  Tb8  1  0.459110  0.540890  0.547783  1
  Tb  Tb9  1  0.540943  0.082006  0.047784  1
  Tb  Tb10  1  0.917994  0.459057  0.047784  1
  Dy  Dy11  1  0.540987  0.459013  0.047997  1
  Tm  Tm12  1  0.666630  0.333370  0.532975  1
  Tm  Tm13  1  0.333371  0.666629  0.033078  1
  Rh  Rh14  1  0.190539  0.380907  0.813657  1
  Rh  Rh15  1  0.619093  0.809461  0.813657  1
  Rh  Rh16  1  0.190408  0.809592  0.813600  1
  Rh  Rh17  1  0.809361  0.619004  0.313458  1
  Rh  Rh18  1  0.380996  0.190639  0.313458  1
  Rh  Rh19  1  0.809578  0.190422  0.313601  1
