# generated using pymatgen
data_Yb2PaRu2
_symmetry_space_group_name_H-M   'P 1'
_cell_length_a   5.98027101
_cell_length_b   5.98026980
_cell_length_c   5.98026856
_cell_angle_alpha   139.23732492
_cell_angle_beta   121.48646058
_cell_angle_gamma   73.75664666
_symmetry_Int_Tables_number   1
_chemical_formula_structural   Yb2PaRu2
_chemical_formula_sum   'Yb2 Pa1 Ru2'
_cell_volume   116.47704807
_cell_formula_units_Z   1
loop_
 _symmetry_equiv_pos_site_id
 _symmetry_equiv_pos_as_xyz
  1  'x, y, z'
loop_
 _atom_site_type_symbol
 _atom_site_label
 _atom_site_symmetry_multiplicity
 _atom_site_fract_x
 _atom_site_fract_y
 _atom_site_fract_z
 _atom_site_occupancy
  Yb  Yb0  1  0.695663  0.195664  0.500000  1
  Yb  Yb1  1  0.304336  0.804336  0.500000  1
  Pa  Pa2  1  0.000000  0.000000  0.000000  1
  Ru  Ru3  1  0.747048  0.500000  0.247048  1
  Ru  Ru4  1  0.252951  0.500000  0.752951  1
