# generated using pymatgen
data_CaU3F12
_symmetry_space_group_name_H-M   'P 1'
_cell_length_a   4.61958552
_cell_length_b   6.70764842
_cell_length_c   7.20601300
_cell_angle_alpha   90.00000000
_cell_angle_beta   90.00000000
_cell_angle_gamma   90.06461780
_symmetry_Int_Tables_number   1
_chemical_formula_structural   CaU3F12
_chemical_formula_sum   'Ca1 U3 F12'
_cell_volume   223.28937987
_cell_formula_units_Z   1
loop_
 _symmetry_equiv_pos_site_id
 _symmetry_equiv_pos_as_xyz
  1  'x, y, z'
loop_
 _atom_site_type_symbol
 _atom_site_label
 _atom_site_symmetry_multiplicity
 _atom_site_fract_x
 _atom_site_fract_y
 _atom_site_fract_z
 _atom_site_occupancy
  Ca  Ca0  1  0.043228  0.363441  0.250000  1
  U  U1  1  0.945749  0.628199  0.750000  1
  U  U2  1  0.436036  0.865125  0.250000  1
  U  U3  1  0.551337  0.137603  0.750000  1
  F  F4  1  0.085501  0.976287  0.750000  1
  F  F5  1  0.608328  0.546136  0.250000  1
  F  F6  1  0.419499  0.483450  0.750000  1
  F  F7  1  0.904524  0.010307  0.250000  1
  F  F8  1  0.374321  0.162182  0.062122  1
  F  F9  1  0.880346  0.333395  0.932101  1
  F  F10  1  0.127825  0.662974  0.441802  1
  F  F11  1  0.620407  0.836176  0.567934  1
  F  F12  1  0.620407  0.836176  0.932066  1
  F  F13  1  0.127825  0.662974  0.058198  1
  F  F14  1  0.880346  0.333395  0.567899  1
  F  F15  1  0.374321  0.162182  0.437878  1
