# generated using pymatgen
data_Lu10In3BiPb2
_symmetry_space_group_name_H-M   'P 1'
_cell_length_a   6.50563100
_cell_length_b   8.86974894
_cell_length_c   8.82167233
_cell_angle_alpha   119.87744426
_cell_angle_beta   90.00027186
_cell_angle_gamma   89.99931527
_symmetry_Int_Tables_number   1
_chemical_formula_structural   Lu10In3BiPb2
_chemical_formula_sum   'Lu10 In3 Bi1 Pb2'
_cell_volume   441.38474319
_cell_formula_units_Z   1
loop_
 _symmetry_equiv_pos_site_id
 _symmetry_equiv_pos_as_xyz
  1  'x, y, z'
loop_
 _atom_site_type_symbol
 _atom_site_label
 _atom_site_symmetry_multiplicity
 _atom_site_fract_x
 _atom_site_fract_y
 _atom_site_fract_z
 _atom_site_occupancy
  Lu  Lu0  1  0.495976  0.326595  0.659656  1
  Lu  Lu1  1  0.495921  0.672963  0.343059  1
  Lu  Lu2  1  0.004075  0.672963  0.343053  1
  Lu  Lu3  1  0.004020  0.326572  0.659655  1
  Lu  Lu4  1  0.750032  0.227855  0.995612  1
  Lu  Lu5  1  0.750002  0.770967  0.760377  1
  Lu  Lu6  1  0.749975  0.005143  0.240489  1
  Lu  Lu7  1  0.249985  0.767090  0.000412  1
  Lu  Lu8  1  0.249997  0.233130  0.238212  1
  Lu  Lu9  1  0.250005  0.995392  0.760627  1
  In  In10  1  0.749970  0.002371  0.600069  1
  In  In11  1  0.249993  0.601846  0.604888  1
  In  In12  1  0.250007  0.997765  0.396231  1
  Bi  Bi13  1  0.750008  0.605395  0.999785  1
  Pb  Pb14  1  0.749994  0.399319  0.398491  1
  Pb  Pb15  1  0.250042  0.394642  0.999382  1
