# generated using pymatgen
data_Dy12In2Tc2NiAu
_symmetry_space_group_name_H-M   'P 1'
_cell_length_a   8.53568679
_cell_length_b   8.53758203
_cell_length_c   8.53568644
_cell_angle_alpha   113.90687074
_cell_angle_beta   111.26197124
_cell_angle_gamma   103.41334857
_symmetry_Int_Tables_number   1
_chemical_formula_structural   Dy12In2Tc2NiAu
_chemical_formula_sum   'Dy12 In2 Tc2 Ni1 Au1'
_cell_volume   474.65303609
_cell_formula_units_Z   1
loop_
 _symmetry_equiv_pos_site_id
 _symmetry_equiv_pos_as_xyz
  1  'x, y, z'
loop_
 _atom_site_type_symbol
 _atom_site_label
 _atom_site_symmetry_multiplicity
 _atom_site_fract_x
 _atom_site_fract_y
 _atom_site_fract_z
 _atom_site_occupancy
  Dy  Dy0  1  0.435613  0.239144  0.196775  1
  Dy  Dy1  1  0.561684  0.759918  0.801232  1
  Dy  Dy2  1  0.042370  0.239144  0.803529  1
  Dy  Dy3  1  0.958685  0.759918  0.198236  1
  Dy  Dy4  1  0.189749  0.285011  0.466996  1
  Dy  Dy5  1  0.818356  0.722923  0.532757  1
  Dy  Dy6  1  0.190165  0.722923  0.904566  1
  Dy  Dy7  1  0.818015  0.285011  0.095262  1
  Dy  Dy8  1  0.331835  0.647359  0.315525  1
  Dy  Dy9  1  0.657648  0.345367  0.687718  1
  Dy  Dy10  1  0.331927  0.016327  0.684401  1
  Dy  Dy11  1  0.657833  0.970229  0.312394  1
  In  In12  1  0.499379  0.499976  0.000597  1
  In  In13  1  0.999121  0.999079  0.999958  1
  Tc  Tc14  1  0.322860  0.000153  0.322562  1
  Tc  Tc15  1  0.677591  0.000153  0.677293  1
  Ni  Ni16  1  0.128210  0.628316  0.500107  1
  Au  Au17  1  0.878957  0.379048  0.500091  1
