# generated using pymatgen
data_ErPa(CoB4)2
_symmetry_space_group_name_H-M   'P 1'
_cell_length_a   3.39953800
_cell_length_b   5.91777560
_cell_length_c   11.47668802
_cell_angle_alpha   89.89271602
_cell_angle_beta   90.00000000
_cell_angle_gamma   90.00000000
_symmetry_Int_Tables_number   1
_chemical_formula_structural   ErPa(CoB4)2
_chemical_formula_sum   'Er2 Pa2 Co4 B16'
_cell_volume   230.88419652
_cell_formula_units_Z   2
loop_
 _symmetry_equiv_pos_site_id
 _symmetry_equiv_pos_as_xyz
  1  'x, y, z'
loop_
 _atom_site_type_symbol
 _atom_site_label
 _atom_site_symmetry_multiplicity
 _atom_site_fract_x
 _atom_site_fract_y
 _atom_site_fract_z
 _atom_site_occupancy
  Er  Er0  1  0.500000  0.127829  0.647818  1
  Er  Er1  1  0.500000  0.872171  0.352182  1
  Pa  Pa2  1  0.500000  0.372570  0.151955  1
  Pa  Pa3  1  0.500000  0.627430  0.848045  1
  Co  Co4  1  0.500000  0.365694  0.410034  1
  Co  Co5  1  0.500000  0.634306  0.589966  1
  Co  Co6  1  0.500000  0.134355  0.909640  1
  Co  Co7  1  0.500000  0.865645  0.090360  1
  B  B8  1  0.000000  0.110665  0.046323  1
  B  B9  1  0.000000  0.889335  0.953677  1
  B  B10  1  0.000000  0.386456  0.545182  1
  B  B11  1  0.000000  0.613544  0.454818  1
  B  B12  1  0.000000  0.137454  0.467277  1
  B  B13  1  0.000000  0.862546  0.532723  1
  B  B14  1  0.000000  0.361303  0.965554  1
  B  B15  1  0.000000  0.638697  0.034446  1
  B  B16  1  0.000000  0.020453  0.191659  1
  B  B17  1  0.000000  0.979547  0.808341  1
  B  B18  1  0.000000  0.475670  0.688379  1
  B  B19  1  0.000000  0.524330  0.311621  1
  B  B20  1  0.000000  0.216052  0.316704  1
  B  B21  1  0.000000  0.783948  0.683296  1
  B  B22  1  0.000000  0.281459  0.813755  1
  B  B23  1  0.000000  0.718541  0.186245  1
