# generated using pymatgen
data_Y2Tm8In8CuPt3
_symmetry_space_group_name_H-M   'P 1'
_cell_length_a   3.58038800
_cell_length_b   8.08221430
_cell_length_c   18.11600000
_cell_angle_alpha   90.03245399
_cell_angle_beta   90.00000000
_cell_angle_gamma   90.00000000
_symmetry_Int_Tables_number   1
_chemical_formula_structural   Y2Tm8In8CuPt3
_chemical_formula_sum   'Y2 Tm8 In8 Cu1 Pt3'
_cell_volume   524.23099707
_cell_formula_units_Z   1
loop_
 _symmetry_equiv_pos_site_id
 _symmetry_equiv_pos_as_xyz
  1  'x, y, z'
loop_
 _atom_site_type_symbol
 _atom_site_label
 _atom_site_symmetry_multiplicity
 _atom_site_fract_x
 _atom_site_fract_y
 _atom_site_fract_z
 _atom_site_occupancy
  Y  Y0  1  0.000000  0.999265  0.000567  1
  Y  Y1  1  0.000000  0.499338  0.499366  1
  Tm  Tm2  1  0.000000  0.117560  0.414632  1
  Tm  Tm3  1  0.000000  0.883840  0.584193  1
  Tm  Tm4  1  0.000000  0.383536  0.915384  1
  Tm  Tm5  1  0.000000  0.617603  0.085654  1
  Tm  Tm6  1  0.000000  0.248085  0.219984  1
  Tm  Tm7  1  0.000000  0.757270  0.778901  1
  Tm  Tm8  1  0.000000  0.256667  0.720944  1
  Tm  Tm9  1  0.000000  0.735206  0.279914  1
  In  In10  1  0.500000  0.418631  0.351516  1
  In  In11  1  0.500000  0.577936  0.648224  1
  In  In12  1  0.500000  0.077480  0.851399  1
  In  In13  1  0.500000  0.924671  0.152130  1
  In  In14  1  0.500000  0.294008  0.067139  1
  In  In15  1  0.500000  0.706915  0.933121  1
  In  In16  1  0.500000  0.206729  0.566501  1
  In  In17  1  0.500000  0.795554  0.431551  1
  Cu  Cu18  1  0.500000  0.024019  0.302103  1
  Pt  Pt19  1  0.500000  0.975074  0.695727  1
  Pt  Pt20  1  0.500000  0.475059  0.803834  1
  Pt  Pt21  1  0.500000  0.525553  0.197214  1
