# generated using pymatgen
data_Ca3Ga2Sn2GeO12
_symmetry_space_group_name_H-M   'P 1'
_cell_length_a   11.01731114
_cell_length_b   11.01731118
_cell_length_c   11.01731173
_cell_angle_alpha   109.21475717
_cell_angle_beta   109.21475488
_cell_angle_gamma   109.98537216
_symmetry_Int_Tables_number   1
_chemical_formula_structural   Ca3Ga2Sn2GeO12
_chemical_formula_sum   'Ca12 Ga8 Sn8 Ge4 O48'
_cell_volume   1029.38715311
_cell_formula_units_Z   4
loop_
 _symmetry_equiv_pos_site_id
 _symmetry_equiv_pos_as_xyz
  1  'x, y, z'
loop_
 _atom_site_type_symbol
 _atom_site_label
 _atom_site_symmetry_multiplicity
 _atom_site_fract_x
 _atom_site_fract_y
 _atom_site_fract_z
 _atom_site_occupancy
  Ca  Ca0  1  0.750000  0.750000  0.000000  1
  Ca  Ca1  1  0.875000  0.250147  0.875147  1
  Ca  Ca2  1  0.500147  0.125000  0.875147  1
  Ca  Ca3  1  0.250000  0.250000  0.000000  1
  Ca  Ca4  1  0.875000  0.750147  0.375147  1
  Ca  Ca5  1  0.249853  0.625000  0.124853  1
  Ca  Ca6  1  0.000147  0.125000  0.375147  1
  Ca  Ca7  1  0.000000  0.500000  0.500000  1
  Ca  Ca8  1  0.375000  0.999853  0.124853  1
  Ca  Ca9  1  0.749853  0.625000  0.624853  1
  Ca  Ca10  1  0.375000  0.499853  0.624853  1
  Ca  Ca11  1  0.500000  0.000000  0.500000  1
  Ga  Ga12  1  0.000468  0.625000  0.875468  1
  Ga  Ga13  1  0.375000  0.750468  0.875468  1
  Ga  Ga14  1  0.875000  0.499532  0.124532  1
  Ga  Ga15  1  0.749532  0.125000  0.124532  1
  Ga  Ga16  1  0.500468  0.625000  0.375468  1
  Ga  Ga17  1  0.375000  0.250468  0.375468  1
  Ga  Ga18  1  0.875000  0.999532  0.624532  1
  Ga  Ga19  1  0.249532  0.125000  0.624532  1
  Sn  Sn20  1  0.125000  0.375000  0.750000  1
  Sn  Sn21  1  0.625000  0.875000  0.250000  1
  Sn  Sn22  1  0.125000  0.875000  0.750000  1
  Sn  Sn23  1  0.625000  0.375000  0.250000  1
  Sn  Sn24  1  0.125000  0.375000  0.250000  1
  Sn  Sn25  1  0.125000  0.875000  0.250000  1
  Sn  Sn26  1  0.625000  0.875000  0.750000  1
  Sn  Sn27  1  0.625000  0.375000  0.750000  1
  Ge  Ge28  1  0.000000  0.000000  0.000000  1
  Ge  Ge29  1  0.500000  0.500000  0.000000  1
  Ge  Ge30  1  0.250000  0.750000  0.500000  1
  Ge  Ge31  1  0.750000  0.250000  0.500000  1
  O  O32  1  0.815900  0.858494  0.854082  1
  O  O33  1  0.027397  0.194395  0.775380  1
  O  O34  1  0.045268  0.474668  0.872998  1
  O  O35  1  0.805605  0.580985  0.833001  1
  O  O36  1  0.527397  0.752017  0.833001  1
  O  O37  1  0.538182  0.495587  0.854082  1
  O  O38  1  0.724668  0.351670  0.929401  1
  O  O39  1  0.919015  0.694395  0.166999  1
  O  O40  1  0.025332  0.454732  0.127002  1
  O  O41  1  0.038182  0.184100  0.042595  1
  O  O42  1  0.422269  0.795268  0.070599  1
  O  O43  1  0.247983  0.080985  0.775380  1
  O  O44  1  0.704732  0.077731  0.929401  1
  O  O45  1  0.315900  0.461818  0.957405  1
  O  O46  1  0.641506  0.684100  0.145918  1
  O  O47  1  0.504413  0.358494  0.042595  1
  O  O48  1  0.148330  0.775332  0.070599  1
  O  O49  1  0.327731  0.898330  0.872998  1
  O  O50  1  0.004413  0.961818  0.145918  1
  O  O51  1  0.830985  0.497983  0.275380  1
  O  O52  1  0.944395  0.277397  0.275380  1
  O  O53  1  0.601670  0.172269  0.127002  1
  O  O54  1  0.502017  0.777397  0.333001  1
  O  O55  1  0.141506  0.995587  0.957405  1
  O  O56  1  0.108494  0.754413  0.542595  1
  O  O57  1  0.747983  0.972603  0.166999  1
  O  O58  1  0.648330  0.577731  0.372998  1
  O  O59  1  0.305605  0.472603  0.224620  1
  O  O60  1  0.419015  0.252017  0.224620  1
  O  O61  1  0.245587  0.788182  0.354082  1
  O  O62  1  0.922269  0.851670  0.627002  1
  O  O63  1  0.101670  0.974668  0.429401  1
  O  O64  1  0.745587  0.391506  0.457405  1
  O  O65  1  0.608494  0.065900  0.354082  1
  O  O66  1  0.934100  0.288182  0.542595  1
  O  O67  1  0.545268  0.672269  0.570599  1
  O  O68  1  0.002017  0.669015  0.724620  1
  O  O69  1  0.827731  0.954732  0.429401  1
  O  O70  1  0.224668  0.295268  0.372998  1
  O  O71  1  0.211818  0.565900  0.457405  1
  O  O72  1  0.330985  0.055605  0.333001  1
  O  O73  1  0.525332  0.398330  0.570599  1
  O  O74  1  0.711818  0.254413  0.645918  1
  O  O75  1  0.722603  0.997983  0.666999  1
  O  O76  1  0.444395  0.169015  0.666999  1
  O  O77  1  0.204732  0.275332  0.627002  1
  O  O78  1  0.222603  0.555605  0.724620  1
  O  O79  1  0.434100  0.891506  0.645918  1
