# generated using pymatgen
data_Pa4Tc3B16Os
_symmetry_space_group_name_H-M   'P 1'
_cell_length_a   3.64836600
_cell_length_b   5.97239767
_cell_length_c   11.60422405
_cell_angle_alpha   89.99569358
_cell_angle_beta   90.00000000
_cell_angle_gamma   90.00000000
_symmetry_Int_Tables_number   1
_chemical_formula_structural   Pa4Tc3B16Os
_chemical_formula_sum   'Pa4 Tc3 B16 Os1'
_cell_volume   252.85015344
_cell_formula_units_Z   1
loop_
 _symmetry_equiv_pos_site_id
 _symmetry_equiv_pos_as_xyz
  1  'x, y, z'
loop_
 _atom_site_type_symbol
 _atom_site_label
 _atom_site_symmetry_multiplicity
 _atom_site_fract_x
 _atom_site_fract_y
 _atom_site_fract_z
 _atom_site_occupancy
  Pa  Pa0  1  0.000000  0.628069  0.349547  1
  Pa  Pa1  1  0.000000  0.371183  0.649930  1
  Pa  Pa2  1  0.000000  0.127812  0.150079  1
  Pa  Pa3  1  0.000000  0.871876  0.850960  1
  Tc  Tc4  1  0.000000  0.638782  0.093780  1
  Tc  Tc5  1  0.000000  0.361117  0.905514  1
  Tc  Tc6  1  0.000000  0.139512  0.406750  1
  B  B7  1  0.500000  0.788367  0.187546  1
  B  B8  1  0.500000  0.210630  0.812328  1
  B  B9  1  0.500000  0.288089  0.312338  1
  B  B10  1  0.500000  0.711203  0.688132  1
  B  B11  1  0.500000  0.864988  0.032116  1
  B  B12  1  0.500000  0.134788  0.967880  1
  B  B13  1  0.500000  0.365853  0.467860  1
  B  B14  1  0.500000  0.635663  0.531303  1
  B  B15  1  0.500000  0.888167  0.453161  1
  B  B16  1  0.500000  0.113573  0.545270  1
  B  B17  1  0.500000  0.387062  0.045779  1
  B  B18  1  0.500000  0.612577  0.954428  1
  B  B19  1  0.500000  0.974711  0.307960  1
  B  B20  1  0.500000  0.027473  0.691374  1
  B  B21  1  0.500000  0.473834  0.191431  1
  B  B22  1  0.500000  0.527422  0.808487  1
  Os  Os23  1  0.000000  0.857248  0.596047  1
