# generated using pymatgen
data_Yb2Pd(PtO4)2
_symmetry_space_group_name_H-M   'P 1'
_cell_length_a   6.22511479
_cell_length_b   6.22511313
_cell_length_c   6.22439918
_cell_angle_alpha   60.35988125
_cell_angle_beta   60.35988704
_cell_angle_gamma   60.67889806
_symmetry_Int_Tables_number   1
_chemical_formula_structural   Yb2Pd(PtO4)2
_chemical_formula_sum   'Yb2 Pd1 Pt2 O8'
_cell_volume   172.35393953
_cell_formula_units_Z   1
loop_
 _symmetry_equiv_pos_site_id
 _symmetry_equiv_pos_as_xyz
  1  'x, y, z'
loop_
 _atom_site_type_symbol
 _atom_site_label
 _atom_site_symmetry_multiplicity
 _atom_site_fract_x
 _atom_site_fract_y
 _atom_site_fract_z
 _atom_site_occupancy
  Yb  Yb0  1  0.853351  0.853351  0.854919  1
  Yb  Yb1  1  0.146649  0.146649  0.145081  1
  Pd  Pd2  1  0.500000  0.500000  0.000000  1
  Pt  Pt3  1  0.000000  0.500000  0.500000  1
  Pt  Pt4  1  0.500000  0.000000  0.500000  1
  O  O5  1  0.602711  0.602711  0.602132  1
  O  O6  1  0.397289  0.397289  0.397868  1
  O  O7  1  0.111006  0.111006  0.559225  1
  O  O8  1  0.559223  0.111051  0.110086  1
  O  O9  1  0.111051  0.559223  0.110086  1
  O  O10  1  0.440777  0.888949  0.889914  1
  O  O11  1  0.888994  0.888994  0.440775  1
  O  O12  1  0.888949  0.440777  0.889914  1
