# generated using pymatgen
data_AcYb6Co4Sn13
_symmetry_space_group_name_H-M   'P 1'
_cell_length_a   11.20194343
_cell_length_b   11.20302043
_cell_length_c   4.63327000
_cell_angle_alpha   90.00000000
_cell_angle_beta   90.00000000
_cell_angle_gamma   89.96832552
_symmetry_Int_Tables_number   1
_chemical_formula_structural   AcYb6Co4Sn13
_chemical_formula_sum   'Ac1 Yb6 Co4 Sn13'
_cell_volume   581.45491466
_cell_formula_units_Z   1
loop_
 _symmetry_equiv_pos_site_id
 _symmetry_equiv_pos_as_xyz
  1  'x, y, z'
loop_
 _atom_site_type_symbol
 _atom_site_label
 _atom_site_symmetry_multiplicity
 _atom_site_fract_x
 _atom_site_fract_y
 _atom_site_fract_z
 _atom_site_occupancy
  Ac  Ac0  1  0.500000  0.000000  0.500000  1
  Yb  Yb1  1  0.000000  0.000000  0.000000  1
  Yb  Yb2  1  0.336519  0.668921  0.500000  1
  Yb  Yb3  1  0.663481  0.331079  0.500000  1
  Yb  Yb4  1  0.327043  0.339955  0.500000  1
  Yb  Yb5  1  0.672957  0.660045  0.500000  1
  Yb  Yb6  1  0.000000  0.500000  0.500000  1
  Co  Co7  1  0.118517  0.723723  0.000000  1
  Co  Co8  1  0.881483  0.276277  0.000000  1
  Co  Co9  1  0.276134  0.119138  0.000000  1
  Co  Co10  1  0.723866  0.880862  0.000000  1
  Sn  Sn11  1  0.280882  0.886938  0.000000  1
  Sn  Sn12  1  0.719118  0.113062  0.000000  1
  Sn  Sn13  1  0.110849  0.282171  0.000000  1
  Sn  Sn14  1  0.889151  0.717829  0.000000  1
  Sn  Sn15  1  0.076304  0.804105  0.500000  1
  Sn  Sn16  1  0.923696  0.195895  0.500000  1
  Sn  Sn17  1  0.190706  0.079301  0.500000  1
  Sn  Sn18  1  0.809294  0.920699  0.500000  1
  Sn  Sn19  1  0.521291  0.777662  0.000000  1
  Sn  Sn20  1  0.478709  0.222338  0.000000  1
  Sn  Sn21  1  0.213397  0.520790  0.000000  1
  Sn  Sn22  1  0.786603  0.479210  0.000000  1
  Sn  Sn23  1  0.500000  0.500000  0.000000  1
