# generated using pymatgen
data_Dy7Hf9(Si4Mo)4
_symmetry_space_group_name_H-M   'P 1'
_cell_length_a   7.13643658
_cell_length_b   7.13153480
_cell_length_c   13.03469979
_cell_angle_alpha   90.12896015
_cell_angle_beta   90.03520942
_cell_angle_gamma   89.97019966
_symmetry_Int_Tables_number   1
_chemical_formula_structural   Dy7Hf9(Si4Mo)4
_chemical_formula_sum   'Dy7 Hf9 Si16 Mo4'
_cell_volume   663.38280280
_cell_formula_units_Z   1
loop_
 _symmetry_equiv_pos_site_id
 _symmetry_equiv_pos_as_xyz
  1  'x, y, z'
loop_
 _atom_site_type_symbol
 _atom_site_label
 _atom_site_symmetry_multiplicity
 _atom_site_fract_x
 _atom_site_fract_y
 _atom_site_fract_z
 _atom_site_occupancy
  Dy  Dy0  1  0.499158  0.154625  0.533563  1
  Dy  Dy1  1  0.501124  0.846158  0.035766  1
  Dy  Dy2  1  0.655727  0.001966  0.283272  1
  Dy  Dy3  1  0.345729  0.998720  0.785225  1
  Dy  Dy4  1  0.845359  0.501101  0.966399  1
  Dy  Dy5  1  0.153599  0.498560  0.465663  1
  Dy  Dy6  1  0.001038  0.654732  0.715262  1
  Hf  Hf7  1  0.004953  0.347918  0.215156  1
  Hf  Hf8  1  0.493628  0.354109  0.124902  1
  Hf  Hf9  1  0.505866  0.646003  0.623256  1
  Hf  Hf10  1  0.853979  0.007648  0.875607  1
  Hf  Hf11  1  0.143201  0.993593  0.371924  1
  Hf  Hf12  1  0.646049  0.504081  0.374109  1
  Hf  Hf13  1  0.353707  0.494095  0.877547  1
  Hf  Hf14  1  0.005708  0.855112  0.127180  1
  Hf  Hf15  1  0.993294  0.146273  0.625177  1
  Si  Si16  1  0.802432  0.145462  0.072044  1
  Si  Si17  1  0.202687  0.860260  0.566244  1
  Si  Si18  1  0.639828  0.702578  0.816971  1
  Si  Si19  1  0.353841  0.299340  0.315894  1
  Si  Si20  1  0.860837  0.205202  0.429895  1
  Si  Si21  1  0.139278  0.796438  0.933959  1
  Si  Si22  1  0.708920  0.635862  0.181461  1
  Si  Si23  1  0.297741  0.359870  0.683287  1
  Si  Si24  1  0.552901  0.205609  0.934601  1
  Si  Si25  1  0.447655  0.794554  0.432841  1
  Si  Si26  1  0.704912  0.948006  0.683849  1
  Si  Si27  1  0.292948  0.055445  0.183403  1
  Si  Si28  1  0.795155  0.448417  0.565454  1
  Si  Si29  1  0.201576  0.548661  0.068553  1
  Si  Si30  1  0.950022  0.698106  0.314758  1
  Si  Si31  1  0.052127  0.295353  0.816266  1
  Mo  Mo32  1  0.676306  0.323405  0.750027  1
  Mo  Mo33  1  0.320386  0.672842  0.249933  1
  Mo  Mo34  1  0.824059  0.821999  0.498511  1
  Mo  Mo35  1  0.174268  0.177894  0.002040  1
