# generated using pymatgen
data_YLu2(P2Rh3)3
_symmetry_space_group_name_H-M   'P 1'
_cell_length_a   3.90456500
_cell_length_b   11.18477400
_cell_length_c   12.72641500
_cell_angle_alpha   90.00000000
_cell_angle_beta   90.00000000
_cell_angle_gamma   90.00000000
_symmetry_Int_Tables_number   1
_chemical_formula_structural   YLu2(P2Rh3)3
_chemical_formula_sum   'Y2 Lu4 P12 Rh18'
_cell_volume   555.78388644
_cell_formula_units_Z   2
loop_
 _symmetry_equiv_pos_site_id
 _symmetry_equiv_pos_as_xyz
  1  'x, y, z'
loop_
 _atom_site_type_symbol
 _atom_site_label
 _atom_site_symmetry_multiplicity
 _atom_site_fract_x
 _atom_site_fract_y
 _atom_site_fract_z
 _atom_site_occupancy
  Y  Y0  1  0.000000  0.500000  0.521250  1
  Y  Y1  1  0.500000  0.000000  0.478750  1
  Lu  Lu2  1  0.500000  0.814500  0.205061  1
  Lu  Lu3  1  0.500000  0.185500  0.205061  1
  Lu  Lu4  1  0.000000  0.685500  0.794939  1
  Lu  Lu5  1  0.000000  0.314500  0.794939  1
  P  P6  1  0.500000  0.500000  0.877836  1
  P  P7  1  0.000000  0.000000  0.122164  1
  P  P8  1  0.500000  0.500000  0.351484  1
  P  P9  1  0.000000  0.000000  0.648516  1
  P  P10  1  0.500000  0.315648  0.619986  1
  P  P11  1  0.500000  0.684352  0.619986  1
  P  P12  1  0.000000  0.184352  0.380014  1
  P  P13  1  0.000000  0.815648  0.380014  1
  P  P14  1  0.500000  0.845994  0.892338  1
  P  P15  1  0.500000  0.154006  0.892338  1
  P  P16  1  0.000000  0.654006  0.107662  1
  P  P17  1  0.000000  0.345994  0.107662  1
  Rh  Rh18  1  0.500000  0.500000  0.169415  1
  Rh  Rh19  1  0.000000  0.000000  0.830585  1
  Rh  Rh20  1  0.500000  0.500000  0.702775  1
  Rh  Rh21  1  0.000000  0.000000  0.297225  1
  Rh  Rh22  1  0.000000  0.500000  0.977636  1
  Rh  Rh23  1  0.500000  0.000000  0.022364  1
  Rh  Rh24  1  0.500000  0.333880  0.993382  1
  Rh  Rh25  1  0.500000  0.666120  0.993382  1
  Rh  Rh26  1  0.000000  0.166120  0.006618  1
  Rh  Rh27  1  0.000000  0.833880  0.006618  1
  Rh  Rh28  1  0.500000  0.293531  0.430457  1
  Rh  Rh29  1  0.500000  0.706469  0.430457  1
  Rh  Rh30  1  0.000000  0.206469  0.569543  1
  Rh  Rh31  1  0.000000  0.793531  0.569543  1
  Rh  Rh32  1  0.500000  0.871451  0.712050  1
  Rh  Rh33  1  0.500000  0.128549  0.712050  1
  Rh  Rh34  1  0.000000  0.628549  0.287950  1
  Rh  Rh35  1  0.000000  0.371451  0.287950  1
