# generated using pymatgen
data_Li2DyCuAs2
_symmetry_space_group_name_H-M   'P 1'
_cell_length_a   4.15815200
_cell_length_b   4.15815004
_cell_length_c   6.72177100
_cell_angle_alpha   90.00000000
_cell_angle_beta   90.00000000
_cell_angle_gamma   120.00001560
_symmetry_Int_Tables_number   1
_chemical_formula_structural   Li2DyCuAs2
_chemical_formula_sum   'Li2 Dy1 Cu1 As2'
_cell_volume   100.65023490
_cell_formula_units_Z   1
loop_
 _symmetry_equiv_pos_site_id
 _symmetry_equiv_pos_as_xyz
  1  'x, y, z'
loop_
 _atom_site_type_symbol
 _atom_site_label
 _atom_site_symmetry_multiplicity
 _atom_site_fract_x
 _atom_site_fract_y
 _atom_site_fract_z
 _atom_site_occupancy
  Li  Li0  1  0.000000  0.000000  0.506135  1
  Li  Li1  1  0.333333  0.666667  0.645383  1
  Dy  Dy2  1  0.000000  0.000000  0.003655  1
  Cu  Cu3  1  0.666667  0.333333  0.353839  1
  As  As4  1  0.333333  0.666667  0.249658  1
  As  As5  1  0.666667  0.333333  0.741331  1
