# generated using pymatgen
data_HoEr7Os3WC8
_symmetry_space_group_name_H-M   'P 1'
_cell_length_a   5.06713400
_cell_length_b   6.50693666
_cell_length_c   9.75154445
_cell_angle_alpha   89.63599276
_cell_angle_beta   90.00000000
_cell_angle_gamma   90.00000000
_symmetry_Int_Tables_number   1
_chemical_formula_structural   HoEr7Os3WC8
_chemical_formula_sum   'Ho1 Er7 Os3 W1 C8'
_cell_volume   321.51675402
_cell_formula_units_Z   1
loop_
 _symmetry_equiv_pos_site_id
 _symmetry_equiv_pos_as_xyz
  1  'x, y, z'
loop_
 _atom_site_type_symbol
 _atom_site_label
 _atom_site_symmetry_multiplicity
 _atom_site_fract_x
 _atom_site_fract_y
 _atom_site_fract_z
 _atom_site_occupancy
  Ho  Ho0  1  0.750000  0.968949  0.715983  1
  Er  Er1  1  0.250000  0.677465  0.554774  1
  Er  Er2  1  0.750000  0.323394  0.444014  1
  Er  Er3  1  0.750000  0.825277  0.056109  1
  Er  Er4  1  0.250000  0.179573  0.943679  1
  Er  Er5  1  0.250000  0.532816  0.214187  1
  Er  Er6  1  0.750000  0.465706  0.780403  1
  Er  Er7  1  0.250000  0.030771  0.285249  1
  Os  Os8  1  0.750000  0.281152  0.134285  1
  Os  Os9  1  0.750000  0.779547  0.365072  1
  Os  Os10  1  0.250000  0.221812  0.631226  1
  W  W11  1  0.250000  0.718870  0.868885  1
  C  C12  1  0.250000  0.450915  0.759563  1
  C  C13  1  0.750000  0.545092  0.242051  1
  C  C14  1  0.750000  0.046200  0.259216  1
  C  C15  1  0.250000  0.955803  0.739998  1
  C  C16  1  0.250000  0.826271  0.058872  1
  C  C17  1  0.750000  0.173932  0.948793  1
  C  C18  1  0.750000  0.671006  0.552064  1
  C  C19  1  0.250000  0.325449  0.445579  1
