# generated using pymatgen
data_Tb2SO6
_symmetry_space_group_name_H-M   'P 1'
_cell_length_a   4.18990600
_cell_length_b   7.10780348
_cell_length_c   8.11365783
_cell_angle_alpha   106.95816090
_cell_angle_beta   90.00000000
_cell_angle_gamma   107.14194731
_symmetry_Int_Tables_number   1
_chemical_formula_structural   Tb2SO6
_chemical_formula_sum   'Tb4 S2 O12'
_cell_volume   219.88012569
_cell_formula_units_Z   2
loop_
 _symmetry_equiv_pos_site_id
 _symmetry_equiv_pos_as_xyz
  1  'x, y, z'
loop_
 _atom_site_type_symbol
 _atom_site_label
 _atom_site_symmetry_multiplicity
 _atom_site_fract_x
 _atom_site_fract_y
 _atom_site_fract_z
 _atom_site_occupancy
  Tb  Tb0  1  0.678769  0.342785  0.585097  1
  Tb  Tb1  1  0.321231  0.657215  0.414903  1
  Tb  Tb2  1  0.335983  0.657215  0.914903  1
  Tb  Tb3  1  0.664017  0.342785  0.085097  1
  S  S4  1  0.941304  0.000000  0.750000  1
  S  S5  1  0.058696  0.000000  0.250000  1
  O  O6  1  0.771146  0.507893  0.877029  1
  O  O7  1  0.228854  0.492107  0.122971  1
  O  O8  1  0.263253  0.492107  0.622971  1
  O  O9  1  0.736747  0.507893  0.377029  1
  O  O10  1  0.728644  0.997311  0.600186  1
  O  O11  1  0.271356  0.002689  0.399814  1
  O  O12  1  0.731333  0.002689  0.899814  1
  O  O13  1  0.268667  0.997311  0.100186  1
  O  O14  1  0.234222  0.188784  0.795965  1
  O  O15  1  0.765778  0.811216  0.204035  1
  O  O16  1  0.045437  0.811216  0.704035  1
  O  O17  1  0.954563  0.188784  0.295965  1
