# generated using pymatgen
data_TmU2Co2Sn3Ir
_symmetry_space_group_name_H-M   'P 1'
_cell_length_a   7.36849839
_cell_length_b   7.29060305
_cell_length_c   3.91167100
_cell_angle_alpha   90.00000000
_cell_angle_beta   90.00000000
_cell_angle_gamma   121.42216631
_symmetry_Int_Tables_number   1
_chemical_formula_structural   TmU2Co2Sn3Ir
_chemical_formula_sum   'Tm1 U2 Co2 Sn3 Ir1'
_cell_volume   179.32115819
_cell_formula_units_Z   1
loop_
 _symmetry_equiv_pos_site_id
 _symmetry_equiv_pos_as_xyz
  1  'x, y, z'
loop_
 _atom_site_type_symbol
 _atom_site_label
 _atom_site_symmetry_multiplicity
 _atom_site_fract_x
 _atom_site_fract_y
 _atom_site_fract_z
 _atom_site_occupancy
  Tm  Tm0  1  0.408358  0.410851  0.500000  1
  U  U1  1  0.591019  0.010808  0.500000  1
  U  U2  1  0.990369  0.579084  0.500000  1
  Co  Co3  1  0.686503  0.329967  0.000000  1
  Co  Co4  1  0.991146  0.988338  0.500000  1
  Sn  Sn5  1  0.745007  0.738311  0.000000  1
  Sn  Sn6  1  0.253164  0.014179  0.000000  1
  Sn  Sn7  1  0.001874  0.245259  0.000000  1
  Ir  Ir8  1  0.332560  0.683203  0.000000  1
