# generated using pymatgen
data_Tm5Nb3(Co4P3)4
_symmetry_space_group_name_H-M   'P 1'
_cell_length_a   12.17245500
_cell_length_b   12.17245366
_cell_length_c   3.68884600
_cell_angle_alpha   90.00000000
_cell_angle_beta   90.00000000
_cell_angle_gamma   120.00000092
_symmetry_Int_Tables_number   1
_chemical_formula_structural   Tm5Nb3(Co4P3)4
_chemical_formula_sum   'Tm5 Nb3 Co16 P12'
_cell_volume   473.34463624
_cell_formula_units_Z   1
loop_
 _symmetry_equiv_pos_site_id
 _symmetry_equiv_pos_as_xyz
  1  'x, y, z'
loop_
 _atom_site_type_symbol
 _atom_site_label
 _atom_site_symmetry_multiplicity
 _atom_site_fract_x
 _atom_site_fract_y
 _atom_site_fract_z
 _atom_site_occupancy
  Tm  Tm0  1  0.816799  0.000000  0.500000  1
  Tm  Tm1  1  0.000000  0.816799  0.500000  1
  Tm  Tm2  1  0.183201  0.183201  0.500000  1
  Tm  Tm3  1  0.333333  0.666667  0.000000  1
  Tm  Tm4  1  0.666667  0.333333  0.000000  1
  Nb  Nb5  1  0.444988  0.000000  0.000000  1
  Nb  Nb6  1  0.000000  0.444988  0.000000  1
  Nb  Nb7  1  0.555012  0.555012  0.000000  1
  Co  Co8  1  0.278624  0.000000  0.500000  1
  Co  Co9  1  0.000000  0.278624  0.500000  1
  Co  Co10  1  0.721376  0.721376  0.500000  1
  Co  Co11  1  0.626733  0.803685  0.000000  1
  Co  Co12  1  0.196315  0.823048  0.000000  1
  Co  Co13  1  0.176952  0.373267  0.000000  1
  Co  Co14  1  0.373267  0.176952  0.000000  1
  Co  Co15  1  0.803685  0.626733  0.000000  1
  Co  Co16  1  0.823048  0.196315  0.000000  1
  Co  Co17  1  0.519257  0.872455  0.500000  1
  Co  Co18  1  0.127545  0.646802  0.500000  1
  Co  Co19  1  0.353198  0.480743  0.500000  1
  Co  Co20  1  0.480743  0.353198  0.500000  1
  Co  Co21  1  0.872455  0.519257  0.500000  1
  Co  Co22  1  0.646802  0.127545  0.500000  1
  Co  Co23  1  0.000000  0.000000  0.000000  1
  P  P24  1  0.177651  0.000000  0.000000  1
  P  P25  1  0.000000  0.177651  0.000000  1
  P  P26  1  0.822349  0.822349  0.000000  1
  P  P27  1  0.519577  0.688037  0.500000  1
  P  P28  1  0.311963  0.831540  0.500000  1
  P  P29  1  0.168460  0.480423  0.500000  1
  P  P30  1  0.480423  0.168460  0.500000  1
  P  P31  1  0.688037  0.519577  0.500000  1
  P  P32  1  0.831540  0.311963  0.500000  1
  P  P33  1  0.645341  0.000000  0.000000  1
  P  P34  1  0.000000  0.645341  0.000000  1
  P  P35  1  0.354659  0.354659  0.000000  1
