# generated using pymatgen
data_PrNdCo17Si8Ru
_symmetry_space_group_name_H-M   'P 1'
_cell_length_a   7.96487139
_cell_length_b   8.01304833
_cell_length_c   7.98238476
_cell_angle_alpha   121.87903737
_cell_angle_beta   121.68160896
_cell_angle_gamma   86.98812806
_symmetry_Int_Tables_number   1
_chemical_formula_structural   PrNdCo17Si8Ru
_chemical_formula_sum   'Pr1 Nd1 Co17 Si8 Ru1'
_cell_volume   349.87432720
_cell_formula_units_Z   1
loop_
 _symmetry_equiv_pos_site_id
 _symmetry_equiv_pos_as_xyz
  1  'x, y, z'
loop_
 _atom_site_type_symbol
 _atom_site_label
 _atom_site_symmetry_multiplicity
 _atom_site_fract_x
 _atom_site_fract_y
 _atom_site_fract_z
 _atom_site_occupancy
  Pr  Pr0  1  0.249399  0.249640  0.999459  1
  Nd  Nd1  1  0.749927  0.750258  0.000581  1
  Co  Co2  1  0.448463  0.949929  0.758961  1
  Co  Co3  1  0.189160  0.691356  0.241063  1
  Co  Co4  1  0.547779  0.042755  0.235608  1
  Co  Co5  1  0.947823  0.191085  0.499594  1
  Co  Co6  1  0.197898  0.928037  0.128245  1
  Co  Co7  1  0.800040  0.068715  0.869783  1
  Co  Co8  1  0.430416  0.699091  0.130126  1
  Co  Co9  1  0.569829  0.300001  0.871721  1
  Co  Co10  1  0.701436  0.573683  0.264319  1
  Co  Co11  1  0.300320  0.430084  0.731974  1
  Co  Co12  1  0.936934  0.809203  0.735710  1
  Co  Co13  1  0.311791  0.549662  0.500433  1
  Co  Co14  1  0.811687  0.307451  0.764388  1
  Co  Co15  1  0.002366  0.502428  0.500000  1
  Co  Co16  1  0.500242  0.000786  0.500031  1
  Co  Co17  1  0.068167  0.197895  0.268028  1
  Co  Co18  1  0.051473  0.810969  0.499601  1
  Si  Si19  1  0.290837  0.788453  0.834484  1
  Si  Si20  1  0.051458  0.545550  0.840316  1
  Si  Si21  1  0.541833  0.716721  0.500381  1
  Si  Si22  1  0.790472  0.954246  0.499518  1
  Si  Si23  1  0.445896  0.285264  0.500321  1
  Si  Si24  1  0.955945  0.454437  0.165490  1
  Si  Si25  1  0.711539  0.204802  0.159837  1
  Si  Si26  1  0.209365  0.046763  0.499470  1
  Ru  Ru27  1  0.687508  0.450737  0.500556  1
