# generated using pymatgen
data_Al2Fe6H
_symmetry_space_group_name_H-M   'P 1'
_cell_length_a   3.68703400
_cell_length_b   3.68703400
_cell_length_c   7.28211000
_cell_angle_alpha   90.00000000
_cell_angle_beta   90.00000000
_cell_angle_gamma   90.00000000
_symmetry_Int_Tables_number   1
_chemical_formula_structural   Al2Fe6H
_chemical_formula_sum   'Al2 Fe6 H1'
_cell_volume   98.99460334
_cell_formula_units_Z   1
loop_
 _symmetry_equiv_pos_site_id
 _symmetry_equiv_pos_as_xyz
  1  'x, y, z'
loop_
 _atom_site_type_symbol
 _atom_site_label
 _atom_site_symmetry_multiplicity
 _atom_site_fract_x
 _atom_site_fract_y
 _atom_site_fract_z
 _atom_site_occupancy
  Al  Al0  1  0.000000  0.000000  0.748097  1
  Al  Al1  1  0.000000  0.000000  0.251903  1
  Fe  Fe2  1  0.500000  0.500000  0.741489  1
  Fe  Fe3  1  0.500000  0.500000  0.258511  1
  Fe  Fe4  1  0.500000  0.000000  0.000000  1
  Fe  Fe5  1  0.500000  0.000000  0.500000  1
  Fe  Fe6  1  0.000000  0.500000  0.000000  1
  Fe  Fe7  1  0.000000  0.500000  0.500000  1
  H  H8  1  0.500000  0.500000  0.000000  1
