# generated using pymatgen
data_Sr8Si12Hg3Ir
_symmetry_space_group_name_H-M   'P 1'
_cell_length_a   11.96706466
_cell_length_b   10.33668705
_cell_length_c   8.48589200
_cell_angle_alpha   78.27950692
_cell_angle_beta   57.70231165
_cell_angle_gamma   44.19852176
_symmetry_Int_Tables_number   1
_chemical_formula_structural   Sr8Si12Hg3Ir
_chemical_formula_sum   'Sr8 Si12 Hg3 Ir1'
_cell_volume   589.03551179
_cell_formula_units_Z   1
loop_
 _symmetry_equiv_pos_site_id
 _symmetry_equiv_pos_as_xyz
  1  'x, y, z'
loop_
 _atom_site_type_symbol
 _atom_site_label
 _atom_site_symmetry_multiplicity
 _atom_site_fract_x
 _atom_site_fract_y
 _atom_site_fract_z
 _atom_site_occupancy
  Sr  Sr0  1  0.135022  0.121314  0.860361  1
  Sr  Sr1  1  0.860143  0.883606  0.134686  1
  Sr  Sr2  1  0.137906  0.123111  0.371559  1
  Sr  Sr3  1  0.373174  0.366270  0.136377  1
  Sr  Sr4  1  0.617766  0.637044  0.376277  1
  Sr  Sr5  1  0.376584  0.368320  0.617946  1
  Sr  Sr6  1  0.630186  0.627590  0.870736  1
  Sr  Sr7  1  0.869766  0.871904  0.630818  1
  Si  Si8  1  0.908404  0.595767  0.435970  1
  Si  Si9  1  0.091086  0.402146  0.582828  1
  Si  Si10  1  0.435315  0.060004  0.908501  1
  Si  Si11  1  0.582190  0.923825  0.090973  1
  Si  Si12  1  0.337594  0.654863  0.820616  1
  Si  Si13  1  0.660725  0.344058  0.180156  1
  Si  Si14  1  0.822888  0.185546  0.336208  1
  Si  Si15  1  0.177548  0.816946  0.662352  1
  Si  Si16  1  0.906897  0.593278  0.906304  1
  Si  Si17  1  0.578496  0.921915  0.578955  1
  Si  Si18  1  0.340070  0.660068  0.339214  1
  Si  Si19  1  0.657978  0.340345  0.660526  1
  Hg  Hg20  1  0.082512  0.417338  0.083314  1
  Hg  Hg21  1  0.833348  0.169138  0.830818  1
  Hg  Hg22  1  0.166081  0.833448  0.166737  1
  Ir  Ir23  1  0.418325  0.082161  0.417764  1
