# generated using pymatgen
data_La4CeOs2
_symmetry_space_group_name_H-M   'P 1'
_cell_length_a   9.05432485
_cell_length_b   9.05432628
_cell_length_c   7.30159738
_cell_angle_alpha   83.71121748
_cell_angle_beta   83.71120278
_cell_angle_gamma   43.23553164
_symmetry_Int_Tables_number   1
_chemical_formula_structural   La4CeOs2
_chemical_formula_sum   'La8 Ce2 Os4'
_cell_volume   407.17790750
_cell_formula_units_Z   2
loop_
 _symmetry_equiv_pos_site_id
 _symmetry_equiv_pos_as_xyz
  1  'x, y, z'
loop_
 _atom_site_type_symbol
 _atom_site_label
 _atom_site_symmetry_multiplicity
 _atom_site_fract_x
 _atom_site_fract_y
 _atom_site_fract_z
 _atom_site_occupancy
  La  La0  1  0.203859  0.976275  0.585921  1
  La  La1  1  0.023725  0.796141  0.914079  1
  La  La2  1  0.212275  0.357838  0.316502  1
  La  La3  1  0.642162  0.787725  0.183498  1
  La  La4  1  0.787725  0.642162  0.683498  1
  La  La5  1  0.357838  0.212275  0.816502  1
  La  La6  1  0.976275  0.203859  0.085921  1
  La  La7  1  0.796141  0.023725  0.414079  1
  Ce  Ce8  1  0.571009  0.428991  0.750000  1
  Ce  Ce9  1  0.428991  0.571009  0.250000  1
  Os  Os10  1  0.206815  0.593106  0.567181  1
  Os  Os11  1  0.406894  0.793185  0.932819  1
  Os  Os12  1  0.793185  0.406894  0.432819  1
  Os  Os13  1  0.593106  0.206815  0.067181  1
