# generated using pymatgen
data_Nb3ZnGa2Ir3
_symmetry_space_group_name_H-M   'P 1'
_cell_length_a   7.50228500
_cell_length_b   7.49659967
_cell_length_c   2.91713600
_cell_angle_alpha   90.00000000
_cell_angle_beta   90.00000000
_cell_angle_gamma   120.02508603
_symmetry_Int_Tables_number   1
_chemical_formula_structural   Nb3ZnGa2Ir3
_chemical_formula_sum   'Nb3 Zn1 Ga2 Ir3'
_cell_volume   142.04807356
_cell_formula_units_Z   1
loop_
 _symmetry_equiv_pos_site_id
 _symmetry_equiv_pos_as_xyz
  1  'x, y, z'
loop_
 _atom_site_type_symbol
 _atom_site_label
 _atom_site_symmetry_multiplicity
 _atom_site_fract_x
 _atom_site_fract_y
 _atom_site_fract_z
 _atom_site_occupancy
  Nb  Nb0  1  0.371217  0.000000  0.500001  1
  Nb  Nb1  1  0.995637  0.361061  0.500001  1
  Nb  Nb2  1  0.634576  0.638939  0.500001  1
  Zn  Zn3  1  0.701858  0.000000  0.000000  1
  Ga  Ga4  1  0.296219  0.295560  0.000000  1
  Ga  Ga5  1  0.000660  0.704441  0.000000  1
  Ir  Ir6  1  0.667102  0.336653  0.000000  1
  Ir  Ir7  1  0.330450  0.663348  0.000000  1
  Ir  Ir8  1  0.002281  0.000000  0.500001  1
