# generated using pymatgen
data_NdHo9In4(HgPd)4
_symmetry_space_group_name_H-M   'P 1'
_cell_length_a   3.63817900
_cell_length_b   7.99507608
_cell_length_c   18.39120820
_cell_angle_alpha   90.01663949
_cell_angle_beta   90.00000000
_cell_angle_gamma   90.00000000
_symmetry_Int_Tables_number   1
_chemical_formula_structural   NdHo9In4(HgPd)4
_chemical_formula_sum   'Nd1 Ho9 In4 Hg4 Pd4'
_cell_volume   534.95457523
_cell_formula_units_Z   1
loop_
 _symmetry_equiv_pos_site_id
 _symmetry_equiv_pos_as_xyz
  1  'x, y, z'
loop_
 _atom_site_type_symbol
 _atom_site_label
 _atom_site_symmetry_multiplicity
 _atom_site_fract_x
 _atom_site_fract_y
 _atom_site_fract_z
 _atom_site_occupancy
  Nd  Nd0  1  0.000000  0.500000  0.500000  1
  Ho  Ho1  1  0.000000  0.000000  0.000000  1
  Ho  Ho2  1  0.000000  0.745355  0.283109  1
  Ho  Ho3  1  0.000000  0.254645  0.716891  1
  Ho  Ho4  1  0.000000  0.756053  0.786521  1
  Ho  Ho5  1  0.000000  0.243947  0.213479  1
  Ho  Ho6  1  0.000000  0.609137  0.083155  1
  Ho  Ho7  1  0.000000  0.390863  0.916845  1
  Ho  Ho8  1  0.000000  0.887733  0.585163  1
  Ho  Ho9  1  0.000000  0.112267  0.414837  1
  In  In10  1  0.500000  0.580311  0.652835  1
  In  In11  1  0.500000  0.419689  0.347165  1
  In  In12  1  0.500000  0.918505  0.148733  1
  In  In13  1  0.500000  0.081495  0.851267  1
  Hg  Hg14  1  0.500000  0.712072  0.934354  1
  Hg  Hg15  1  0.500000  0.287928  0.065646  1
  Hg  Hg16  1  0.500000  0.794811  0.430824  1
  Hg  Hg17  1  0.500000  0.205189  0.569176  1
  Pd  Pd18  1  0.500000  0.532224  0.196367  1
  Pd  Pd19  1  0.500000  0.467776  0.803633  1
  Pd  Pd20  1  0.500000  0.966519  0.699457  1
  Pd  Pd21  1  0.500000  0.033481  0.300543  1
