# generated using pymatgen
data_Dy12N11
_symmetry_space_group_name_H-M   'P 1'
_cell_length_a   9.21054715
_cell_length_b   9.21054763
_cell_length_c   6.02405005
_cell_angle_alpha   89.98346806
_cell_angle_beta   89.98347162
_cell_angle_gamma   44.42412881
_symmetry_Int_Tables_number   1
_chemical_formula_structural   Dy12N11
_chemical_formula_sum   'Dy12 N11'
_cell_volume   357.71342379
_cell_formula_units_Z   1
loop_
 _symmetry_equiv_pos_site_id
 _symmetry_equiv_pos_as_xyz
  1  'x, y, z'
loop_
 _atom_site_type_symbol
 _atom_site_label
 _atom_site_symmetry_multiplicity
 _atom_site_fract_x
 _atom_site_fract_y
 _atom_site_fract_z
 _atom_site_occupancy
  Dy  Dy0  1  0.500000  0.000000  0.500000  1
  Dy  Dy1  1  0.172696  0.654988  0.828994  1
  Dy  Dy2  1  0.827304  0.345012  0.171006  1
  Dy  Dy3  1  0.345012  0.827304  0.171006  1
  Dy  Dy4  1  0.000000  0.500000  0.500000  1
  Dy  Dy5  1  0.654988  0.172696  0.828994  1
  Dy  Dy6  1  0.914036  0.914036  0.347215  1
  Dy  Dy7  1  0.583189  0.583189  0.671188  1
  Dy  Dy8  1  0.248293  0.248293  0.000540  1
  Dy  Dy9  1  0.416811  0.416811  0.328812  1
  Dy  Dy10  1  0.085964  0.085964  0.652785  1
  Dy  Dy11  1  0.751707  0.751707  0.999460  1
  N  N12  1  0.752116  0.247884  0.500000  1
  N  N13  1  0.415686  0.916947  0.833748  1
  N  N14  1  0.083053  0.584314  0.166252  1
  N  N15  1  0.584314  0.083053  0.166252  1
  N  N16  1  0.247884  0.752116  0.500000  1
  N  N17  1  0.916947  0.415686  0.833748  1
  N  N18  1  0.834301  0.834301  0.663850  1
  N  N19  1  0.500000  0.500000  0.000000  1
  N  N20  1  0.165699  0.165699  0.336150  1
  N  N21  1  0.665371  0.665371  0.329470  1
  N  N22  1  0.334629  0.334629  0.670530  1
