# generated using pymatgen
data_Dy19InRh12
_symmetry_space_group_name_H-M   'P 1'
_cell_length_a   10.88814900
_cell_length_b   10.88814900
_cell_length_c   6.30810100
_cell_angle_alpha   90.00000000
_cell_angle_beta   90.00000000
_cell_angle_gamma   90.00000000
_symmetry_Int_Tables_number   1
_chemical_formula_structural   Dy19InRh12
_chemical_formula_sum   'Dy19 In1 Rh12'
_cell_volume   747.83665651
_cell_formula_units_Z   1
loop_
 _symmetry_equiv_pos_site_id
 _symmetry_equiv_pos_as_xyz
  1  'x, y, z'
loop_
 _atom_site_type_symbol
 _atom_site_label
 _atom_site_symmetry_multiplicity
 _atom_site_fract_x
 _atom_site_fract_y
 _atom_site_fract_z
 _atom_site_occupancy
  Dy  Dy0  1  0.283223  0.085573  0.380494  1
  Dy  Dy1  1  0.290401  0.910940  0.880508  1
  Dy  Dy2  1  0.709599  0.089060  0.880508  1
  Dy  Dy3  1  0.716777  0.914427  0.380494  1
  Dy  Dy4  1  0.588996  0.791299  0.882143  1
  Dy  Dy5  1  0.588308  0.208576  0.378341  1
  Dy  Dy6  1  0.411692  0.791424  0.378341  1
  Dy  Dy7  1  0.411004  0.208701  0.882143  1
  Dy  Dy8  1  0.208576  0.411692  0.621659  1
  Dy  Dy9  1  0.208701  0.588996  0.117857  1
  Dy  Dy10  1  0.791299  0.411004  0.117857  1
  Dy  Dy11  1  0.791424  0.588308  0.621659  1
  Dy  Dy12  1  0.910940  0.709599  0.119492  1
  Dy  Dy13  1  0.914427  0.283223  0.619506  1
  Dy  Dy14  1  0.085573  0.716777  0.619506  1
  Dy  Dy15  1  0.089060  0.290401  0.119492  1
  Dy  Dy16  1  0.000000  0.000000  0.000000  1
  Dy  Dy17  1  0.500000  0.500000  0.000000  1
  Dy  Dy18  1  0.500000  0.500000  0.500000  1
  In  In19  1  0.000000  0.000000  0.500000  1
  Rh  Rh20  1  0.845729  0.155933  0.245435  1
  Rh  Rh21  1  0.844067  0.845729  0.754565  1
  Rh  Rh22  1  0.155933  0.154271  0.754565  1
  Rh  Rh23  1  0.154271  0.844067  0.245435  1
  Rh  Rh24  1  0.654840  0.346108  0.747038  1
  Rh  Rh25  1  0.653892  0.654840  0.252962  1
  Rh  Rh26  1  0.346108  0.345160  0.252962  1
  Rh  Rh27  1  0.345160  0.653892  0.747038  1
  Rh  Rh28  1  0.500000  0.000000  0.125776  1
  Rh  Rh29  1  0.500000  0.000000  0.621916  1
  Rh  Rh30  1  0.000000  0.500000  0.874224  1
  Rh  Rh31  1  0.000000  0.500000  0.378084  1
