# generated using pymatgen
data_YEr2Si3IrRh5
_symmetry_space_group_name_H-M   'P 1'
_cell_length_a   5.55824400
_cell_length_b   5.56971935
_cell_length_c   15.01634061
_cell_angle_alpha   90.06843357
_cell_angle_beta   90.00000000
_cell_angle_gamma   119.93185696
_symmetry_Int_Tables_number   1
_chemical_formula_structural   YEr2Si3IrRh5
_chemical_formula_sum   'Y2 Er4 Si6 Ir2 Rh10'
_cell_volume   402.86825859
_cell_formula_units_Z   2
loop_
 _symmetry_equiv_pos_site_id
 _symmetry_equiv_pos_as_xyz
  1  'x, y, z'
loop_
 _atom_site_type_symbol
 _atom_site_label
 _atom_site_symmetry_multiplicity
 _atom_site_fract_x
 _atom_site_fract_y
 _atom_site_fract_z
 _atom_site_occupancy
  Y  Y0  1  0.333136  0.666272  0.751058  1
  Y  Y1  1  0.666864  0.333728  0.248942  1
  Er  Er2  1  0.333472  0.666944  0.537387  1
  Er  Er3  1  0.666528  0.333056  0.462613  1
  Er  Er4  1  0.667396  0.334791  0.037077  1
  Er  Er5  1  0.332604  0.665209  0.962923  1
  Si  Si6  1  0.000198  0.000395  0.250421  1
  Si  Si7  1  0.999802  0.999605  0.749579  1
  Si  Si8  1  0.333322  0.666645  0.250611  1
  Si  Si9  1  0.666678  0.333355  0.749389  1
  Si  Si10  1  0.000000  0.000000  0.000000  1
  Si  Si11  1  0.000000  0.000000  0.500000  1
  Ir  Ir12  1  0.167099  0.334198  0.129805  1
  Ir  Ir13  1  0.832901  0.665802  0.870195  1
  Rh  Rh14  1  0.665274  0.832414  0.130066  1
  Rh  Rh15  1  0.832652  0.665303  0.628952  1
  Rh  Rh16  1  0.334726  0.167586  0.869934  1
  Rh  Rh17  1  0.167348  0.334697  0.371048  1
  Rh  Rh18  1  0.167140  0.832414  0.130066  1
  Rh  Rh19  1  0.333789  0.166376  0.629556  1
  Rh  Rh20  1  0.832860  0.167586  0.869934  1
  Rh  Rh21  1  0.666211  0.833624  0.370444  1
  Rh  Rh22  1  0.832588  0.166376  0.629556  1
  Rh  Rh23  1  0.167412  0.833624  0.370444  1
