# generated using pymatgen
data_DyY19(Bi2Sb)4
_symmetry_space_group_name_H-M   'P 1'
_cell_length_a   8.20998201
_cell_length_b   9.48458600
_cell_length_c   12.05624602
_cell_angle_alpha   90.00000000
_cell_angle_beta   89.99384757
_cell_angle_gamma   90.00000000
_symmetry_Int_Tables_number   1
_chemical_formula_structural   DyY19(Bi2Sb)4
_chemical_formula_sum   'Dy1 Y19 Bi8 Sb4'
_cell_volume   938.79914064
_cell_formula_units_Z   1
loop_
 _symmetry_equiv_pos_site_id
 _symmetry_equiv_pos_as_xyz
  1  'x, y, z'
loop_
 _atom_site_type_symbol
 _atom_site_label
 _atom_site_symmetry_multiplicity
 _atom_site_fract_x
 _atom_site_fract_y
 _atom_site_fract_z
 _atom_site_occupancy
  Dy  Dy0  1  0.029505  0.750000  0.988422  1
  Y  Y1  1  0.529781  0.750000  0.511550  1
  Y  Y2  1  0.970233  0.250000  0.011564  1
  Y  Y3  1  0.470235  0.250000  0.488447  1
  Y  Y4  1  0.183527  0.750000  0.718427  1
  Y  Y5  1  0.683625  0.750000  0.781698  1
  Y  Y6  1  0.816441  0.250000  0.281662  1
  Y  Y7  1  0.316423  0.250000  0.218338  1
  Y  Y8  1  0.309817  0.439139  0.941150  1
  Y  Y9  1  0.809832  0.060897  0.558847  1
  Y  Y10  1  0.690285  0.939046  0.058824  1
  Y  Y11  1  0.190171  0.560887  0.441156  1
  Y  Y12  1  0.690285  0.560954  0.058824  1
  Y  Y13  1  0.190171  0.939113  0.441156  1
  Y  Y14  1  0.309817  0.060861  0.941150  1
  Y  Y15  1  0.809832  0.439103  0.558847  1
  Y  Y16  1  0.354101  0.750000  0.212615  1
  Y  Y17  1  0.854183  0.750000  0.287337  1
  Y  Y18  1  0.645878  0.250000  0.787360  1
  Y  Y19  1  0.145845  0.250000  0.712627  1
  Bi  Bi20  1  0.433535  0.003837  0.673849  1
  Bi  Bi21  1  0.933571  0.496212  0.826177  1
  Bi  Bi22  1  0.566451  0.503825  0.326150  1
  Bi  Bi23  1  0.066466  0.996157  0.173816  1
  Bi  Bi24  1  0.566451  0.996175  0.326150  1
  Bi  Bi25  1  0.066466  0.503843  0.173816  1
  Bi  Bi26  1  0.433535  0.496163  0.673849  1
  Bi  Bi27  1  0.933571  0.003788  0.826177  1
  Sb  Sb28  1  0.410341  0.750000  0.959255  1
  Sb  Sb29  1  0.910359  0.750000  0.540744  1
  Sb  Sb30  1  0.589636  0.250000  0.040757  1
  Sb  Sb31  1  0.089630  0.250000  0.459259  1
