# generated using pymatgen
data_LiTb(BrO3)4
_symmetry_space_group_name_H-M   'P 1'
_cell_length_a   5.04643176
_cell_length_b   6.76052500
_cell_length_c   8.63597300
_cell_angle_alpha   84.67905866
_cell_angle_beta   88.33299313
_cell_angle_gamma   88.43729896
_symmetry_Int_Tables_number   1
_chemical_formula_structural   LiTb(BrO3)4
_chemical_formula_sum   'Li1 Tb1 Br4 O12'
_cell_volume   293.14627170
_cell_formula_units_Z   1
loop_
 _symmetry_equiv_pos_site_id
 _symmetry_equiv_pos_as_xyz
  1  'x, y, z'
loop_
 _atom_site_type_symbol
 _atom_site_label
 _atom_site_symmetry_multiplicity
 _atom_site_fract_x
 _atom_site_fract_y
 _atom_site_fract_z
 _atom_site_occupancy
  Li  Li0  1  0.500000  0.000000  0.500000  1
  Tb  Tb1  1  0.500000  0.500000  0.500000  1
  Br  Br2  1  0.571468  0.818363  0.153186  1
  Br  Br3  1  0.026714  0.271128  0.262103  1
  Br  Br4  1  0.973286  0.728872  0.737897  1
  Br  Br5  1  0.428532  0.181637  0.846814  1
  O  O6  1  0.749339  0.637204  0.080919  1
  O  O7  1  0.728099  0.029604  0.103685  1
  O  O8  1  0.190080  0.470910  0.314991  1
  O  O9  1  0.211338  0.077106  0.326835  1
  O  O10  1  0.626073  0.778465  0.355614  1
  O  O11  1  0.758918  0.266251  0.389531  1
  O  O12  1  0.241082  0.733749  0.610469  1
  O  O13  1  0.373927  0.221535  0.644386  1
  O  O14  1  0.788662  0.922894  0.673165  1
  O  O15  1  0.809920  0.529090  0.685009  1
  O  O16  1  0.271901  0.970396  0.896315  1
  O  O17  1  0.250661  0.362796  0.919081  1
