# generated using pymatgen
data_Ba8NdUSe12
_symmetry_space_group_name_H-M   'P 1'
_cell_length_a   9.09520533
_cell_length_b   9.09520447
_cell_length_c   9.09520613
_cell_angle_alpha   89.53138932
_cell_angle_beta   89.53138843
_cell_angle_gamma   89.53139459
_symmetry_Int_Tables_number   1
_chemical_formula_structural   Ba8NdUSe12
_chemical_formula_sum   'Ba8 Nd1 U1 Se12'
_cell_volume   752.30539982
_cell_formula_units_Z   1
loop_
 _symmetry_equiv_pos_site_id
 _symmetry_equiv_pos_as_xyz
  1  'x, y, z'
loop_
 _atom_site_type_symbol
 _atom_site_label
 _atom_site_symmetry_multiplicity
 _atom_site_fract_x
 _atom_site_fract_y
 _atom_site_fract_z
 _atom_site_occupancy
  Ba  Ba0  1  0.871779  0.622660  0.255258  1
  Ba  Ba1  1  0.255258  0.871779  0.622660  1
  Ba  Ba2  1  0.622660  0.255258  0.871779  1
  Ba  Ba3  1  0.744742  0.128221  0.377340  1
  Ba  Ba4  1  0.377340  0.744742  0.128221  1
  Ba  Ba5  1  0.128221  0.377340  0.744742  1
  Ba  Ba6  1  0.254329  0.254329  0.254329  1
  Ba  Ba7  1  0.745671  0.745671  0.745671  1
  Nd  Nd8  1  0.500000  0.500000  0.500000  1
  U  U9  1  0.000000  0.000000  0.000000  1
  Se  Se10  1  0.192784  0.564469  0.418893  1
  Se  Se11  1  0.418893  0.192784  0.564469  1
  Se  Se12  1  0.564469  0.418893  0.192784  1
  Se  Se13  1  0.926897  0.058569  0.709612  1
  Se  Se14  1  0.709612  0.926897  0.058569  1
  Se  Se15  1  0.058569  0.709612  0.926897  1
  Se  Se16  1  0.807216  0.435531  0.581107  1
  Se  Se17  1  0.581107  0.807216  0.435531  1
  Se  Se18  1  0.435531  0.581107  0.807216  1
  Se  Se19  1  0.073103  0.941431  0.290388  1
  Se  Se20  1  0.290388  0.073103  0.941431  1
  Se  Se21  1  0.941431  0.290388  0.073103  1
