# generated using pymatgen
data_Eu2Zn(SeO5)2
_symmetry_space_group_name_H-M   'P 1'
_cell_length_a   5.94839091
_cell_length_b   6.13130703
_cell_length_c   6.60417143
_cell_angle_alpha   103.33651412
_cell_angle_beta   79.94466694
_cell_angle_gamma   103.55901367
_symmetry_Int_Tables_number   1
_chemical_formula_structural   Eu2Zn(SeO5)2
_chemical_formula_sum   'Eu2 Zn1 Se2 O10'
_cell_volume   225.97893483
_cell_formula_units_Z   1
loop_
 _symmetry_equiv_pos_site_id
 _symmetry_equiv_pos_as_xyz
  1  'x, y, z'
loop_
 _atom_site_type_symbol
 _atom_site_label
 _atom_site_symmetry_multiplicity
 _atom_site_fract_x
 _atom_site_fract_y
 _atom_site_fract_z
 _atom_site_occupancy
  Eu  Eu0  1  0.185837  0.801886  0.394150  1
  Eu  Eu1  1  0.814163  0.198114  0.605850  1
  Zn  Zn2  1  0.000000  0.000000  0.000000  1
  Se  Se3  1  0.381867  0.656086  0.771273  1
  Se  Se4  1  0.618133  0.343914  0.228727  1
  O  O5  1  0.497264  0.861427  0.629083  1
  O  O6  1  0.502736  0.138573  0.370917  1
  O  O7  1  0.157804  0.506344  0.639306  1
  O  O8  1  0.842196  0.493656  0.360694  1
  O  O9  1  0.573821  0.508368  0.785768  1
  O  O10  1  0.426179  0.491632  0.214232  1
  O  O11  1  0.264085  0.783012  0.005798  1
  O  O12  1  0.735915  0.216988  0.994202  1
  O  O13  1  0.975621  0.014203  0.288554  1
  O  O14  1  0.024379  0.985797  0.711446  1
