# generated using pymatgen
data_Zr10Si2(BiPb)3
_symmetry_space_group_name_H-M   'P 1'
_cell_length_a   8.84096700
_cell_length_b   8.84096674
_cell_length_c   5.93610000
_cell_angle_alpha   90.00000000
_cell_angle_beta   90.00000000
_cell_angle_gamma   119.99999725
_symmetry_Int_Tables_number   1
_chemical_formula_structural   Zr10Si2(BiPb)3
_chemical_formula_sum   'Zr10 Si2 Bi3 Pb3'
_cell_volume   401.81984178
_cell_formula_units_Z   1
loop_
 _symmetry_equiv_pos_site_id
 _symmetry_equiv_pos_as_xyz
  1  'x, y, z'
loop_
 _atom_site_type_symbol
 _atom_site_label
 _atom_site_symmetry_multiplicity
 _atom_site_fract_x
 _atom_site_fract_y
 _atom_site_fract_z
 _atom_site_occupancy
  Zr  Zr0  1  0.666667  0.333333  0.004963  1
  Zr  Zr1  1  0.333333  0.666667  0.004963  1
  Zr  Zr2  1  0.333333  0.666667  0.495037  1
  Zr  Zr3  1  0.666667  0.333333  0.495037  1
  Zr  Zr4  1  0.749471  0.749471  0.750000  1
  Zr  Zr5  1  0.250529  0.000000  0.750000  1
  Zr  Zr6  1  0.000000  0.250529  0.750000  1
  Zr  Zr7  1  0.260543  0.260543  0.250000  1
  Zr  Zr8  1  0.739457  0.000000  0.250000  1
  Zr  Zr9  1  0.000000  0.739457  0.250000  1
  Si  Si10  1  0.000000  0.000000  0.005565  1
  Si  Si11  1  0.000000  0.000000  0.494435  1
  Bi  Bi12  1  0.399247  0.399247  0.750000  1
  Bi  Bi13  1  0.600753  0.000000  0.750000  1
  Bi  Bi14  1  0.000000  0.600753  0.750000  1
  Pb  Pb15  1  0.611745  0.611745  0.250000  1
  Pb  Pb16  1  0.388255  0.000000  0.250000  1
  Pb  Pb17  1  0.000000  0.388255  0.250000  1
