# generated using pymatgen
data_DyY7Si12IrRh3
_symmetry_space_group_name_H-M   'P 1'
_cell_length_a   8.16882923
_cell_length_b   8.17219261
_cell_length_c   7.94174500
_cell_angle_alpha   90.00005428
_cell_angle_beta   89.99846383
_cell_angle_gamma   120.01363375
_symmetry_Int_Tables_number   1
_chemical_formula_structural   DyY7Si12IrRh3
_chemical_formula_sum   'Dy1 Y7 Si12 Ir1 Rh3'
_cell_volume   459.07675162
_cell_formula_units_Z   1
loop_
 _symmetry_equiv_pos_site_id
 _symmetry_equiv_pos_as_xyz
  1  'x, y, z'
loop_
 _atom_site_type_symbol
 _atom_site_label
 _atom_site_symmetry_multiplicity
 _atom_site_fract_x
 _atom_site_fract_y
 _atom_site_fract_z
 _atom_site_occupancy
  Dy  Dy0  1  0.018351  0.509175  0.749864  1
  Y  Y1  1  0.000059  0.000030  0.248955  1
  Y  Y2  1  0.999982  0.999991  0.750326  1
  Y  Y3  1  0.508630  0.491318  0.250154  1
  Y  Y4  1  0.508631  0.017313  0.250154  1
  Y  Y5  1  0.982676  0.491339  0.250158  1
  Y  Y6  1  0.490703  0.509298  0.749883  1
  Y  Y7  1  0.490703  0.981404  0.749883  1
  Si  Si8  1  0.166640  0.833294  0.499268  1
  Si  Si9  1  0.166640  0.333347  0.499269  1
  Si  Si10  1  0.666644  0.833323  0.499193  1
  Si  Si11  1  0.832747  0.167360  0.500351  1
  Si  Si12  1  0.832746  0.665386  0.500351  1
  Si  Si13  1  0.334609  0.167305  0.500216  1
  Si  Si14  1  0.832932  0.167165  0.999621  1
  Si  Si15  1  0.832932  0.665767  0.999621  1
  Si  Si16  1  0.334232  0.167116  0.999745  1
  Si  Si17  1  0.166997  0.832929  0.999689  1
  Si  Si18  1  0.166997  0.334068  0.999689  1
  Si  Si19  1  0.665935  0.832968  0.999777  1
  Ir  Ir20  1  0.333137  0.666569  0.469247  1
  Rh  Rh21  1  0.666955  0.333476  0.533282  1
  Rh  Rh22  1  0.666947  0.333474  0.965998  1
  Rh  Rh23  1  0.333174  0.666587  0.035302  1
