# generated using pymatgen
data_K2V4CoO12
_symmetry_space_group_name_H-M   'P 1'
_cell_length_a   9.41452600
_cell_length_b   8.31993704
_cell_length_c   9.75818271
_cell_angle_alpha   56.21575713
_cell_angle_beta   90.00000000
_cell_angle_gamma   90.00000000
_symmetry_Int_Tables_number   1
_chemical_formula_structural   K2V4CoO12
_chemical_formula_sum   'K4 V8 Co2 O24'
_cell_volume   635.27283401
_cell_formula_units_Z   2
loop_
 _symmetry_equiv_pos_site_id
 _symmetry_equiv_pos_as_xyz
  1  'x, y, z'
loop_
 _atom_site_type_symbol
 _atom_site_label
 _atom_site_symmetry_multiplicity
 _atom_site_fract_x
 _atom_site_fract_y
 _atom_site_fract_z
 _atom_site_occupancy
  K  K0  1  0.290864  0.272972  0.094787  1
  K  K1  1  0.790864  0.727028  0.405213  1
  K  K2  1  0.709136  0.727028  0.905213  1
  K  K3  1  0.209136  0.272972  0.594787  1
  V  V4  1  0.055614  0.539806  0.749880  1
  V  V5  1  0.555614  0.460194  0.750120  1
  V  V6  1  0.944386  0.460194  0.250120  1
  V  V7  1  0.444386  0.539806  0.249880  1
  V  V8  1  0.274436  0.794361  0.866125  1
  V  V9  1  0.774436  0.205639  0.633875  1
  V  V10  1  0.725564  0.205639  0.133875  1
  V  V11  1  0.225564  0.794361  0.366125  1
  Co  Co12  1  0.500000  0.000000  0.500000  1
  Co  Co13  1  0.000000  0.000000  0.000000  1
  O  O14  1  0.890775  0.608891  0.749677  1
  O  O15  1  0.390775  0.391109  0.750323  1
  O  O16  1  0.109225  0.391109  0.250323  1
  O  O17  1  0.609225  0.608891  0.249677  1
  O  O18  1  0.066897  0.294786  0.856507  1
  O  O19  1  0.566897  0.705214  0.643493  1
  O  O20  1  0.933103  0.705214  0.143493  1
  O  O21  1  0.433103  0.294786  0.356507  1
  O  O22  1  0.165895  0.929338  0.900403  1
  O  O23  1  0.665895  0.070662  0.599597  1
  O  O24  1  0.834105  0.070662  0.099597  1
  O  O25  1  0.334105  0.929338  0.400403  1
  O  O26  1  0.365741  0.946966  0.690953  1
  O  O27  1  0.865741  0.053034  0.809047  1
  O  O28  1  0.101942  0.646844  0.532729  1
  O  O29  1  0.601942  0.353156  0.967271  1
  O  O30  1  0.898058  0.353156  0.467271  1
  O  O31  1  0.398058  0.646844  0.032729  1
  O  O32  1  0.326718  0.626769  0.343086  1
  O  O33  1  0.826718  0.373231  0.156914  1
  O  O34  1  0.673282  0.373231  0.656914  1
  O  O35  1  0.173282  0.626769  0.843086  1
  O  O36  1  0.134259  0.946966  0.190953  1
  O  O37  1  0.634259  0.053034  0.309047  1
