# generated using pymatgen
data_Lu8TiPd19Pt5
_symmetry_space_group_name_H-M   'P 1'
_cell_length_a   8.30321500
_cell_length_b   8.30321500
_cell_length_c   8.31312300
_cell_angle_alpha   90.00000000
_cell_angle_beta   90.00000000
_cell_angle_gamma   90.00000000
_symmetry_Int_Tables_number   1
_chemical_formula_structural   Lu8TiPd19Pt5
_chemical_formula_sum   'Lu8 Ti1 Pd19 Pt5'
_cell_volume   573.13479246
_cell_formula_units_Z   1
loop_
 _symmetry_equiv_pos_site_id
 _symmetry_equiv_pos_as_xyz
  1  'x, y, z'
loop_
 _atom_site_type_symbol
 _atom_site_label
 _atom_site_symmetry_multiplicity
 _atom_site_fract_x
 _atom_site_fract_y
 _atom_site_fract_z
 _atom_site_occupancy
  Lu  Lu0  1  0.250355  0.250355  0.250507  1
  Lu  Lu1  1  0.748345  0.748345  0.748507  1
  Lu  Lu2  1  0.749645  0.749645  0.250507  1
  Lu  Lu3  1  0.748345  0.251655  0.748507  1
  Lu  Lu4  1  0.251655  0.251655  0.748507  1
  Lu  Lu5  1  0.250355  0.749645  0.250507  1
  Lu  Lu6  1  0.251655  0.748345  0.748507  1
  Lu  Lu7  1  0.749645  0.250355  0.250507  1
  Ti  Ti8  1  0.000000  0.000000  0.008895  1
  Pd  Pd9  1  0.263556  0.500000  0.999945  1
  Pd  Pd10  1  0.736444  0.500000  0.999945  1
  Pd  Pd11  1  0.000000  0.263896  0.500485  1
  Pd  Pd12  1  0.500000  0.263556  0.999945  1
  Pd  Pd13  1  0.000000  0.736104  0.500485  1
  Pd  Pd14  1  0.500000  0.736444  0.999945  1
  Pd  Pd15  1  0.500000  0.000000  0.262120  1
  Pd  Pd16  1  0.263896  0.000000  0.500485  1
  Pd  Pd17  1  0.500000  0.000000  0.735350  1
  Pd  Pd18  1  0.736104  0.000000  0.500485  1
  Pd  Pd19  1  0.000000  0.500000  0.262120  1
  Pd  Pd20  1  0.000000  0.500000  0.735350  1
  Pd  Pd21  1  0.254128  0.500000  0.499358  1
  Pd  Pd22  1  0.745872  0.500000  0.499358  1
  Pd  Pd23  1  0.500000  0.254128  0.499358  1
  Pd  Pd24  1  0.500000  0.745872  0.499358  1
  Pd  Pd25  1  0.500000  0.500000  0.253936  1
  Pd  Pd26  1  0.500000  0.500000  0.745784  1
  Pd  Pd27  1  0.000000  0.000000  0.705684  1
  Pt  Pt28  1  0.298156  0.000000  0.997616  1
  Pt  Pt29  1  0.701844  0.000000  0.997616  1
  Pt  Pt30  1  0.000000  0.298156  0.997616  1
  Pt  Pt31  1  0.000000  0.701844  0.997616  1
  Pt  Pt32  1  0.000000  0.000000  0.305085  1
