# generated using pymatgen
data_Hf4Tc7As6
_symmetry_space_group_name_H-M   'P 1'
_cell_length_a   7.11124115
_cell_length_b   7.11124140
_cell_length_c   7.11124200
_cell_angle_alpha   109.47123089
_cell_angle_beta   109.47123160
_cell_angle_gamma   109.47120895
_symmetry_Int_Tables_number   1
_chemical_formula_structural   Hf4Tc7As6
_chemical_formula_sum   'Hf4 Tc7 As6'
_cell_volume   276.83075956
_cell_formula_units_Z   1
loop_
 _symmetry_equiv_pos_site_id
 _symmetry_equiv_pos_as_xyz
  1  'x, y, z'
loop_
 _atom_site_type_symbol
 _atom_site_label
 _atom_site_symmetry_multiplicity
 _atom_site_fract_x
 _atom_site_fract_y
 _atom_site_fract_z
 _atom_site_occupancy
  Hf  Hf0  1  0.000000  0.000000  0.500000  1
  Hf  Hf1  1  0.500000  0.000000  0.000000  1
  Hf  Hf2  1  0.000000  0.500000  0.000000  1
  Hf  Hf3  1  0.500000  0.500000  0.500000  1
  Tc  Tc4  1  0.750000  0.500000  0.250000  1
  Tc  Tc5  1  0.500000  0.750000  0.250000  1
  Tc  Tc6  1  0.500000  0.250000  0.750000  1
  Tc  Tc7  1  0.750000  0.250000  0.500000  1
  Tc  Tc8  1  0.250000  0.750000  0.500000  1
  Tc  Tc9  1  0.250000  0.500000  0.750000  1
  Tc  Tc10  1  0.000000  0.000000  0.000000  1
  As  As11  1  0.306741  0.000000  0.306741  1
  As  As12  1  0.000000  0.306741  0.306741  1
  As  As13  1  0.000000  0.693259  0.693259  1
  As  As14  1  0.306741  0.306741  0.000000  1
  As  As15  1  0.693259  0.693259  0.000000  1
  As  As16  1  0.693259  0.000000  0.693259  1
