# generated using pymatgen
data_AcTb(WF7)2
_symmetry_space_group_name_H-M   'P 1'
_cell_length_a   5.82452876
_cell_length_b   9.47676911
_cell_length_c   12.64766600
_cell_angle_alpha   61.97000139
_cell_angle_beta   89.57166434
_cell_angle_gamma   89.64646011
_symmetry_Int_Tables_number   1
_chemical_formula_structural   AcTb(WF7)2
_chemical_formula_sum   'Ac2 Tb2 W4 F28'
_cell_volume   616.21366580
_cell_formula_units_Z   2
loop_
 _symmetry_equiv_pos_site_id
 _symmetry_equiv_pos_as_xyz
  1  'x, y, z'
loop_
 _atom_site_type_symbol
 _atom_site_label
 _atom_site_symmetry_multiplicity
 _atom_site_fract_x
 _atom_site_fract_y
 _atom_site_fract_z
 _atom_site_occupancy
  Ac  Ac0  1  0.256396  0.812371  0.265651  1
  Ac  Ac1  1  0.743604  0.187629  0.734349  1
  Tb  Tb2  1  0.759484  0.191044  0.232705  1
  Tb  Tb3  1  0.240516  0.808956  0.767295  1
  W  W4  1  0.754529  0.716027  0.039108  1
  W  W5  1  0.245471  0.283973  0.960892  1
  W  W6  1  0.254981  0.263638  0.451338  1
  W  W7  1  0.745019  0.736362  0.548662  1
  F  F8  1  0.949662  0.712439  0.424389  1
  F  F9  1  0.050338  0.287561  0.575611  1
  F  F10  1  0.455219  0.293160  0.082471  1
  F  F11  1  0.544781  0.706840  0.917529  1
  F  F12  1  0.473788  0.725507  0.133650  1
  F  F13  1  0.526212  0.274493  0.866350  1
  F  F14  1  0.980566  0.262328  0.356927  1
  F  F15  1  0.019434  0.737672  0.643073  1
  F  F16  1  0.952762  0.733548  0.162118  1
  F  F17  1  0.047238  0.266452  0.837882  1
  F  F18  1  0.465936  0.245100  0.325319  1
  F  F19  1  0.534064  0.754900  0.674681  1
  F  F20  1  0.766917  0.477673  0.137794  1
  F  F21  1  0.233083  0.522327  0.862206  1
  F  F22  1  0.269286  0.501942  0.359284  1
  F  F23  1  0.730714  0.498058  0.640716  1
  F  F24  1  0.950661  0.284677  0.053157  1
  F  F25  1  0.049339  0.715323  0.946843  1
  F  F26  1  0.467069  0.722007  0.461857  1
  F  F27  1  0.532931  0.277993  0.538143  1
  F  F28  1  0.740693  0.972913  0.447544  1
  F  F29  1  0.259307  0.027087  0.552456  1
  F  F30  1  0.239851  0.045435  0.049993  1
  F  F31  1  0.760149  0.954565  0.950007  1
  F  F32  1  0.593604  0.985361  0.232441  1
  F  F33  1  0.406396  0.014639  0.767559  1
  F  F34  1  0.069485  0.041337  0.267389  1
  F  F35  1  0.930515  0.958663  0.732611  1
