# generated using pymatgen
data_Er4Cu2PdPt
_symmetry_space_group_name_H-M   'P 1'
_cell_length_a   4.49023500
_cell_length_b   5.46733485
_cell_length_c   7.01859894
_cell_angle_alpha   89.87146956
_cell_angle_beta   90.00000000
_cell_angle_gamma   90.00000000
_symmetry_Int_Tables_number   1
_chemical_formula_structural   Er4Cu2PdPt
_chemical_formula_sum   'Er4 Cu2 Pd1 Pt1'
_cell_volume   172.30349170
_cell_formula_units_Z   1
loop_
 _symmetry_equiv_pos_site_id
 _symmetry_equiv_pos_as_xyz
  1  'x, y, z'
loop_
 _atom_site_type_symbol
 _atom_site_label
 _atom_site_symmetry_multiplicity
 _atom_site_fract_x
 _atom_site_fract_y
 _atom_site_fract_z
 _atom_site_occupancy
  Er  Er0  1  0.000000  0.115540  0.684923  1
  Er  Er1  1  0.000000  0.884988  0.180201  1
  Er  Er2  1  0.500000  0.391808  0.313137  1
  Er  Er3  1  0.500000  0.607731  0.821520  1
  Cu  Cu4  1  0.500000  0.890463  0.464891  1
  Cu  Cu5  1  0.500000  0.106808  0.962159  1
  Pd  Pd6  1  0.000000  0.614848  0.537071  1
  Pt  Pt7  1  0.000000  0.387814  0.036098  1
