# generated using pymatgen
data_La16Y4Ir7Pt5
_symmetry_space_group_name_H-M   'P 1'
_cell_length_a   11.47624585
_cell_length_b   11.47624585
_cell_length_c   6.55461351
_cell_angle_alpha   90.15254658
_cell_angle_beta   90.15254658
_cell_angle_gamma   89.87694117
_symmetry_Int_Tables_number   1
_chemical_formula_structural   La16Y4Ir7Pt5
_chemical_formula_sum   'La16 Y4 Ir7 Pt5'
_cell_volume   863.26215405
_cell_formula_units_Z   1
loop_
 _symmetry_equiv_pos_site_id
 _symmetry_equiv_pos_as_xyz
  1  'x, y, z'
loop_
 _atom_site_type_symbol
 _atom_site_label
 _atom_site_symmetry_multiplicity
 _atom_site_fract_x
 _atom_site_fract_y
 _atom_site_fract_z
 _atom_site_occupancy
  La  La0  1  0.292579  0.090377  0.382251  1
  La  La1  1  0.293703  0.908784  0.881228  1
  La  La2  1  0.706973  0.086925  0.881082  1
  La  La3  1  0.706885  0.908840  0.381578  1
  La  La4  1  0.587101  0.786547  0.888971  1
  La  La5  1  0.584762  0.209822  0.382217  1
  La  La6  1  0.412557  0.788271  0.388634  1
  La  La7  1  0.409648  0.211024  0.889703  1
  La  La8  1  0.213453  0.412899  0.611029  1
  La  La9  1  0.211729  0.587443  0.111366  1
  La  La10  1  0.790178  0.415238  0.117783  1
  La  La11  1  0.788976  0.590352  0.610297  1
  La  La12  1  0.909623  0.707421  0.117749  1
  La  La13  1  0.913075  0.293027  0.618918  1
  La  La14  1  0.091216  0.706297  0.618772  1
  La  La15  1  0.091160  0.293115  0.118422  1
  Y  Y16  1  0.999973  0.999650  0.499752  1
  Y  Y17  1  0.000350  0.000027  0.000248  1
  Y  Y18  1  0.498172  0.501285  0.001079  1
  Y  Y19  1  0.498715  0.501828  0.498921  1
  Ir  Ir20  1  0.650320  0.648734  0.250172  1
  Ir  Ir21  1  0.351266  0.349680  0.249828  1
  Ir  Ir22  1  0.349870  0.650130  0.750000  1
  Ir  Ir23  1  0.500619  0.000255  0.121226  1
  Ir  Ir24  1  0.500301  0.001299  0.621664  1
  Ir  Ir25  1  0.998701  0.499699  0.878336  1
  Ir  Ir26  1  0.999745  0.499381  0.378774  1
  Pt  Pt27  1  0.851339  0.148661  0.250000  1
  Pt  Pt28  1  0.851862  0.852524  0.749865  1
  Pt  Pt29  1  0.147476  0.148138  0.750135  1
  Pt  Pt30  1  0.148327  0.851673  0.250000  1
  Pt  Pt31  1  0.649349  0.350651  0.750000  1
