# generated using pymatgen
data_Hf3Zr8Si16Mo9
_symmetry_space_group_name_H-M   'P 1'
_cell_length_a   6.81033897
_cell_length_b   6.81033841
_cell_length_c   12.67723615
_cell_angle_alpha   90.12700791
_cell_angle_beta   89.87299318
_cell_angle_gamma   89.77534656
_symmetry_Int_Tables_number   1
_chemical_formula_structural   Hf3Zr8Si16Mo9
_chemical_formula_sum   'Hf3 Zr8 Si16 Mo9'
_cell_volume   587.97183227
_cell_formula_units_Z   1
loop_
 _symmetry_equiv_pos_site_id
 _symmetry_equiv_pos_as_xyz
  1  'x, y, z'
loop_
 _atom_site_type_symbol
 _atom_site_label
 _atom_site_symmetry_multiplicity
 _atom_site_fract_x
 _atom_site_fract_y
 _atom_site_fract_z
 _atom_site_occupancy
  Hf  Hf0  1  0.833551  0.833551  0.500000  1
  Hf  Hf1  1  0.334340  0.663672  0.246694  1
  Hf  Hf2  1  0.663672  0.334340  0.753306  1
  Zr  Zr3  1  0.007667  0.335621  0.217207  1
  Zr  Zr4  1  0.998125  0.665120  0.720388  1
  Zr  Zr5  1  0.161681  0.502460  0.468624  1
  Zr  Zr6  1  0.495619  0.840468  0.033141  1
  Zr  Zr7  1  0.840468  0.495619  0.966859  1
  Zr  Zr8  1  0.502460  0.161681  0.531376  1
  Zr  Zr9  1  0.335621  0.007667  0.782793  1
  Zr  Zr10  1  0.665120  0.998125  0.279612  1
  Si  Si11  1  0.372371  0.286069  0.325255  1
  Si  Si12  1  0.626375  0.712690  0.824618  1
  Si  Si13  1  0.211368  0.871772  0.574374  1
  Si  Si14  1  0.124264  0.799316  0.929434  1
  Si  Si15  1  0.799316  0.124264  0.070566  1
  Si  Si16  1  0.871772  0.211368  0.425626  1
  Si  Si17  1  0.286069  0.372371  0.674745  1
  Si  Si18  1  0.712690  0.626375  0.175382  1
  Si  Si19  1  0.290485  0.044311  0.183480  1
  Si  Si20  1  0.702759  0.958536  0.689042  1
  Si  Si21  1  0.456011  0.796381  0.436650  1
  Si  Si22  1  0.219372  0.527105  0.054854  1
  Si  Si23  1  0.527105  0.219372  0.945146  1
  Si  Si24  1  0.796381  0.456011  0.563350  1
  Si  Si25  1  0.044311  0.290485  0.816520  1
  Si  Si26  1  0.958536  0.702759  0.310958  1
  Mo  Mo27  1  0.168005  0.168005  0.000000  1
  Mo  Mo28  1  0.157450  0.996694  0.377451  1
  Mo  Mo29  1  0.828997  0.005159  0.876809  1
  Mo  Mo30  1  0.504733  0.659145  0.624435  1
  Mo  Mo31  1  0.331447  0.510863  0.862111  1
  Mo  Mo32  1  0.510863  0.331447  0.137889  1
  Mo  Mo33  1  0.659145  0.504733  0.375565  1
  Mo  Mo34  1  0.996694  0.157450  0.622549  1
  Mo  Mo35  1  0.005159  0.828997  0.123191  1
