# generated using pymatgen
data_TbYb2Ho(Ga2Ag)4
_symmetry_space_group_name_H-M   'P 1'
_cell_length_a   4.35105200
_cell_length_b   6.98450215
_cell_length_c   10.34014800
_cell_angle_alpha   90.07102619
_cell_angle_beta   90.00000000
_cell_angle_gamma   90.00000000
_symmetry_Int_Tables_number   1
_chemical_formula_structural   TbYb2Ho(Ga2Ag)4
_chemical_formula_sum   'Tb1 Yb2 Ho1 Ga8 Ag4'
_cell_volume   314.23615387
_cell_formula_units_Z   1
loop_
 _symmetry_equiv_pos_site_id
 _symmetry_equiv_pos_as_xyz
  1  'x, y, z'
loop_
 _atom_site_type_symbol
 _atom_site_label
 _atom_site_symmetry_multiplicity
 _atom_site_fract_x
 _atom_site_fract_y
 _atom_site_fract_z
 _atom_site_occupancy
  Tb  Tb0  1  0.250000  0.279619  0.673238  1
  Yb  Yb1  1  0.750000  0.222681  0.173505  1
  Yb  Yb2  1  0.750000  0.722620  0.326403  1
  Ho  Ho3  1  0.250000  0.779330  0.827584  1
  Ga  Ga4  1  0.250000  0.928181  0.151804  1
  Ga  Ga5  1  0.750000  0.071702  0.845107  1
  Ga  Ga6  1  0.750000  0.573786  0.655130  1
  Ga  Ga7  1  0.250000  0.428249  0.348185  1
  Ga  Ga8  1  0.250000  0.701480  0.534293  1
  Ga  Ga9  1  0.750000  0.298592  0.464840  1
  Ga  Ga10  1  0.750000  0.798649  0.034647  1
  Ga  Ga11  1  0.250000  0.199492  0.966414  1
  Ag  Ag12  1  0.250000  0.542784  0.096759  1
  Ag  Ag13  1  0.750000  0.455427  0.903305  1
  Ag  Ag14  1  0.750000  0.954936  0.596450  1
  Ag  Ag15  1  0.250000  0.042472  0.402337  1
