# generated using pymatgen
data_Ca20Cd2GaAg9
_symmetry_space_group_name_H-M   'P 1'
_cell_length_a   8.13650200
_cell_length_b   8.13650200
_cell_length_c   14.67681600
_cell_angle_alpha   90.00000000
_cell_angle_beta   90.00000000
_cell_angle_gamma   90.00000000
_symmetry_Int_Tables_number   1
_chemical_formula_structural   Ca20Cd2GaAg9
_chemical_formula_sum   'Ca20 Cd2 Ga1 Ag9'
_cell_volume   971.64432992
_cell_formula_units_Z   1
loop_
 _symmetry_equiv_pos_site_id
 _symmetry_equiv_pos_as_xyz
  1  'x, y, z'
loop_
 _atom_site_type_symbol
 _atom_site_label
 _atom_site_symmetry_multiplicity
 _atom_site_fract_x
 _atom_site_fract_y
 _atom_site_fract_z
 _atom_site_occupancy
  Ca  Ca0  1  0.671064  0.162889  0.105390  1
  Ca  Ca1  1  0.166148  0.671018  0.606220  1
  Ca  Ca2  1  0.328936  0.837111  0.105390  1
  Ca  Ca3  1  0.833852  0.328982  0.606220  1
  Ca  Ca4  1  0.837111  0.671064  0.105390  1
  Ca  Ca5  1  0.328982  0.166148  0.606220  1
  Ca  Ca6  1  0.162889  0.328936  0.105390  1
  Ca  Ca7  1  0.671018  0.833852  0.606220  1
  Ca  Ca8  1  0.837111  0.328936  0.894610  1
  Ca  Ca9  1  0.328982  0.833852  0.393780  1
  Ca  Ca10  1  0.162889  0.671064  0.894610  1
  Ca  Ca11  1  0.671018  0.166148  0.393780  1
  Ca  Ca12  1  0.671064  0.837111  0.894610  1
  Ca  Ca13  1  0.166148  0.328982  0.393780  1
  Ca  Ca14  1  0.328936  0.162889  0.894610  1
  Ca  Ca15  1  0.833852  0.671018  0.393780  1
  Ca  Ca16  1  0.500000  0.500000  0.753703  1
  Ca  Ca17  1  0.000000  0.000000  0.252587  1
  Ca  Ca18  1  0.000000  0.000000  0.747413  1
  Ca  Ca19  1  0.500000  0.500000  0.246297  1
  Cd  Cd20  1  0.500000  0.500000  0.500000  1
  Cd  Cd21  1  0.500000  0.500000  0.000000  1
  Ga  Ga22  1  0.000000  0.000000  0.500000  1
  Ag  Ag23  1  0.625319  0.126546  0.751267  1
  Ag  Ag24  1  0.126546  0.625319  0.248733  1
  Ag  Ag25  1  0.873454  0.374681  0.248733  1
  Ag  Ag26  1  0.374681  0.873454  0.751267  1
  Ag  Ag27  1  0.873454  0.625319  0.751267  1
  Ag  Ag28  1  0.374681  0.126546  0.248733  1
  Ag  Ag29  1  0.126546  0.374681  0.751267  1
  Ag  Ag30  1  0.625319  0.873454  0.248733  1
  Ag  Ag31  1  0.000000  0.000000  0.000000  1
