# generated using pymatgen
data_Er4Pd3PtO14
_symmetry_space_group_name_H-M   'P 1'
_cell_length_a   7.21835492
_cell_length_b   7.21835472
_cell_length_c   7.21619516
_cell_angle_alpha   59.99010073
_cell_angle_beta   59.99010342
_cell_angle_gamma   59.99999925
_symmetry_Int_Tables_number   1
_chemical_formula_structural   Er4Pd3PtO14
_chemical_formula_sum   'Er4 Pd3 Pt1 O14'
_cell_volume   265.83045362
_cell_formula_units_Z   1
loop_
 _symmetry_equiv_pos_site_id
 _symmetry_equiv_pos_as_xyz
  1  'x, y, z'
loop_
 _atom_site_type_symbol
 _atom_site_label
 _atom_site_symmetry_multiplicity
 _atom_site_fract_x
 _atom_site_fract_y
 _atom_site_fract_z
 _atom_site_occupancy
  Er  Er0  1  0.625000  0.625000  0.125000  1
  Er  Er1  1  0.625000  0.625000  0.625000  1
  Er  Er2  1  0.625000  0.125000  0.625000  1
  Er  Er3  1  0.125000  0.625000  0.625000  1
  Pd  Pd4  1  0.625000  0.125000  0.125000  1
  Pd  Pd5  1  0.125000  0.125000  0.125000  1
  Pd  Pd6  1  0.125000  0.625000  0.125000  1
  Pt  Pt7  1  0.125000  0.125000  0.625000  1
  O  O8  1  0.032813  0.466229  0.468145  1
  O  O9  1  0.783120  0.783120  0.216888  1
  O  O10  1  0.783120  0.216873  0.216888  1
  O  O11  1  0.750058  0.750058  0.749827  1
  O  O12  1  0.033127  0.466880  0.033112  1
  O  O13  1  0.466229  0.032813  0.468145  1
  O  O14  1  0.032813  0.032813  0.468145  1
  O  O15  1  0.499942  0.499942  0.500173  1
  O  O16  1  0.217187  0.217187  0.781855  1
  O  O17  1  0.216873  0.783120  0.216888  1
  O  O18  1  0.783771  0.217187  0.781855  1
  O  O19  1  0.466880  0.033127  0.033112  1
  O  O20  1  0.466880  0.466880  0.033112  1
  O  O21  1  0.217187  0.783771  0.781855  1
