# generated using pymatgen
data_Dy13Er3(CdCo)4
_symmetry_space_group_name_H-M   'P 1'
_cell_length_a   9.48676030
_cell_length_b   9.47643776
_cell_length_c   9.48554200
_cell_angle_alpha   59.96821440
_cell_angle_beta   60.00424803
_cell_angle_gamma   59.95397874
_symmetry_Int_Tables_number   1
_chemical_formula_structural   Dy13Er3(CdCo)4
_chemical_formula_sum   'Dy13 Er3 Cd4 Co4'
_cell_volume   602.65460533
_cell_formula_units_Z   1
loop_
 _symmetry_equiv_pos_site_id
 _symmetry_equiv_pos_as_xyz
  1  'x, y, z'
loop_
 _atom_site_type_symbol
 _atom_site_label
 _atom_site_symmetry_multiplicity
 _atom_site_fract_x
 _atom_site_fract_y
 _atom_site_fract_z
 _atom_site_occupancy
  Dy  Dy0  1  0.938088  0.561254  0.562065  1
  Dy  Dy1  1  0.539173  0.153572  0.153628  1
  Dy  Dy2  1  0.153172  0.153954  0.538143  1
  Dy  Dy3  1  0.937587  0.938387  0.562013  1
  Dy  Dy4  1  0.312777  0.688173  0.311067  1
  Dy  Dy5  1  0.561634  0.938332  0.938155  1
  Dy  Dy6  1  0.561634  0.938332  0.561877  1
  Dy  Dy7  1  0.688534  0.687263  0.312101  1
  Dy  Dy8  1  0.561718  0.561212  0.938535  1
  Dy  Dy9  1  0.938088  0.561254  0.938593  1
  Dy  Dy10  1  0.312777  0.688173  0.687983  1
  Dy  Dy11  1  0.153172  0.153954  0.154729  1
  Dy  Dy12  1  0.312706  0.311938  0.687678  1
  Er  Er13  1  0.153603  0.538066  0.154165  1
  Er  Er14  1  0.688469  0.312665  0.687273  1
  Er  Er15  1  0.688469  0.312665  0.311593  1
  Cd  Cd16  1  0.919312  0.242050  0.919319  1
  Cd  Cd17  1  0.919612  0.919731  0.919331  1
  Cd  Cd18  1  0.919612  0.919731  0.241326  1
  Cd  Cd19  1  0.242248  0.919185  0.919283  1
  Co  Co20  1  0.358427  0.359277  0.923090  1
  Co  Co21  1  0.358541  0.922474  0.359493  1
  Co  Co22  1  0.922220  0.359079  0.359352  1
  Co  Co23  1  0.358427  0.359277  0.359207  1
