# generated using pymatgen
data_Ba2TbCoO5
_symmetry_space_group_name_H-M   'P 1'
_cell_length_a   6.17781300
_cell_length_b   7.97933135
_cell_length_c   12.51507492
_cell_angle_alpha   91.32122619
_cell_angle_beta   90.00000000
_cell_angle_gamma   90.00000000
_symmetry_Int_Tables_number   1
_chemical_formula_structural   Ba2TbCoO5
_chemical_formula_sum   'Ba8 Tb4 Co4 O20'
_cell_volume   616.76430830
_cell_formula_units_Z   4
loop_
 _symmetry_equiv_pos_site_id
 _symmetry_equiv_pos_as_xyz
  1  'x, y, z'
loop_
 _atom_site_type_symbol
 _atom_site_label
 _atom_site_symmetry_multiplicity
 _atom_site_fract_x
 _atom_site_fract_y
 _atom_site_fract_z
 _atom_site_occupancy
  Ba  Ba0  1  0.762854  0.489218  0.359440  1
  Ba  Ba1  1  0.737146  0.989218  0.859440  1
  Ba  Ba2  1  0.237146  0.510782  0.640560  1
  Ba  Ba3  1  0.262854  0.010782  0.140560  1
  Ba  Ba4  1  0.756102  0.994050  0.382787  1
  Ba  Ba5  1  0.743898  0.494050  0.882787  1
  Ba  Ba6  1  0.243898  0.005950  0.617213  1
  Ba  Ba7  1  0.256102  0.505950  0.117213  1
  Tb  Tb8  1  0.747410  0.262441  0.628602  1
  Tb  Tb9  1  0.752590  0.762441  0.128602  1
  Tb  Tb10  1  0.252590  0.737559  0.371398  1
  Tb  Tb11  1  0.247410  0.237559  0.871398  1
  Co  Co12  1  0.738675  0.745632  0.591511  1
  Co  Co13  1  0.761325  0.245632  0.091511  1
  Co  Co14  1  0.261325  0.254368  0.408489  1
  Co  Co15  1  0.238675  0.754368  0.908489  1
  O  O16  1  0.759452  0.969813  0.634242  1
  O  O17  1  0.740548  0.469813  0.134242  1
  O  O18  1  0.240548  0.030187  0.365758  1
  O  O19  1  0.259452  0.530187  0.865758  1
  O  O20  1  0.733150  0.054370  0.169160  1
  O  O21  1  0.766850  0.554370  0.669160  1
  O  O22  1  0.266850  0.945630  0.830840  1
  O  O23  1  0.233150  0.445630  0.330840  1
  O  O24  1  0.551314  0.746102  0.275312  1
  O  O25  1  0.948686  0.246102  0.775312  1
  O  O26  1  0.448686  0.253898  0.724688  1
  O  O27  1  0.051314  0.753898  0.224688  1
  O  O28  1  0.538068  0.230085  0.984924  1
  O  O29  1  0.961932  0.730085  0.484924  1
  O  O30  1  0.461932  0.769915  0.015076  1
  O  O31  1  0.038068  0.269915  0.515076  1
  O  O32  1  0.037882  0.236793  0.023996  1
  O  O33  1  0.462118  0.736793  0.523996  1
  O  O34  1  0.962118  0.763207  0.976004  1
  O  O35  1  0.537882  0.263207  0.476004  1
