# generated using pymatgen
data_Ho16Tl2In2Ru3Rh
_symmetry_space_group_name_H-M   'P 1'
_cell_length_a   9.59950793
_cell_length_b   9.59950807
_cell_length_c   9.58636538
_cell_angle_alpha   59.93254902
_cell_angle_beta   59.93254951
_cell_angle_gamma   59.97175427
_symmetry_Int_Tables_number   1
_chemical_formula_structural   Ho16Tl2In2Ru3Rh
_chemical_formula_sum   'Ho16 Tl2 In2 Ru3 Rh1'
_cell_volume   623.87962427
_cell_formula_units_Z   1
loop_
 _symmetry_equiv_pos_site_id
 _symmetry_equiv_pos_as_xyz
  1  'x, y, z'
loop_
 _atom_site_type_symbol
 _atom_site_label
 _atom_site_symmetry_multiplicity
 _atom_site_fract_x
 _atom_site_fract_y
 _atom_site_fract_z
 _atom_site_occupancy
  Ho  Ho0  1  0.188710  0.188710  0.809518  1
  Ho  Ho1  1  0.599226  0.599226  0.201754  1
  Ho  Ho2  1  0.439512  0.060022  0.440351  1
  Ho  Ho3  1  0.440155  0.440155  0.061882  1
  Ho  Ho4  1  0.812805  0.189488  0.809139  1
  Ho  Ho5  1  0.190653  0.809973  0.189437  1
  Ho  Ho6  1  0.439194  0.058047  0.062232  1
  Ho  Ho7  1  0.189488  0.812805  0.809139  1
  Ho  Ho8  1  0.058047  0.439194  0.062232  1
  Ho  Ho9  1  0.809593  0.809593  0.190226  1
  Ho  Ho10  1  0.201197  0.599618  0.599026  1
  Ho  Ho11  1  0.060022  0.439512  0.440351  1
  Ho  Ho12  1  0.060318  0.060318  0.439444  1
  Ho  Ho13  1  0.809973  0.190653  0.189437  1
  Ho  Ho14  1  0.599618  0.201197  0.599026  1
  Ho  Ho15  1  0.599820  0.599820  0.599295  1
  Tl  Tl16  1  0.834145  0.834145  0.835159  1
  Tl  Tl17  1  0.834220  0.834220  0.496076  1
  In  In18  1  0.501070  0.832227  0.833175  1
  In  In19  1  0.832227  0.501070  0.833175  1
  Ru  Ru20  1  0.391532  0.825220  0.391790  1
  Ru  Ru21  1  0.391451  0.391451  0.391701  1
  Ru  Ru22  1  0.825220  0.391532  0.391790  1
  Rh  Rh23  1  0.391801  0.391801  0.824646  1
