# generated using pymatgen
data_Tm16MgTl2AgRh4
_symmetry_space_group_name_H-M   'P 1'
_cell_length_a   9.53539004
_cell_length_b   9.50224664
_cell_length_c   9.56871300
_cell_angle_alpha   59.76833923
_cell_angle_beta   59.88432656
_cell_angle_gamma   59.86336260
_symmetry_Int_Tables_number   1
_chemical_formula_structural   Tm16MgTl2AgRh4
_chemical_formula_sum   'Tm16 Mg1 Tl2 Ag1 Rh4'
_cell_volume   610.81440707
_cell_formula_units_Z   1
loop_
 _symmetry_equiv_pos_site_id
 _symmetry_equiv_pos_as_xyz
  1  'x, y, z'
loop_
 _atom_site_type_symbol
 _atom_site_label
 _atom_site_symmetry_multiplicity
 _atom_site_fract_x
 _atom_site_fract_y
 _atom_site_fract_z
 _atom_site_occupancy
  Tm  Tm0  1  0.599124  0.599226  0.595714  1
  Tm  Tm1  1  0.599124  0.599226  0.205935  1
  Tm  Tm2  1  0.602185  0.202722  0.597546  1
  Tm  Tm3  1  0.194009  0.603911  0.601040  1
  Tm  Tm4  1  0.060288  0.437904  0.439090  1
  Tm  Tm5  1  0.435568  0.061977  0.064506  1
  Tm  Tm6  1  0.435568  0.061977  0.437950  1
  Tm  Tm7  1  0.060288  0.437904  0.062720  1
  Tm  Tm8  1  0.435089  0.436686  0.064113  1
  Tm  Tm9  1  0.059745  0.060356  0.439950  1
  Tm  Tm10  1  0.188446  0.814160  0.813635  1
  Tm  Tm11  1  0.812998  0.193658  0.179638  1
  Tm  Tm12  1  0.812998  0.193658  0.813705  1
  Tm  Tm13  1  0.188446  0.814160  0.183760  1
  Tm  Tm14  1  0.813606  0.815334  0.185530  1
  Tm  Tm15  1  0.186153  0.191256  0.811295  1
  Mg  Mg16  1  0.526700  0.819093  0.827104  1
  Tl  Tl17  1  0.832776  0.831494  0.839199  1
  Tl  Tl18  1  0.832776  0.831494  0.496532  1
  Ag  Ag19  1  0.831900  0.493421  0.837340  1
  Rh  Rh20  1  0.389529  0.393425  0.395264  1
  Rh  Rh21  1  0.389529  0.393425  0.821781  1
  Rh  Rh22  1  0.390620  0.821037  0.394171  1
  Rh  Rh23  1  0.822534  0.392496  0.392484  1
