# generated using pymatgen
data_Dy2U(SnIr)3
_symmetry_space_group_name_H-M   'P 1'
_cell_length_a   7.44300314
_cell_length_b   7.57544454
_cell_length_c   3.95314700
_cell_angle_alpha   90.00000000
_cell_angle_beta   90.00000000
_cell_angle_gamma   120.59040249
_symmetry_Int_Tables_number   1
_chemical_formula_structural   Dy2U(SnIr)3
_chemical_formula_sum   'Dy2 U1 Sn3 Ir3'
_cell_volume   191.87363941
_cell_formula_units_Z   1
loop_
 _symmetry_equiv_pos_site_id
 _symmetry_equiv_pos_as_xyz
  1  'x, y, z'
loop_
 _atom_site_type_symbol
 _atom_site_label
 _atom_site_symmetry_multiplicity
 _atom_site_fract_x
 _atom_site_fract_y
 _atom_site_fract_z
 _atom_site_occupancy
  Dy  Dy0  1  0.406597  0.404995  0.500000  1
  Dy  Dy1  1  0.593403  0.998398  0.500000  1
  U  U2  1  0.000000  0.585246  0.500000  1
  Sn  Sn3  1  0.729357  0.743235  0.000000  1
  Sn  Sn4  1  0.270643  0.013878  0.000000  1
  Sn  Sn5  1  0.000000  0.243407  0.000000  1
  Ir  Ir6  1  0.701247  0.364666  0.000000  1
  Ir  Ir7  1  0.298753  0.663420  0.000000  1
  Ir  Ir8  1  0.000000  0.982755  0.500000  1
