# generated using pymatgen
data_LiZr(InRh2)2
_symmetry_space_group_name_H-M   'P 1'
_cell_length_a   6.34918500
_cell_length_b   6.36590900
_cell_length_c   6.44877900
_cell_angle_alpha   90.00000000
_cell_angle_beta   90.00000000
_cell_angle_gamma   90.00000000
_symmetry_Int_Tables_number   1
_chemical_formula_structural   LiZr(InRh2)2
_chemical_formula_sum   'Li2 Zr2 In4 Rh8'
_cell_volume   260.64890309
_cell_formula_units_Z   2
loop_
 _symmetry_equiv_pos_site_id
 _symmetry_equiv_pos_as_xyz
  1  'x, y, z'
loop_
 _atom_site_type_symbol
 _atom_site_label
 _atom_site_symmetry_multiplicity
 _atom_site_fract_x
 _atom_site_fract_y
 _atom_site_fract_z
 _atom_site_occupancy
  Li  Li0  1  0.750226  0.250000  0.000000  1
  Li  Li1  1  0.249775  0.750000  0.000000  1
  Zr  Zr2  1  0.250222  0.750000  0.499999  1
  Zr  Zr3  1  0.749778  0.250000  0.500001  1
  In  In4  1  0.250320  0.250000  0.000000  1
  In  In5  1  0.749680  0.750000  0.000000  1
  In  In6  1  0.249431  0.250000  0.499999  1
  In  In7  1  0.750569  0.750000  0.500001  1
  Rh  Rh8  1  0.000000  0.000000  0.245579  1
  Rh  Rh9  1  0.000000  0.499996  0.245579  1
  Rh  Rh10  1  0.499992  0.000000  0.245664  1
  Rh  Rh11  1  0.499992  0.500004  0.245664  1
  Rh  Rh12  1  0.500006  0.000000  0.754336  1
  Rh  Rh13  1  0.500006  0.499996  0.754336  1
  Rh  Rh14  1  0.000000  0.000000  0.754421  1
  Rh  Rh15  1  0.000000  0.500004  0.754421  1
