# generated using pymatgen
data_Nd2Dy3Mn2P12Ir17
_symmetry_space_group_name_H-M   'P 1'
_cell_length_a   12.65793500
_cell_length_b   12.76159445
_cell_length_c   3.97895300
_cell_angle_alpha   90.00000000
_cell_angle_beta   90.00000000
_cell_angle_gamma   119.73166544
_symmetry_Int_Tables_number   1
_chemical_formula_structural   Nd2Dy3Mn2P12Ir17
_chemical_formula_sum   'Nd2 Dy3 Mn2 P12 Ir17'
_cell_volume   558.12978353
_cell_formula_units_Z   1
loop_
 _symmetry_equiv_pos_site_id
 _symmetry_equiv_pos_as_xyz
  1  'x, y, z'
loop_
 _atom_site_type_symbol
 _atom_site_label
 _atom_site_symmetry_multiplicity
 _atom_site_fract_x
 _atom_site_fract_y
 _atom_site_fract_z
 _atom_site_occupancy
  Nd  Nd0  1  0.000247  0.810729  0.000000  1
  Nd  Nd1  1  0.189517  0.189271  0.000000  1
  Dy  Dy2  1  0.332350  0.663458  0.500000  1
  Dy  Dy3  1  0.668892  0.336542  0.500000  1
  Dy  Dy4  1  0.812844  0.000000  0.000000  1
  Mn  Mn5  1  0.999048  0.456345  0.500000  1
  Mn  Mn6  1  0.542703  0.543655  0.500000  1
  P  P7  1  0.999507  0.631969  0.500000  1
  P  P8  1  0.367538  0.368031  0.500000  1
  P  P9  1  0.643468  0.000000  0.500000  1
  P  P10  1  0.515020  0.684487  0.000000  1
  P  P11  1  0.308749  0.823147  0.000000  1
  P  P12  1  0.166984  0.480926  0.000000  1
  P  P13  1  0.485602  0.176853  0.000000  1
  P  P14  1  0.686057  0.519074  0.000000  1
  P  P15  1  0.830533  0.315513  0.000000  1
  P  P16  1  0.997833  0.178410  0.500000  1
  P  P17  1  0.819422  0.821590  0.500000  1
  P  P18  1  0.180513  0.000000  0.500000  1
  Ir  Ir19  1  0.505609  0.866062  0.000000  1
  Ir  Ir20  1  0.129132  0.637264  0.000000  1
  Ir  Ir21  1  0.359072  0.492345  0.000000  1
  Ir  Ir22  1  0.491870  0.362736  0.000000  1
  Ir  Ir23  1  0.866728  0.507655  0.000000  1
  Ir  Ir24  1  0.639548  0.133938  0.000000  1
  Ir  Ir25  1  0.462914  0.000000  0.500000  1
  Ir  Ir26  1  0.996818  0.283088  0.000000  1
  Ir  Ir27  1  0.713730  0.716912  0.000000  1
  Ir  Ir28  1  0.289769  0.000000  0.000000  1
  Ir  Ir29  1  0.621513  0.804302  0.500000  1
  Ir  Ir30  1  0.202777  0.821899  0.500000  1
  Ir  Ir31  1  0.177048  0.376987  0.500000  1
  Ir  Ir32  1  0.380878  0.178101  0.500000  1
  Ir  Ir33  1  0.800061  0.623013  0.500000  1
  Ir  Ir34  1  0.817210  0.195698  0.500000  1
  Ir  Ir35  1  0.998495  0.000000  0.500000  1
