# generated using pymatgen
data_Tb4Dy4Lu4Co5Bi
_symmetry_space_group_name_H-M   'P 1'
_cell_length_a   8.26362751
_cell_length_b   8.26362847
_cell_length_c   8.26362804
_cell_angle_alpha   111.12582296
_cell_angle_beta   110.46454221
_cell_angle_gamma   106.85527325
_symmetry_Int_Tables_number   1
_chemical_formula_structural   Tb4Dy4Lu4Co5Bi
_chemical_formula_sum   'Tb4 Dy4 Lu4 Co5 Bi1'
_cell_volume   433.71012381
_cell_formula_units_Z   1
loop_
 _symmetry_equiv_pos_site_id
 _symmetry_equiv_pos_as_xyz
  1  'x, y, z'
loop_
 _atom_site_type_symbol
 _atom_site_label
 _atom_site_symmetry_multiplicity
 _atom_site_fract_x
 _atom_site_fract_y
 _atom_site_fract_z
 _atom_site_occupancy
  Tb  Tb0  1  0.596807  0.792124  0.804684  1
  Tb  Tb1  1  0.403193  0.207876  0.195316  1
  Tb  Tb2  1  0.987440  0.792124  0.195316  1
  Tb  Tb3  1  0.012560  0.207876  0.804684  1
  Dy  Dy4  1  0.816415  0.710472  0.526886  1
  Dy  Dy5  1  0.183585  0.289528  0.473114  1
  Dy  Dy6  1  0.183585  0.710472  0.894058  1
  Dy  Dy7  1  0.816415  0.289528  0.105942  1
  Lu  Lu8  1  0.686295  0.374863  0.688567  1
  Lu  Lu9  1  0.313705  0.625137  0.311433  1
  Lu  Lu10  1  0.686295  0.997728  0.311433  1
  Lu  Lu11  1  0.313705  0.002272  0.688567  1
  Co  Co12  1  0.622757  0.000000  0.622757  1
  Co  Co13  1  0.377243  0.000000  0.377243  1
  Co  Co14  1  0.112606  0.612606  0.500000  1
  Co  Co15  1  0.887394  0.387394  0.500000  1
  Co  Co16  1  0.000000  0.000000  0.000000  1
  Bi  Bi17  1  0.500000  0.500000  0.000000  1
