# generated using pymatgen
data_Dy2Cr(Fe3P2)3
_symmetry_space_group_name_H-M   'P 1'
_cell_length_a   3.65609900
_cell_length_b   10.30429500
_cell_length_c   11.84583300
_cell_angle_alpha   90.00000000
_cell_angle_beta   90.00000000
_cell_angle_gamma   90.00000000
_symmetry_Int_Tables_number   1
_chemical_formula_structural   Dy2Cr(Fe3P2)3
_chemical_formula_sum   'Dy4 Cr2 Fe18 P12'
_cell_volume   446.27425778
_cell_formula_units_Z   2
loop_
 _symmetry_equiv_pos_site_id
 _symmetry_equiv_pos_as_xyz
  1  'x, y, z'
loop_
 _atom_site_type_symbol
 _atom_site_label
 _atom_site_symmetry_multiplicity
 _atom_site_fract_x
 _atom_site_fract_y
 _atom_site_fract_z
 _atom_site_occupancy
  Dy  Dy0  1  0.250000  0.581234  0.704538  1
  Dy  Dy1  1  0.250000  0.918766  0.204538  1
  Dy  Dy2  1  0.750000  0.418875  0.295496  1
  Dy  Dy3  1  0.750000  0.081125  0.795496  1
  Cr  Cr4  1  0.250000  0.703312  0.989419  1
  Cr  Cr5  1  0.250000  0.796688  0.489419  1
  Fe  Fe6  1  0.750000  0.293100  0.012157  1
  Fe  Fe7  1  0.750000  0.206900  0.512157  1
  Fe  Fe8  1  0.250000  0.404174  0.490283  1
  Fe  Fe9  1  0.250000  0.095826  0.990283  1
  Fe  Fe10  1  0.750000  0.594456  0.509240  1
  Fe  Fe11  1  0.750000  0.905544  0.009240  1
  Fe  Fe12  1  0.250000  0.219270  0.176334  1
  Fe  Fe13  1  0.250000  0.280730  0.676334  1
  Fe  Fe14  1  0.750000  0.782105  0.823848  1
  Fe  Fe15  1  0.750000  0.717895  0.323848  1
  Fe  Fe16  1  0.250000  0.875685  0.701093  1
  Fe  Fe17  1  0.250000  0.624315  0.201093  1
  Fe  Fe18  1  0.750000  0.124054  0.299844  1
  Fe  Fe19  1  0.750000  0.375946  0.799844  1
  Fe  Fe20  1  0.250000  0.462362  0.932802  1
  Fe  Fe21  1  0.250000  0.037638  0.432802  1
  Fe  Fe22  1  0.750000  0.534342  0.066219  1
  Fe  Fe23  1  0.750000  0.965658  0.566219  1
  P  P24  1  0.250000  0.422538  0.112996  1
  P  P25  1  0.250000  0.077462  0.612996  1
  P  P26  1  0.750000  0.578216  0.886818  1
  P  P27  1  0.750000  0.921784  0.386818  1
  P  P28  1  0.250000  0.265716  0.871072  1
  P  P29  1  0.250000  0.234284  0.371072  1
  P  P30  1  0.750000  0.732941  0.130197  1
  P  P31  1  0.750000  0.767059  0.630197  1
  P  P32  1  0.250000  0.597488  0.393589  1
  P  P33  1  0.250000  0.902512  0.893589  1
  P  P34  1  0.750000  0.398286  0.604053  1
  P  P35  1  0.750000  0.101714  0.104053  1
