# generated using pymatgen
data_NdTh3(SnH4)2
_symmetry_space_group_name_H-M   'P 1'
_cell_length_a   6.40457724
_cell_length_b   6.40457802
_cell_length_c   6.37703911
_cell_angle_alpha   105.61519969
_cell_angle_beta   105.61521364
_cell_angle_gamma   117.64317075
_symmetry_Int_Tables_number   1
_chemical_formula_structural   NdTh3(SnH4)2
_chemical_formula_sum   'Nd1 Th3 Sn2 H8'
_cell_volume   197.93531969
_cell_formula_units_Z   1
loop_
 _symmetry_equiv_pos_site_id
 _symmetry_equiv_pos_as_xyz
  1  'x, y, z'
loop_
 _atom_site_type_symbol
 _atom_site_label
 _atom_site_symmetry_multiplicity
 _atom_site_fract_x
 _atom_site_fract_y
 _atom_site_fract_z
 _atom_site_occupancy
  Nd  Nd0  1  0.836721  0.663279  0.500000  1
  Th  Th1  1  0.660486  0.161463  0.821951  1
  Th  Th2  1  0.160655  0.339345  0.500000  1
  Th  Th3  1  0.338537  0.839514  0.178049  1
  Sn  Sn4  1  0.750084  0.749916  0.000000  1
  Sn  Sn5  1  0.250084  0.249916  0.000000  1
  H  H6  1  0.225652  0.976858  0.500000  1
  H  H7  1  0.470728  0.724988  0.500000  1
  H  H8  1  0.721284  0.216834  0.242169  1
  H  H9  1  0.979116  0.474666  0.757831  1
  H  H10  1  0.283166  0.778716  0.757831  1
  H  H11  1  0.523142  0.274348  0.500000  1
  H  H12  1  0.025334  0.520884  0.242169  1
  H  H13  1  0.775012  0.029272  0.500000  1
