# generated using pymatgen
data_Er10Ga2CuNiBi2
_symmetry_space_group_name_H-M   'P 1'
_cell_length_a   8.48584246
_cell_length_b   8.48584236
_cell_length_c   8.66004379
_cell_angle_alpha   124.49849821
_cell_angle_beta   124.49849126
_cell_angle_gamma   81.02385507
_symmetry_Int_Tables_number   1
_chemical_formula_structural   Er10Ga2CuNiBi2
_chemical_formula_sum   'Er10 Ga2 Cu1 Ni1 Bi2'
_cell_volume   410.90622590
_cell_formula_units_Z   1
loop_
 _symmetry_equiv_pos_site_id
 _symmetry_equiv_pos_as_xyz
  1  'x, y, z'
loop_
 _atom_site_type_symbol
 _atom_site_label
 _atom_site_symmetry_multiplicity
 _atom_site_fract_x
 _atom_site_fract_y
 _atom_site_fract_z
 _atom_site_occupancy
  Er  Er0  1  0.998004  0.998818  0.996823  1
  Er  Er1  1  0.501182  0.501996  0.003177  1
  Er  Er2  1  0.780045  0.289120  0.791400  1
  Er  Er3  1  0.210880  0.719955  0.208600  1
  Er  Er4  1  0.488644  0.997719  0.208600  1
  Er  Er5  1  0.303031  0.463953  0.500000  1
  Er  Er6  1  0.036047  0.196969  0.500000  1
  Er  Er7  1  0.502281  0.011356  0.791400  1
  Er  Er8  1  0.703894  0.523546  0.500000  1
  Er  Er9  1  0.976454  0.796106  0.500000  1
  Ga  Ga10  1  0.145070  0.643647  0.788718  1
  Ga  Ga11  1  0.856353  0.354930  0.211282  1
  Cu  Cu12  1  0.627944  0.872056  0.500000  1
  Ni  Ni13  1  0.375943  0.124057  0.500000  1
  Bi  Bi14  1  0.247115  0.252885  0.000000  1
  Bi  Bi15  1  0.747115  0.752885  0.000000  1
