# generated using pymatgen
data_TmZnNi2BIr
_symmetry_space_group_name_H-M   'P 1'
_cell_length_a   5.17735648
_cell_length_b   5.29351403
_cell_length_c   6.98135500
_cell_angle_alpha   90.00000000
_cell_angle_beta   90.00000000
_cell_angle_gamma   120.74500221
_symmetry_Int_Tables_number   1
_chemical_formula_structural   TmZnNi2BIr
_chemical_formula_sum   'Tm2 Zn2 Ni4 B2 Ir2'
_cell_volume   164.44208862
_cell_formula_units_Z   2
loop_
 _symmetry_equiv_pos_site_id
 _symmetry_equiv_pos_as_xyz
  1  'x, y, z'
loop_
 _atom_site_type_symbol
 _atom_site_label
 _atom_site_symmetry_multiplicity
 _atom_site_fract_x
 _atom_site_fract_y
 _atom_site_fract_z
 _atom_site_occupancy
  Tm  Tm0  1  0.000000  0.000000  0.500000  1
  Tm  Tm1  1  0.000000  0.000000  0.000000  1
  Zn  Zn2  1  0.685624  0.342812  0.000000  1
  Zn  Zn3  1  0.314376  0.657188  0.000000  1
  Ni  Ni4  1  0.000000  0.500000  0.301076  1
  Ni  Ni5  1  0.500000  0.500000  0.703740  1
  Ni  Ni6  1  0.000000  0.500000  0.698924  1
  Ni  Ni7  1  0.500000  0.000000  0.296260  1
  B  B8  1  0.668616  0.334308  0.500000  1
  B  B9  1  0.331384  0.665692  0.500000  1
  Ir  Ir10  1  0.500000  0.500000  0.292125  1
  Ir  Ir11  1  0.500000  0.000000  0.707875  1
