# generated using pymatgen
data_La2YbTm3Se8
_symmetry_space_group_name_H-M   'P 1'
_cell_length_a   4.07602800
_cell_length_b   13.54114900
_cell_length_c   13.76030900
_cell_angle_alpha   90.00000000
_cell_angle_beta   90.00000000
_cell_angle_gamma   90.00000000
_symmetry_Int_Tables_number   1
_chemical_formula_structural   La2YbTm3Se8
_chemical_formula_sum   'La4 Yb2 Tm6 Se16'
_cell_volume   759.48790505
_cell_formula_units_Z   2
loop_
 _symmetry_equiv_pos_site_id
 _symmetry_equiv_pos_as_xyz
  1  'x, y, z'
loop_
 _atom_site_type_symbol
 _atom_site_label
 _atom_site_symmetry_multiplicity
 _atom_site_fract_x
 _atom_site_fract_y
 _atom_site_fract_z
 _atom_site_occupancy
  La  La0  1  0.250000  0.368805  0.589708  1
  La  La1  1  0.250000  0.868805  0.910292  1
  La  La2  1  0.750000  0.634117  0.409112  1
  La  La3  1  0.750000  0.134117  0.090888  1
  Yb  Yb4  1  0.250000  0.103667  0.420428  1
  Yb  Yb5  1  0.250000  0.603667  0.079572  1
  Tm  Tm6  1  0.750000  0.896089  0.573854  1
  Tm  Tm7  1  0.750000  0.396089  0.926146  1
  Tm  Tm8  1  0.250000  0.148342  0.797865  1
  Tm  Tm9  1  0.250000  0.648342  0.702135  1
  Tm  Tm10  1  0.750000  0.851966  0.203244  1
  Tm  Tm11  1  0.750000  0.351966  0.296756  1
  Se  Se12  1  0.250000  0.218816  0.236168  1
  Se  Se13  1  0.250000  0.718816  0.263832  1
  Se  Se14  1  0.750000  0.784955  0.758929  1
  Se  Se15  1  0.750000  0.284955  0.741071  1
  Se  Se16  1  0.250000  0.256034  0.973110  1
  Se  Se17  1  0.250000  0.756034  0.526890  1
  Se  Se18  1  0.750000  0.749176  0.024377  1
  Se  Se19  1  0.750000  0.249176  0.475623  1
  Se  Se20  1  0.250000  0.468755  0.382802  1
  Se  Se21  1  0.250000  0.968755  0.117198  1
  Se  Se22  1  0.750000  0.534872  0.613979  1
  Se  Se23  1  0.750000  0.034872  0.886021  1
  Se  Se24  1  0.250000  0.027489  0.628993  1
  Se  Se25  1  0.250000  0.527489  0.871007  1
  Se  Se26  1  0.750000  0.956917  0.380252  1
  Se  Se27  1  0.750000  0.456917  0.119748  1
