# generated using pymatgen
data_Tb4Al18Ni3Os2Pd
_symmetry_space_group_name_H-M   'P 1'
_cell_length_a   7.54488185
_cell_length_b   7.54488148
_cell_length_c   9.42967553
_cell_angle_alpha   90.10068758
_cell_angle_beta   90.10068517
_cell_angle_gamma   119.63043233
_symmetry_Int_Tables_number   1
_chemical_formula_structural   Tb4Al18Ni3Os2Pd
_chemical_formula_sum   'Tb4 Al18 Ni3 Os2 Pd1'
_cell_volume   466.58942805
_cell_formula_units_Z   1
loop_
 _symmetry_equiv_pos_site_id
 _symmetry_equiv_pos_as_xyz
  1  'x, y, z'
loop_
 _atom_site_type_symbol
 _atom_site_label
 _atom_site_symmetry_multiplicity
 _atom_site_fract_x
 _atom_site_fract_y
 _atom_site_fract_z
 _atom_site_occupancy
  Tb  Tb0  1  0.995559  0.669286  0.249714  1
  Tb  Tb1  1  0.004441  0.330714  0.750286  1
  Tb  Tb2  1  0.669286  0.995559  0.249714  1
  Tb  Tb3  1  0.330714  0.004441  0.750286  1
  Al  Al4  1  0.127151  0.127151  0.256712  1
  Al  Al5  1  0.872849  0.872849  0.743288  1
  Al  Al6  1  0.002492  0.340163  0.074318  1
  Al  Al7  1  0.997508  0.659837  0.925682  1
  Al  Al8  1  0.001318  0.666074  0.572619  1
  Al  Al9  1  0.333926  0.998682  0.427381  1
  Al  Al10  1  0.998682  0.333926  0.427381  1
  Al  Al11  1  0.666074  0.001318  0.572619  1
  Al  Al12  1  0.659837  0.997508  0.925682  1
  Al  Al13  1  0.340163  0.002492  0.074318  1
  Al  Al14  1  0.333000  0.333000  0.551997  1
  Al  Al15  1  0.667000  0.667000  0.448003  1
  Al  Al16  1  0.661618  0.661618  0.049661  1
  Al  Al17  1  0.338382  0.338382  0.950339  1
  Al  Al18  1  0.338464  0.549824  0.252977  1
  Al  Al19  1  0.661536  0.450176  0.747023  1
  Al  Al20  1  0.549824  0.338464  0.252977  1
  Al  Al21  1  0.450176  0.661536  0.747023  1
  Ni  Ni22  1  0.328653  0.671347  0.500000  1
  Ni  Ni23  1  0.671347  0.328653  0.500000  1
  Ni  Ni24  1  0.000000  0.000000  0.500000  1
  Os  Os25  1  0.671840  0.328160  0.000000  1
  Os  Os26  1  0.328160  0.671840  0.000000  1
  Pd  Pd27  1  0.000000  0.000000  0.000000  1
