# generated using pymatgen
data_Nd8Y12Si13Pd3
_symmetry_space_group_name_H-M   'P 1'
_cell_length_a   7.82028006
_cell_length_b   7.83722234
_cell_length_c   14.35506522
_cell_angle_alpha   90.08001902
_cell_angle_beta   90.55297287
_cell_angle_gamma   90.07035146
_symmetry_Int_Tables_number   1
_chemical_formula_structural   Nd8Y12Si13Pd3
_chemical_formula_sum   'Nd8 Y12 Si13 Pd3'
_cell_volume   879.76900908
_cell_formula_units_Z   1
loop_
 _symmetry_equiv_pos_site_id
 _symmetry_equiv_pos_as_xyz
  1  'x, y, z'
loop_
 _atom_site_type_symbol
 _atom_site_label
 _atom_site_symmetry_multiplicity
 _atom_site_fract_x
 _atom_site_fract_y
 _atom_site_fract_z
 _atom_site_occupancy
  Nd  Nd0  1  0.634391  0.985804  0.460956  1
  Nd  Nd1  1  0.360154  0.008820  0.959658  1
  Nd  Nd2  1  0.982771  0.635018  0.538769  1
  Nd  Nd3  1  0.491947  0.853344  0.208942  1
  Nd  Nd4  1  0.512068  0.147482  0.715087  1
  Nd  Nd5  1  0.860395  0.499273  0.791591  1
  Nd  Nd6  1  0.147261  0.505009  0.288535  1
  Nd  Nd7  1  0.014677  0.367319  0.040701  1
  Y  Y8  1  0.493468  0.363365  0.121474  1
  Y  Y9  1  0.980039  0.142854  0.627620  1
  Y  Y10  1  0.865367  0.017447  0.876240  1
  Y  Y11  1  0.142155  0.980034  0.372913  1
  Y  Y12  1  0.507702  0.640273  0.621475  1
  Y  Y13  1  0.362655  0.497918  0.876598  1
  Y  Y14  1  0.636824  0.501638  0.378135  1
  Y  Y15  1  0.012231  0.857664  0.127797  1
  Y  Y16  1  0.310803  0.311999  0.502063  1
  Y  Y17  1  0.185447  0.827061  0.746184  1
  Y  Y18  1  0.820449  0.178563  0.248946  1
  Y  Y19  1  0.689137  0.688015  0.999873  1
  Si  Si20  1  0.437789  0.203101  0.309596  1
  Si  Si21  1  0.566879  0.793333  0.810720  1
  Si  Si22  1  0.206111  0.440025  0.689709  1
  Si  Si23  1  0.791996  0.562482  0.190485  1
  Si  Si24  1  0.066160  0.712899  0.937161  1
  Si  Si25  1  0.793068  0.848751  0.689631  1
  Si  Si26  1  0.210738  0.149628  0.187289  1
  Si  Si27  1  0.846345  0.788130  0.311971  1
  Si  Si28  1  0.343851  0.692412  0.437966  1
  Si  Si29  1  0.655144  0.305705  0.938163  1
  Si  Si30  1  0.693310  0.343468  0.562778  1
  Si  Si31  1  0.296595  0.655087  0.059002  1
  Si  Si32  1  0.152934  0.211972  0.811426  1
  Pd  Pd33  1  0.281633  0.936634  0.559525  1
  Pd  Pd34  1  0.713568  0.067927  0.061280  1
  Pd  Pd35  1  0.933936  0.279548  0.439743  1
