# generated using pymatgen
data_Tm12Th4Zn4FeNi3
_symmetry_space_group_name_H-M   'P 1'
_cell_length_a   9.41674748
_cell_length_b   9.41674859
_cell_length_c   9.41674680
_cell_angle_alpha   59.61432387
_cell_angle_beta   59.61431161
_cell_angle_gamma   59.61432270
_symmetry_Int_Tables_number   1
_chemical_formula_structural   Tm12Th4Zn4FeNi3
_chemical_formula_sum   'Tm12 Th4 Zn4 Fe1 Ni3'
_cell_volume   585.28081840
_cell_formula_units_Z   1
loop_
 _symmetry_equiv_pos_site_id
 _symmetry_equiv_pos_as_xyz
  1  'x, y, z'
loop_
 _atom_site_type_symbol
 _atom_site_label
 _atom_site_symmetry_multiplicity
 _atom_site_fract_x
 _atom_site_fract_y
 _atom_site_fract_z
 _atom_site_occupancy
  Tm  Tm0  1  0.815671  0.187808  0.187808  1
  Tm  Tm1  1  0.187840  0.810414  0.810414  1
  Tm  Tm2  1  0.187808  0.815671  0.187808  1
  Tm  Tm3  1  0.810414  0.187840  0.810414  1
  Tm  Tm4  1  0.187808  0.187808  0.815671  1
  Tm  Tm5  1  0.810414  0.810414  0.187840  1
  Tm  Tm6  1  0.932439  0.565009  0.565009  1
  Tm  Tm7  1  0.564359  0.933680  0.933680  1
  Tm  Tm8  1  0.565009  0.932439  0.565009  1
  Tm  Tm9  1  0.933680  0.564359  0.933680  1
  Tm  Tm10  1  0.565009  0.565009  0.932439  1
  Tm  Tm11  1  0.933680  0.933680  0.564359  1
  Th  Th12  1  0.355315  0.355315  0.355315  1
  Th  Th13  1  0.349061  0.349061  0.947303  1
  Th  Th14  1  0.349061  0.947303  0.349061  1
  Th  Th15  1  0.947303  0.349061  0.349061  1
  Zn  Zn16  1  0.581229  0.581229  0.581229  1
  Zn  Zn17  1  0.581338  0.581338  0.253785  1
  Zn  Zn18  1  0.581338  0.253785  0.581338  1
  Zn  Zn19  1  0.253785  0.581338  0.581338  1
  Fe  Fe20  1  0.147059  0.147059  0.147059  1
  Ni  Ni21  1  0.144078  0.144078  0.572222  1
  Ni  Ni22  1  0.144078  0.572222  0.144078  1
  Ni  Ni23  1  0.572222  0.144078  0.144078  1
