# generated using pymatgen
data_Nd8Co3Si12Ag
_symmetry_space_group_name_H-M   'P 1'
_cell_length_a   8.17942100
_cell_length_b   8.17942352
_cell_length_c   8.54892900
_cell_angle_alpha   90.00000000
_cell_angle_beta   90.00000000
_cell_angle_gamma   119.99999384
_symmetry_Int_Tables_number   1
_chemical_formula_structural   Nd8Co3Si12Ag
_chemical_formula_sum   'Nd8 Co3 Si12 Ag1'
_cell_volume   495.32201075
_cell_formula_units_Z   1
loop_
 _symmetry_equiv_pos_site_id
 _symmetry_equiv_pos_as_xyz
  1  'x, y, z'
loop_
 _atom_site_type_symbol
 _atom_site_label
 _atom_site_symmetry_multiplicity
 _atom_site_fract_x
 _atom_site_fract_y
 _atom_site_fract_z
 _atom_site_occupancy
  Nd  Nd0  1  0.495393  0.504607  0.755727  1
  Nd  Nd1  1  0.497029  0.502971  0.245081  1
  Nd  Nd2  1  0.009214  0.504607  0.755727  1
  Nd  Nd3  1  0.005941  0.502971  0.245081  1
  Nd  Nd4  1  0.495393  0.990786  0.755727  1
  Nd  Nd5  1  0.497029  0.994059  0.245081  1
  Nd  Nd6  1  0.000000  0.000000  0.751604  1
  Nd  Nd7  1  0.000000  0.000000  0.247229  1
  Co  Co8  1  0.666667  0.333333  0.991986  1
  Co  Co9  1  0.333333  0.666667  0.007425  1
  Co  Co10  1  0.333333  0.666667  0.495262  1
  Si  Si11  1  0.827272  0.172728  0.000867  1
  Si  Si12  1  0.171233  0.828767  0.999267  1
  Si  Si13  1  0.345456  0.172728  0.000867  1
  Si  Si14  1  0.173667  0.826333  0.501384  1
  Si  Si15  1  0.657533  0.828767  0.999267  1
  Si  Si16  1  0.840241  0.159759  0.497992  1
  Si  Si17  1  0.827272  0.654544  0.000867  1
  Si  Si18  1  0.652665  0.826333  0.501384  1
  Si  Si19  1  0.171233  0.342467  0.999267  1
  Si  Si20  1  0.319519  0.159759  0.497992  1
  Si  Si21  1  0.173667  0.347335  0.501384  1
  Si  Si22  1  0.840241  0.680481  0.497992  1
  Ag  Ag23  1  0.666667  0.333333  0.505536  1
