# generated using pymatgen
data_Tm(Cu2P)2
_symmetry_space_group_name_H-M   'P 1'
_cell_length_a   3.76447300
_cell_length_b   7.19413300
_cell_length_c   7.19413300
_cell_angle_alpha   90.00000000
_cell_angle_beta   90.00000000
_cell_angle_gamma   90.00000000
_symmetry_Int_Tables_number   1
_chemical_formula_structural   Tm(Cu2P)2
_chemical_formula_sum   'Tm2 Cu8 P4'
_cell_volume   194.83236915
_cell_formula_units_Z   2
loop_
 _symmetry_equiv_pos_site_id
 _symmetry_equiv_pos_as_xyz
  1  'x, y, z'
loop_
 _atom_site_type_symbol
 _atom_site_label
 _atom_site_symmetry_multiplicity
 _atom_site_fract_x
 _atom_site_fract_y
 _atom_site_fract_z
 _atom_site_occupancy
  Tm  Tm0  1  0.000000  0.500000  0.500000  1
  Tm  Tm1  1  0.500000  0.000000  0.000000  1
  Cu  Cu2  1  0.500000  0.165506  0.584419  1
  Cu  Cu3  1  0.500000  0.834494  0.415581  1
  Cu  Cu4  1  0.000000  0.334494  0.084419  1
  Cu  Cu5  1  0.000000  0.665506  0.915581  1
  Cu  Cu6  1  0.500000  0.584419  0.165506  1
  Cu  Cu7  1  0.500000  0.415581  0.834494  1
  Cu  Cu8  1  0.000000  0.084419  0.334494  1
  Cu  Cu9  1  0.000000  0.915581  0.665506  1
  P  P10  1  0.500000  0.712878  0.712878  1
  P  P11  1  0.500000  0.287122  0.287122  1
  P  P12  1  0.000000  0.787122  0.212878  1
  P  P13  1  0.000000  0.212878  0.787122  1
