# generated using pymatgen
data_KBa(CrN2)2
_symmetry_space_group_name_H-M   'P 1'
_cell_length_a   6.51230470
_cell_length_b   6.51230403
_cell_length_c   7.77337354
_cell_angle_alpha   87.52538691
_cell_angle_beta   92.47461359
_cell_angle_gamma   127.30216195
_symmetry_Int_Tables_number   1
_chemical_formula_structural   KBa(CrN2)2
_chemical_formula_sum   'K2 Ba2 Cr4 N8'
_cell_volume   261.93132172
_cell_formula_units_Z   2
loop_
 _symmetry_equiv_pos_site_id
 _symmetry_equiv_pos_as_xyz
  1  'x, y, z'
loop_
 _atom_site_type_symbol
 _atom_site_label
 _atom_site_symmetry_multiplicity
 _atom_site_fract_x
 _atom_site_fract_y
 _atom_site_fract_z
 _atom_site_occupancy
  K  K0  1  0.837234  0.162766  0.549569  1
  K  K1  1  0.162766  0.837234  0.450431  1
  Ba  Ba2  1  0.665185  0.334815  0.082192  1
  Ba  Ba3  1  0.334815  0.665185  0.917808  1
  Cr  Cr4  1  0.551712  0.448288  0.640234  1
  Cr  Cr5  1  0.448288  0.551712  0.359766  1
  Cr  Cr6  1  0.953173  0.046827  0.134839  1
  Cr  Cr7  1  0.046827  0.953173  0.865161  1
  N  N8  1  0.893859  0.106141  0.910682  1
  N  N9  1  0.106141  0.893859  0.089318  1
  N  N10  1  0.601599  0.398401  0.420469  1
  N  N11  1  0.398401  0.601599  0.579531  1
  N  N12  1  0.348589  0.155670  0.762649  1
  N  N13  1  0.155670  0.348589  0.237351  1
  N  N14  1  0.651411  0.844330  0.237351  1
  N  N15  1  0.844330  0.651411  0.762649  1
