# generated using pymatgen
data_Dy3Cd3CuIrAu
_symmetry_space_group_name_H-M   'P 1'
_cell_length_a   7.81258400
_cell_length_b   7.81258432
_cell_length_c   3.71534700
_cell_angle_alpha   90.00000000
_cell_angle_beta   90.00000000
_cell_angle_gamma   120.00000713
_symmetry_Int_Tables_number   1
_chemical_formula_structural   Dy3Cd3CuIrAu
_chemical_formula_sum   'Dy3 Cd3 Cu1 Ir1 Au1'
_cell_volume   196.39001317
_cell_formula_units_Z   1
loop_
 _symmetry_equiv_pos_site_id
 _symmetry_equiv_pos_as_xyz
  1  'x, y, z'
loop_
 _atom_site_type_symbol
 _atom_site_label
 _atom_site_symmetry_multiplicity
 _atom_site_fract_x
 _atom_site_fract_y
 _atom_site_fract_z
 _atom_site_occupancy
  Dy  Dy0  1  0.024225  0.421026  0.500000  1
  Dy  Dy1  1  0.578974  0.603199  0.500000  1
  Dy  Dy2  1  0.396801  0.975775  0.500000  1
  Cd  Cd3  1  0.995144  0.747523  0.000000  1
  Cd  Cd4  1  0.252477  0.247622  0.000000  1
  Cd  Cd5  1  0.752378  0.004856  0.000000  1
  Cu  Cu6  1  0.000000  0.000000  0.500000  1
  Ir  Ir7  1  0.333333  0.666667  0.000000  1
  Au  Au8  1  0.666667  0.333333  0.000000  1
