# generated using pymatgen
data_Pr16Mg2Cd2Ir3Pt
_symmetry_space_group_name_H-M   'P 1'
_cell_length_a   10.07651079
_cell_length_b   10.07651100
_cell_length_c   10.08118979
_cell_angle_alpha   60.16996765
_cell_angle_beta   60.16996376
_cell_angle_gamma   60.08202167
_symmetry_Int_Tables_number   1
_chemical_formula_structural   Pr16Mg2Cd2Ir3Pt
_chemical_formula_sum   'Pr16 Mg2 Cd2 Ir3 Pt1'
_cell_volume   726.10255598
_cell_formula_units_Z   1
loop_
 _symmetry_equiv_pos_site_id
 _symmetry_equiv_pos_as_xyz
  1  'x, y, z'
loop_
 _atom_site_type_symbol
 _atom_site_label
 _atom_site_symmetry_multiplicity
 _atom_site_fract_x
 _atom_site_fract_y
 _atom_site_fract_z
 _atom_site_occupancy
  Pr  Pr0  1  0.346735  0.346735  0.346659  1
  Pr  Pr1  1  0.350924  0.350924  0.953218  1
  Pr  Pr2  1  0.350200  0.954707  0.350659  1
  Pr  Pr3  1  0.954707  0.350200  0.350659  1
  Pr  Pr4  1  0.806462  0.190074  0.189748  1
  Pr  Pr5  1  0.188210  0.810106  0.809672  1
  Pr  Pr6  1  0.190074  0.806462  0.189748  1
  Pr  Pr7  1  0.810106  0.188210  0.809672  1
  Pr  Pr8  1  0.192043  0.192043  0.804161  1
  Pr  Pr9  1  0.811117  0.811117  0.186448  1
  Pr  Pr10  1  0.940876  0.562354  0.561724  1
  Pr  Pr11  1  0.561613  0.939815  0.938008  1
  Pr  Pr12  1  0.562354  0.940876  0.561724  1
  Pr  Pr13  1  0.939815  0.561613  0.938008  1
  Pr  Pr14  1  0.562786  0.562786  0.939045  1
  Pr  Pr15  1  0.939274  0.939274  0.561477  1
  Mg  Mg16  1  0.575614  0.575614  0.579783  1
  Mg  Mg17  1  0.575367  0.575367  0.269141  1
  Cd  Cd18  1  0.581453  0.257784  0.580327  1
  Cd  Cd19  1  0.257784  0.581453  0.580327  1
  Ir  Ir20  1  0.142556  0.142556  0.574205  1
  Ir  Ir21  1  0.142357  0.574610  0.141982  1
  Ir  Ir22  1  0.574610  0.142357  0.141982  1
  Pt  Pt23  1  0.142959  0.142959  0.141619  1
