# generated using pymatgen
data_LiHo16In3Rh4
_symmetry_space_group_name_H-M   'P 1'
_cell_length_a   9.61505205
_cell_length_b   9.61505141
_cell_length_c   9.61505191
_cell_angle_alpha   59.85273172
_cell_angle_beta   59.85273222
_cell_angle_gamma   59.85273382
_symmetry_Int_Tables_number   1
_chemical_formula_structural   LiHo16In3Rh4
_chemical_formula_sum   'Li1 Ho16 In3 Rh4'
_cell_volume   626.44946520
_cell_formula_units_Z   1
loop_
 _symmetry_equiv_pos_site_id
 _symmetry_equiv_pos_as_xyz
  1  'x, y, z'
loop_
 _atom_site_type_symbol
 _atom_site_label
 _atom_site_symmetry_multiplicity
 _atom_site_fract_x
 _atom_site_fract_y
 _atom_site_fract_z
 _atom_site_occupancy
  Li  Li0  1  0.822160  0.822160  0.822160  1
  Ho  Ho1  1  0.187864  0.187864  0.812393  1
  Ho  Ho2  1  0.599828  0.599828  0.201890  1
  Ho  Ho3  1  0.441206  0.058938  0.441206  1
  Ho  Ho4  1  0.441206  0.441206  0.058938  1
  Ho  Ho5  1  0.813149  0.186230  0.813149  1
  Ho  Ho6  1  0.187864  0.812393  0.187864  1
  Ho  Ho7  1  0.436292  0.063009  0.063009  1
  Ho  Ho8  1  0.186230  0.813149  0.813149  1
  Ho  Ho9  1  0.063009  0.436292  0.063009  1
  Ho  Ho10  1  0.813149  0.813149  0.186230  1
  Ho  Ho11  1  0.201890  0.599828  0.599828  1
  Ho  Ho12  1  0.058938  0.441206  0.441206  1
  Ho  Ho13  1  0.063009  0.063009  0.436292  1
  Ho  Ho14  1  0.812393  0.187864  0.187864  1
  Ho  Ho15  1  0.599828  0.201890  0.599828  1
  Ho  Ho16  1  0.599957  0.599957  0.599957  1
  In  In17  1  0.833126  0.833126  0.503677  1
  In  In18  1  0.503677  0.833126  0.833126  1
  In  In19  1  0.833126  0.503677  0.833126  1
  Rh  Rh20  1  0.392905  0.823170  0.392905  1
  Rh  Rh21  1  0.393122  0.393122  0.393122  1
  Rh  Rh22  1  0.823170  0.392905  0.392905  1
  Rh  Rh23  1  0.392905  0.392905  0.823170  1
