# generated using pymatgen
data_Sr2Cd19Ag3
_symmetry_space_group_name_H-M   'P 1'
_cell_length_a   7.64794467
_cell_length_b   9.40805918
_cell_length_c   9.38868279
_cell_angle_alpha   100.36163946
_cell_angle_beta   66.12393304
_cell_angle_gamma   114.14127296
_symmetry_Int_Tables_number   1
_chemical_formula_structural   Sr2Cd19Ag3
_chemical_formula_sum   'Sr2 Cd19 Ag3'
_cell_volume   563.61754289
_cell_formula_units_Z   1
loop_
 _symmetry_equiv_pos_site_id
 _symmetry_equiv_pos_as_xyz
  1  'x, y, z'
loop_
 _atom_site_type_symbol
 _atom_site_label
 _atom_site_symmetry_multiplicity
 _atom_site_fract_x
 _atom_site_fract_y
 _atom_site_fract_z
 _atom_site_occupancy
  Sr  Sr0  1  0.999127  0.999299  0.999299  1
  Sr  Sr1  1  0.750873  0.500701  0.500701  1
  Cd  Cd2  1  0.504926  0.995905  0.995905  1
  Cd  Cd3  1  0.820966  0.320384  0.079012  1
  Cd  Cd4  1  0.104173  0.678023  0.078600  1
  Cd  Cd5  1  0.170406  0.420988  0.179616  1
  Cd  Cd6  1  0.652213  0.585562  0.174687  1
  Cd  Cd7  1  0.375001  0.250000  0.250000  1
  Cd  Cd8  1  0.097787  0.914438  0.325314  1
  Cd  Cd9  1  0.579594  0.079012  0.320384  1
  Cd  Cd10  1  0.929035  0.179616  0.420988  1
  Cd  Cd11  1  0.645827  0.821978  0.421401  1
  Cd  Cd12  1  0.245074  0.504095  0.504095  1
  Cd  Cd13  1  0.172133  0.820659  0.582432  1
  Cd  Cd14  1  0.241339  0.174687  0.585562  1
  Cd  Cd15  1  0.504750  0.078600  0.678023  1
  Cd  Cd16  1  0.816094  0.917568  0.679341  1
  Cd  Cd17  1  0.245250  0.421401  0.821978  1
  Cd  Cd18  1  0.933906  0.582432  0.820659  1
  Cd  Cd19  1  0.508661  0.325314  0.914438  1
  Cd  Cd20  1  0.577867  0.679341  0.917568  1
  Ag  Ag21  1  0.375001  0.750000  0.249999  1
  Ag  Ag22  1  0.875000  0.249999  0.750000  1
  Ag  Ag23  1  0.375001  0.750000  0.750000  1
