# generated using pymatgen
data_DyY3Ti4(SiO9)2
_symmetry_space_group_name_H-M   'P 1'
_cell_length_a   11.26882100
_cell_length_b   4.91500961
_cell_length_c   12.41187001
_cell_angle_alpha   84.28166214
_cell_angle_beta   90.00000000
_cell_angle_gamma   90.00000000
_symmetry_Int_Tables_number   1
_chemical_formula_structural   DyY3Ti4(SiO9)2
_chemical_formula_sum   'Dy2 Y6 Ti8 Si4 O36'
_cell_volume   684.02741590
_cell_formula_units_Z   2
loop_
 _symmetry_equiv_pos_site_id
 _symmetry_equiv_pos_as_xyz
  1  'x, y, z'
loop_
 _atom_site_type_symbol
 _atom_site_label
 _atom_site_symmetry_multiplicity
 _atom_site_fract_x
 _atom_site_fract_y
 _atom_site_fract_z
 _atom_site_occupancy
  Dy  Dy0  1  0.641258  0.804529  0.068856  1
  Dy  Dy1  1  0.141258  0.195471  0.931144  1
  Y  Y2  1  0.358822  0.695808  0.931017  1
  Y  Y3  1  0.858822  0.304192  0.068983  1
  Y  Y4  1  0.637857  0.735353  0.421933  1
  Y  Y5  1  0.137857  0.264647  0.578067  1
  Y  Y6  1  0.362126  0.764687  0.577844  1
  Y  Y7  1  0.862126  0.235313  0.422156  1
  Ti  Ti8  1  0.836944  0.949910  0.849954  1
  Ti  Ti9  1  0.336944  0.050090  0.150046  1
  Ti  Ti10  1  0.163122  0.550073  0.149975  1
  Ti  Ti11  1  0.663122  0.449927  0.850025  1
  Ti  Ti12  1  0.835955  0.583309  0.639544  1
  Ti  Ti13  1  0.335955  0.416691  0.360456  1
  Ti  Ti14  1  0.163951  0.916745  0.360486  1
  Ti  Ti15  1  0.663951  0.083255  0.639514  1
  Si  Si16  1  0.594529  0.320383  0.247303  1
  Si  Si17  1  0.094529  0.679617  0.752697  1
  Si  Si18  1  0.405431  0.179543  0.752490  1
  Si  Si19  1  0.905431  0.820457  0.247510  1
  O  O20  1  0.840916  0.753276  0.134314  1
  O  O21  1  0.340916  0.246724  0.865686  1
  O  O22  1  0.158677  0.748180  0.865879  1
  O  O23  1  0.658677  0.251820  0.134121  1
  O  O24  1  0.788233  0.915444  0.553276  1
  O  O25  1  0.288233  0.084556  0.446724  1
  O  O26  1  0.211682  0.584474  0.446805  1
  O  O27  1  0.711682  0.415526  0.553195  1
  O  O28  1  0.948697  0.079579  0.933174  1
  O  O29  1  0.448697  0.920421  0.066826  1
  O  O30  1  0.051818  0.419867  0.066355  1
  O  O31  1  0.551818  0.580133  0.933645  1
  O  O32  1  0.599862  0.655190  0.246068  1
  O  O33  1  0.099862  0.344810  0.753932  1
  O  O34  1  0.400428  0.844715  0.753545  1
  O  O35  1  0.900428  0.155285  0.246455  1
  O  O36  1  0.950023  0.770021  0.746214  1
  O  O37  1  0.450023  0.229979  0.253786  1
  O  O38  1  0.049891  0.729778  0.253726  1
  O  O39  1  0.549891  0.270222  0.746274  1
  O  O40  1  0.788071  0.619430  0.935346  1
  O  O41  1  0.288071  0.380570  0.064654  1
  O  O42  1  0.211833  0.880812  0.064685  1
  O  O43  1  0.711833  0.119188  0.935315  1
  O  O44  1  0.951931  0.444501  0.563082  1
  O  O45  1  0.451931  0.555499  0.436918  1
  O  O46  1  0.048057  0.055293  0.437079  1
  O  O47  1  0.548057  0.944707  0.562921  1
  O  O48  1  0.836389  0.684560  0.356427  1
  O  O49  1  0.336389  0.315440  0.643573  1
  O  O50  1  0.163585  0.815320  0.643742  1
  O  O51  1  0.663585  0.184680  0.356258  1
  O  O52  1  0.707849  0.767590  0.744561  1
  O  O53  1  0.207849  0.232410  0.255439  1
  O  O54  1  0.292063  0.732548  0.255404  1
  O  O55  1  0.792063  0.267452  0.744596  1
