# generated using pymatgen
data_CsV2Tc4S7
_symmetry_space_group_name_H-M   'P 1'
_cell_length_a   9.44508890
_cell_length_b   9.49872719
_cell_length_c   9.53690678
_cell_angle_alpha   60.47288511
_cell_angle_beta   60.21857596
_cell_angle_gamma   60.55421013
_symmetry_Int_Tables_number   1
_chemical_formula_structural   CsV2Tc4S7
_chemical_formula_sum   'Cs2 V4 Tc8 S14'
_cell_volume   610.68134968
_cell_formula_units_Z   2
loop_
 _symmetry_equiv_pos_site_id
 _symmetry_equiv_pos_as_xyz
  1  'x, y, z'
loop_
 _atom_site_type_symbol
 _atom_site_label
 _atom_site_symmetry_multiplicity
 _atom_site_fract_x
 _atom_site_fract_y
 _atom_site_fract_z
 _atom_site_occupancy
  Cs  Cs0  1  0.373363  0.379893  0.376532  1
  Cs  Cs1  1  0.626655  0.625670  0.620622  1
  V  V2  1  0.299347  0.121569  0.998532  1
  V  V3  1  0.196866  0.888192  0.056737  1
  V  V4  1  0.884277  0.062030  0.197270  1
  V  V5  1  0.942427  0.805187  0.112576  1
  Tc  Tc6  1  0.801289  0.120527  0.938192  1
  Tc  Tc7  1  0.122742  0.944621  0.795950  1
  Tc  Tc8  1  0.990831  0.299858  0.129799  1
  Tc  Tc9  1  0.874713  0.007117  0.698331  1
  Tc  Tc10  1  0.124996  0.985729  0.301804  1
  Tc  Tc11  1  0.012287  0.696704  0.877530  1
  Tc  Tc12  1  0.695502  0.873642  0.013895  1
  Tc  Tc13  1  0.060142  0.203347  0.881347  1
  S  S14  1  0.977880  0.233270  0.644303  1
  S  S15  1  0.233683  0.655539  0.970556  1
  S  S16  1  0.649995  0.980215  0.227027  1
  S  S17  1  0.016884  0.771765  0.343565  1
  S  S18  1  0.765626  0.351983  0.018503  1
  S  S19  1  0.349568  0.025067  0.766208  1
  S  S20  1  0.168196  0.410098  0.834736  1
  S  S21  1  0.410547  0.821034  0.163034  1
  S  S22  1  0.821798  0.158273  0.415152  1
  S  S23  1  0.839256  0.588635  0.178593  1
  S  S24  1  0.584401  0.169168  0.839168  1
  S  S25  1  0.175685  0.831485  0.588926  1
  S  S26  1  0.781162  0.776846  0.788198  1
  S  S27  1  0.219880  0.212534  0.222917  1
