# generated using pymatgen
data_Y3Lu(Ga2Ag)4
_symmetry_space_group_name_H-M   'P 1'
_cell_length_a   4.37301600
_cell_length_b   6.94775667
_cell_length_c   10.25649747
_cell_angle_alpha   89.85712090
_cell_angle_beta   90.00000000
_cell_angle_gamma   90.00000000
_symmetry_Int_Tables_number   1
_chemical_formula_structural   Y3Lu(Ga2Ag)4
_chemical_formula_sum   'Y3 Lu1 Ga8 Ag4'
_cell_volume   311.61861519
_cell_formula_units_Z   1
loop_
 _symmetry_equiv_pos_site_id
 _symmetry_equiv_pos_as_xyz
  1  'x, y, z'
loop_
 _atom_site_type_symbol
 _atom_site_label
 _atom_site_symmetry_multiplicity
 _atom_site_fract_x
 _atom_site_fract_y
 _atom_site_fract_z
 _atom_site_occupancy
  Y  Y0  1  0.250000  0.779256  0.823285  1
  Y  Y1  1  0.750000  0.221286  0.175700  1
  Y  Y2  1  0.750000  0.721052  0.324689  1
  Lu  Lu3  1  0.250000  0.278813  0.675343  1
  Ga  Ga4  1  0.250000  0.699497  0.535518  1
  Ga  Ga5  1  0.750000  0.299075  0.465496  1
  Ga  Ga6  1  0.750000  0.797396  0.035687  1
  Ga  Ga7  1  0.250000  0.202592  0.963117  1
  Ga  Ga8  1  0.250000  0.928736  0.154515  1
  Ga  Ga9  1  0.750000  0.072401  0.845786  1
  Ga  Ga10  1  0.750000  0.568658  0.653778  1
  Ga  Ga11  1  0.250000  0.428196  0.345412  1
  Ag  Ag12  1  0.250000  0.545250  0.095491  1
  Ag  Ag13  1  0.750000  0.454838  0.902827  1
  Ag  Ag14  1  0.750000  0.956848  0.597315  1
  Ag  Ag15  1  0.250000  0.046107  0.406041  1
