# generated using pymatgen
data_Ho3Ga2AgC
_symmetry_space_group_name_H-M   'P 1'
_cell_length_a   9.19976954
_cell_length_b   9.19976996
_cell_length_c   9.19977000
_cell_angle_alpha   59.99999986
_cell_angle_beta   59.99999835
_cell_angle_gamma   60.00000456
_symmetry_Int_Tables_number   1
_chemical_formula_structural   Ho3Ga2AgC
_chemical_formula_sum   'Ho12 Ga8 Ag4 C4'
_cell_volume   550.57425184
_cell_formula_units_Z   4
loop_
 _symmetry_equiv_pos_site_id
 _symmetry_equiv_pos_as_xyz
  1  'x, y, z'
loop_
 _atom_site_type_symbol
 _atom_site_label
 _atom_site_symmetry_multiplicity
 _atom_site_fract_x
 _atom_site_fract_y
 _atom_site_fract_z
 _atom_site_occupancy
  Ho  Ho0  1  0.944143  0.944143  0.555857  1
  Ho  Ho1  1  0.694143  0.305857  0.305857  1
  Ho  Ho2  1  0.305857  0.694143  0.694143  1
  Ho  Ho3  1  0.694143  0.694143  0.305857  1
  Ho  Ho4  1  0.694143  0.305857  0.694143  1
  Ho  Ho5  1  0.305857  0.694143  0.305857  1
  Ho  Ho6  1  0.555857  0.944143  0.555857  1
  Ho  Ho7  1  0.555857  0.944143  0.944143  1
  Ho  Ho8  1  0.944143  0.555857  0.555857  1
  Ho  Ho9  1  0.944143  0.555857  0.944143  1
  Ho  Ho10  1  0.305857  0.305857  0.694143  1
  Ho  Ho11  1  0.555857  0.555857  0.944143  1
  Ga  Ga12  1  0.920421  0.238738  0.920421  1
  Ga  Ga13  1  0.329579  0.329579  0.011262  1
  Ga  Ga14  1  0.011262  0.329579  0.329579  1
  Ga  Ga15  1  0.329579  0.329579  0.329579  1
  Ga  Ga16  1  0.238738  0.920421  0.920421  1
  Ga  Ga17  1  0.920421  0.920421  0.920421  1
  Ga  Ga18  1  0.920421  0.920421  0.238738  1
  Ga  Ga19  1  0.329579  0.011262  0.329579  1
  Ag  Ag20  1  0.125000  0.625000  0.125000  1
  Ag  Ag21  1  0.125000  0.125000  0.625000  1
  Ag  Ag22  1  0.625000  0.125000  0.125000  1
  Ag  Ag23  1  0.125000  0.125000  0.125000  1
  C  C24  1  0.625000  0.125000  0.625000  1
  C  C25  1  0.625000  0.625000  0.125000  1
  C  C26  1  0.125000  0.625000  0.625000  1
  C  C27  1  0.625000  0.625000  0.625000  1
