# generated using pymatgen
data_Ho7TmSc11Si16Tc
_symmetry_space_group_name_H-M   'P 1'
_cell_length_a   6.99899444
_cell_length_b   7.33772834
_cell_length_c   13.85771834
_cell_angle_alpha   89.97662004
_cell_angle_beta   90.00971678
_cell_angle_gamma   90.15525410
_symmetry_Int_Tables_number   1
_chemical_formula_structural   Ho7TmSc11Si16Tc
_chemical_formula_sum   'Ho7 Tm1 Sc11 Si16 Tc1'
_cell_volume   711.68427604
_cell_formula_units_Z   1
loop_
 _symmetry_equiv_pos_site_id
 _symmetry_equiv_pos_as_xyz
  1  'x, y, z'
loop_
 _atom_site_type_symbol
 _atom_site_label
 _atom_site_symmetry_multiplicity
 _atom_site_fract_x
 _atom_site_fract_y
 _atom_site_fract_z
 _atom_site_occupancy
  Ho  Ho0  1  0.011986  0.178263  0.093162  1
  Ho  Ho1  1  0.992902  0.817863  0.900863  1
  Ho  Ho2  1  0.487980  0.673010  0.902749  1
  Ho  Ho3  1  0.992890  0.817812  0.599047  1
  Ho  Ho4  1  0.511269  0.322888  0.095027  1
  Ho  Ho5  1  0.011989  0.178234  0.406913  1
  Ho  Ho6  1  0.511235  0.322912  0.405085  1
  Tm  Tm7  1  0.487786  0.673211  0.597515  1
  Sc  Sc8  1  0.841579  0.496395  0.250019  1
  Sc  Sc9  1  0.342161  0.003890  0.250006  1
  Sc  Sc10  1  0.656604  0.994517  0.749902  1
  Sc  Sc11  1  0.326310  0.178490  0.627727  1
  Sc  Sc12  1  0.672012  0.824169  0.374469  1
  Sc  Sc13  1  0.172302  0.674233  0.376701  1
  Sc  Sc14  1  0.672084  0.824330  0.125632  1
  Sc  Sc15  1  0.827497  0.331166  0.628721  1
  Sc  Sc16  1  0.326208  0.178419  0.872200  1
  Sc  Sc17  1  0.827673  0.331018  0.871148  1
  Sc  Sc18  1  0.172227  0.674222  0.123376  1
  Si  Si19  1  0.028696  0.116813  0.749954  1
  Si  Si20  1  0.972877  0.887406  0.250018  1
  Si  Si21  1  0.469073  0.614384  0.250034  1
  Si  Si22  1  0.518218  0.396940  0.749798  1
  Si  Si23  1  0.285030  0.859482  0.749756  1
  Si  Si24  1  0.717311  0.130834  0.250009  1
  Si  Si25  1  0.214768  0.369823  0.250005  1
  Si  Si26  1  0.793634  0.630392  0.749820  1
  Si  Si27  1  0.157176  0.466631  0.547618  1
  Si  Si28  1  0.841730  0.535587  0.463438  1
  Si  Si29  1  0.345032  0.964737  0.463340  1
  Si  Si30  1  0.841879  0.535567  0.036638  1
  Si  Si31  1  0.658540  0.033961  0.539928  1
  Si  Si32  1  0.156496  0.466237  0.952484  1
  Si  Si33  1  0.658694  0.034434  0.960163  1
  Si  Si34  1  0.344900  0.965127  0.036806  1
  Tc  Tc35  1  0.151247  0.496599  0.749930  1
