# generated using pymatgen
data_Nb2Zn(Co10B3)2
_symmetry_space_group_name_H-M   'P 1'
_cell_length_a   7.44924918
_cell_length_b   7.45002375
_cell_length_c   7.45042100
_cell_angle_alpha   59.99824055
_cell_angle_beta   59.99480062
_cell_angle_gamma   59.99420555
_symmetry_Int_Tables_number   1
_chemical_formula_structural   Nb2Zn(Co10B3)2
_chemical_formula_sum   'Nb2 Zn1 Co20 B6'
_cell_volume   292.34395113
_cell_formula_units_Z   1
loop_
 _symmetry_equiv_pos_site_id
 _symmetry_equiv_pos_as_xyz
  1  'x, y, z'
loop_
 _atom_site_type_symbol
 _atom_site_label
 _atom_site_symmetry_multiplicity
 _atom_site_fract_x
 _atom_site_fract_y
 _atom_site_fract_z
 _atom_site_occupancy
  Nb  Nb0  1  0.250008  0.250100  0.249946  1
  Nb  Nb1  1  0.749992  0.749900  0.750054  1
  Zn  Zn2  1  0.000000  0.000000  0.000000  1
  Co  Co3  1  0.849309  0.383604  0.383543  1
  Co  Co4  1  0.383609  0.849220  0.383585  1
  Co  Co5  1  0.383573  0.383612  0.849252  1
  Co  Co6  1  0.383573  0.383612  0.383563  1
  Co  Co7  1  0.150691  0.616396  0.616457  1
  Co  Co8  1  0.616391  0.150780  0.616415  1
  Co  Co9  1  0.616427  0.616388  0.150748  1
  Co  Co10  1  0.616427  0.616388  0.616437  1
  Co  Co11  1  0.657947  0.999989  0.999996  1
  Co  Co12  1  0.657947  0.999989  0.342068  1
  Co  Co13  1  0.657930  0.342103  0.999983  1
  Co  Co14  1  0.000006  0.657923  0.342059  1
  Co  Co15  1  0.000006  0.657923  0.000012  1
  Co  Co16  1  0.342070  0.657897  0.000017  1
  Co  Co17  1  0.999994  0.342077  0.657941  1
  Co  Co18  1  0.342053  0.000011  0.657932  1
  Co  Co19  1  0.000000  0.000000  0.657959  1
  Co  Co20  1  0.342053  0.000011  0.000004  1
  Co  Co21  1  0.999994  0.342077  0.999988  1
  Co  Co22  1  0.000000  0.000000  0.342041  1
  B  B23  1  0.724900  0.275104  0.275008  1
  B  B24  1  0.724900  0.275104  0.724988  1
  B  B25  1  0.724943  0.724936  0.275060  1
  B  B26  1  0.275100  0.724896  0.724992  1
  B  B27  1  0.275100  0.724896  0.275012  1
  B  B28  1  0.275057  0.275064  0.724940  1
