# generated using pymatgen
data_BaPr3(PPt3)8
_symmetry_space_group_name_H-M   'P 1'
_cell_length_a   8.59878096
_cell_length_b   8.59878096
_cell_length_c   8.59878096
_cell_angle_alpha   89.89684660
_cell_angle_beta   89.89684660
_cell_angle_gamma   89.89684660
_symmetry_Int_Tables_number   1
_chemical_formula_structural   BaPr3(PPt3)8
_chemical_formula_sum   'Ba1 Pr3 P8 Pt24'
_cell_volume   635.78247063
_cell_formula_units_Z   1
loop_
 _symmetry_equiv_pos_site_id
 _symmetry_equiv_pos_as_xyz
  1  'x, y, z'
loop_
 _atom_site_type_symbol
 _atom_site_label
 _atom_site_symmetry_multiplicity
 _atom_site_fract_x
 _atom_site_fract_y
 _atom_site_fract_z
 _atom_site_occupancy
  Ba  Ba0  1  0.000000  0.000000  0.000000  1
  Pr  Pr1  1  0.500000  0.500000  0.000000  1
  Pr  Pr2  1  0.500000  0.000000  0.500000  1
  Pr  Pr3  1  0.000000  0.500000  0.500000  1
  P  P4  1  0.802597  0.305131  0.192458  1
  P  P5  1  0.192458  0.802597  0.305131  1
  P  P6  1  0.694510  0.694510  0.694510  1
  P  P7  1  0.305131  0.192458  0.802597  1
  P  P8  1  0.197403  0.694869  0.807542  1
  P  P9  1  0.807542  0.197403  0.694869  1
  P  P10  1  0.305490  0.305490  0.305490  1
  P  P11  1  0.694869  0.807542  0.197403  1
  Pt  Pt12  1  0.419765  0.842450  0.158297  1
  Pt  Pt13  1  0.577459  0.344297  0.341687  1
  Pt  Pt14  1  0.075741  0.163753  0.650340  1
  Pt  Pt15  1  0.923830  0.652136  0.835238  1
  Pt  Pt16  1  0.158297  0.419765  0.842450  1
  Pt  Pt17  1  0.341687  0.577459  0.344297  1
  Pt  Pt18  1  0.650340  0.075741  0.163753  1
  Pt  Pt19  1  0.835238  0.923830  0.652136  1
  Pt  Pt20  1  0.842450  0.158297  0.419765  1
  Pt  Pt21  1  0.344297  0.341687  0.577459  1
  Pt  Pt22  1  0.163753  0.650340  0.075741  1
  Pt  Pt23  1  0.652136  0.835238  0.923830  1
  Pt  Pt24  1  0.580235  0.157550  0.841703  1
  Pt  Pt25  1  0.422541  0.655703  0.658313  1
  Pt  Pt26  1  0.924259  0.836247  0.349660  1
  Pt  Pt27  1  0.076170  0.347864  0.164762  1
  Pt  Pt28  1  0.841703  0.580235  0.157550  1
  Pt  Pt29  1  0.658313  0.422541  0.655703  1
  Pt  Pt30  1  0.349660  0.924259  0.836247  1
  Pt  Pt31  1  0.164762  0.076170  0.347864  1
  Pt  Pt32  1  0.157550  0.841703  0.580235  1
  Pt  Pt33  1  0.655703  0.658313  0.422541  1
  Pt  Pt34  1  0.836247  0.349660  0.924259  1
  Pt  Pt35  1  0.347864  0.164762  0.076170  1
