# generated using pymatgen
data_Th4Al(Si3Ir2)3
_symmetry_space_group_name_H-M   'P 1'
_cell_length_a   8.30025359
_cell_length_b   8.30025355
_cell_length_c   8.30025361
_cell_angle_alpha   138.07707434
_cell_angle_beta   104.33931117
_cell_angle_gamma   90.47509634
_symmetry_Int_Tables_number   1
_chemical_formula_structural   Th4Al(Si3Ir2)3
_chemical_formula_sum   'Th4 Al1 Si9 Ir6'
_cell_volume   353.40233784
_cell_formula_units_Z   1
loop_
 _symmetry_equiv_pos_site_id
 _symmetry_equiv_pos_as_xyz
  1  'x, y, z'
loop_
 _atom_site_type_symbol
 _atom_site_label
 _atom_site_symmetry_multiplicity
 _atom_site_fract_x
 _atom_site_fract_y
 _atom_site_fract_z
 _atom_site_occupancy
  Th  Th0  1  0.862745  0.629213  0.231727  1
  Th  Th1  1  0.137256  0.368981  0.766467  1
  Th  Th2  1  0.397486  0.131019  0.268273  1
  Th  Th3  1  0.602514  0.870787  0.733533  1
  Al  Al4  1  0.500000  0.750000  0.250000  1
  Si  Si5  1  0.500000  0.250000  0.750000  1
  Si  Si6  1  0.227083  0.977083  0.750000  1
  Si  Si7  1  0.772917  0.522917  0.750000  1
  Si  Si8  1  0.768472  0.018472  0.250000  1
  Si  Si9  1  0.231528  0.481528  0.250000  1
  Si  Si10  1  0.040988  0.890974  0.149910  1
  Si  Si11  1  0.959012  0.108922  0.849986  1
  Si  Si12  1  0.741065  0.391078  0.350090  1
  Si  Si13  1  0.258935  0.609026  0.650014  1
  Ir  Ir14  1  0.000000  0.750000  0.750000  1
  Ir  Ir15  1  0.000000  0.250000  0.250000  1
  Ir  Ir16  1  0.240131  0.863410  0.386559  1
  Ir  Ir17  1  0.759869  0.146430  0.623282  1
  Ir  Ir18  1  0.476852  0.353570  0.113441  1
  Ir  Ir19  1  0.523148  0.636590  0.876718  1
