# generated using pymatgen
data_LiPr16Mg2HgIr4
_symmetry_space_group_name_H-M   'P 1'
_cell_length_a   10.03859379
_cell_length_b   10.03859413
_cell_length_c   10.05062048
_cell_angle_alpha   60.31456019
_cell_angle_beta   60.31455992
_cell_angle_gamma   60.39054237
_symmetry_Int_Tables_number   1
_chemical_formula_structural   LiPr16Mg2HgIr4
_chemical_formula_sum   'Li1 Pr16 Mg2 Hg1 Ir4'
_cell_volume   721.68859782
_cell_formula_units_Z   1
loop_
 _symmetry_equiv_pos_site_id
 _symmetry_equiv_pos_as_xyz
  1  'x, y, z'
loop_
 _atom_site_type_symbol
 _atom_site_label
 _atom_site_symmetry_multiplicity
 _atom_site_fract_x
 _atom_site_fract_y
 _atom_site_fract_z
 _atom_site_occupancy
  Li  Li0  1  0.577380  0.577380  0.272071  1
  Pr  Pr1  1  0.346155  0.346155  0.346180  1
  Pr  Pr2  1  0.347048  0.347048  0.958475  1
  Pr  Pr3  1  0.347234  0.958052  0.347871  1
  Pr  Pr4  1  0.958052  0.347234  0.347871  1
  Pr  Pr5  1  0.812500  0.185941  0.187226  1
  Pr  Pr6  1  0.190871  0.808622  0.807685  1
  Pr  Pr7  1  0.185941  0.812500  0.187226  1
  Pr  Pr8  1  0.808622  0.190871  0.807685  1
  Pr  Pr9  1  0.188364  0.188364  0.810941  1
  Pr  Pr10  1  0.808890  0.808890  0.189881  1
  Pr  Pr11  1  0.937917  0.560655  0.561291  1
  Pr  Pr12  1  0.560434  0.938923  0.938235  1
  Pr  Pr13  1  0.560655  0.937917  0.561291  1
  Pr  Pr14  1  0.938923  0.560434  0.938235  1
  Pr  Pr15  1  0.560454  0.560454  0.938001  1
  Pr  Pr16  1  0.938251  0.938251  0.561791  1
  Mg  Mg17  1  0.578654  0.268499  0.577557  1
  Mg  Mg18  1  0.268499  0.578654  0.577557  1
  Hg  Hg19  1  0.582283  0.582283  0.581418  1
  Ir  Ir20  1  0.141524  0.141524  0.141713  1
  Ir  Ir21  1  0.143045  0.143045  0.575061  1
  Ir  Ir22  1  0.142760  0.575544  0.142370  1
  Ir  Ir23  1  0.575544  0.142760  0.142370  1
