# generated using pymatgen
data_Y3Ho(Al8Pt3)3
_symmetry_space_group_name_H-M   'P 1'
_cell_length_a   7.52260648
_cell_length_b   7.54658335
_cell_length_c   13.17947111
_cell_angle_alpha   84.59070101
_cell_angle_beta   79.14905695
_cell_angle_gamma   59.97867235
_symmetry_Int_Tables_number   1
_chemical_formula_structural   Y3Ho(Al8Pt3)3
_chemical_formula_sum   'Y3 Ho1 Al24 Pt9'
_cell_volume   636.23656140
_cell_formula_units_Z   1
loop_
 _symmetry_equiv_pos_site_id
 _symmetry_equiv_pos_as_xyz
  1  'x, y, z'
loop_
 _atom_site_type_symbol
 _atom_site_label
 _atom_site_symmetry_multiplicity
 _atom_site_fract_x
 _atom_site_fract_y
 _atom_site_fract_z
 _atom_site_occupancy
  Y  Y0  1  0.393393  0.168687  0.807949  1
  Y  Y1  1  0.606634  0.831284  0.192058  1
  Y  Y2  1  0.734109  0.498557  0.807638  1
  Ho  Ho3  1  0.265772  0.501485  0.192520  1
  Al  Al4  1  0.684645  0.833816  0.944601  1
  Al  Al5  1  0.315314  0.166397  0.055544  1
  Al  Al6  1  0.146604  0.832416  0.561154  1
  Al  Al7  1  0.853414  0.167570  0.438829  1
  Al  Al8  1  0.479473  0.166672  0.558428  1
  Al  Al9  1  0.520517  0.833334  0.441557  1
  Al  Al10  1  0.217181  0.165305  0.329765  1
  Al  Al11  1  0.782871  0.834825  0.670125  1
  Al  Al12  1  0.437633  0.506291  0.670170  1
  Al  Al13  1  0.562227  0.493714  0.329707  1
  Al  Al14  1  0.109524  0.160090  0.669203  1
  Al  Al15  1  0.890671  0.839752  0.330679  1
  Al  Al16  1  0.352819  0.499651  0.944884  1
  Al  Al17  1  0.646851  0.500362  0.055401  1
  Al  Al18  1  0.015470  0.167446  0.953031  1
  Al  Al19  1  0.984690  0.832352  0.047121  1
  Al  Al20  1  0.186810  0.499217  0.441386  1
  Al  Al21  1  0.813237  0.500783  0.558515  1
  Al  Al22  1  0.734019  0.164047  0.183439  1
  Al  Al23  1  0.265719  0.836213  0.816564  1
  Al  Al24  1  0.061798  0.631502  0.815388  1
  Al  Al25  1  0.938460  0.368502  0.184608  1
  Al  Al26  1  0.855362  0.041472  0.815835  1
  Al  Al27  1  0.144658  0.958239  0.184165  1
  Pt  Pt28  1  0.119933  0.492239  0.638625  1
  Pt  Pt29  1  0.880319  0.507786  0.361228  1
  Pt  Pt30  1  0.657228  0.171292  0.999869  1
  Pt  Pt31  1  0.342714  0.828697  0.000239  1
  Pt  Pt32  1  0.538125  0.166887  0.361233  1
  Pt  Pt33  1  0.461715  0.833288  0.638628  1
  Pt  Pt34  1  0.778946  0.174766  0.637000  1
  Pt  Pt35  1  0.221135  0.825038  0.362853  1
  Pt  Pt36  1  0.000010  0.500024  0.000061  1
