# generated using pymatgen
data_Li2Th3AlTcPd2
_symmetry_space_group_name_H-M   'P 1'
_cell_length_a   7.33866315
_cell_length_b   7.31359073
_cell_length_c   4.08397900
_cell_angle_alpha   90.00000000
_cell_angle_beta   90.00000000
_cell_angle_gamma   119.06494000
_symmetry_Int_Tables_number   1
_chemical_formula_structural   Li2Th3AlTcPd2
_chemical_formula_sum   'Li2 Th3 Al1 Tc1 Pd2'
_cell_volume   191.59190237
_cell_formula_units_Z   1
loop_
 _symmetry_equiv_pos_site_id
 _symmetry_equiv_pos_as_xyz
  1  'x, y, z'
loop_
 _atom_site_type_symbol
 _atom_site_label
 _atom_site_symmetry_multiplicity
 _atom_site_fract_x
 _atom_site_fract_y
 _atom_site_fract_z
 _atom_site_occupancy
  Li  Li0  1  0.769558  0.773204  0.000000  1
  Li  Li1  1  0.230259  0.000688  0.000000  1
  Th  Th2  1  0.426191  0.415862  0.500000  1
  Th  Th3  1  0.588101  0.015344  0.500000  1
  Th  Th4  1  0.986511  0.571489  0.500000  1
  Al  Al5  1  0.996016  0.228034  0.000000  1
  Tc  Tc6  1  0.680018  0.330785  0.000000  1
  Pd  Pd7  1  0.320527  0.649049  0.000000  1
  Pd  Pd8  1  0.002819  0.015546  0.500000  1
