# generated using pymatgen
data_Er4FeOs2Ru5
_symmetry_space_group_name_H-M   'P 1'
_cell_length_a   5.25088800
_cell_length_b   5.23143840
_cell_length_c   8.85420300
_cell_angle_alpha   90.00000000
_cell_angle_beta   90.00000000
_cell_angle_gamma   120.12306125
_symmetry_Int_Tables_number   1
_chemical_formula_structural   Er4FeOs2Ru5
_chemical_formula_sum   'Er4 Fe1 Os2 Ru5'
_cell_volume   210.37498351
_cell_formula_units_Z   1
loop_
 _symmetry_equiv_pos_site_id
 _symmetry_equiv_pos_as_xyz
  1  'x, y, z'
loop_
 _atom_site_type_symbol
 _atom_site_label
 _atom_site_symmetry_multiplicity
 _atom_site_fract_x
 _atom_site_fract_y
 _atom_site_fract_z
 _atom_site_occupancy
  Er  Er0  1  0.332195  0.664391  0.434640  1
  Er  Er1  1  0.667399  0.334797  0.566840  1
  Er  Er2  1  0.667399  0.334797  0.933160  1
  Er  Er3  1  0.332195  0.664391  0.065360  1
  Fe  Fe4  1  0.166402  0.332803  0.750000  1
  Os  Os5  1  0.175253  0.829742  0.750000  1
  Os  Os6  1  0.654489  0.829742  0.750000  1
  Ru  Ru7  1  0.344276  0.171945  0.250000  1
  Ru  Ru8  1  0.831727  0.663453  0.250000  1
  Ru  Ru9  1  0.000498  0.000998  0.999237  1
  Ru  Ru10  1  0.827669  0.171945  0.250000  1
  Ru  Ru11  1  0.000498  0.000998  0.500763  1
