# generated using pymatgen
data_DyY4(CoB3)2
_symmetry_space_group_name_H-M   'P 1'
_cell_length_a   5.41032803
_cell_length_b   5.41032829
_cell_length_c   8.38744276
_cell_angle_alpha   71.18427746
_cell_angle_beta   71.18427639
_cell_angle_gamma   59.99999725
_symmetry_Int_Tables_number   1
_chemical_formula_structural   DyY4(CoB3)2
_chemical_formula_sum   'Dy1 Y4 Co2 B6'
_cell_volume   197.32649904
_cell_formula_units_Z   1
loop_
 _symmetry_equiv_pos_site_id
 _symmetry_equiv_pos_as_xyz
  1  'x, y, z'
loop_
 _atom_site_type_symbol
 _atom_site_label
 _atom_site_symmetry_multiplicity
 _atom_site_fract_x
 _atom_site_fract_y
 _atom_site_fract_z
 _atom_site_occupancy
  Dy  Dy0  1  0.583367  0.583367  0.249901  1
  Y  Y1  1  0.999946  0.999946  0.000163  1
  Y  Y2  1  0.251204  0.251204  0.246387  1
  Y  Y3  1  0.748807  0.748807  0.753578  1
  Y  Y4  1  0.416530  0.416530  0.750410  1
  Co  Co5  1  0.119884  0.119884  0.640348  1
  Co  Co6  1  0.880090  0.880090  0.359729  1
  B  B7  1  0.168416  0.831633  0.499914  1
  B  B8  1  0.831633  0.500036  0.499914  1
  B  B9  1  0.500036  0.168416  0.499914  1
  B  B10  1  0.168416  0.500036  0.499914  1
  B  B11  1  0.500036  0.831633  0.499914  1
  B  B12  1  0.831633  0.168416  0.499914  1
