# generated using pymatgen
data_Sr3CaTcO6
_symmetry_space_group_name_H-M   'P 1'
_cell_length_a   6.89222127
_cell_length_b   6.89222188
_cell_length_c   6.89222218
_cell_angle_alpha   91.35280261
_cell_angle_beta   91.35279861
_cell_angle_gamma   91.35280091
_symmetry_Int_Tables_number   1
_chemical_formula_structural   Sr3CaTcO6
_chemical_formula_sum   'Sr6 Ca2 Tc2 O12'
_cell_volume   327.12113877
_cell_formula_units_Z   2
loop_
 _symmetry_equiv_pos_site_id
 _symmetry_equiv_pos_as_xyz
  1  'x, y, z'
loop_
 _atom_site_type_symbol
 _atom_site_label
 _atom_site_symmetry_multiplicity
 _atom_site_fract_x
 _atom_site_fract_y
 _atom_site_fract_z
 _atom_site_occupancy
  Sr  Sr0  1  0.887324  0.250000  0.612676  1
  Sr  Sr1  1  0.387324  0.112676  0.750000  1
  Sr  Sr2  1  0.750000  0.387324  0.112676  1
  Sr  Sr3  1  0.250000  0.612676  0.887324  1
  Sr  Sr4  1  0.612676  0.887324  0.250000  1
  Sr  Sr5  1  0.112676  0.750000  0.387324  1
  Ca  Ca6  1  0.750000  0.750000  0.750000  1
  Ca  Ca7  1  0.250000  0.250000  0.250000  1
  Tc  Tc8  1  0.500000  0.500000  0.500000  1
  Tc  Tc9  1  0.000000  0.000000  0.000000  1
  O  O10  1  0.918148  0.715521  0.049338  1
  O  O11  1  0.450662  0.784479  0.581852  1
  O  O12  1  0.049338  0.918148  0.715521  1
  O  O13  1  0.284479  0.950662  0.081852  1
  O  O14  1  0.950662  0.081852  0.284479  1
  O  O15  1  0.715521  0.049338  0.918148  1
  O  O16  1  0.581852  0.450662  0.784479  1
  O  O17  1  0.784479  0.581852  0.450662  1
  O  O18  1  0.418148  0.549338  0.215521  1
  O  O19  1  0.215521  0.418148  0.549338  1
  O  O20  1  0.549338  0.215521  0.418148  1
  O  O21  1  0.081852  0.284479  0.950662  1
