# generated using pymatgen
data_Ho16CdCo2Ni2Ag3
_symmetry_space_group_name_H-M   'P 1'
_cell_length_a   9.38995702
_cell_length_b   9.41323845
_cell_length_c   9.40592100
_cell_angle_alpha   60.02571497
_cell_angle_beta   59.94374831
_cell_angle_gamma   60.10204992
_symmetry_Int_Tables_number   1
_chemical_formula_structural   Ho16CdCo2Ni2Ag3
_chemical_formula_sum   'Ho16 Cd1 Co2 Ni2 Ag3'
_cell_volume   588.19585143
_cell_formula_units_Z   1
loop_
 _symmetry_equiv_pos_site_id
 _symmetry_equiv_pos_as_xyz
  1  'x, y, z'
loop_
 _atom_site_type_symbol
 _atom_site_label
 _atom_site_symmetry_multiplicity
 _atom_site_fract_x
 _atom_site_fract_y
 _atom_site_fract_z
 _atom_site_occupancy
  Ho  Ho0  1  0.347310  0.347445  0.349427  1
  Ho  Ho1  1  0.347310  0.347445  0.955817  1
  Ho  Ho2  1  0.346297  0.956846  0.348428  1
  Ho  Ho3  1  0.954170  0.348046  0.348892  1
  Ho  Ho4  1  0.814256  0.187149  0.189317  1
  Ho  Ho5  1  0.187532  0.814400  0.809404  1
  Ho  Ho6  1  0.187532  0.814400  0.188664  1
  Ho  Ho7  1  0.814256  0.187149  0.809278  1
  Ho  Ho8  1  0.187310  0.187311  0.812689  1
  Ho  Ho9  1  0.810685  0.809944  0.189685  1
  Ho  Ho10  1  0.934051  0.562942  0.564831  1
  Ho  Ho11  1  0.561592  0.936519  0.937367  1
  Ho  Ho12  1  0.561592  0.936519  0.564522  1
  Ho  Ho13  1  0.934051  0.562942  0.938175  1
  Ho  Ho14  1  0.562724  0.563533  0.936872  1
  Ho  Ho15  1  0.934916  0.938553  0.563265  1
  Cd  Cd16  1  0.263341  0.578874  0.578893  1
  Co  Co17  1  0.142496  0.142992  0.141201  1
  Co  Co18  1  0.142496  0.142992  0.573310  1
  Ni  Ni19  1  0.142909  0.573526  0.141782  1
  Ni  Ni20  1  0.573716  0.143141  0.141571  1
  Ag  Ag21  1  0.582992  0.582409  0.581750  1
  Ag  Ag22  1  0.582992  0.582409  0.252850  1
  Ag  Ag23  1  0.583476  0.252510  0.582007  1
