# generated using pymatgen
data_Y8Er2Cd3Pt
_symmetry_space_group_name_H-M   'P 1'
_cell_length_a   9.71823918
_cell_length_b   9.71677749
_cell_length_c   9.76887486
_cell_angle_alpha   90.00000017
_cell_angle_beta   89.92398219
_cell_angle_gamma   119.99503027
_symmetry_Int_Tables_number   1
_chemical_formula_structural   Y8Er2Cd3Pt
_chemical_formula_sum   'Y16 Er4 Cd6 Pt2'
_cell_volume   798.92545002
_cell_formula_units_Z   2
loop_
 _symmetry_equiv_pos_site_id
 _symmetry_equiv_pos_as_xyz
  1  'x, y, z'
loop_
 _atom_site_type_symbol
 _atom_site_label
 _atom_site_symmetry_multiplicity
 _atom_site_fract_x
 _atom_site_fract_y
 _atom_site_fract_z
 _atom_site_occupancy
  Y  Y0  1  0.584683  0.792342  0.940599  1
  Y  Y1  1  0.793384  0.207454  0.059304  1
  Y  Y2  1  0.793384  0.585930  0.059304  1
  Y  Y3  1  0.414169  0.207084  0.059217  1
  Y  Y4  1  0.792697  0.207340  0.440711  1
  Y  Y5  1  0.792697  0.585357  0.440711  1
  Y  Y6  1  0.414417  0.207208  0.440688  1
  Y  Y7  1  0.207291  0.792955  0.559729  1
  Y  Y8  1  0.207291  0.414336  0.559729  1
  Y  Y9  1  0.585561  0.792780  0.559349  1
  Y  Y10  1  0.542173  0.457366  0.750420  1
  Y  Y11  1  0.542173  0.084806  0.750420  1
  Y  Y12  1  0.915744  0.457871  0.750560  1
  Y  Y13  1  0.457189  0.542429  0.249475  1
  Y  Y14  1  0.457189  0.914761  0.249475  1
  Y  Y15  1  0.085545  0.542773  0.248821  1
  Er  Er16  1  0.207789  0.791697  0.939890  1
  Er  Er17  1  0.207789  0.416092  0.939890  1
  Er  Er18  1  0.000747  0.000373  0.999833  1
  Er  Er19  1  0.999840  0.999920  0.499736  1
  Cd  Cd20  1  0.884773  0.115386  0.750146  1
  Cd  Cd21  1  0.884773  0.769389  0.750146  1
  Cd  Cd22  1  0.230623  0.115313  0.750085  1
  Cd  Cd23  1  0.115407  0.884604  0.249959  1
  Cd  Cd24  1  0.115407  0.230801  0.249959  1
  Cd  Cd25  1  0.769322  0.884660  0.250138  1
  Pt  Pt26  1  0.331300  0.665651  0.752093  1
  Pt  Pt27  1  0.666646  0.333322  0.249611  1
