# generated using pymatgen
data_Ho3Pa3Al7Pt16
_symmetry_space_group_name_H-M   'P 1'
_cell_length_a   8.98091970
_cell_length_b   8.99624290
_cell_length_c   8.99623400
_cell_angle_alpha   59.99998125
_cell_angle_beta   59.94350993
_cell_angle_gamma   59.94355479
_symmetry_Int_Tables_number   1
_chemical_formula_structural   Ho3Pa3Al7Pt16
_chemical_formula_sum   'Ho3 Pa3 Al7 Pt16'
_cell_volume   513.51894323
_cell_formula_units_Z   1
loop_
 _symmetry_equiv_pos_site_id
 _symmetry_equiv_pos_as_xyz
  1  'x, y, z'
loop_
 _atom_site_type_symbol
 _atom_site_label
 _atom_site_symmetry_multiplicity
 _atom_site_fract_x
 _atom_site_fract_y
 _atom_site_fract_z
 _atom_site_occupancy
  Ho  Ho0  1  0.288744  0.707914  0.707915  1
  Ho  Ho1  1  0.288742  0.707915  0.295426  1
  Ho  Ho2  1  0.288742  0.295426  0.707916  1
  Pa  Pa3  1  0.707450  0.289550  0.289549  1
  Pa  Pa4  1  0.707452  0.289549  0.713451  1
  Pa  Pa5  1  0.707452  0.713451  0.289548  1
  Al  Al6  1  0.008521  0.997160  0.997160  1
  Al  Al7  1  0.492641  0.998296  0.998296  1
  Al  Al8  1  0.492641  0.998296  0.510767  1
  Al  Al9  1  0.492641  0.510767  0.998296  1
  Al  Al10  1  0.009535  0.498342  0.498342  1
  Al  Al11  1  0.009535  0.498342  0.993781  1
  Al  Al12  1  0.009535  0.993781  0.498342  1
  Pt  Pt13  1  0.649188  0.116937  0.116939  1
  Pt  Pt14  1  0.115080  0.642402  0.121259  1
  Pt  Pt15  1  0.115081  0.121259  0.642401  1
  Pt  Pt16  1  0.115080  0.121259  0.121260  1
  Pt  Pt17  1  0.361886  0.879372  0.879370  1
  Pt  Pt18  1  0.878254  0.353709  0.884018  1
  Pt  Pt19  1  0.878253  0.884018  0.353710  1
  Pt  Pt20  1  0.878254  0.884018  0.884017  1
  Pt  Pt21  1  0.972515  0.342496  0.342496  1
  Pt  Pt22  1  0.344522  0.984027  0.335725  1
  Pt  Pt23  1  0.344521  0.335724  0.984030  1
  Pt  Pt24  1  0.344521  0.335724  0.335725  1
  Pt  Pt25  1  0.006431  0.664522  0.664522  1
  Pt  Pt26  1  0.664260  0.022439  0.656651  1
  Pt  Pt27  1  0.664261  0.656652  0.022436  1
  Pt  Pt28  1  0.664261  0.656652  0.656651  1
