# generated using pymatgen
data_Sc6GaP5Ru6
_symmetry_space_group_name_H-M   'P 1'
_cell_length_a   7.54806553
_cell_length_b   7.55333591
_cell_length_c   7.54806553
_cell_angle_alpha   128.02148281
_cell_angle_beta   122.21701559
_cell_angle_gamma   81.40725666
_symmetry_Int_Tables_number   1
_chemical_formula_structural   Sc6GaP5Ru6
_chemical_formula_sum   'Sc6 Ga1 P5 Ru6'
_cell_volume   276.28142068
_cell_formula_units_Z   1
loop_
 _symmetry_equiv_pos_site_id
 _symmetry_equiv_pos_as_xyz
  1  'x, y, z'
loop_
 _atom_site_type_symbol
 _atom_site_label
 _atom_site_symmetry_multiplicity
 _atom_site_fract_x
 _atom_site_fract_y
 _atom_site_fract_z
 _atom_site_occupancy
  Sc  Sc0  1  0.456239  0.668454  0.712215  1
  Sc  Sc1  1  0.537451  0.252348  0.214897  1
  Sc  Sc2  1  0.748397  0.841750  0.593354  1
  Sc  Sc3  1  0.250161  0.835861  0.085698  1
  Sc  Sc4  1  0.049847  0.254460  0.704613  1
  Sc  Sc5  1  0.957503  0.667957  0.210455  1
  Ga  Ga6  1  0.256861  0.255148  0.498288  1
  P  P7  1  0.744906  0.251125  0.006219  1
  P  P8  1  0.332102  0.586036  0.251994  1
  P  P9  1  0.666846  0.920219  0.254209  1
  P  P10  1  0.166010  0.920219  0.753373  1
  P  P11  1  0.834042  0.586036  0.753933  1
  Ru  Ru12  1  0.517065  0.503412  0.020793  1
  Ru  Ru13  1  0.982619  0.503412  0.486346  1
  Ru  Ru14  1  0.099144  0.253148  0.101738  1
  Ru  Ru15  1  0.862570  0.003433  0.116605  1
  Ru  Ru16  1  0.386828  0.003433  0.640863  1
  Ru  Ru17  1  0.651410  0.253148  0.654005  1
