# generated using pymatgen
data_CaTh8Se17
_symmetry_space_group_name_H-M   'P 1'
_cell_length_a   8.52460667
_cell_length_b   8.52460699
_cell_length_c   11.54223304
_cell_angle_alpha   79.81485389
_cell_angle_beta   79.81485305
_cell_angle_gamma   64.21206884
_symmetry_Int_Tables_number   1
_chemical_formula_structural   CaTh8Se17
_chemical_formula_sum   'Ca1 Th8 Se17'
_cell_volume   738.59040891
_cell_formula_units_Z   1
loop_
 _symmetry_equiv_pos_site_id
 _symmetry_equiv_pos_as_xyz
  1  'x, y, z'
loop_
 _atom_site_type_symbol
 _atom_site_label
 _atom_site_symmetry_multiplicity
 _atom_site_fract_x
 _atom_site_fract_y
 _atom_site_fract_z
 _atom_site_occupancy
  Ca  Ca0  1  0.000000  0.000000  0.000000  1
  Th  Th1  1  0.795582  0.795582  0.458832  1
  Th  Th2  1  0.204418  0.204418  0.541168  1
  Th  Th3  1  0.697199  0.183862  0.698961  1
  Th  Th4  1  0.183862  0.697199  0.698961  1
  Th  Th5  1  0.816138  0.302801  0.301039  1
  Th  Th6  1  0.680520  0.680520  0.980005  1
  Th  Th7  1  0.319480  0.319480  0.019995  1
  Th  Th8  1  0.302801  0.816138  0.301039  1
  Se  Se9  1  0.480316  0.480316  0.167391  1
  Se  Se10  1  0.696147  0.696147  0.250149  1
  Se  Se11  1  0.568716  0.177974  0.468808  1
  Se  Se12  1  0.054414  0.663989  0.951679  1
  Se  Se13  1  0.210710  0.210710  0.281225  1
  Se  Se14  1  0.431284  0.822026  0.531192  1
  Se  Se15  1  0.519684  0.519684  0.832609  1
  Se  Se16  1  0.663989  0.054414  0.951679  1
  Se  Se17  1  0.938926  0.938926  0.240623  1
  Se  Se18  1  0.061074  0.061074  0.759377  1
  Se  Se19  1  0.303853  0.303853  0.749851  1
  Se  Se20  1  0.336011  0.945586  0.048321  1
  Se  Se21  1  0.822026  0.431284  0.531192  1
  Se  Se22  1  0.945586  0.336011  0.048321  1
  Se  Se23  1  0.177974  0.568716  0.468808  1
  Se  Se24  1  0.000000  0.000000  0.500000  1
  Se  Se25  1  0.789290  0.789290  0.718775  1
