# generated using pymatgen
data_Dy3AgP6N13
_symmetry_space_group_name_H-M   'P 1'
_cell_length_a   7.22457408
_cell_length_b   7.22457442
_cell_length_c   7.35314000
_cell_angle_alpha   109.83211507
_cell_angle_beta   109.83211603
_cell_angle_gamma   109.10792571
_symmetry_Int_Tables_number   1
_chemical_formula_structural   Dy3AgP6N13
_chemical_formula_sum   'Dy3 Ag1 P6 N13'
_cell_volume   294.11809211
_cell_formula_units_Z   1
loop_
 _symmetry_equiv_pos_site_id
 _symmetry_equiv_pos_as_xyz
  1  'x, y, z'
loop_
 _atom_site_type_symbol
 _atom_site_label
 _atom_site_symmetry_multiplicity
 _atom_site_fract_x
 _atom_site_fract_y
 _atom_site_fract_z
 _atom_site_occupancy
  Dy  Dy0  1  0.316432  0.316432  0.299541  1
  Dy  Dy1  1  0.000000  0.683568  0.983109  1
  Dy  Dy2  1  0.683568  0.000000  0.983109  1
  Ag  Ag3  1  0.000000  0.000000  0.741016  1
  P  P4  1  0.505751  0.257672  0.752494  1
  P  P5  1  0.494249  0.751921  0.246744  1
  P  P6  1  0.742328  0.248079  0.494822  1
  P  P7  1  0.257672  0.505751  0.752494  1
  P  P8  1  0.751921  0.494249  0.246744  1
  P  P9  1  0.248079  0.742328  0.494822  1
  N  N10  1  0.000000  0.000000  0.039935  1
  N  N11  1  0.000000  0.709059  0.435764  1
  N  N12  1  0.263788  0.667116  0.266827  1
  N  N13  1  0.332884  0.596671  0.599710  1
  N  N14  1  0.562059  0.562059  0.250635  1
  N  N15  1  0.596671  0.332884  0.599710  1
  N  N16  1  0.709059  0.000000  0.435764  1
  N  N17  1  0.437941  0.000000  0.688575  1
  N  N18  1  0.736212  0.403329  0.003040  1
  N  N19  1  0.290941  0.290941  0.726705  1
  N  N20  1  0.667116  0.263788  0.266827  1
  N  N21  1  0.000000  0.437941  0.688575  1
  N  N22  1  0.403329  0.736212  0.003040  1
