# generated using pymatgen
data_Tb3YGa18(RuPt)3
_symmetry_space_group_name_H-M   'P 1'
_cell_length_a   7.63805948
_cell_length_b   7.63795651
_cell_length_c   9.56968502
_cell_angle_alpha   89.92077830
_cell_angle_beta   89.92527829
_cell_angle_gamma   120.13695032
_symmetry_Int_Tables_number   1
_chemical_formula_structural   Tb3YGa18(RuPt)3
_chemical_formula_sum   'Tb3 Y1 Ga18 Ru3 Pt3'
_cell_volume   482.82075974
_cell_formula_units_Z   1
loop_
 _symmetry_equiv_pos_site_id
 _symmetry_equiv_pos_as_xyz
  1  'x, y, z'
loop_
 _atom_site_type_symbol
 _atom_site_label
 _atom_site_symmetry_multiplicity
 _atom_site_fract_x
 _atom_site_fract_y
 _atom_site_fract_z
 _atom_site_occupancy
  Tb  Tb0  1  0.002105  0.329941  0.749097  1
  Tb  Tb1  1  0.670085  0.997898  0.250876  1
  Tb  Tb2  1  0.331168  0.004301  0.748954  1
  Y  Y3  1  0.995932  0.669035  0.251046  1
  Ga  Ga4  1  0.134395  0.132366  0.249781  1
  Ga  Ga5  1  0.867598  0.865566  0.750252  1
  Ga  Ga6  1  0.005770  0.339261  0.080752  1
  Ga  Ga7  1  0.005210  0.665895  0.919361  1
  Ga  Ga8  1  0.000551  0.660773  0.578446  1
  Ga  Ga9  1  0.339146  0.999430  0.421603  1
  Ga  Ga10  1  0.001363  0.338907  0.420374  1
  Ga  Ga11  1  0.661125  0.998590  0.579704  1
  Ga  Ga12  1  0.660743  0.994179  0.919232  1
  Ga  Ga13  1  0.334045  0.994752  0.080603  1
  Ga  Ga14  1  0.340417  0.340283  0.563454  1
  Ga  Ga15  1  0.659692  0.659560  0.436574  1
  Ga  Ga16  1  0.659014  0.664974  0.066914  1
  Ga  Ga17  1  0.334970  0.340978  0.933029  1
  Ga  Ga18  1  0.337180  0.552382  0.250771  1
  Ga  Ga19  1  0.664300  0.454022  0.745995  1
  Ga  Ga20  1  0.545887  0.335644  0.253977  1
  Ga  Ga21  1  0.447659  0.662864  0.749221  1
  Ru  Ru22  1  0.328207  0.671762  0.000082  1
  Ru  Ru23  1  0.327791  0.672242  0.499929  1
  Ru  Ru24  1  0.673215  0.326862  0.499980  1
  Pt  Pt25  1  0.671988  0.328010  0.999988  1
  Pt  Pt26  1  0.000330  0.999657  0.000006  1
  Pt  Pt27  1  0.000115  0.999868  0.499997  1
