# generated using pymatgen
data_Sr(NbS2)6
_symmetry_space_group_name_H-M   'P 1'
_cell_length_a   5.81493065
_cell_length_b   5.81493021
_cell_length_c   14.31065100
_cell_angle_alpha   86.10466317
_cell_angle_beta   86.10465359
_cell_angle_gamma   119.99364542
_symmetry_Int_Tables_number   1
_chemical_formula_structural   Sr(NbS2)6
_chemical_formula_sum   'Sr1 Nb6 S12'
_cell_volume   415.20408184
_cell_formula_units_Z   1
loop_
 _symmetry_equiv_pos_site_id
 _symmetry_equiv_pos_as_xyz
  1  'x, y, z'
loop_
 _atom_site_type_symbol
 _atom_site_label
 _atom_site_symmetry_multiplicity
 _atom_site_fract_x
 _atom_site_fract_y
 _atom_site_fract_z
 _atom_site_occupancy
  Sr  Sr0  1  0.000000  0.000000  0.000000  1
  Nb  Nb1  1  0.089141  0.089141  0.732571  1
  Nb  Nb2  1  0.422771  0.756325  0.732203  1
  Nb  Nb3  1  0.756325  0.422771  0.732203  1
  Nb  Nb4  1  0.243675  0.577229  0.267797  1
  Nb  Nb5  1  0.577229  0.243675  0.267797  1
  Nb  Nb6  1  0.910859  0.910859  0.267429  1
  S  S7  1  0.284357  0.284357  0.155825  1
  S  S8  1  0.611829  0.948017  0.155895  1
  S  S9  1  0.948017  0.611829  0.155895  1
  S  S10  1  0.051983  0.388171  0.844105  1
  S  S11  1  0.388171  0.051983  0.844105  1
  S  S12  1  0.715643  0.715643  0.844175  1
  S  S13  1  0.206669  0.206669  0.375972  1
  S  S14  1  0.542254  0.874379  0.375920  1
  S  S15  1  0.874379  0.542254  0.375920  1
  S  S16  1  0.125621  0.457746  0.624080  1
  S  S17  1  0.457746  0.125621  0.624080  1
  S  S18  1  0.793331  0.793331  0.624028  1
