# generated using pymatgen
data_Ho2P7PdRu11
_symmetry_space_group_name_H-M   'P 1'
_cell_length_a   9.36574721
_cell_length_b   9.47576682
_cell_length_c   3.93986400
_cell_angle_alpha   90.00000000
_cell_angle_beta   90.00000000
_cell_angle_gamma   119.38208887
_symmetry_Int_Tables_number   1
_chemical_formula_structural   Ho2P7PdRu11
_chemical_formula_sum   'Ho2 P7 Pd1 Ru11'
_cell_volume   304.67670473
_cell_formula_units_Z   1
loop_
 _symmetry_equiv_pos_site_id
 _symmetry_equiv_pos_as_xyz
  1  'x, y, z'
loop_
 _atom_site_type_symbol
 _atom_site_label
 _atom_site_symmetry_multiplicity
 _atom_site_fract_x
 _atom_site_fract_y
 _atom_site_fract_z
 _atom_site_occupancy
  Ho  Ho0  1  0.671394  0.336976  0.500000  1
  Ho  Ho1  1  0.328451  0.657919  0.000000  1
  P  P2  1  0.598499  0.704579  0.500000  1
  P  P3  1  0.996145  0.000141  0.000000  1
  P  P4  1  0.272806  0.880085  0.500000  1
  P  P5  1  0.117655  0.401658  0.500000  1
  P  P6  1  0.887973  0.580432  0.000000  1
  P  P7  1  0.426076  0.307696  0.000000  1
  P  P8  1  0.705572  0.126219  0.000000  1
  Pd  Pd9  1  0.546896  0.939577  0.500000  1
  Ru  Ru10  1  0.389132  0.437612  0.500000  1
  Ru  Ru11  1  0.910225  0.128811  0.500000  1
  Ru  Ru12  1  0.210868  0.087249  0.500000  1
  Ru  Ru13  1  0.876139  0.793024  0.500000  1
  Ru  Ru14  1  0.721921  0.890394  0.000000  1
  Ru  Ru15  1  0.111372  0.840472  0.000000  1
  Ru  Ru16  1  0.162283  0.268719  0.000000  1
  Ru  Ru17  1  0.433019  0.067147  0.000000  1
  Ru  Ru18  1  0.939723  0.367235  0.000000  1
  Ru  Ru19  1  0.640078  0.573325  0.000000  1
  Ru  Ru20  1  0.053775  0.610728  0.500000  1
