# generated using pymatgen
data_Tm12Co4TcSn
_symmetry_space_group_name_H-M   'P 1'
_cell_length_a   8.17306855
_cell_length_b   8.17306895
_cell_length_c   8.17306861
_cell_angle_alpha   111.62473825
_cell_angle_beta   110.70654419
_cell_angle_gamma   106.13445293
_symmetry_Int_Tables_number   1
_chemical_formula_structural   Tm12Co4TcSn
_chemical_formula_sum   'Tm12 Co4 Tc1 Sn1'
_cell_volume   419.18525714
_cell_formula_units_Z   1
loop_
 _symmetry_equiv_pos_site_id
 _symmetry_equiv_pos_as_xyz
  1  'x, y, z'
loop_
 _atom_site_type_symbol
 _atom_site_label
 _atom_site_symmetry_multiplicity
 _atom_site_fract_x
 _atom_site_fract_y
 _atom_site_fract_z
 _atom_site_occupancy
  Tm  Tm0  1  0.418135  0.221761  0.196375  1
  Tm  Tm1  1  0.581865  0.778239  0.803625  1
  Tm  Tm2  1  0.025386  0.221761  0.803625  1
  Tm  Tm3  1  0.974614  0.778239  0.196375  1
  Tm  Tm4  1  0.183609  0.279500  0.463109  1
  Tm  Tm5  1  0.816391  0.720500  0.536891  1
  Tm  Tm6  1  0.183609  0.720500  0.904108  1
  Tm  Tm7  1  0.816391  0.279500  0.095892  1
  Tm  Tm8  1  0.311924  0.617210  0.305285  1
  Tm  Tm9  1  0.688076  0.382790  0.694715  1
  Tm  Tm10  1  0.311924  0.006639  0.694715  1
  Tm  Tm11  1  0.688076  0.993361  0.305285  1
  Co  Co12  1  0.376474  0.000000  0.376474  1
  Co  Co13  1  0.623526  0.000000  0.623526  1
  Co  Co14  1  0.111852  0.611852  0.500000  1
  Co  Co15  1  0.888148  0.388148  0.500000  1
  Tc  Tc16  1  0.000000  0.000000  0.000000  1
  Sn  Sn17  1  0.500000  0.500000  0.000000  1
