# generated using pymatgen
data_Er5LuPa2(ReB6)4
_symmetry_space_group_name_H-M   'P 1'
_cell_length_a   3.68021800
_cell_length_b   9.12581674
_cell_length_c   11.49111602
_cell_angle_alpha   90.33080284
_cell_angle_beta   90.00000000
_cell_angle_gamma   90.00000000
_symmetry_Int_Tables_number   1
_chemical_formula_structural   Er5LuPa2(ReB6)4
_chemical_formula_sum   'Er5 Lu1 Pa2 Re4 B24'
_cell_volume   385.92264184
_cell_formula_units_Z   1
loop_
 _symmetry_equiv_pos_site_id
 _symmetry_equiv_pos_as_xyz
  1  'x, y, z'
loop_
 _atom_site_type_symbol
 _atom_site_label
 _atom_site_symmetry_multiplicity
 _atom_site_fract_x
 _atom_site_fract_y
 _atom_site_fract_z
 _atom_site_occupancy
  Er  Er0  1  0.000000  0.823365  0.085318  1
  Er  Er1  1  0.000000  0.176557  0.914335  1
  Er  Er2  1  0.000000  0.944869  0.372319  1
  Er  Er3  1  0.000000  0.055208  0.628021  1
  Er  Er4  1  0.000000  0.444026  0.125862  1
  Lu  Lu5  1  0.000000  0.556246  0.873387  1
  Pa  Pa6  1  0.000000  0.321406  0.413277  1
  Pa  Pa7  1  0.000000  0.678618  0.587052  1
  Re  Re8  1  0.000000  0.635734  0.323919  1
  Re  Re9  1  0.000000  0.364682  0.676441  1
  Re  Re10  1  0.000000  0.140466  0.181262  1
  Re  Re11  1  0.000000  0.858753  0.818648  1
  B  B12  1  0.500000  0.553742  0.432948  1
  B  B13  1  0.500000  0.446485  0.567429  1
  B  B14  1  0.500000  0.053202  0.066785  1
  B  B15  1  0.500000  0.946076  0.933072  1
  B  B16  1  0.500000  0.749013  0.419345  1
  B  B17  1  0.500000  0.251156  0.580922  1
  B  B18  1  0.500000  0.248540  0.079652  1
  B  B19  1  0.500000  0.750561  0.920014  1
  B  B20  1  0.500000  0.791954  0.264855  1
  B  B21  1  0.500000  0.208405  0.735373  1
  B  B22  1  0.500000  0.292418  0.233650  1
  B  B23  1  0.500000  0.706906  0.766501  1
  B  B24  1  0.500000  0.631362  0.184552  1
  B  B25  1  0.500000  0.369491  0.815513  1
  B  B26  1  0.500000  0.131827  0.314182  1
  B  B27  1  0.500000  0.867932  0.686009  1
  B  B28  1  0.500000  0.981771  0.211857  1
  B  B29  1  0.500000  0.017978  0.788281  1
  B  B30  1  0.500000  0.482858  0.286196  1
  B  B31  1  0.500000  0.517568  0.714296  1
  B  B32  1  0.500000  0.603525  0.028010  1
  B  B33  1  0.500000  0.397297  0.970421  1
  B  B34  1  0.500000  0.108695  0.470144  1
  B  B35  1  0.500000  0.891308  0.530154  1
