# generated using pymatgen
data_Cs2InCl5
_symmetry_space_group_name_H-M   'P 1'
_cell_length_a   7.50202700
_cell_length_b   9.64029800
_cell_length_c   15.25483600
_cell_angle_alpha   90.00000000
_cell_angle_beta   90.00000000
_cell_angle_gamma   90.00000000
_symmetry_Int_Tables_number   1
_chemical_formula_structural   Cs2InCl5
_chemical_formula_sum   'Cs8 In4 Cl20'
_cell_volume   1103.25683034
_cell_formula_units_Z   4
loop_
 _symmetry_equiv_pos_site_id
 _symmetry_equiv_pos_as_xyz
  1  'x, y, z'
loop_
 _atom_site_type_symbol
 _atom_site_label
 _atom_site_symmetry_multiplicity
 _atom_site_fract_x
 _atom_site_fract_y
 _atom_site_fract_z
 _atom_site_occupancy
  Cs  Cs0  1  0.250000  0.667331  0.917693  1
  Cs  Cs1  1  0.750000  0.332669  0.082307  1
  Cs  Cs2  1  0.750000  0.832669  0.417693  1
  Cs  Cs3  1  0.250000  0.167331  0.582307  1
  Cs  Cs4  1  0.250000  0.972816  0.208490  1
  Cs  Cs5  1  0.750000  0.027184  0.791510  1
  Cs  Cs6  1  0.750000  0.527184  0.708490  1
  Cs  Cs7  1  0.250000  0.472816  0.291510  1
  In  In8  1  0.250000  0.678042  0.565512  1
  In  In9  1  0.750000  0.321958  0.434488  1
  In  In10  1  0.750000  0.821958  0.065512  1
  In  In11  1  0.250000  0.178042  0.934488  1
  Cl  Cl12  1  0.250000  0.525052  0.696376  1
  Cl  Cl13  1  0.750000  0.474948  0.303624  1
  Cl  Cl14  1  0.750000  0.974948  0.196376  1
  Cl  Cl15  1  0.250000  0.025052  0.803624  1
  Cl  Cl16  1  0.498614  0.829732  0.617759  1
  Cl  Cl17  1  0.501386  0.170268  0.382241  1
  Cl  Cl18  1  0.501386  0.670268  0.117759  1
  Cl  Cl19  1  0.998614  0.170268  0.382241  1
  Cl  Cl20  1  0.498614  0.329732  0.882241  1
  Cl  Cl21  1  0.001386  0.829732  0.617759  1
  Cl  Cl22  1  0.001386  0.329732  0.882241  1
  Cl  Cl23  1  0.998614  0.670268  0.117759  1
  Cl  Cl24  1  0.250000  0.783674  0.414020  1
  Cl  Cl25  1  0.750000  0.216326  0.585980  1
  Cl  Cl26  1  0.750000  0.716326  0.914020  1
  Cl  Cl27  1  0.250000  0.283674  0.085980  1
  Cl  Cl28  1  0.000000  0.500000  0.500000  1
  Cl  Cl29  1  0.000000  0.000000  0.000000  1
  Cl  Cl30  1  0.500000  0.500000  0.500000  1
  Cl  Cl31  1  0.500000  0.000000  0.000000  1
