# generated using pymatgen
data_Hf2AlGaNi4
_symmetry_space_group_name_H-M   'P 1'
_cell_length_a   4.09071000
_cell_length_b   4.09070832
_cell_length_c   7.95908200
_cell_angle_alpha   90.00000000
_cell_angle_beta   90.00000000
_cell_angle_gamma   119.99998120
_symmetry_Int_Tables_number   1
_chemical_formula_structural   Hf2AlGaNi4
_chemical_formula_sum   'Hf2 Al1 Ga1 Ni4'
_cell_volume   115.34290895
_cell_formula_units_Z   1
loop_
 _symmetry_equiv_pos_site_id
 _symmetry_equiv_pos_as_xyz
  1  'x, y, z'
loop_
 _atom_site_type_symbol
 _atom_site_label
 _atom_site_symmetry_multiplicity
 _atom_site_fract_x
 _atom_site_fract_y
 _atom_site_fract_z
 _atom_site_occupancy
  Hf  Hf0  1  0.333333  0.666668  0.249895  1
  Hf  Hf1  1  0.666668  0.333333  0.750105  1
  Al  Al2  1  0.000000  0.000000  0.499999  1
  Ga  Ga3  1  0.000000  0.000000  0.000000  1
  Ni  Ni4  1  0.666668  0.333333  0.086303  1
  Ni  Ni5  1  0.666668  0.333333  0.415252  1
  Ni  Ni6  1  0.333333  0.666668  0.584751  1
  Ni  Ni7  1  0.333333  0.666668  0.913695  1
