# generated using pymatgen
data_Tm8B24Ir3Ru
_symmetry_space_group_name_H-M   'P 1'
_cell_length_a   3.61080200
_cell_length_b   9.12125712
_cell_length_c   11.44136915
_cell_angle_alpha   90.01860973
_cell_angle_beta   90.00000000
_cell_angle_gamma   90.00000000
_symmetry_Int_Tables_number   1
_chemical_formula_structural   Tm8B24Ir3Ru
_chemical_formula_sum   'Tm8 B24 Ir3 Ru1'
_cell_volume   376.82208468
_cell_formula_units_Z   1
loop_
 _symmetry_equiv_pos_site_id
 _symmetry_equiv_pos_as_xyz
  1  'x, y, z'
loop_
 _atom_site_type_symbol
 _atom_site_label
 _atom_site_symmetry_multiplicity
 _atom_site_fract_x
 _atom_site_fract_y
 _atom_site_fract_z
 _atom_site_occupancy
  Tm  Tm0  1  0.000000  0.320139  0.413385  1
  Tm  Tm1  1  0.000000  0.680989  0.587880  1
  Tm  Tm2  1  0.000000  0.820421  0.084786  1
  Tm  Tm3  1  0.000000  0.177729  0.913131  1
  Tm  Tm4  1  0.000000  0.944143  0.374030  1
  Tm  Tm5  1  0.000000  0.054175  0.627023  1
  Tm  Tm6  1  0.000000  0.444170  0.125795  1
  Tm  Tm7  1  0.000000  0.557718  0.874144  1
  B  B8  1  0.500000  0.553767  0.434939  1
  B  B9  1  0.500000  0.446308  0.565168  1
  B  B10  1  0.500000  0.053424  0.065315  1
  B  B11  1  0.500000  0.945902  0.933989  1
  B  B12  1  0.500000  0.750108  0.421340  1
  B  B13  1  0.500000  0.249920  0.578787  1
  B  B14  1  0.500000  0.249768  0.078726  1
  B  B15  1  0.500000  0.751395  0.920300  1
  B  B16  1  0.500000  0.793626  0.264468  1
  B  B17  1  0.500000  0.206550  0.734912  1
  B  B18  1  0.500000  0.294010  0.235601  1
  B  B19  1  0.500000  0.707413  0.765350  1
  B  B20  1  0.500000  0.631923  0.183569  1
  B  B21  1  0.500000  0.368169  0.816347  1
  B  B22  1  0.500000  0.132450  0.316389  1
  B  B23  1  0.500000  0.868168  0.684767  1
  B  B24  1  0.500000  0.981197  0.213316  1
  B  B25  1  0.500000  0.017230  0.786560  1
  B  B26  1  0.500000  0.481334  0.286402  1
  B  B27  1  0.500000  0.518646  0.713899  1
  B  B28  1  0.500000  0.609039  0.030135  1
  B  B29  1  0.500000  0.390607  0.970187  1
  B  B30  1  0.500000  0.109201  0.470043  1
  B  B31  1  0.500000  0.890835  0.529626  1
  Ir  Ir32  1  0.000000  0.638131  0.321803  1
  Ir  Ir33  1  0.000000  0.362092  0.678608  1
  Ir  Ir34  1  0.000000  0.137520  0.178071  1
  Ru  Ru35  1  0.000000  0.861782  0.821211  1
