# generated using pymatgen
data_Y2Si4Sn(AsRh6)2
_symmetry_space_group_name_H-M   'P 1'
_cell_length_a   9.95781583
_cell_length_b   9.97754435
_cell_length_c   3.88584004
_cell_angle_alpha   90.01238468
_cell_angle_beta   89.98449895
_cell_angle_gamma   120.27402327
_symmetry_Int_Tables_number   1
_chemical_formula_structural   Y2Si4Sn(AsRh6)2
_chemical_formula_sum   'Y2 Si4 Sn1 As2 Rh12'
_cell_volume   333.42446548
_cell_formula_units_Z   1
loop_
 _symmetry_equiv_pos_site_id
 _symmetry_equiv_pos_as_xyz
  1  'x, y, z'
loop_
 _atom_site_type_symbol
 _atom_site_label
 _atom_site_symmetry_multiplicity
 _atom_site_fract_x
 _atom_site_fract_y
 _atom_site_fract_z
 _atom_site_occupancy
  Y  Y0  1  0.333876  0.661409  0.748434  1
  Y  Y1  1  0.000984  0.002586  0.247265  1
  Si  Si2  1  0.959102  0.221779  0.746632  1
  Si  Si3  1  0.775912  0.735070  0.745930  1
  Si  Si4  1  0.263378  0.045142  0.745046  1
  Si  Si5  1  0.374895  0.441075  0.248344  1
  Sn  Sn6  1  0.666849  0.333607  0.659916  1
  As  As7  1  0.552445  0.927385  0.247957  1
  As  As8  1  0.072452  0.626439  0.248641  1
  Rh  Rh9  1  0.742023  0.956419  0.747943  1
  Rh  Rh10  1  0.040959  0.786260  0.746834  1
  Rh  Rh11  1  0.220302  0.264680  0.747359  1
  Rh  Rh12  1  0.608642  0.718667  0.247634  1
  Rh  Rh13  1  0.275456  0.892386  0.246405  1
  Rh  Rh14  1  0.114540  0.389651  0.248100  1
  Rh  Rh15  1  0.958192  0.461681  0.750476  1
  Rh  Rh16  1  0.533813  0.491709  0.748775  1
  Rh  Rh17  1  0.503341  0.043139  0.748625  1
  Rh  Rh18  1  0.403416  0.213504  0.243425  1
  Rh  Rh19  1  0.790742  0.188508  0.245967  1
  Rh  Rh20  1  0.808680  0.598906  0.244478  1
