# generated using pymatgen
data_DyFe3CoP12
_symmetry_space_group_name_H-M   'P 1'
_cell_length_a   6.72345412
_cell_length_b   6.72345482
_cell_length_c   6.72345400
_cell_angle_alpha   109.42369660
_cell_angle_beta   109.42369868
_cell_angle_gamma   109.42370417
_symmetry_Int_Tables_number   1
_chemical_formula_structural   DyFe3CoP12
_chemical_formula_sum   'Dy1 Fe3 Co1 P12'
_cell_volume   234.37821392
_cell_formula_units_Z   1
loop_
 _symmetry_equiv_pos_site_id
 _symmetry_equiv_pos_as_xyz
  1  'x, y, z'
loop_
 _atom_site_type_symbol
 _atom_site_label
 _atom_site_symmetry_multiplicity
 _atom_site_fract_x
 _atom_site_fract_y
 _atom_site_fract_z
 _atom_site_occupancy
  Dy  Dy0  1  0.000000  0.000000  0.000000  1
  Fe  Fe1  1  0.500000  0.000000  0.000000  1
  Fe  Fe2  1  0.000000  0.500000  0.000000  1
  Fe  Fe3  1  0.000000  0.000000  0.500000  1
  Co  Co4  1  0.500000  0.500000  0.500000  1
  P  P5  1  0.150457  0.800478  0.650533  1
  P  P6  1  0.147349  0.499830  0.348599  1
  P  P7  1  0.852651  0.500170  0.651401  1
  P  P8  1  0.348599  0.147349  0.499830  1
  P  P9  1  0.800478  0.650533  0.150457  1
  P  P10  1  0.849543  0.199522  0.349467  1
  P  P11  1  0.650533  0.150457  0.800478  1
  P  P12  1  0.500170  0.651401  0.852651  1
  P  P13  1  0.651401  0.852651  0.500170  1
  P  P14  1  0.499830  0.348599  0.147349  1
  P  P15  1  0.349467  0.849543  0.199522  1
  P  P16  1  0.199522  0.349467  0.849543  1
