# generated using pymatgen
data_LuZr(SnRh)2
_symmetry_space_group_name_H-M   'P 1'
_cell_length_a   7.48478500
_cell_length_b   7.48478579
_cell_length_c   7.40767300
_cell_angle_alpha   90.00000000
_cell_angle_beta   90.00000000
_cell_angle_gamma   120.00000210
_symmetry_Int_Tables_number   1
_chemical_formula_structural   LuZr(SnRh)2
_chemical_formula_sum   'Lu3 Zr3 Sn6 Rh6'
_cell_volume   359.39425524
_cell_formula_units_Z   3
loop_
 _symmetry_equiv_pos_site_id
 _symmetry_equiv_pos_as_xyz
  1  'x, y, z'
loop_
 _atom_site_type_symbol
 _atom_site_label
 _atom_site_symmetry_multiplicity
 _atom_site_fract_x
 _atom_site_fract_y
 _atom_site_fract_z
 _atom_site_occupancy
  Lu  Lu0  1  0.595367  0.998855  0.750000  1
  Lu  Lu1  1  0.403488  0.404633  0.750000  1
  Lu  Lu2  1  0.001145  0.596512  0.750000  1
  Zr  Zr3  1  0.605730  0.003349  0.250000  1
  Zr  Zr4  1  0.397619  0.394270  0.250000  1
  Zr  Zr5  1  0.996651  0.602381  0.250000  1
  Sn  Sn6  1  0.266558  0.998759  0.003794  1
  Sn  Sn7  1  0.732201  0.733442  0.496206  1
  Sn  Sn8  1  0.001241  0.267799  0.496206  1
  Sn  Sn9  1  0.001241  0.267799  0.003794  1
  Sn  Sn10  1  0.732201  0.733442  0.003794  1
  Sn  Sn11  1  0.266558  0.998759  0.496206  1
  Rh  Rh12  1  0.666667  0.333333  0.018487  1
  Rh  Rh13  1  0.666667  0.333333  0.481513  1
  Rh  Rh14  1  0.333333  0.666667  0.029853  1
  Rh  Rh15  1  0.333333  0.666667  0.470147  1
  Rh  Rh16  1  0.000000  0.000000  0.750000  1
  Rh  Rh17  1  0.000000  0.000000  0.250000  1
