# generated using pymatgen
data_Lu2Sc3(Re7Tc5)2
_symmetry_space_group_name_H-M   'P 1'
_cell_length_a   8.50136436
_cell_length_b   8.50392934
_cell_length_c   8.50006300
_cell_angle_alpha   109.47027652
_cell_angle_beta   109.46740257
_cell_angle_gamma   109.53819596
_symmetry_Int_Tables_number   1
_chemical_formula_structural   Lu2Sc3(Re7Tc5)2
_chemical_formula_sum   'Lu2 Sc3 Re14 Tc10'
_cell_volume   472.68788340
_cell_formula_units_Z   1
loop_
 _symmetry_equiv_pos_site_id
 _symmetry_equiv_pos_as_xyz
  1  'x, y, z'
loop_
 _atom_site_type_symbol
 _atom_site_label
 _atom_site_symmetry_multiplicity
 _atom_site_fract_x
 _atom_site_fract_y
 _atom_site_fract_z
 _atom_site_occupancy
  Lu  Lu0  1  0.000889  0.999666  0.999967  1
  Lu  Lu1  1  0.627953  0.000321  0.000519  1
  Sc  Sc2  1  0.999968  0.628026  0.000178  1
  Sc  Sc3  1  0.999228  0.999021  0.627460  1
  Sc  Sc4  1  0.372039  0.371716  0.369654  1
  Re  Re5  1  0.277594  0.602268  0.602395  1
  Re  Re6  1  0.601915  0.277138  0.602611  1
  Re  Re7  1  0.377558  0.193085  0.999465  1
  Re  Re8  1  0.184233  0.807920  0.807771  1
  Re  Re9  1  0.378073  0.001411  0.194455  1
  Re  Re10  1  0.192667  0.377624  0.999478  1
  Re  Re11  1  0.003338  0.380532  0.195042  1
  Re  Re12  1  0.809302  0.185895  0.807171  1
  Re  Re13  1  0.808119  0.806194  0.186241  1
  Re  Re14  1  0.002384  0.193972  0.380125  1
  Re  Re15  1  0.192878  0.000384  0.377847  1
  Re  Re16  1  0.620594  0.618999  0.812417  1
  Re  Re17  1  0.813623  0.621274  0.622022  1
  Re  Re18  1  0.620788  0.812380  0.619792  1
  Tc  Tc19  1  0.395526  0.673706  0.000260  1
  Tc  Tc20  1  0.722558  0.326914  0.326482  1
  Tc  Tc21  1  0.396151  0.000402  0.673049  1
  Tc  Tc22  1  0.677395  0.398149  0.000321  1
  Tc  Tc23  1  0.000191  0.398838  0.676122  1
  Tc  Tc24  1  0.323314  0.721955  0.322975  1
  Tc  Tc25  1  0.322768  0.323093  0.721593  1
  Tc  Tc26  1  0.000196  0.676369  0.398462  1
  Tc  Tc27  1  0.676817  0.000524  0.398245  1
  Tc  Tc28  1  0.601941  0.602228  0.277880  1
