# generated using pymatgen
data_CeLu(PuB8)2
_symmetry_space_group_name_H-M   'P 1'
_cell_length_a   7.10665206
_cell_length_b   7.10425043
_cell_length_c   4.02168000
_cell_angle_alpha   90.00000000
_cell_angle_beta   90.00000000
_cell_angle_gamma   90.64981177
_symmetry_Int_Tables_number   1
_chemical_formula_structural   CeLu(PuB8)2
_chemical_formula_sum   'Ce1 Lu1 Pu2 B16'
_cell_volume   203.03125304
_cell_formula_units_Z   1
loop_
 _symmetry_equiv_pos_site_id
 _symmetry_equiv_pos_as_xyz
  1  'x, y, z'
loop_
 _atom_site_type_symbol
 _atom_site_label
 _atom_site_symmetry_multiplicity
 _atom_site_fract_x
 _atom_site_fract_y
 _atom_site_fract_z
 _atom_site_occupancy
  Ce  Ce0  1  0.185918  0.684948  0.000000  1
  Lu  Lu1  1  0.682308  0.818336  0.000000  1
  Pu  Pu2  1  0.314274  0.186061  0.000000  1
  Pu  Pu3  1  0.813342  0.312929  0.000000  1
  B  B4  1  0.325809  0.460995  0.500000  1
  B  B5  1  0.679617  0.539415  0.500000  1
  B  B6  1  0.540727  0.323702  0.500000  1
  B  B7  1  0.464673  0.677158  0.500000  1
  B  B8  1  0.996662  0.999213  0.201119  1
  B  B9  1  0.503307  0.501415  0.798898  1
  B  B10  1  0.996662  0.999213  0.798881  1
  B  B11  1  0.503307  0.501415  0.201102  1
  B  B12  1  0.587047  0.087485  0.500000  1
  B  B13  1  0.088120  0.411981  0.500000  1
  B  B14  1  0.914884  0.585087  0.500000  1
  B  B15  1  0.411501  0.912262  0.500000  1
  B  B16  1  0.037635  0.176311  0.500000  1
  B  B17  1  0.174539  0.961990  0.500000  1
  B  B18  1  0.820923  0.037450  0.500000  1
  B  B19  1  0.958749  0.822633  0.500000  1
