# generated using pymatgen
data_CsU2(FeH6)2
_symmetry_space_group_name_H-M   'P 1'
_cell_length_a   4.85696300
_cell_length_b   4.85696382
_cell_length_c   9.24712800
_cell_angle_alpha   90.00000000
_cell_angle_beta   90.00000000
_cell_angle_gamma   120.00000123
_symmetry_Int_Tables_number   1
_chemical_formula_structural   CsU2(FeH6)2
_chemical_formula_sum   'Cs1 U2 Fe2 H12'
_cell_volume   188.91531156
_cell_formula_units_Z   1
loop_
 _symmetry_equiv_pos_site_id
 _symmetry_equiv_pos_as_xyz
  1  'x, y, z'
loop_
 _atom_site_type_symbol
 _atom_site_label
 _atom_site_symmetry_multiplicity
 _atom_site_fract_x
 _atom_site_fract_y
 _atom_site_fract_z
 _atom_site_occupancy
  Cs  Cs0  1  0.000000  0.000000  0.000000  1
  U  U1  1  0.666667  0.333333  0.380643  1
  U  U2  1  0.333333  0.666667  0.619357  1
  Fe  Fe3  1  0.666667  0.333333  0.692921  1
  Fe  Fe4  1  0.333333  0.666667  0.307079  1
  H  H5  1  0.172359  0.827641  0.403986  1
  H  H6  1  0.655282  0.827641  0.403986  1
  H  H7  1  0.172359  0.344718  0.403986  1
  H  H8  1  0.827641  0.172359  0.596014  1
  H  H9  1  0.344718  0.172359  0.596014  1
  H  H10  1  0.827641  0.655282  0.596014  1
  H  H11  1  0.520876  0.041753  0.800462  1
  H  H12  1  0.520876  0.479124  0.800462  1
  H  H13  1  0.958247  0.479124  0.800462  1
  H  H14  1  0.479124  0.958247  0.199538  1
  H  H15  1  0.479124  0.520876  0.199538  1
  H  H16  1  0.041753  0.520876  0.199538  1
