# generated using pymatgen
data_Hf17Ni4IrRh2
_symmetry_space_group_name_H-M   'P 1'
_cell_length_a   8.64598448
_cell_length_b   8.73271508
_cell_length_c   8.64133000
_cell_angle_alpha   60.34558441
_cell_angle_beta   60.01782183
_cell_angle_gamma   60.21866732
_symmetry_Int_Tables_number   1
_chemical_formula_structural   Hf17Ni4IrRh2
_chemical_formula_sum   'Hf17 Ni4 Ir1 Rh2'
_cell_volume   463.36806182
_cell_formula_units_Z   1
loop_
 _symmetry_equiv_pos_site_id
 _symmetry_equiv_pos_as_xyz
  1  'x, y, z'
loop_
 _atom_site_type_symbol
 _atom_site_label
 _atom_site_symmetry_multiplicity
 _atom_site_fract_x
 _atom_site_fract_y
 _atom_site_fract_z
 _atom_site_occupancy
  Hf  Hf0  1  0.700178  0.100485  0.099668  1
  Hf  Hf1  1  0.108341  0.673808  0.108925  1
  Hf  Hf2  1  0.099491  0.101126  0.699197  1
  Hf  Hf3  1  0.099491  0.101126  0.100183  1
  Hf  Hf4  1  0.315517  0.316847  0.683818  1
  Hf  Hf5  1  0.678921  0.693026  0.314026  1
  Hf  Hf6  1  0.314827  0.693373  0.314635  1
  Hf  Hf7  1  0.684500  0.316455  0.683511  1
  Hf  Hf8  1  0.684500  0.316455  0.315535  1
  Hf  Hf9  1  0.314827  0.693373  0.677165  1
  Hf  Hf10  1  0.949026  0.943155  0.553909  1
  Hf  Hf11  1  0.548710  0.548916  0.951187  1
  Hf  Hf12  1  0.951346  0.548072  0.952335  1
  Hf  Hf13  1  0.556737  0.940049  0.556584  1
  Hf  Hf14  1  0.556737  0.940049  0.946632  1
  Hf  Hf15  1  0.951346  0.548072  0.548248  1
  Hf  Hf16  1  0.326373  0.022499  0.325563  1
  Ni  Ni17  1  0.321418  0.885800  0.896392  1
  Ni  Ni18  1  0.888753  0.329704  0.890771  1
  Ni  Ni19  1  0.896066  0.886368  0.322219  1
  Ni  Ni20  1  0.896066  0.886368  0.895347  1
  Ir  Ir21  1  0.983229  0.338926  0.338922  1
  Rh  Rh22  1  0.336797  0.337974  0.986692  1
  Rh  Rh23  1  0.336797  0.337974  0.338535  1
