# generated using pymatgen
data_Ca4Ga17SiRh6
_symmetry_space_group_name_H-M   'P 1'
_cell_length_a   7.53944177
_cell_length_b   7.52432496
_cell_length_c   9.74798989
_cell_angle_alpha   89.98089506
_cell_angle_beta   90.02695962
_cell_angle_gamma   119.33272249
_symmetry_Int_Tables_number   1
_chemical_formula_structural   Ca4Ga17SiRh6
_chemical_formula_sum   'Ca4 Ga17 Si1 Rh6'
_cell_volume   482.09591975
_cell_formula_units_Z   1
loop_
 _symmetry_equiv_pos_site_id
 _symmetry_equiv_pos_as_xyz
  1  'x, y, z'
loop_
 _atom_site_type_symbol
 _atom_site_label
 _atom_site_symmetry_multiplicity
 _atom_site_fract_x
 _atom_site_fract_y
 _atom_site_fract_z
 _atom_site_occupancy
  Ca  Ca0  1  0.997042  0.664899  0.248029  1
  Ca  Ca1  1  0.002558  0.330325  0.751277  1
  Ca  Ca2  1  0.674121  0.003676  0.248324  1
  Ca  Ca3  1  0.329081  0.001206  0.748951  1
  Ga  Ga4  1  0.127804  0.129173  0.250235  1
  Ga  Ga5  1  0.872129  0.873352  0.750387  1
  Ga  Ga6  1  0.995645  0.670067  0.923735  1
  Ga  Ga7  1  0.996334  0.664872  0.574808  1
  Ga  Ga8  1  0.334734  0.001522  0.422985  1
  Ga  Ga9  1  0.003475  0.335318  0.426371  1
  Ga  Ga10  1  0.664653  0.996103  0.575695  1
  Ga  Ga11  1  0.658182  0.991544  0.923523  1
  Ga  Ga12  1  0.333672  0.001481  0.075842  1
  Ga  Ga13  1  0.335710  0.334968  0.559989  1
  Ga  Ga14  1  0.666495  0.666355  0.438033  1
  Ga  Ga15  1  0.665559  0.667254  0.062187  1
  Ga  Ga16  1  0.341037  0.334213  0.939945  1
  Ga  Ga17  1  0.336019  0.545764  0.250589  1
  Ga  Ga18  1  0.664070  0.452339  0.751361  1
  Ga  Ga19  1  0.545138  0.336700  0.250541  1
  Ga  Ga20  1  0.452525  0.661435  0.750353  1
  Si  Si21  1  0.005454  0.336089  0.069182  1
  Rh  Rh22  1  0.683985  0.330371  0.004939  1
  Rh  Rh23  1  0.315366  0.656999  0.000919  1
  Rh  Rh24  1  0.329589  0.671280  0.500024  1
  Rh  Rh25  1  0.670688  0.328154  0.500460  1
  Rh  Rh26  1  0.998670  0.014384  0.001403  1
  Rh  Rh27  1  0.000262  0.000161  0.499910  1
