# generated using pymatgen
data_Li6Yb12Re4N19
_symmetry_space_group_name_H-M   'P 1'
_cell_length_a   11.15837820
_cell_length_b   11.15837757
_cell_length_c   11.15837800
_cell_angle_alpha   109.47121960
_cell_angle_beta   109.47121845
_cell_angle_gamma   109.47122396
_symmetry_Int_Tables_number   1
_chemical_formula_structural   Li6Yb12Re4N19
_chemical_formula_sum   'Li12 Yb24 Re8 N38'
_cell_volume   1069.50127862
_cell_formula_units_Z   2
loop_
 _symmetry_equiv_pos_site_id
 _symmetry_equiv_pos_as_xyz
  1  'x, y, z'
loop_
 _atom_site_type_symbol
 _atom_site_label
 _atom_site_symmetry_multiplicity
 _atom_site_fract_x
 _atom_site_fract_y
 _atom_site_fract_z
 _atom_site_occupancy
  Li  Li0  1  0.274005  0.024005  0.250000  1
  Li  Li1  1  0.975995  0.725995  0.250000  1
  Li  Li2  1  0.750000  0.524005  0.774005  1
  Li  Li3  1  0.774005  0.750000  0.524005  1
  Li  Li4  1  0.250000  0.975995  0.725995  1
  Li  Li5  1  0.725995  0.250000  0.975995  1
  Li  Li6  1  0.225995  0.475995  0.750000  1
  Li  Li7  1  0.475995  0.750000  0.225995  1
  Li  Li8  1  0.024005  0.250000  0.274005  1
  Li  Li9  1  0.250000  0.274005  0.024005  1
  Li  Li10  1  0.750000  0.225995  0.475995  1
  Li  Li11  1  0.524005  0.774005  0.750000  1
  Yb  Yb12  1  0.038180  0.092736  0.709645  1
  Yb  Yb13  1  0.054557  0.461820  0.171464  1
  Yb  Yb14  1  0.790355  0.883092  0.328536  1
  Yb  Yb15  1  0.616908  0.407264  0.445443  1
  Yb  Yb16  1  0.407264  0.445443  0.616908  1
  Yb  Yb17  1  0.092736  0.709645  0.038180  1
  Yb  Yb18  1  0.461820  0.171464  0.054557  1
  Yb  Yb19  1  0.328536  0.790355  0.883092  1
  Yb  Yb20  1  0.709645  0.038180  0.092736  1
  Yb  Yb21  1  0.171464  0.054557  0.461820  1
  Yb  Yb22  1  0.883092  0.328536  0.790355  1
  Yb  Yb23  1  0.961820  0.554557  0.671464  1
  Yb  Yb24  1  0.383092  0.290355  0.828536  1
  Yb  Yb25  1  0.445443  0.616908  0.407264  1
  Yb  Yb26  1  0.538180  0.209645  0.592736  1
  Yb  Yb27  1  0.907264  0.116908  0.945443  1
  Yb  Yb28  1  0.945443  0.907264  0.116908  1
  Yb  Yb29  1  0.116908  0.945443  0.907264  1
  Yb  Yb30  1  0.828536  0.383092  0.290355  1
  Yb  Yb31  1  0.554557  0.671464  0.961820  1
  Yb  Yb32  1  0.209645  0.592736  0.538180  1
  Yb  Yb33  1  0.592736  0.538180  0.209645  1
  Yb  Yb34  1  0.671464  0.961820  0.554557  1
  Yb  Yb35  1  0.290355  0.828536  0.383092  1
  Re  Re36  1  0.276629  0.276629  0.276629  1
  Re  Re37  1  0.500000  0.000000  0.723371  1
  Re  Re38  1  0.000000  0.723371  0.500000  1
  Re  Re39  1  0.723371  0.500000  0.000000  1
  Re  Re40  1  0.000000  0.223371  0.500000  1
  Re  Re41  1  0.223371  0.500000  0.000000  1
  Re  Re42  1  0.500000  0.000000  0.223371  1
  Re  Re43  1  0.776629  0.776629  0.776629  1
  N  N44  1  0.820005  0.583850  0.453894  1
  N  N45  1  0.546106  0.866112  0.129957  1
  N  N46  1  0.236156  0.416150  0.370043  1
  N  N47  1  0.320005  0.953894  0.083850  1
  N  N48  1  0.953894  0.083850  0.320005  1
  N  N49  1  0.083850  0.320005  0.953894  1
  N  N50  1  0.736156  0.870043  0.916150  1
  N  N51  1  0.046106  0.629957  0.366112  1
  N  N52  1  0.763844  0.679995  0.133888  1
  N  N53  1  0.370043  0.236156  0.416150  1
  N  N54  1  0.583850  0.453894  0.820005  1
  N  N55  1  0.916150  0.736156  0.870043  1
  N  N56  1  0.629957  0.366112  0.046106  1
  N  N57  1  0.133888  0.763844  0.679995  1
  N  N58  1  0.870043  0.916150  0.736156  1
  N  N59  1  0.366112  0.046106  0.629957  1
  N  N60  1  0.679995  0.133888  0.763844  1
  N  N61  1  0.129957  0.546106  0.866112  1
  N  N62  1  0.179995  0.263844  0.633888  1
  N  N63  1  0.263844  0.633888  0.179995  1
  N  N64  1  0.611660  0.611660  0.611660  1
  N  N65  1  0.500000  0.000000  0.388340  1
  N  N66  1  0.388340  0.500000  0.000000  1
  N  N67  1  0.000000  0.388340  0.500000  1
  N  N68  1  0.888340  0.500000  0.000000  1
  N  N69  1  0.000000  0.888340  0.500000  1
  N  N70  1  0.500000  0.000000  0.888340  1
  N  N71  1  0.111660  0.111660  0.111660  1
  N  N72  1  0.453894  0.820005  0.583850  1
  N  N73  1  0.866112  0.129957  0.546106  1
  N  N74  1  0.416150  0.370043  0.236156  1
  N  N75  1  0.633888  0.179995  0.263844  1
  N  N76  1  0.625000  0.750000  0.375000  1
  N  N77  1  0.875000  0.250000  0.125000  1
  N  N78  1  0.750000  0.375000  0.625000  1
  N  N79  1  0.250000  0.125000  0.875000  1
  N  N80  1  0.125000  0.875000  0.250000  1
  N  N81  1  0.375000  0.625000  0.750000  1
