# generated using pymatgen
data_Sc5FeSb2
_symmetry_space_group_name_H-M   'P 1'
_cell_length_a   5.62416717
_cell_length_b   8.36288660
_cell_length_c   8.36288634
_cell_angle_alpha   83.50773323
_cell_angle_beta   70.35097699
_cell_angle_gamma   70.35096735
_symmetry_Int_Tables_number   1
_chemical_formula_structural   Sc5FeSb2
_chemical_formula_sum   'Sc10 Fe2 Sb4'
_cell_volume   348.86739693
_cell_formula_units_Z   2
loop_
 _symmetry_equiv_pos_site_id
 _symmetry_equiv_pos_as_xyz
  1  'x, y, z'
loop_
 _atom_site_type_symbol
 _atom_site_label
 _atom_site_symmetry_multiplicity
 _atom_site_fract_x
 _atom_site_fract_y
 _atom_site_fract_z
 _atom_site_occupancy
  Sc  Sc0  1  0.071045  0.118817  0.739093  1
  Sc  Sc1  1  0.928955  0.881183  0.260907  1
  Sc  Sc2  1  0.810138  0.260907  0.118817  1
  Sc  Sc3  1  0.428955  0.260907  0.881183  1
  Sc  Sc4  1  0.189862  0.739093  0.881183  1
  Sc  Sc5  1  0.571045  0.739093  0.118817  1
  Sc  Sc6  1  0.689862  0.881183  0.739093  1
  Sc  Sc7  1  0.310138  0.118817  0.260907  1
  Sc  Sc8  1  0.250000  0.500000  0.500000  1
  Sc  Sc9  1  0.750000  0.500000  0.500000  1
  Fe  Fe10  1  0.250000  0.000000  0.000000  1
  Fe  Fe11  1  0.750000  0.000000  0.000000  1
  Sb  Sb12  1  0.161141  0.500000  0.177717  1
  Sb  Sb13  1  0.838859  0.500000  0.822283  1
  Sb  Sb14  1  0.338859  0.822283  0.500000  1
  Sb  Sb15  1  0.661141  0.177717  0.500000  1
