# generated using pymatgen
data_Ti4Nb4AsP5
_symmetry_space_group_name_H-M   'P 1'
_cell_length_a   7.25866741
_cell_length_b   7.25866866
_cell_length_c   18.53619000
_cell_angle_alpha   90.00000000
_cell_angle_beta   90.00000000
_cell_angle_gamma   152.82295480
_symmetry_Int_Tables_number   1
_chemical_formula_structural   Ti4Nb4AsP5
_chemical_formula_sum   'Ti8 Nb8 As2 P10'
_cell_volume   446.07190467
_cell_formula_units_Z   2
loop_
 _symmetry_equiv_pos_site_id
 _symmetry_equiv_pos_as_xyz
  1  'x, y, z'
loop_
 _atom_site_type_symbol
 _atom_site_label
 _atom_site_symmetry_multiplicity
 _atom_site_fract_x
 _atom_site_fract_y
 _atom_site_fract_z
 _atom_site_occupancy
  Ti  Ti0  1  0.736846  0.263154  0.158239  1
  Ti  Ti1  1  0.263154  0.736846  0.841761  1
  Ti  Ti2  1  0.263154  0.736846  0.658239  1
  Ti  Ti3  1  0.736846  0.263154  0.341761  1
  Ti  Ti4  1  0.532957  0.467043  0.119646  1
  Ti  Ti5  1  0.467043  0.532957  0.880354  1
  Ti  Ti6  1  0.467043  0.532957  0.619646  1
  Ti  Ti7  1  0.532957  0.467043  0.380354  1
  Nb  Nb8  1  0.668831  0.331169  0.972752  1
  Nb  Nb9  1  0.331169  0.668831  0.027248  1
  Nb  Nb10  1  0.331169  0.668831  0.472752  1
  Nb  Nb11  1  0.668831  0.331169  0.527248  1
  Nb  Nb12  1  0.000000  0.000000  0.000000  1
  Nb  Nb13  1  0.000000  0.000000  0.500000  1
  Nb  Nb14  1  0.064734  0.935266  0.750000  1
  Nb  Nb15  1  0.935266  0.064734  0.250000  1
  As  As16  1  0.414838  0.585162  0.750000  1
  As  As17  1  0.585162  0.414838  0.250000  1
  P  P18  1  0.901892  0.098108  0.117591  1
  P  P19  1  0.098108  0.901892  0.882409  1
  P  P20  1  0.098108  0.901892  0.617591  1
  P  P21  1  0.901892  0.098108  0.382409  1
  P  P22  1  0.843567  0.156433  0.921410  1
  P  P23  1  0.156433  0.843567  0.078590  1
  P  P24  1  0.156433  0.843567  0.421410  1
  P  P25  1  0.843567  0.156433  0.578590  1
  P  P26  1  0.702845  0.297155  0.750000  1
  P  P27  1  0.297155  0.702845  0.250000  1
