# generated using pymatgen
data_DyVP3Rh4
_symmetry_space_group_name_H-M   'P 1'
_cell_length_a   3.91555500
_cell_length_b   7.22887642
_cell_length_c   9.53422885
_cell_angle_alpha   79.22490712
_cell_angle_beta   90.00000000
_cell_angle_gamma   90.00000000
_symmetry_Int_Tables_number   1
_chemical_formula_structural   DyVP3Rh4
_chemical_formula_sum   'Dy2 V2 P6 Rh8'
_cell_volume   265.10882210
_cell_formula_units_Z   2
loop_
 _symmetry_equiv_pos_site_id
 _symmetry_equiv_pos_as_xyz
  1  'x, y, z'
loop_
 _atom_site_type_symbol
 _atom_site_label
 _atom_site_symmetry_multiplicity
 _atom_site_fract_x
 _atom_site_fract_y
 _atom_site_fract_z
 _atom_site_occupancy
  Dy  Dy0  1  0.250000  0.806822  0.783848  1
  Dy  Dy1  1  0.750000  0.193169  0.216134  1
  V  V2  1  0.250000  0.310848  0.722434  1
  V  V3  1  0.750000  0.689195  0.277503  1
  P  P4  1  0.250000  0.256472  0.973466  1
  P  P5  1  0.750000  0.743503  0.026714  1
  P  P6  1  0.250000  0.430732  0.336041  1
  P  P7  1  0.750000  0.569372  0.663937  1
  P  P8  1  0.250000  0.899885  0.339121  1
  P  P9  1  0.750000  0.100001  0.660815  1
  Rh  Rh10  1  0.250000  0.529969  0.097090  1
  Rh  Rh11  1  0.750000  0.470045  0.902906  1
  Rh  Rh12  1  0.250000  0.925933  0.097541  1
  Rh  Rh13  1  0.750000  0.074083  0.902450  1
  Rh  Rh14  1  0.250000  0.623429  0.502534  1
  Rh  Rh15  1  0.750000  0.376588  0.497437  1
  Rh  Rh16  1  0.250000  0.130704  0.475277  1
  Rh  Rh17  1  0.750000  0.869253  0.524752  1
