# generated using pymatgen
data_Y4MnCo9B4
_symmetry_space_group_name_H-M   'P 1'
_cell_length_a   5.12275000
_cell_length_b   5.12274945
_cell_length_c   19.49995200
_cell_angle_alpha   90.00000000
_cell_angle_beta   90.00000000
_cell_angle_gamma   120.00000356
_symmetry_Int_Tables_number   1
_chemical_formula_structural   Y4MnCo9B4
_chemical_formula_sum   'Y8 Mn2 Co18 B8'
_cell_volume   443.17008377
_cell_formula_units_Z   2
loop_
 _symmetry_equiv_pos_site_id
 _symmetry_equiv_pos_as_xyz
  1  'x, y, z'
loop_
 _atom_site_type_symbol
 _atom_site_label
 _atom_site_symmetry_multiplicity
 _atom_site_fract_x
 _atom_site_fract_y
 _atom_site_fract_z
 _atom_site_occupancy
  Y  Y0  1  0.666667  0.333333  0.825381  1
  Y  Y1  1  0.666667  0.333333  0.977592  1
  Y  Y2  1  0.333333  0.666667  0.477592  1
  Y  Y3  1  0.333333  0.666667  0.022408  1
  Y  Y4  1  0.333333  0.666667  0.174619  1
  Y  Y5  1  0.666667  0.333333  0.522408  1
  Y  Y6  1  0.666667  0.333333  0.674619  1
  Y  Y7  1  0.333333  0.666667  0.325381  1
  Mn  Mn8  1  0.000000  0.000000  0.000000  1
  Mn  Mn9  1  0.000000  0.000000  0.500000  1
  Co  Co10  1  0.164482  0.328962  0.894636  1
  Co  Co11  1  0.164482  0.835518  0.605364  1
  Co  Co12  1  0.835518  0.164482  0.394636  1
  Co  Co13  1  0.334341  0.167171  0.250000  1
  Co  Co14  1  0.328962  0.164482  0.394636  1
  Co  Co15  1  0.835518  0.671038  0.105364  1
  Co  Co16  1  0.835518  0.671038  0.394636  1
  Co  Co17  1  0.832829  0.665659  0.250000  1
  Co  Co18  1  0.671038  0.835518  0.605364  1
  Co  Co19  1  0.665659  0.832829  0.750000  1
  Co  Co20  1  0.835518  0.164482  0.105364  1
  Co  Co21  1  0.671038  0.835518  0.894636  1
  Co  Co22  1  0.167171  0.334341  0.750000  1
  Co  Co23  1  0.167171  0.832829  0.750000  1
  Co  Co24  1  0.832829  0.167171  0.250000  1
  Co  Co25  1  0.328962  0.164482  0.105364  1
  Co  Co26  1  0.164482  0.835518  0.894636  1
  Co  Co27  1  0.164482  0.328962  0.605364  1
  B  B28  1  0.333333  0.666667  0.825154  1
  B  B29  1  0.333333  0.666667  0.674846  1
  B  B30  1  0.666667  0.333333  0.325154  1
  B  B31  1  0.000000  0.000000  0.823713  1
  B  B32  1  0.666667  0.333333  0.174846  1
  B  B33  1  0.000000  0.000000  0.676287  1
  B  B34  1  0.000000  0.000000  0.323713  1
  B  B35  1  0.000000  0.000000  0.176287  1
