# generated using pymatgen
data_DyEr2Al12Os3Pt
_symmetry_space_group_name_H-M   'P 1'
_cell_length_a   8.79455100
_cell_length_b   8.83717553
_cell_length_c   9.55888687
_cell_angle_alpha   89.82111752
_cell_angle_beta   90.00000000
_cell_angle_gamma   119.84057744
_symmetry_Int_Tables_number   1
_chemical_formula_structural   DyEr2Al12Os3Pt
_chemical_formula_sum   'Dy2 Er4 Al24 Os6 Pt2'
_cell_volume   644.40325501
_cell_formula_units_Z   2
loop_
 _symmetry_equiv_pos_site_id
 _symmetry_equiv_pos_as_xyz
  1  'x, y, z'
loop_
 _atom_site_type_symbol
 _atom_site_label
 _atom_site_symmetry_multiplicity
 _atom_site_fract_x
 _atom_site_fract_y
 _atom_site_fract_z
 _atom_site_occupancy
  Dy  Dy0  1  0.192536  0.385073  0.252982  1
  Dy  Dy1  1  0.807464  0.614927  0.747018  1
  Er  Er2  1  0.612253  0.809303  0.253212  1
  Er  Er3  1  0.387747  0.190697  0.746788  1
  Er  Er4  1  0.197049  0.809303  0.253212  1
  Er  Er5  1  0.802951  0.190697  0.746788  1
  Al  Al6  1  0.335769  0.671538  0.027243  1
  Al  Al7  1  0.664231  0.328462  0.972757  1
  Al  Al8  1  0.666572  0.333142  0.522818  1
  Al  Al9  1  0.333428  0.666858  0.477182  1
  Al  Al10  1  0.163434  0.326868  0.575888  1
  Al  Al11  1  0.836566  0.673132  0.424112  1
  Al  Al12  1  0.672151  0.835592  0.576186  1
  Al  Al13  1  0.838314  0.676628  0.079553  1
  Al  Al14  1  0.327849  0.164408  0.423814  1
  Al  Al15  1  0.161686  0.323372  0.920447  1
  Al  Al16  1  0.163441  0.835592  0.576186  1
  Al  Al17  1  0.325841  0.158400  0.077961  1
  Al  Al18  1  0.836559  0.164408  0.423814  1
  Al  Al19  1  0.674159  0.841600  0.922039  1
  Al  Al20  1  0.832559  0.158400  0.077961  1
  Al  Al21  1  0.167441  0.841600  0.922039  1
  Al  Al22  1  0.561732  0.123464  0.248866  1
  Al  Al23  1  0.438268  0.876536  0.751134  1
  Al  Al24  1  0.875171  0.438228  0.251772  1
  Al  Al25  1  0.124829  0.561772  0.748228  1
  Al  Al26  1  0.563057  0.438228  0.251772  1
  Al  Al27  1  0.436943  0.561772  0.748228  1
  Al  Al28  1  0.000825  0.001651  0.250290  1
  Al  Al29  1  0.999175  0.998349  0.749710  1
  Os  Os30  1  0.500000  0.000000  0.000000  1
  Os  Os31  1  0.500000  0.000000  0.500000  1
  Os  Os32  1  0.000000  0.500000  0.500000  1
  Os  Os33  1  0.500000  0.500000  0.500000  1
  Os  Os34  1  0.000000  0.000000  0.000000  1
  Os  Os35  1  0.000000  0.000000  0.500000  1
  Pt  Pt36  1  0.000000  0.500000  0.000000  1
  Pt  Pt37  1  0.500000  0.500000  0.000000  1
