# generated using pymatgen
data_LiCaNd3(FeO4)3
_symmetry_space_group_name_H-M   'P 1'
_cell_length_a   5.41038645
_cell_length_b   5.61184052
_cell_length_c   7.74986929
_cell_angle_alpha   89.32900457
_cell_angle_beta   90.10984275
_cell_angle_gamma   90.38192741
_symmetry_Int_Tables_number   1
_chemical_formula_structural   LiCaNd3(FeO4)3
_chemical_formula_sum   'Li1 Ca1 Nd3 Fe3 O12'
_cell_volume   235.28152097
_cell_formula_units_Z   1
loop_
 _symmetry_equiv_pos_site_id
 _symmetry_equiv_pos_as_xyz
  1  'x, y, z'
loop_
 _atom_site_type_symbol
 _atom_site_label
 _atom_site_symmetry_multiplicity
 _atom_site_fract_x
 _atom_site_fract_y
 _atom_site_fract_z
 _atom_site_occupancy
  Li  Li0  1  0.999048  0.505395  0.505333  1
  Ca  Ca1  1  0.016763  0.938723  0.738014  1
  Nd  Nd2  1  0.509232  0.552889  0.258485  1
  Nd  Nd3  1  0.488677  0.447304  0.740764  1
  Nd  Nd4  1  0.982664  0.061401  0.261198  1
  Fe  Fe5  1  0.499686  0.998054  0.503990  1
  Fe  Fe6  1  0.498127  0.998779  0.996547  1
  Fe  Fe7  1  0.999791  0.502957  0.997145  1
  O  O8  1  0.695631  0.277423  0.460675  1
  O  O9  1  0.225212  0.192217  0.537767  1
  O  O10  1  0.777421  0.798328  0.055754  1
  O  O11  1  0.291469  0.694854  0.955684  1
  O  O12  1  0.308050  0.717959  0.534773  1
  O  O13  1  0.773176  0.803824  0.458938  1
  O  O14  1  0.219530  0.198700  0.947928  1
  O  O15  1  0.715491  0.299486  0.048248  1
  O  O16  1  0.075761  0.484179  0.234580  1
  O  O17  1  0.592031  0.019549  0.760165  1
  O  O18  1  0.412230  0.985260  0.238249  1
  O  O19  1  0.920010  0.522718  0.765763  1
