# generated using pymatgen
data_YbEr2P4Rh7
_symmetry_space_group_name_H-M   'P 1'
_cell_length_a   7.72788283
_cell_length_b   7.72788276
_cell_length_c   9.16104600
_cell_angle_alpha   56.77800895
_cell_angle_beta   56.77800928
_cell_angle_gamma   29.43976802
_symmetry_Int_Tables_number   1
_chemical_formula_structural   YbEr2P4Rh7
_chemical_formula_sum   'Yb1 Er2 P4 Rh7'
_cell_volume   221.59774374
_cell_formula_units_Z   1
loop_
 _symmetry_equiv_pos_site_id
 _symmetry_equiv_pos_as_xyz
  1  'x, y, z'
loop_
 _atom_site_type_symbol
 _atom_site_label
 _atom_site_symmetry_multiplicity
 _atom_site_fract_x
 _atom_site_fract_y
 _atom_site_fract_z
 _atom_site_occupancy
  Yb  Yb0  1  0.500000  0.500000  0.500000  1
  Er  Er1  1  0.829805  0.829805  0.167714  1
  Er  Er2  1  0.170195  0.170195  0.832286  1
  P  P3  1  0.391934  0.391934  0.326244  1
  P  P4  1  0.608066  0.608066  0.673756  1
  P  P5  1  0.832721  0.832721  0.774716  1
  P  P6  1  0.167279  0.167279  0.225284  1
  Rh  Rh7  1  0.668125  0.668125  0.078943  1
  Rh  Rh8  1  0.005746  0.005746  0.229044  1
  Rh  Rh9  1  0.994254  0.994254  0.770956  1
  Rh  Rh10  1  0.500000  0.500000  0.000000  1
  Rh  Rh11  1  0.200512  0.200512  0.450126  1
  Rh  Rh12  1  0.799488  0.799488  0.549874  1
  Rh  Rh13  1  0.331875  0.331875  0.921057  1
