# generated using pymatgen
data_Y2Ho3Lu11(In3Co)2
_symmetry_space_group_name_H-M   'P 1'
_cell_length_a   10.18944300
_cell_length_b   10.18944419
_cell_length_c   6.95605000
_cell_angle_alpha   90.00000000
_cell_angle_beta   90.00000000
_cell_angle_gamma   120.00000587
_symmetry_Int_Tables_number   1
_chemical_formula_structural   Y2Ho3Lu11(In3Co)2
_chemical_formula_sum   'Y2 Ho3 Lu11 In6 Co2'
_cell_volume   625.45236684
_cell_formula_units_Z   1
loop_
 _symmetry_equiv_pos_site_id
 _symmetry_equiv_pos_as_xyz
  1  'x, y, z'
loop_
 _atom_site_type_symbol
 _atom_site_label
 _atom_site_symmetry_multiplicity
 _atom_site_fract_x
 _atom_site_fract_y
 _atom_site_fract_z
 _atom_site_occupancy
  Y  Y0  1  0.000000  0.000000  0.495695  1
  Y  Y1  1  0.000000  0.000000  0.995132  1
  Ho  Ho2  1  0.465301  0.534699  0.481991  1
  Ho  Ho3  1  0.069400  0.534699  0.481991  1
  Ho  Ho4  1  0.465301  0.930600  0.481991  1
  Lu  Lu5  1  0.535515  0.464485  0.981979  1
  Lu  Lu6  1  0.928969  0.464485  0.981979  1
  Lu  Lu7  1  0.535515  0.071031  0.981979  1
  Lu  Lu8  1  0.820148  0.179852  0.276106  1
  Lu  Lu9  1  0.359704  0.179852  0.276106  1
  Lu  Lu10  1  0.820148  0.640296  0.276106  1
  Lu  Lu11  1  0.179667  0.820333  0.777861  1
  Lu  Lu12  1  0.640665  0.820333  0.777861  1
  Lu  Lu13  1  0.179667  0.359335  0.777861  1
  Lu  Lu14  1  0.333333  0.666667  0.089696  1
  Lu  Lu15  1  0.666667  0.333333  0.590866  1
  In  In16  1  0.163094  0.836906  0.233732  1
  In  In17  1  0.673811  0.836906  0.233732  1
  In  In18  1  0.163094  0.326189  0.233732  1
  In  In19  1  0.836585  0.163415  0.734577  1
  In  In20  1  0.326832  0.163415  0.734577  1
  In  In21  1  0.836585  0.673168  0.734577  1
  Co  Co22  1  0.333333  0.666667  0.707680  1
  Co  Co23  1  0.666667  0.333333  0.206744  1
