# generated using pymatgen
data_Tb2Co7Ni2P6Ru
_symmetry_space_group_name_H-M   'P 1'
_cell_length_a   3.69024100
_cell_length_b   10.35448800
_cell_length_c   11.80162900
_cell_angle_alpha   90.00000000
_cell_angle_beta   90.00000000
_cell_angle_gamma   90.00000000
_symmetry_Int_Tables_number   1
_chemical_formula_structural   Tb2Co7Ni2P6Ru
_chemical_formula_sum   'Tb4 Co14 Ni4 P12 Ru2'
_cell_volume   450.94680758
_cell_formula_units_Z   2
loop_
 _symmetry_equiv_pos_site_id
 _symmetry_equiv_pos_as_xyz
  1  'x, y, z'
loop_
 _atom_site_type_symbol
 _atom_site_label
 _atom_site_symmetry_multiplicity
 _atom_site_fract_x
 _atom_site_fract_y
 _atom_site_fract_z
 _atom_site_occupancy
  Tb  Tb0  1  0.250000  0.582158  0.701962  1
  Tb  Tb1  1  0.250000  0.917842  0.201962  1
  Tb  Tb2  1  0.750000  0.414461  0.294393  1
  Tb  Tb3  1  0.750000  0.085539  0.794393  1
  Co  Co4  1  0.750000  0.591217  0.510218  1
  Co  Co5  1  0.750000  0.908783  0.010218  1
  Co  Co6  1  0.250000  0.218104  0.175553  1
  Co  Co7  1  0.250000  0.281896  0.675553  1
  Co  Co8  1  0.750000  0.778302  0.823434  1
  Co  Co9  1  0.750000  0.721698  0.323434  1
  Co  Co10  1  0.250000  0.886486  0.701888  1
  Co  Co11  1  0.250000  0.613514  0.201888  1
  Co  Co12  1  0.750000  0.117544  0.302766  1
  Co  Co13  1  0.750000  0.382456  0.802766  1
  Co  Co14  1  0.250000  0.465143  0.932473  1
  Co  Co15  1  0.250000  0.034857  0.432473  1
  Co  Co16  1  0.750000  0.533629  0.069250  1
  Co  Co17  1  0.750000  0.966371  0.569250  1
  Ni  Ni18  1  0.750000  0.286791  0.012711  1
  Ni  Ni19  1  0.750000  0.213209  0.512711  1
  Ni  Ni20  1  0.250000  0.407126  0.484309  1
  Ni  Ni21  1  0.250000  0.092874  0.984309  1
  P  P22  1  0.250000  0.416419  0.111610  1
  P  P23  1  0.250000  0.083581  0.611610  1
  P  P24  1  0.750000  0.578896  0.887928  1
  P  P25  1  0.750000  0.921104  0.387928  1
  P  P26  1  0.250000  0.273459  0.865498  1
  P  P27  1  0.250000  0.226541  0.365498  1
  P  P28  1  0.750000  0.728409  0.132968  1
  P  P29  1  0.750000  0.771591  0.632968  1
  P  P30  1  0.250000  0.598694  0.389966  1
  P  P31  1  0.250000  0.901306  0.889966  1
  P  P32  1  0.750000  0.396301  0.610379  1
  P  P33  1  0.750000  0.103699  0.110379  1
  Ru  Ru34  1  0.250000  0.713708  0.992695  1
  Ru  Ru35  1  0.250000  0.786292  0.492695  1
