# generated using pymatgen
data_ScAl4(GaFe3)2
_symmetry_space_group_name_H-M   'P 1'
_cell_length_a   6.46314289
_cell_length_b   6.45410122
_cell_length_c   6.45410059
_cell_angle_alpha   134.64975429
_cell_angle_beta   99.52796121
_cell_angle_gamma   97.54381153
_symmetry_Int_Tables_number   1
_chemical_formula_structural   ScAl4(GaFe3)2
_chemical_formula_sum   'Sc1 Al4 Ga2 Fe6'
_cell_volume   176.73403076
_cell_formula_units_Z   1
loop_
 _symmetry_equiv_pos_site_id
 _symmetry_equiv_pos_as_xyz
  1  'x, y, z'
loop_
 _atom_site_type_symbol
 _atom_site_label
 _atom_site_symmetry_multiplicity
 _atom_site_fract_x
 _atom_site_fract_y
 _atom_site_fract_z
 _atom_site_occupancy
  Sc  Sc0  1  0.002147  0.999896  0.002251  1
  Al  Al1  1  0.339398  0.001455  0.337942  1
  Al  Al2  1  0.339702  0.341457  0.998245  1
  Al  Al3  1  0.658246  0.660116  0.998131  1
  Al  Al4  1  0.806908  0.307891  0.499017  1
  Ga  Ga5  1  0.183957  0.684932  0.499025  1
  Ga  Ga6  1  0.672027  0.002027  0.670000  1
  Fe  Fe7  1  0.757042  0.499088  0.257954  1
  Fe  Fe8  1  0.001294  0.000569  0.498051  1
  Fe  Fe9  1  0.001294  0.503243  0.000725  1
  Fe  Fe10  1  0.499396  0.000390  0.999549  1
  Fe  Fe11  1  0.499396  0.499848  0.499006  1
  Fe  Fe12  1  0.239192  0.499088  0.740104  1
