# generated using pymatgen
data_Er3Ga5Ru
_symmetry_space_group_name_H-M   'P 1'
_cell_length_a   6.87740200
_cell_length_b   6.87740214
_cell_length_c   4.30139100
_cell_angle_alpha   90.00000000
_cell_angle_beta   90.00000000
_cell_angle_gamma   119.99999935
_symmetry_Int_Tables_number   1
_chemical_formula_structural   Er3Ga5Ru
_chemical_formula_sum   'Er3 Ga5 Ru1'
_cell_volume   176.19289293
_cell_formula_units_Z   1
loop_
 _symmetry_equiv_pos_site_id
 _symmetry_equiv_pos_as_xyz
  1  'x, y, z'
loop_
 _atom_site_type_symbol
 _atom_site_label
 _atom_site_symmetry_multiplicity
 _atom_site_fract_x
 _atom_site_fract_y
 _atom_site_fract_z
 _atom_site_occupancy
  Er  Er0  1  0.588497  0.000000  0.000000  1
  Er  Er1  1  0.411504  0.411504  0.000000  1
  Er  Er2  1  0.000000  0.588496  0.000000  1
  Ga  Ga3  1  0.235407  0.000000  0.499999  1
  Ga  Ga4  1  0.000000  0.235407  0.499999  1
  Ga  Ga5  1  0.666667  0.333333  0.499999  1
  Ga  Ga6  1  0.333333  0.666667  0.499999  1
  Ga  Ga7  1  0.764593  0.764593  0.499999  1
  Ru  Ru8  1  0.000000  0.000000  0.000000  1
