# generated using pymatgen
data_Ac2U(GaIr)3
_symmetry_space_group_name_H-M   'P 1'
_cell_length_a   7.60110267
_cell_length_b   7.44226402
_cell_length_c   4.01161300
_cell_angle_alpha   90.00000000
_cell_angle_beta   90.00000000
_cell_angle_gamma   119.31112398
_symmetry_Int_Tables_number   1
_chemical_formula_structural   Ac2U(GaIr)3
_chemical_formula_sum   'Ac2 U1 Ga3 Ir3'
_cell_volume   197.88111910
_cell_formula_units_Z   1
loop_
 _symmetry_equiv_pos_site_id
 _symmetry_equiv_pos_as_xyz
  1  'x, y, z'
loop_
 _atom_site_type_symbol
 _atom_site_label
 _atom_site_symmetry_multiplicity
 _atom_site_fract_x
 _atom_site_fract_y
 _atom_site_fract_z
 _atom_site_occupancy
  Ac  Ac0  1  0.417365  0.418012  0.500000  1
  Ac  Ac1  1  0.582635  0.000648  0.500000  1
  U  U2  1  0.000000  0.583557  0.500000  1
  Ga  Ga3  1  0.782912  0.763815  0.000000  1
  Ga  Ga4  1  0.217088  0.980903  0.000000  1
  Ga  Ga5  1  0.000000  0.234230  0.000000  1
  Ir  Ir6  1  0.732911  0.384459  0.000000  1
  Ir  Ir7  1  0.267089  0.651549  0.000000  1
  Ir  Ir8  1  0.000000  0.982827  0.500000  1
