# generated using pymatgen
data_Lu10Tl6CuP
_symmetry_space_group_name_H-M   'P 1'
_cell_length_a   8.95928000
_cell_length_b   8.95927907
_cell_length_c   6.54687000
_cell_angle_alpha   90.00000000
_cell_angle_beta   90.00000000
_cell_angle_gamma   120.00000345
_symmetry_Int_Tables_number   1
_chemical_formula_structural   Lu10Tl6CuP
_chemical_formula_sum   'Lu10 Tl6 Cu1 P1'
_cell_volume   455.10384819
_cell_formula_units_Z   1
loop_
 _symmetry_equiv_pos_site_id
 _symmetry_equiv_pos_as_xyz
  1  'x, y, z'
loop_
 _atom_site_type_symbol
 _atom_site_label
 _atom_site_symmetry_multiplicity
 _atom_site_fract_x
 _atom_site_fract_y
 _atom_site_fract_z
 _atom_site_occupancy
  Lu  Lu0  1  0.247234  0.000000  0.737641  1
  Lu  Lu1  1  0.752766  0.000000  0.262359  1
  Lu  Lu2  1  0.000000  0.247234  0.737641  1
  Lu  Lu3  1  0.000000  0.752766  0.262359  1
  Lu  Lu4  1  0.752766  0.752766  0.737641  1
  Lu  Lu5  1  0.247234  0.247234  0.262359  1
  Lu  Lu6  1  0.333333  0.666667  0.500000  1
  Lu  Lu7  1  0.666667  0.333333  0.500000  1
  Lu  Lu8  1  0.666667  0.333333  0.000000  1
  Lu  Lu9  1  0.333333  0.666667  0.000000  1
  Tl  Tl10  1  0.601430  0.000000  0.749635  1
  Tl  Tl11  1  0.398570  0.000000  0.250365  1
  Tl  Tl12  1  0.000000  0.601430  0.749635  1
  Tl  Tl13  1  0.000000  0.398570  0.250365  1
  Tl  Tl14  1  0.398570  0.398570  0.749635  1
  Tl  Tl15  1  0.601430  0.601430  0.250365  1
  Cu  Cu16  1  0.000000  0.000000  0.000000  1
  P  P17  1  0.000000  0.000000  0.500000  1
