# generated using pymatgen
data_Zr6Ti4Sn6As
_symmetry_space_group_name_H-M   'P 1'
_cell_length_a   5.72342500
_cell_length_b   8.46374995
_cell_length_c   8.46381600
_cell_angle_alpha   119.99974232
_cell_angle_beta   90.00000324
_cell_angle_gamma   89.99999879
_symmetry_Int_Tables_number   1
_chemical_formula_structural   Zr6Ti4Sn6As
_chemical_formula_sum   'Zr6 Ti4 Sn6 As1'
_cell_volume   355.07229987
_cell_formula_units_Z   1
loop_
 _symmetry_equiv_pos_site_id
 _symmetry_equiv_pos_as_xyz
  1  'x, y, z'
loop_
 _atom_site_type_symbol
 _atom_site_label
 _atom_site_symmetry_multiplicity
 _atom_site_fract_x
 _atom_site_fract_y
 _atom_site_fract_z
 _atom_site_occupancy
  Zr  Zr0  1  0.765335  0.254429  0.000000  1
  Zr  Zr1  1  0.765327  0.745571  0.745573  1
  Zr  Zr2  1  0.765327  0.999998  0.254427  1
  Zr  Zr3  1  0.234667  0.745577  0.000000  1
  Zr  Zr4  1  0.234672  0.254431  0.254431  1
  Zr  Zr5  1  0.234672  0.000000  0.745569  1
  Ti  Ti6  1  0.500000  0.333334  0.666669  1
  Ti  Ti7  1  0.500000  0.666665  0.333331  1
  Ti  Ti8  1  0.000002  0.666664  0.333331  1
  Ti  Ti9  1  0.000002  0.333332  0.666669  1
  Sn  Sn10  1  0.745326  0.601673  0.000000  1
  Sn  Sn11  1  0.745326  0.398325  0.398327  1
  Sn  Sn12  1  0.745326  0.999999  0.601673  1
  Sn  Sn13  1  0.254674  0.398327  0.000000  1
  Sn  Sn14  1  0.254672  0.601675  0.601675  1
  Sn  Sn15  1  0.254672  0.000000  0.398325  1
  As  As16  1  0.499998  0.000002  0.000000  1
