# generated using pymatgen
data_V12Re6TcMo5
_symmetry_space_group_name_H-M   'P 1'
_cell_length_a   4.29777800
_cell_length_b   6.10256300
_cell_length_c   13.05953400
_cell_angle_alpha   90.00000000
_cell_angle_beta   90.00013264
_cell_angle_gamma   90.00000000
_symmetry_Int_Tables_number   1
_chemical_formula_structural   V12Re6TcMo5
_chemical_formula_sum   'V12 Re6 Tc1 Mo5'
_cell_volume   342.51841873
_cell_formula_units_Z   1
loop_
 _symmetry_equiv_pos_site_id
 _symmetry_equiv_pos_as_xyz
  1  'x, y, z'
loop_
 _atom_site_type_symbol
 _atom_site_label
 _atom_site_symmetry_multiplicity
 _atom_site_fract_x
 _atom_site_fract_y
 _atom_site_fract_z
 _atom_site_occupancy
  V  V0  1  0.500001  0.249576  0.000000  1
  V  V1  1  0.500001  0.750424  0.000000  1
  V  V2  1  0.000018  0.249415  0.165907  1
  V  V3  1  0.000018  0.750585  0.165907  1
  V  V4  1  0.500025  0.249879  0.332900  1
  V  V5  1  0.500025  0.750122  0.332900  1
  V  V6  1  0.000000  0.249910  0.500000  1
  V  V7  1  0.000000  0.750089  0.500000  1
  V  V8  1  0.499976  0.249879  0.667100  1
  V  V9  1  0.499976  0.750122  0.667100  1
  V  V10  1  0.999982  0.249415  0.834093  1
  V  V11  1  0.999982  0.750585  0.834093  1
  Re  Re12  1  0.000000  0.499999  0.000000  1
  Re  Re13  1  0.500017  0.000000  0.165877  1
  Re  Re14  1  0.000021  0.499999  0.333265  1
  Re  Re15  1  0.499999  0.000000  0.500000  1
  Re  Re16  1  0.999979  0.499999  0.666735  1
  Re  Re17  1  0.499984  0.000000  0.834124  1
  Tc  Tc18  1  0.000000  0.000000  0.000000  1
  Mo  Mo19  1  0.500015  0.499999  0.166218  1
  Mo  Mo20  1  0.000023  0.000000  0.332833  1
  Mo  Mo21  1  0.499999  0.499999  0.500000  1
  Mo  Mo22  1  0.999977  0.000000  0.667166  1
  Mo  Mo23  1  0.499985  0.499999  0.833782  1
