# generated using pymatgen
data_Ho4Er2SbO12
_symmetry_space_group_name_H-M   'P 1'
_cell_length_a   6.46331562
_cell_length_b   6.46497669
_cell_length_c   6.46308008
_cell_angle_alpha   98.90882384
_cell_angle_beta   98.90041546
_cell_angle_gamma   98.87358039
_symmetry_Int_Tables_number   1
_chemical_formula_structural   Ho4Er2SbO12
_chemical_formula_sum   'Ho4 Er2 Sb1 O12'
_cell_volume   259.15918419
_cell_formula_units_Z   1
loop_
 _symmetry_equiv_pos_site_id
 _symmetry_equiv_pos_as_xyz
  1  'x, y, z'
loop_
 _atom_site_type_symbol
 _atom_site_label
 _atom_site_symmetry_multiplicity
 _atom_site_fract_x
 _atom_site_fract_y
 _atom_site_fract_z
 _atom_site_occupancy
  Ho  Ho0  1  0.859790  0.391119  0.695373  1
  Ho  Ho1  1  0.304270  0.139803  0.609091  1
  Ho  Ho2  1  0.609130  0.304204  0.140349  1
  Ho  Ho3  1  0.139748  0.609318  0.304030  1
  Er  Er4  1  0.695226  0.859924  0.391050  1
  Er  Er5  1  0.391378  0.695871  0.860154  1
  Sb  Sb6  1  0.999535  0.999465  0.999641  1
  O  O7  1  0.435854  0.588049  0.177749  1
  O  O8  1  0.178828  0.436108  0.587633  1
  O  O9  1  0.587244  0.177255  0.435273  1
  O  O10  1  0.564250  0.414214  0.821849  1
  O  O11  1  0.821350  0.565654  0.413127  1
  O  O12  1  0.414266  0.821081  0.565376  1
  O  O13  1  0.927684  0.042555  0.694568  1
  O  O14  1  0.956717  0.304625  0.071543  1
  O  O15  1  0.304723  0.071296  0.956646  1
  O  O16  1  0.071069  0.956858  0.304896  1
  O  O17  1  0.044236  0.695144  0.928241  1
  O  O18  1  0.694702  0.927456  0.043411  1
