# generated using pymatgen
data_Tb12Si11Ni
_symmetry_space_group_name_H-M   'P 1'
_cell_length_a   3.88473000
_cell_length_b   5.75274022
_cell_length_c   23.91074016
_cell_angle_alpha   82.72446427
_cell_angle_beta   90.00000000
_cell_angle_gamma   90.00000000
_symmetry_Int_Tables_number   1
_chemical_formula_structural   Tb12Si11Ni
_chemical_formula_sum   'Tb12 Si11 Ni1'
_cell_volume   530.05116588
_cell_formula_units_Z   1
loop_
 _symmetry_equiv_pos_site_id
 _symmetry_equiv_pos_as_xyz
  1  'x, y, z'
loop_
 _atom_site_type_symbol
 _atom_site_label
 _atom_site_symmetry_multiplicity
 _atom_site_fract_x
 _atom_site_fract_y
 _atom_site_fract_z
 _atom_site_occupancy
  Tb  Tb0  1  0.750000  0.356104  0.066369  1
  Tb  Tb1  1  0.250000  0.659940  0.940979  1
  Tb  Tb2  1  0.750000  0.518517  0.220576  1
  Tb  Tb3  1  0.250000  0.470010  0.773792  1
  Tb  Tb4  1  0.750000  0.166891  0.392282  1
  Tb  Tb5  1  0.250000  0.829889  0.606629  1
  Tb  Tb6  1  0.750000  0.353432  0.559388  1
  Tb  Tb7  1  0.250000  0.643357  0.439055  1
  Tb  Tb8  1  0.750000  0.996664  0.726863  1
  Tb  Tb9  1  0.250000  0.994653  0.271742  1
  Tb  Tb10  1  0.750000  0.169066  0.893855  1
  Tb  Tb11  1  0.250000  0.837137  0.108299  1
  Si  Si12  1  0.750000  0.877332  0.013301  1
  Si  Si13  1  0.250000  0.147413  0.989601  1
  Si  Si14  1  0.750000  0.050503  0.178679  1
  Si  Si15  1  0.250000  0.955428  0.821495  1
  Si  Si16  1  0.750000  0.701034  0.344300  1
  Si  Si17  1  0.250000  0.292893  0.654153  1
  Si  Si18  1  0.750000  0.865228  0.511768  1
  Si  Si19  1  0.250000  0.133102  0.486884  1
  Si  Si20  1  0.750000  0.535582  0.679072  1
  Si  Si21  1  0.250000  0.462222  0.318448  1
  Si  Si22  1  0.750000  0.684350  0.846212  1
  Ni  Ni23  1  0.250000  0.299253  0.156256  1
