# generated using pymatgen
data_Hf18Re8NiRu
_symmetry_space_group_name_H-M   'P 1'
_cell_length_a   8.61414100
_cell_length_b   8.61414130
_cell_length_c   8.54074600
_cell_angle_alpha   90.00000000
_cell_angle_beta   90.00000000
_cell_angle_gamma   120.00000267
_symmetry_Int_Tables_number   1
_chemical_formula_structural   Hf18Re8NiRu
_chemical_formula_sum   'Hf18 Re8 Ni1 Ru1'
_cell_volume   548.84586168
_cell_formula_units_Z   1
loop_
 _symmetry_equiv_pos_site_id
 _symmetry_equiv_pos_as_xyz
  1  'x, y, z'
loop_
 _atom_site_type_symbol
 _atom_site_label
 _atom_site_symmetry_multiplicity
 _atom_site_fract_x
 _atom_site_fract_y
 _atom_site_fract_z
 _atom_site_occupancy
  Hf  Hf0  1  0.197134  0.802866  0.446095  1
  Hf  Hf1  1  0.197134  0.394266  0.446095  1
  Hf  Hf2  1  0.605734  0.802866  0.446095  1
  Hf  Hf3  1  0.802334  0.197666  0.557160  1
  Hf  Hf4  1  0.802334  0.604668  0.557160  1
  Hf  Hf5  1  0.395332  0.197666  0.557160  1
  Hf  Hf6  1  0.802334  0.197666  0.942840  1
  Hf  Hf7  1  0.802334  0.604668  0.942840  1
  Hf  Hf8  1  0.395332  0.197666  0.942840  1
  Hf  Hf9  1  0.197134  0.802866  0.053905  1
  Hf  Hf10  1  0.197134  0.394266  0.053905  1
  Hf  Hf11  1  0.605734  0.802866  0.053905  1
  Hf  Hf12  1  0.542256  0.457744  0.250000  1
  Hf  Hf13  1  0.542256  0.084513  0.250000  1
  Hf  Hf14  1  0.915487  0.457744  0.250000  1
  Hf  Hf15  1  0.458960  0.541040  0.750000  1
  Hf  Hf16  1  0.458960  0.917919  0.750000  1
  Hf  Hf17  1  0.082081  0.541040  0.750000  1
  Re  Re18  1  0.889488  0.110512  0.250000  1
  Re  Re19  1  0.889488  0.778974  0.250000  1
  Re  Re20  1  0.221026  0.110512  0.250000  1
  Re  Re21  1  0.110308  0.889692  0.750000  1
  Re  Re22  1  0.110308  0.220618  0.750000  1
  Re  Re23  1  0.779382  0.889692  0.750000  1
  Re  Re24  1  0.000000  0.000000  0.499847  1
  Re  Re25  1  0.000000  0.000000  0.000153  1
  Ni  Ni26  1  0.666667  0.333333  0.750000  1
  Ru  Ru27  1  0.333333  0.666667  0.250000  1
