# generated using pymatgen
data_Tb12InNi4Pd
_symmetry_space_group_name_H-M   'P 1'
_cell_length_a   8.39196656
_cell_length_b   8.39157438
_cell_length_c   8.39196840
_cell_angle_alpha   106.89671599
_cell_angle_beta   109.75571143
_cell_angle_gamma   111.80032862
_symmetry_Int_Tables_number   1
_chemical_formula_structural   Tb12InNi4Pd
_chemical_formula_sum   'Tb12 In1 Ni4 Pd1'
_cell_volume   454.08705956
_cell_formula_units_Z   1
loop_
 _symmetry_equiv_pos_site_id
 _symmetry_equiv_pos_as_xyz
  1  'x, y, z'
loop_
 _atom_site_type_symbol
 _atom_site_label
 _atom_site_symmetry_multiplicity
 _atom_site_fract_x
 _atom_site_fract_y
 _atom_site_fract_z
 _atom_site_occupancy
  Tb  Tb0  1  0.692887  0.282848  0.975726  1
  Tb  Tb1  1  0.307113  0.717152  0.024274  1
  Tb  Tb2  1  0.692878  0.717152  0.410039  1
  Tb  Tb3  1  0.307122  0.282848  0.589961  1
  Tb  Tb4  1  0.807591  0.130020  0.322429  1
  Tb  Tb5  1  0.807588  0.485180  0.677590  1
  Tb  Tb6  1  0.192409  0.869980  0.677571  1
  Tb  Tb7  1  0.192412  0.514820  0.322410  1
  Tb  Tb8  1  0.613354  0.795413  0.817938  1
  Tb  Tb9  1  0.977477  0.795413  0.182059  1
  Tb  Tb10  1  0.022523  0.204587  0.817941  1
  Tb  Tb11  1  0.386646  0.204587  0.182062  1
  In  In12  1  0.500000  0.000000  0.500000  1
  Ni  Ni13  1  0.862393  0.500000  0.362393  1
  Ni  Ni14  1  0.137607  0.500000  0.637607  1
  Ni  Ni15  1  0.999980  0.123886  0.123906  1
  Ni  Ni16  1  0.000020  0.876114  0.876094  1
  Pd  Pd17  1  0.500000  0.500000  0.000000  1
