# generated using pymatgen
data_Dy2Sc2CrB12Os
_symmetry_space_group_name_H-M   'P 1'
_cell_length_a   3.51781500
_cell_length_b   9.00034420
_cell_length_c   11.38512601
_cell_angle_alpha   90.01001405
_cell_angle_beta   90.00000000
_cell_angle_gamma   90.00000000
_symmetry_Int_Tables_number   1
_chemical_formula_structural   Dy2Sc2CrB12Os
_chemical_formula_sum   'Dy4 Sc4 Cr2 B24 Os2'
_cell_volume   360.47068320
_cell_formula_units_Z   2
loop_
 _symmetry_equiv_pos_site_id
 _symmetry_equiv_pos_as_xyz
  1  'x, y, z'
loop_
 _atom_site_type_symbol
 _atom_site_label
 _atom_site_symmetry_multiplicity
 _atom_site_fract_x
 _atom_site_fract_y
 _atom_site_fract_z
 _atom_site_occupancy
  Dy  Dy0  1  0.000000  0.819412  0.086628  1
  Dy  Dy1  1  0.000000  0.180588  0.913372  1
  Dy  Dy2  1  0.000000  0.322318  0.414625  1
  Dy  Dy3  1  0.000000  0.677682  0.585375  1
  Sc  Sc4  1  0.000000  0.445864  0.129282  1
  Sc  Sc5  1  0.000000  0.554136  0.870718  1
  Sc  Sc6  1  0.000000  0.942302  0.372207  1
  Sc  Sc7  1  0.000000  0.057698  0.627793  1
  Cr  Cr8  1  0.000000  0.640824  0.317850  1
  Cr  Cr9  1  0.000000  0.359176  0.682150  1
  B  B10  1  0.500000  0.054490  0.067463  1
  B  B11  1  0.500000  0.945510  0.932537  1
  B  B12  1  0.500000  0.554457  0.432217  1
  B  B13  1  0.500000  0.445543  0.567783  1
  B  B14  1  0.500000  0.253751  0.081821  1
  B  B15  1  0.500000  0.746249  0.918179  1
  B  B16  1  0.500000  0.752088  0.418147  1
  B  B17  1  0.500000  0.247912  0.581853  1
  B  B18  1  0.500000  0.294542  0.235201  1
  B  B19  1  0.500000  0.705458  0.764799  1
  B  B20  1  0.500000  0.793761  0.265658  1
  B  B21  1  0.500000  0.206239  0.734342  1
  B  B22  1  0.500000  0.128883  0.316765  1
  B  B23  1  0.500000  0.871117  0.683235  1
  B  B24  1  0.500000  0.628996  0.184042  1
  B  B25  1  0.500000  0.371004  0.815958  1
  B  B26  1  0.500000  0.482085  0.286399  1
  B  B27  1  0.500000  0.517915  0.713601  1
  B  B28  1  0.500000  0.980942  0.214344  1
  B  B29  1  0.500000  0.019058  0.785656  1
  B  B30  1  0.500000  0.097503  0.473287  1
  B  B31  1  0.500000  0.902497  0.526713  1
  B  B32  1  0.500000  0.597421  0.026542  1
  B  B33  1  0.500000  0.402579  0.973458  1
  Os  Os34  1  0.000000  0.140287  0.181057  1
  Os  Os35  1  0.000000  0.859713  0.818943  1
