# generated using pymatgen
data_Nd2Fe3Co6Mo3P7
_symmetry_space_group_name_H-M   'P 1'
_cell_length_a   9.16247400
_cell_length_b   9.16247515
_cell_length_c   3.75002000
_cell_angle_alpha   90.00000000
_cell_angle_beta   90.00000000
_cell_angle_gamma   120.00000306
_symmetry_Int_Tables_number   1
_chemical_formula_structural   Nd2Fe3Co6Mo3P7
_chemical_formula_sum   'Nd2 Fe3 Co6 Mo3 P7'
_cell_volume   272.64012204
_cell_formula_units_Z   1
loop_
 _symmetry_equiv_pos_site_id
 _symmetry_equiv_pos_as_xyz
  1  'x, y, z'
loop_
 _atom_site_type_symbol
 _atom_site_label
 _atom_site_symmetry_multiplicity
 _atom_site_fract_x
 _atom_site_fract_y
 _atom_site_fract_z
 _atom_site_occupancy
  Nd  Nd0  1  0.666667  0.333333  0.000000  1
  Nd  Nd1  1  0.333333  0.666667  0.500000  1
  Fe  Fe2  1  0.276201  0.120313  0.000000  1
  Fe  Fe3  1  0.844113  0.723799  0.000000  1
  Fe  Fe4  1  0.879687  0.155887  0.000000  1
  Co  Co5  1  0.059290  0.629083  0.000000  1
  Co  Co6  1  0.569793  0.940710  0.000000  1
  Co  Co7  1  0.370917  0.430207  0.000000  1
  Co  Co8  1  0.437503  0.051669  0.500000  1
  Co  Co9  1  0.614166  0.562497  0.500000  1
  Co  Co10  1  0.948331  0.385834  0.500000  1
  Mo  Mo11  1  0.101352  0.882851  0.500000  1
  Mo  Mo12  1  0.781499  0.898648  0.500000  1
  Mo  Mo13  1  0.117149  0.218501  0.500000  1
  P  P14  1  0.303252  0.894400  0.000000  1
  P  P15  1  0.591148  0.696748  0.000000  1
  P  P16  1  0.105600  0.408852  0.000000  1
  P  P17  1  0.403412  0.289019  0.500000  1
  P  P18  1  0.885605  0.596588  0.500000  1
  P  P19  1  0.710981  0.114395  0.500000  1
  P  P20  1  0.000000  0.000000  0.000000  1
