# generated using pymatgen
data_Ho5Tm7Ir4
_symmetry_space_group_name_H-M   'P 1'
_cell_length_a   6.31777344
_cell_length_b   7.21620100
_cell_length_c   9.10794443
_cell_angle_alpha   89.97072300
_cell_angle_beta   90.05702312
_cell_angle_gamma   90.05266207
_symmetry_Int_Tables_number   1
_chemical_formula_structural   Ho5Tm7Ir4
_chemical_formula_sum   'Ho5 Tm7 Ir4'
_cell_volume   415.23369369
_cell_formula_units_Z   1
loop_
 _symmetry_equiv_pos_site_id
 _symmetry_equiv_pos_as_xyz
  1  'x, y, z'
loop_
 _atom_site_type_symbol
 _atom_site_label
 _atom_site_symmetry_multiplicity
 _atom_site_fract_x
 _atom_site_fract_y
 _atom_site_fract_z
 _atom_site_occupancy
  Ho  Ho0  1  0.328145  0.677459  0.062114  1
  Ho  Ho1  1  0.869475  0.533512  0.250289  1
  Ho  Ho2  1  0.630676  0.034008  0.250109  1
  Ho  Ho3  1  0.130179  0.465990  0.749642  1
  Ho  Ho4  1  0.369860  0.966245  0.749717  1
  Tm  Tm5  1  0.171710  0.177341  0.437618  1
  Tm  Tm6  1  0.671594  0.322731  0.562351  1
  Tm  Tm7  1  0.828449  0.823058  0.937113  1
  Tm  Tm8  1  0.671979  0.322594  0.937242  1
  Tm  Tm9  1  0.828480  0.822810  0.562361  1
  Tm  Tm10  1  0.328521  0.677156  0.438018  1
  Tm  Tm11  1  0.171537  0.177218  0.062616  1
  Ir  Ir12  1  0.046232  0.883392  0.250738  1
  Ir  Ir13  1  0.452709  0.382257  0.250665  1
  Ir  Ir14  1  0.952942  0.117127  0.750089  1
  Ir  Ir15  1  0.547514  0.617102  0.749318  1
