# generated using pymatgen
data_Er3AgSn3IrRh
_symmetry_space_group_name_H-M   'P 1'
_cell_length_a   7.72060500
_cell_length_b   7.72060470
_cell_length_c   3.78252500
_cell_angle_alpha   90.00000000
_cell_angle_beta   90.00000000
_cell_angle_gamma   119.99999702
_symmetry_Int_Tables_number   1
_chemical_formula_structural   Er3AgSn3IrRh
_chemical_formula_sum   'Er3 Ag1 Sn3 Ir1 Rh1'
_cell_volume   195.26081704
_cell_formula_units_Z   1
loop_
 _symmetry_equiv_pos_site_id
 _symmetry_equiv_pos_as_xyz
  1  'x, y, z'
loop_
 _atom_site_type_symbol
 _atom_site_label
 _atom_site_symmetry_multiplicity
 _atom_site_fract_x
 _atom_site_fract_y
 _atom_site_fract_z
 _atom_site_occupancy
  Er  Er0  1  0.385937  0.410532  0.500000  1
  Er  Er1  1  0.589468  0.975405  0.500000  1
  Er  Er2  1  0.024595  0.614063  0.500000  1
  Ag  Ag3  1  0.666667  0.333333  0.000000  1
  Sn  Sn4  1  0.742593  0.737290  0.000000  1
  Sn  Sn5  1  0.262710  0.005302  0.000000  1
  Sn  Sn6  1  0.994698  0.257407  0.000000  1
  Ir  Ir7  1  0.333333  0.666667  0.000000  1
  Rh  Rh8  1  0.000000  0.000000  0.500000  1
