# generated using pymatgen
data_Zr10Co2SnBi5
_symmetry_space_group_name_H-M   'P 1'
_cell_length_a   8.82671283
_cell_length_b   8.80582247
_cell_length_c   5.89475300
_cell_angle_alpha   90.00000000
_cell_angle_beta   90.00000000
_cell_angle_gamma   119.92174288
_symmetry_Int_Tables_number   1
_chemical_formula_structural   Zr10Co2SnBi5
_chemical_formula_sum   'Zr10 Co2 Sn1 Bi5'
_cell_volume   397.10659404
_cell_formula_units_Z   1
loop_
 _symmetry_equiv_pos_site_id
 _symmetry_equiv_pos_as_xyz
  1  'x, y, z'
loop_
 _atom_site_type_symbol
 _atom_site_label
 _atom_site_symmetry_multiplicity
 _atom_site_fract_x
 _atom_site_fract_y
 _atom_site_fract_z
 _atom_site_occupancy
  Zr  Zr0  1  0.669671  0.333581  0.001609  1
  Zr  Zr1  1  0.330329  0.663909  0.001609  1
  Zr  Zr2  1  0.330329  0.663909  0.498391  1
  Zr  Zr3  1  0.669671  0.333581  0.498391  1
  Zr  Zr4  1  0.756870  0.755970  0.750000  1
  Zr  Zr5  1  0.243130  0.999098  0.750000  1
  Zr  Zr6  1  0.000000  0.243752  0.750000  1
  Zr  Zr7  1  0.240422  0.247126  0.250000  1
  Zr  Zr8  1  0.759578  0.006704  0.250000  1
  Zr  Zr9  1  0.000000  0.752960  0.250000  1
  Co  Co10  1  0.000000  0.999578  0.000850  1
  Co  Co11  1  0.000000  0.999578  0.499150  1
  Sn  Sn12  1  0.000000  0.394764  0.250000  1
  Bi  Bi13  1  0.394422  0.393202  0.750000  1
  Bi  Bi14  1  0.605578  0.998780  0.750000  1
  Bi  Bi15  1  0.000000  0.604279  0.750000  1
  Bi  Bi16  1  0.607597  0.608414  0.250000  1
  Bi  Bi17  1  0.392403  0.000817  0.250000  1
