# generated using pymatgen
data_Hf6Ti6Sn9Au
_symmetry_space_group_name_H-M   'P 1'
_cell_length_a   9.48964100
_cell_length_b   9.48964246
_cell_length_c   5.80381300
_cell_angle_alpha   90.00000000
_cell_angle_beta   90.00000000
_cell_angle_gamma   120.00000536
_symmetry_Int_Tables_number   1
_chemical_formula_structural   Hf6Ti6Sn9Au
_chemical_formula_sum   'Hf6 Ti6 Sn9 Au1'
_cell_volume   452.63033023
_cell_formula_units_Z   1
loop_
 _symmetry_equiv_pos_site_id
 _symmetry_equiv_pos_as_xyz
  1  'x, y, z'
loop_
 _atom_site_type_symbol
 _atom_site_label
 _atom_site_symmetry_multiplicity
 _atom_site_fract_x
 _atom_site_fract_y
 _atom_site_fract_z
 _atom_site_occupancy
  Hf  Hf0  1  0.846509  0.693017  0.748914  1
  Hf  Hf1  1  0.153491  0.846509  0.251086  1
  Hf  Hf2  1  0.693017  0.846509  0.251086  1
  Hf  Hf3  1  0.306983  0.153491  0.748914  1
  Hf  Hf4  1  0.846509  0.153491  0.748914  1
  Hf  Hf5  1  0.153491  0.306983  0.251086  1
  Ti  Ti6  1  0.500000  0.000000  0.500000  1
  Ti  Ti7  1  0.500000  0.500000  0.000000  1
  Ti  Ti8  1  0.000000  0.500000  0.000000  1
  Ti  Ti9  1  0.000000  0.500000  0.500000  1
  Ti  Ti10  1  0.500000  0.000000  0.000000  1
  Ti  Ti11  1  0.500000  0.500000  0.500000  1
  Sn  Sn12  1  0.207792  0.415584  0.750827  1
  Sn  Sn13  1  0.792208  0.207792  0.249173  1
  Sn  Sn14  1  0.415584  0.207792  0.249173  1
  Sn  Sn15  1  0.584416  0.792208  0.750827  1
  Sn  Sn16  1  0.207792  0.792208  0.750827  1
  Sn  Sn17  1  0.792208  0.584416  0.249173  1
  Sn  Sn18  1  0.666667  0.333333  0.751724  1
  Sn  Sn19  1  0.333333  0.666667  0.248276  1
  Sn  Sn20  1  0.000000  0.000000  0.000000  1
  Au  Au21  1  0.000000  0.000000  0.500000  1
