# generated using pymatgen
data_Dy3Tm4Lu3(In2Pt)4
_symmetry_space_group_name_H-M   'P 1'
_cell_length_a   3.59484000
_cell_length_b   8.10645629
_cell_length_c   18.08899725
_cell_angle_alpha   89.87164770
_cell_angle_beta   90.00000000
_cell_angle_gamma   90.00000000
_symmetry_Int_Tables_number   1
_chemical_formula_structural   Dy3Tm4Lu3(In2Pt)4
_chemical_formula_sum   'Dy3 Tm4 Lu3 In8 Pt4'
_cell_volume   527.13762277
_cell_formula_units_Z   1
loop_
 _symmetry_equiv_pos_site_id
 _symmetry_equiv_pos_as_xyz
  1  'x, y, z'
loop_
 _atom_site_type_symbol
 _atom_site_label
 _atom_site_symmetry_multiplicity
 _atom_site_fract_x
 _atom_site_fract_y
 _atom_site_fract_z
 _atom_site_occupancy
  Dy  Dy0  1  0.000000  0.741895  0.281132  1
  Dy  Dy1  1  0.000000  0.999496  0.999557  1
  Dy  Dy2  1  0.000000  0.500225  0.500194  1
  Tm  Tm3  1  0.000000  0.617061  0.084974  1
  Tm  Tm4  1  0.000000  0.243334  0.220130  1
  Tm  Tm5  1  0.000000  0.757505  0.780078  1
  Tm  Tm6  1  0.000000  0.257213  0.719391  1
  Lu  Lu7  1  0.000000  0.117072  0.414291  1
  Lu  Lu8  1  0.000000  0.883154  0.586077  1
  Lu  Lu9  1  0.000000  0.383155  0.913705  1
  In  In10  1  0.500000  0.419958  0.351395  1
  In  In11  1  0.500000  0.579035  0.649330  1
  In  In12  1  0.500000  0.078880  0.850461  1
  In  In13  1  0.500000  0.923043  0.149499  1
  In  In14  1  0.500000  0.294333  0.065255  1
  In  In15  1  0.500000  0.704323  0.933507  1
  In  In16  1  0.500000  0.203418  0.564994  1
  In  In17  1  0.500000  0.797092  0.435666  1
  Pt  Pt18  1  0.500000  0.027944  0.304894  1
  Pt  Pt19  1  0.500000  0.974130  0.695547  1
  Pt  Pt20  1  0.500000  0.473511  0.804015  1
  Pt  Pt21  1  0.500000  0.524225  0.195909  1
