# generated using pymatgen
data_Th2ZnCd(SeO4)6
_symmetry_space_group_name_H-M   'P 1'
_cell_length_a   9.39880300
_cell_length_b   9.39879106
_cell_length_c   6.26717100
_cell_angle_alpha   89.99989972
_cell_angle_beta   90.00023467
_cell_angle_gamma   120.00025993
_symmetry_Int_Tables_number   1
_chemical_formula_structural   Th2ZnCd(SeO4)6
_chemical_formula_sum   'Th2 Zn1 Cd1 Se6 O24'
_cell_volume   479.45249232
_cell_formula_units_Z   1
loop_
 _symmetry_equiv_pos_site_id
 _symmetry_equiv_pos_as_xyz
  1  'x, y, z'
loop_
 _atom_site_type_symbol
 _atom_site_label
 _atom_site_symmetry_multiplicity
 _atom_site_fract_x
 _atom_site_fract_y
 _atom_site_fract_z
 _atom_site_occupancy
  Th  Th0  1  0.333335  0.666668  0.252868  1
  Th  Th1  1  0.666665  0.333332  0.747131  1
  Zn  Zn2  1  0.000000  0.000000  0.000000  1
  Cd  Cd3  1  0.000000  0.000000  0.500001  1
  Se  Se4  1  0.713263  0.098712  0.244120  1
  Se  Se5  1  0.385449  0.286738  0.244119  1
  Se  Se6  1  0.901287  0.614549  0.244118  1
  Se  Se7  1  0.098713  0.385452  0.755881  1
  Se  Se8  1  0.614550  0.713262  0.755880  1
  Se  Se9  1  0.286737  0.901288  0.755879  1
  O  O10  1  0.783578  0.542700  0.028919  1
  O  O11  1  0.759125  0.216422  0.028917  1
  O  O12  1  0.457296  0.240873  0.028919  1
  O  O13  1  0.834728  0.011365  0.232575  1
  O  O14  1  0.176637  0.165272  0.232575  1
  O  O15  1  0.445441  0.485925  0.249665  1
  O  O16  1  0.040484  0.554556  0.249665  1
  O  O17  1  0.988635  0.823362  0.232575  1
  O  O18  1  0.514075  0.959516  0.249665  1
  O  O19  1  0.448223  0.236747  0.465311  1
  O  O20  1  0.763252  0.211476  0.465311  1
  O  O21  1  0.788523  0.551771  0.465310  1
  O  O22  1  0.211478  0.448228  0.534691  1
  O  O23  1  0.236748  0.788524  0.534689  1
  O  O24  1  0.551776  0.763252  0.534689  1
  O  O25  1  0.485925  0.040484  0.750334  1
  O  O26  1  0.011366  0.176637  0.767424  1
  O  O27  1  0.959516  0.445445  0.750334  1
  O  O28  1  0.554559  0.514075  0.750334  1
  O  O29  1  0.823363  0.834728  0.767424  1
  O  O30  1  0.165271  0.988634  0.767424  1
  O  O31  1  0.542703  0.759126  0.971081  1
  O  O32  1  0.240875  0.783578  0.971082  1
  O  O33  1  0.216423  0.457299  0.971081  1
