# generated using pymatgen
data_Zr10ZnSnGeBi5
_symmetry_space_group_name_H-M   'P 1'
_cell_length_a   8.85541576
_cell_length_b   8.83257251
_cell_length_c   5.94554869
_cell_angle_alpha   90.05519319
_cell_angle_beta   89.97247267
_cell_angle_gamma   119.91470336
_symmetry_Int_Tables_number   1
_chemical_formula_structural   Zr10ZnSnGeBi5
_chemical_formula_sum   'Zr10 Zn1 Sn1 Ge1 Bi5'
_cell_volume   403.07993035
_cell_formula_units_Z   1
loop_
 _symmetry_equiv_pos_site_id
 _symmetry_equiv_pos_as_xyz
  1  'x, y, z'
loop_
 _atom_site_type_symbol
 _atom_site_label
 _atom_site_symmetry_multiplicity
 _atom_site_fract_x
 _atom_site_fract_y
 _atom_site_fract_z
 _atom_site_occupancy
  Zr  Zr0  1  0.670571  0.334191  0.001473  1
  Zr  Zr1  1  0.329429  0.663622  0.001473  1
  Zr  Zr2  1  0.329649  0.663854  0.498682  1
  Zr  Zr3  1  0.670351  0.334204  0.498682  1
  Zr  Zr4  1  0.739012  0.738353  0.751991  1
  Zr  Zr5  1  0.260988  0.999341  0.751991  1
  Zr  Zr6  1  0.000000  0.262687  0.751403  1
  Zr  Zr7  1  0.260057  0.265413  0.248281  1
  Zr  Zr8  1  0.739943  0.005356  0.248281  1
  Zr  Zr9  1  0.000000  0.733515  0.248239  1
  Zn  Zn10  1  0.000000  0.000088  0.497817  1
  Sn  Sn11  1  0.000000  0.388599  0.252471  1
  Ge  Ge12  1  0.000000  0.999912  0.002062  1
  Bi  Bi13  1  0.390641  0.389588  0.747687  1
  Bi  Bi14  1  0.609359  0.998947  0.747687  1
  Bi  Bi15  1  0.000000  0.608832  0.746727  1
  Bi  Bi16  1  0.611680  0.612590  0.252526  1
  Bi  Bi17  1  0.388320  0.000910  0.252526  1
