# generated using pymatgen
data_La4YHo5Ru4
_symmetry_space_group_name_H-M   'P 1'
_cell_length_a   6.50740006
_cell_length_b   7.25174988
_cell_length_c   8.80561787
_cell_angle_alpha   96.33419826
_cell_angle_beta   111.85616594
_cell_angle_gamma   90.07266005
_symmetry_Int_Tables_number   1
_chemical_formula_structural   La4YHo5Ru4
_chemical_formula_sum   'La4 Y1 Ho5 Ru4'
_cell_volume   382.91076267
_cell_formula_units_Z   1
loop_
 _symmetry_equiv_pos_site_id
 _symmetry_equiv_pos_as_xyz
  1  'x, y, z'
loop_
 _atom_site_type_symbol
 _atom_site_label
 _atom_site_symmetry_multiplicity
 _atom_site_fract_x
 _atom_site_fract_y
 _atom_site_fract_z
 _atom_site_occupancy
  La  La0  1  0.979471  0.910778  0.194226  1
  La  La1  1  0.784141  0.588964  0.805293  1
  La  La2  1  0.020850  0.089157  0.805982  1
  La  La3  1  0.215943  0.410630  0.194843  1
  Y  Y4  1  0.636065  0.814799  0.431236  1
  Ho  Ho5  1  0.205636  0.684173  0.569501  1
  Ho  Ho6  1  0.363958  0.185180  0.569339  1
  Ho  Ho7  1  0.794633  0.315727  0.430645  1
  Ho  Ho8  1  0.425982  0.749663  0.999436  1
  Ho  Ho9  1  0.573917  0.250254  0.000404  1
  Ru  Ru10  1  0.826777  0.580881  0.224639  1
  Ru  Ru11  1  0.600408  0.919485  0.776028  1
  Ru  Ru12  1  0.173774  0.418248  0.774573  1
  Ru  Ru13  1  0.398445  0.082062  0.223855  1
