# generated using pymatgen
data_NdHfB6Os
_symmetry_space_group_name_H-M   'P 1'
_cell_length_a   3.60916200
_cell_length_b   9.11496400
_cell_length_c   11.51508100
_cell_angle_alpha   90.00000000
_cell_angle_beta   90.00000000
_cell_angle_gamma   90.00000000
_symmetry_Int_Tables_number   1
_chemical_formula_structural   NdHfB6Os
_chemical_formula_sum   'Nd4 Hf4 B24 Os4'
_cell_volume   378.81601497
_cell_formula_units_Z   4
loop_
 _symmetry_equiv_pos_site_id
 _symmetry_equiv_pos_as_xyz
  1  'x, y, z'
loop_
 _atom_site_type_symbol
 _atom_site_label
 _atom_site_symmetry_multiplicity
 _atom_site_fract_x
 _atom_site_fract_y
 _atom_site_fract_z
 _atom_site_occupancy
  Nd  Nd0  1  0.000000  0.322462  0.414198  1
  Nd  Nd1  1  0.000000  0.677538  0.585802  1
  Nd  Nd2  1  0.000000  0.822462  0.085802  1
  Nd  Nd3  1  0.000000  0.177538  0.914198  1
  Hf  Hf4  1  0.000000  0.945770  0.374854  1
  Hf  Hf5  1  0.000000  0.054230  0.625146  1
  Hf  Hf6  1  0.000000  0.445770  0.125146  1
  Hf  Hf7  1  0.000000  0.554230  0.874854  1
  B  B8  1  0.500000  0.556406  0.430490  1
  B  B9  1  0.500000  0.443594  0.569510  1
  B  B10  1  0.500000  0.056406  0.069510  1
  B  B11  1  0.500000  0.943594  0.930490  1
  B  B12  1  0.500000  0.754137  0.416351  1
  B  B13  1  0.500000  0.245863  0.583649  1
  B  B14  1  0.500000  0.254137  0.083649  1
  B  B15  1  0.500000  0.745863  0.916351  1
  B  B16  1  0.500000  0.795427  0.265144  1
  B  B17  1  0.500000  0.204573  0.734856  1
  B  B18  1  0.500000  0.295427  0.234856  1
  B  B19  1  0.500000  0.704573  0.765144  1
  B  B20  1  0.500000  0.629146  0.182779  1
  B  B21  1  0.500000  0.370854  0.817221  1
  B  B22  1  0.500000  0.129146  0.317221  1
  B  B23  1  0.500000  0.870854  0.682779  1
  B  B24  1  0.500000  0.983734  0.214774  1
  B  B25  1  0.500000  0.016266  0.785226  1
  B  B26  1  0.500000  0.483734  0.285226  1
  B  B27  1  0.500000  0.516266  0.714774  1
  B  B28  1  0.500000  0.598723  0.026126  1
  B  B29  1  0.500000  0.401277  0.973874  1
  B  B30  1  0.500000  0.098723  0.473874  1
  B  B31  1  0.500000  0.901277  0.526126  1
  Os  Os32  1  0.000000  0.643030  0.316273  1
  Os  Os33  1  0.000000  0.356970  0.683727  1
  Os  Os34  1  0.000000  0.143030  0.183727  1
  Os  Os35  1  0.000000  0.856970  0.816273  1
