# generated using pymatgen
data_Tb13Dy7Si15Au
_symmetry_space_group_name_H-M   'P 1'
_cell_length_a   7.48577126
_cell_length_b   7.72820887
_cell_length_c   14.69241502
_cell_angle_alpha   90.13315532
_cell_angle_beta   90.46344734
_cell_angle_gamma   90.20444918
_symmetry_Int_Tables_number   1
_chemical_formula_structural   Tb13Dy7Si15Au
_chemical_formula_sum   'Tb13 Dy7 Si15 Au1'
_cell_volume   849.94420382
_cell_formula_units_Z   1
loop_
 _symmetry_equiv_pos_site_id
 _symmetry_equiv_pos_as_xyz
  1  'x, y, z'
loop_
 _atom_site_type_symbol
 _atom_site_label
 _atom_site_symmetry_multiplicity
 _atom_site_fract_x
 _atom_site_fract_y
 _atom_site_fract_z
 _atom_site_occupancy
  Tb  Tb0  1  0.177188  0.320924  0.623352  1
  Tb  Tb1  1  0.525281  0.679529  0.600399  1
  Tb  Tb2  1  0.028752  0.816197  0.901389  1
  Tb  Tb3  1  0.470124  0.317033  0.099001  1
  Tb  Tb4  1  0.976668  0.182899  0.399444  1
  Tb  Tb5  1  0.470346  0.321477  0.399783  1
  Tb  Tb6  1  0.970240  0.183735  0.098758  1
  Tb  Tb7  1  0.530580  0.683512  0.900352  1
  Tb  Tb8  1  0.025908  0.817495  0.600537  1
  Tb  Tb9  1  0.851126  0.509290  0.749890  1
  Tb  Tb10  1  0.349526  0.988024  0.748472  1
  Tb  Tb11  1  0.150459  0.488189  0.250407  1
  Tb  Tb12  1  0.652574  0.011101  0.251400  1
  Dy  Dy13  1  0.679329  0.175017  0.622959  1
  Dy  Dy14  1  0.181846  0.320966  0.877389  1
  Dy  Dy15  1  0.319192  0.818993  0.121835  1
  Dy  Dy16  1  0.823663  0.677305  0.377311  1
  Dy  Dy17  1  0.319665  0.823833  0.377667  1
  Dy  Dy18  1  0.818619  0.679378  0.122420  1
  Dy  Dy19  1  0.680090  0.180373  0.877494  1
  Si  Si20  1  0.145200  0.528332  0.040010  1
  Si  Si21  1  0.353693  0.029552  0.960342  1
  Si  Si22  1  0.850982  0.472202  0.541389  1
  Si  Si23  1  0.341992  0.028202  0.542151  1
  Si  Si24  1  0.854840  0.471254  0.959691  1
  Si  Si25  1  0.644680  0.970537  0.039136  1
  Si  Si26  1  0.147881  0.531264  0.461106  1
  Si  Si27  1  0.476999  0.394969  0.750298  1
  Si  Si28  1  0.974791  0.104178  0.752054  1
  Si  Si29  1  0.524389  0.606911  0.248423  1
  Si  Si30  1  0.026612  0.894986  0.247497  1
  Si  Si31  1  0.734383  0.873067  0.751924  1
  Si  Si32  1  0.233827  0.625347  0.751307  1
  Si  Si33  1  0.267957  0.124875  0.247230  1
  Si  Si34  1  0.765922  0.375904  0.248721  1
  Au  Au35  1  0.654674  0.973149  0.458460  1
