# generated using pymatgen
data_Hf4Nb4GeP3
_symmetry_space_group_name_H-M   'P 1'
_cell_length_a   3.55275300
_cell_length_b   6.93806837
_cell_length_c   8.41869552
_cell_angle_alpha   89.72286987
_cell_angle_beta   90.00000000
_cell_angle_gamma   90.00000000
_symmetry_Int_Tables_number   1
_chemical_formula_structural   Hf4Nb4GeP3
_chemical_formula_sum   'Hf4 Nb4 Ge1 P3'
_cell_volume   207.51204609
_cell_formula_units_Z   1
loop_
 _symmetry_equiv_pos_site_id
 _symmetry_equiv_pos_as_xyz
  1  'x, y, z'
loop_
 _atom_site_type_symbol
 _atom_site_label
 _atom_site_symmetry_multiplicity
 _atom_site_fract_x
 _atom_site_fract_y
 _atom_site_fract_z
 _atom_site_occupancy
  Hf  Hf0  1  0.250000  0.033656  0.668545  1
  Hf  Hf1  1  0.250000  0.531595  0.831049  1
  Hf  Hf2  1  0.750000  0.470919  0.161743  1
  Hf  Hf3  1  0.750000  0.957117  0.332533  1
  Nb  Nb4  1  0.750000  0.857619  0.938783  1
  Nb  Nb5  1  0.250000  0.643646  0.441484  1
  Nb  Nb6  1  0.750000  0.365761  0.567480  1
  Nb  Nb7  1  0.250000  0.137935  0.055630  1
  Ge  Ge8  1  0.250000  0.260971  0.357155  1
  P  P9  1  0.250000  0.764100  0.144686  1
  P  P10  1  0.750000  0.740555  0.644517  1
  P  P11  1  0.750000  0.236126  0.856395  1
