# generated using pymatgen
data_Dy6Zn22CuP
_symmetry_space_group_name_H-M   'P 1'
_cell_length_a   9.01979388
_cell_length_b   9.01947154
_cell_length_c   9.01880100
_cell_angle_alpha   59.99991764
_cell_angle_beta   59.99961080
_cell_angle_gamma   60.00008421
_symmetry_Int_Tables_number   1
_chemical_formula_structural   Dy6Zn22CuP
_chemical_formula_sum   'Dy6 Zn22 Cu1 P1'
_cell_volume   518.81227261
_cell_formula_units_Z   1
loop_
 _symmetry_equiv_pos_site_id
 _symmetry_equiv_pos_as_xyz
  1  'x, y, z'
loop_
 _atom_site_type_symbol
 _atom_site_label
 _atom_site_symmetry_multiplicity
 _atom_site_fract_x
 _atom_site_fract_y
 _atom_site_fract_z
 _atom_site_occupancy
  Dy  Dy0  1  0.712357  0.287583  0.287625  1
  Dy  Dy1  1  0.712392  0.287527  0.712489  1
  Dy  Dy2  1  0.712332  0.712475  0.287586  1
  Dy  Dy3  1  0.287643  0.712417  0.712375  1
  Dy  Dy4  1  0.287608  0.712473  0.287511  1
  Dy  Dy5  1  0.287668  0.287525  0.712414  1
  Zn  Zn6  1  0.635223  0.121601  0.121545  1
  Zn  Zn7  1  0.121645  0.635151  0.121639  1
  Zn  Zn8  1  0.121574  0.121624  0.635137  1
  Zn  Zn9  1  0.121641  0.121532  0.121648  1
  Zn  Zn10  1  0.364777  0.878399  0.878455  1
  Zn  Zn11  1  0.878355  0.364849  0.878361  1
  Zn  Zn12  1  0.878426  0.878376  0.364863  1
  Zn  Zn13  1  0.878359  0.878468  0.878352  1
  Zn  Zn14  1  0.500000  0.000000  0.000000  1
  Zn  Zn15  1  0.500000  0.000000  0.500000  1
  Zn  Zn16  1  0.500000  0.500000  0.000000  1
  Zn  Zn17  1  0.000000  0.500000  0.500000  1
  Zn  Zn18  1  0.000000  0.500000  0.000000  1
  Zn  Zn19  1  0.000000  0.000000  0.500000  1
  Zn  Zn20  1  0.013071  0.329033  0.328901  1
  Zn  Zn21  1  0.329002  0.013067  0.329030  1
  Zn  Zn22  1  0.328863  0.329010  0.013114  1
  Zn  Zn23  1  0.328983  0.328917  0.329040  1
  Zn  Zn24  1  0.986929  0.670967  0.671099  1
  Zn  Zn25  1  0.670998  0.986933  0.670970  1
  Zn  Zn26  1  0.671137  0.670990  0.986886  1
  Zn  Zn27  1  0.671017  0.671083  0.670960  1
  Cu  Cu28  1  0.000000  0.000000  0.000000  1
  P  P29  1  0.500000  0.500000  0.500000  1
