# generated using pymatgen
data_Er13Th3MgCd3Ir4
_symmetry_space_group_name_H-M   'P 1'
_cell_length_a   9.69097947
_cell_length_b   9.68994696
_cell_length_c   9.68994717
_cell_angle_alpha   59.85894236
_cell_angle_beta   59.87386488
_cell_angle_gamma   59.87387322
_symmetry_Int_Tables_number   1
_chemical_formula_structural   Er13Th3MgCd3Ir4
_chemical_formula_sum   'Er13 Th3 Mg1 Cd3 Ir4'
_cell_volume   641.50719739
_cell_formula_units_Z   1
loop_
 _symmetry_equiv_pos_site_id
 _symmetry_equiv_pos_as_xyz
  1  'x, y, z'
loop_
 _atom_site_type_symbol
 _atom_site_label
 _atom_site_symmetry_multiplicity
 _atom_site_fract_x
 _atom_site_fract_y
 _atom_site_fract_z
 _atom_site_occupancy
  Er  Er0  1  0.200025  0.600906  0.600906  1
  Er  Er1  1  0.059620  0.440757  0.440757  1
  Er  Er2  1  0.435528  0.064646  0.064646  1
  Er  Er3  1  0.437039  0.062539  0.438005  1
  Er  Er4  1  0.063644  0.436853  0.062026  1
  Er  Er5  1  0.437039  0.438005  0.062539  1
  Er  Er6  1  0.063644  0.062026  0.436853  1
  Er  Er7  1  0.187415  0.816149  0.816149  1
  Er  Er8  1  0.816501  0.185119  0.185119  1
  Er  Er9  1  0.817174  0.185353  0.816881  1
  Er  Er10  1  0.187084  0.813809  0.188281  1
  Er  Er11  1  0.817174  0.816881  0.185353  1
  Er  Er12  1  0.187084  0.188281  0.813809  1
  Th  Th13  1  0.596704  0.599356  0.599356  1
  Th  Th14  1  0.598437  0.600226  0.201491  1
  Th  Th15  1  0.598437  0.201491  0.600226  1
  Mg  Mg16  1  0.829824  0.824272  0.824272  1
  Cd  Cd17  1  0.834085  0.830528  0.500970  1
  Cd  Cd18  1  0.834085  0.500970  0.830528  1
  Cd  Cd19  1  0.500756  0.831483  0.831483  1
  Ir  Ir20  1  0.391845  0.393151  0.393151  1
  Ir  Ir21  1  0.392251  0.391562  0.823396  1
  Ir  Ir22  1  0.392251  0.823396  0.391562  1
  Ir  Ir23  1  0.822355  0.392237  0.392237  1
