# generated using pymatgen
data_Hf6Al8Si8Ru4Rh3
_symmetry_space_group_name_H-M   'P 1'
_cell_length_a   8.56026169
_cell_length_b   8.55744543
_cell_length_c   8.55744446
_cell_angle_alpha   60.02176273
_cell_angle_beta   59.98911323
_cell_angle_gamma   59.98910861
_symmetry_Int_Tables_number   1
_chemical_formula_structural   Hf6Al8Si8Ru4Rh3
_chemical_formula_sum   'Hf6 Al8 Si8 Ru4 Rh3'
_cell_volume   443.26161752
_cell_formula_units_Z   1
loop_
 _symmetry_equiv_pos_site_id
 _symmetry_equiv_pos_as_xyz
  1  'x, y, z'
loop_
 _atom_site_type_symbol
 _atom_site_label
 _atom_site_symmetry_multiplicity
 _atom_site_fract_x
 _atom_site_fract_y
 _atom_site_fract_z
 _atom_site_occupancy
  Hf  Hf0  1  0.690240  0.309759  0.309759  1
  Hf  Hf1  1  0.309759  0.690240  0.690240  1
  Hf  Hf2  1  0.309457  0.690542  0.309457  1
  Hf  Hf3  1  0.309457  0.309457  0.690542  1
  Hf  Hf4  1  0.690542  0.309457  0.690542  1
  Hf  Hf5  1  0.690542  0.690542  0.309457  1
  Al  Al6  1  0.119033  0.122812  0.122812  1
  Al  Al7  1  0.122812  0.119033  0.635344  1
  Al  Al8  1  0.635344  0.122812  0.122812  1
  Al  Al9  1  0.122812  0.635344  0.119033  1
  Al  Al10  1  0.880966  0.877187  0.877187  1
  Al  Al11  1  0.877187  0.880966  0.364659  1
  Al  Al12  1  0.877187  0.364659  0.880966  1
  Al  Al13  1  0.364659  0.877187  0.877187  1
  Si  Si14  1  0.345375  0.343522  0.343522  1
  Si  Si15  1  0.343522  0.345375  0.967579  1
  Si  Si16  1  0.967579  0.343522  0.343522  1
  Si  Si17  1  0.343522  0.967579  0.345375  1
  Si  Si18  1  0.654625  0.656478  0.656478  1
  Si  Si19  1  0.656478  0.654625  0.032421  1
  Si  Si20  1  0.656478  0.032421  0.654625  1
  Si  Si21  1  0.032421  0.656478  0.656478  1
  Ru  Ru22  1  0.000000  0.500000  0.000000  1
  Ru  Ru23  1  0.000000  0.000000  0.500000  1
  Ru  Ru24  1  0.500000  0.000000  0.500000  1
  Ru  Ru25  1  0.500000  0.500000  0.000000  1
  Rh  Rh26  1  0.000000  0.000000  0.000000  1
  Rh  Rh27  1  0.500000  0.000000  0.000000  1
  Rh  Rh28  1  0.000000  0.500000  0.500000  1
