# generated using pymatgen
data_Er5Sc5(Si5Ir2)4
_symmetry_space_group_name_H-M   'P 1'
_cell_length_a   12.49511200
_cell_length_b   12.49511200
_cell_length_c   4.16234500
_cell_angle_alpha   90.00000000
_cell_angle_beta   90.00000000
_cell_angle_gamma   90.00000000
_symmetry_Int_Tables_number   1
_chemical_formula_structural   Er5Sc5(Si5Ir2)4
_chemical_formula_sum   'Er5 Sc5 Si20 Ir8'
_cell_volume   649.85786714
_cell_formula_units_Z   1
loop_
 _symmetry_equiv_pos_site_id
 _symmetry_equiv_pos_as_xyz
  1  'x, y, z'
loop_
 _atom_site_type_symbol
 _atom_site_label
 _atom_site_symmetry_multiplicity
 _atom_site_fract_x
 _atom_site_fract_y
 _atom_site_fract_z
 _atom_site_occupancy
  Er  Er0  1  0.000000  0.000000  0.000000  1
  Er  Er1  1  0.884343  0.384858  0.500000  1
  Er  Er2  1  0.115657  0.615142  0.500000  1
  Er  Er3  1  0.384858  0.115657  0.500000  1
  Er  Er4  1  0.615142  0.884343  0.500000  1
  Sc  Sc5  1  0.500000  0.500000  0.000000  1
  Sc  Sc6  1  0.673230  0.174894  0.500000  1
  Sc  Sc7  1  0.326770  0.825106  0.500000  1
  Sc  Sc8  1  0.174894  0.326770  0.500000  1
  Sc  Sc9  1  0.825106  0.673230  0.500000  1
  Si  Si10  1  0.566443  0.068103  0.000000  1
  Si  Si11  1  0.433557  0.931897  0.000000  1
  Si  Si12  1  0.068103  0.433557  0.000000  1
  Si  Si13  1  0.931897  0.566443  0.000000  1
  Si  Si14  1  0.665658  0.700097  0.000000  1
  Si  Si15  1  0.334342  0.299903  0.000000  1
  Si  Si16  1  0.165502  0.800232  0.000000  1
  Si  Si17  1  0.834498  0.199768  0.000000  1
  Si  Si18  1  0.299903  0.665658  0.000000  1
  Si  Si19  1  0.700097  0.334342  0.000000  1
  Si  Si20  1  0.199768  0.165502  0.000000  1
  Si  Si21  1  0.800232  0.834498  0.000000  1
  Si  Si22  1  0.650653  0.507631  0.500000  1
  Si  Si23  1  0.349347  0.492369  0.500000  1
  Si  Si24  1  0.156081  0.992749  0.500000  1
  Si  Si25  1  0.843919  0.007251  0.500000  1
  Si  Si26  1  0.492369  0.650653  0.500000  1
  Si  Si27  1  0.507631  0.349347  0.500000  1
  Si  Si28  1  0.007251  0.156081  0.500000  1
  Si  Si29  1  0.992749  0.843919  0.500000  1
  Ir  Ir30  1  0.744030  0.520087  0.000000  1
  Ir  Ir31  1  0.255970  0.479913  0.000000  1
  Ir  Ir32  1  0.247021  0.979586  0.000000  1
  Ir  Ir33  1  0.752979  0.020414  0.000000  1
  Ir  Ir34  1  0.479913  0.744030  0.000000  1
  Ir  Ir35  1  0.520087  0.255970  0.000000  1
  Ir  Ir36  1  0.020414  0.247021  0.000000  1
  Ir  Ir37  1  0.979586  0.752979  0.000000  1
