# generated using pymatgen
data_Y3Ho(Tm4Bi3)4
_symmetry_space_group_name_H-M   'P 1'
_cell_length_a   8.19786110
_cell_length_b   9.45530400
_cell_length_c   11.94068315
_cell_angle_alpha   90.00000000
_cell_angle_beta   89.98180028
_cell_angle_gamma   90.00000000
_symmetry_Int_Tables_number   1
_chemical_formula_structural   Y3Ho(Tm4Bi3)4
_chemical_formula_sum   'Y3 Ho1 Tm16 Bi12'
_cell_volume   925.56133700
_cell_formula_units_Z   1
loop_
 _symmetry_equiv_pos_site_id
 _symmetry_equiv_pos_as_xyz
  1  'x, y, z'
loop_
 _atom_site_type_symbol
 _atom_site_label
 _atom_site_symmetry_multiplicity
 _atom_site_fract_x
 _atom_site_fract_y
 _atom_site_fract_z
 _atom_site_occupancy
  Y  Y0  1  0.313900  0.250000  0.218142  1
  Y  Y1  1  0.813913  0.250000  0.281828  1
  Y  Y2  1  0.686130  0.750000  0.781853  1
  Ho  Ho3  1  0.186190  0.750000  0.717995  1
  Tm  Tm4  1  0.353515  0.750000  0.217465  1
  Tm  Tm5  1  0.853578  0.750000  0.282542  1
  Tm  Tm6  1  0.646454  0.250000  0.782534  1
  Tm  Tm7  1  0.146444  0.250000  0.717470  1
  Tm  Tm8  1  0.692186  0.565735  0.059617  1
  Tm  Tm9  1  0.192220  0.934207  0.440479  1
  Tm  Tm10  1  0.307794  0.065730  0.940356  1
  Tm  Tm11  1  0.807789  0.434236  0.559621  1
  Tm  Tm12  1  0.307794  0.434270  0.940356  1
  Tm  Tm13  1  0.807789  0.065764  0.559621  1
  Tm  Tm14  1  0.692186  0.934265  0.059617  1
  Tm  Tm15  1  0.192220  0.565793  0.440479  1
  Tm  Tm16  1  0.476812  0.250000  0.489618  1
  Tm  Tm17  1  0.976821  0.250000  0.010395  1
  Tm  Tm18  1  0.523010  0.750000  0.510495  1
  Tm  Tm19  1  0.023305  0.750000  0.989432  1
  Bi  Bi20  1  0.404074  0.750000  0.958454  1
  Bi  Bi21  1  0.904387  0.750000  0.541674  1
  Bi  Bi22  1  0.595833  0.250000  0.041450  1
  Bi  Bi23  1  0.095805  0.250000  0.458554  1
  Bi  Bi24  1  0.566046  0.995237  0.326062  1
  Bi  Bi25  1  0.066026  0.504768  0.173951  1
  Bi  Bi26  1  0.433758  0.495433  0.673991  1
  Bi  Bi27  1  0.934096  0.004657  0.825972  1
  Bi  Bi28  1  0.433758  0.004567  0.673991  1
  Bi  Bi29  1  0.934096  0.495343  0.825972  1
  Bi  Bi30  1  0.566046  0.504763  0.326062  1
  Bi  Bi31  1  0.066026  0.995232  0.173951  1
