# generated using pymatgen
data_Hf8TcNi2Mo
_symmetry_space_group_name_H-M   'P 1'
_cell_length_a   8.67044040
_cell_length_b   8.67043976
_cell_length_c   8.66496400
_cell_angle_alpha   60.02089673
_cell_angle_beta   60.02089916
_cell_angle_gamma   60.04666489
_symmetry_Int_Tables_number   1
_chemical_formula_structural   Hf8TcNi2Mo
_chemical_formula_sum   'Hf16 Tc2 Ni4 Mo2'
_cell_volume   460.91854480
_cell_formula_units_Z   2
loop_
 _symmetry_equiv_pos_site_id
 _symmetry_equiv_pos_as_xyz
  1  'x, y, z'
loop_
 _atom_site_type_symbol
 _atom_site_label
 _atom_site_symmetry_multiplicity
 _atom_site_fract_x
 _atom_site_fract_y
 _atom_site_fract_z
 _atom_site_occupancy
  Hf  Hf0  1  0.690731  0.103191  0.103039  1
  Hf  Hf1  1  0.103191  0.690731  0.103039  1
  Hf  Hf2  1  0.103331  0.103331  0.690185  1
  Hf  Hf3  1  0.103331  0.103331  0.103152  1
  Hf  Hf4  1  0.315322  0.315322  0.684678  1
  Hf  Hf5  1  0.684919  0.684919  0.315081  1
  Hf  Hf6  1  0.315252  0.683917  0.315122  1
  Hf  Hf7  1  0.683917  0.315252  0.685709  1
  Hf  Hf8  1  0.683917  0.315252  0.315122  1
  Hf  Hf9  1  0.315252  0.683917  0.685709  1
  Hf  Hf10  1  0.952787  0.952787  0.547213  1
  Hf  Hf11  1  0.546319  0.546319  0.953681  1
  Hf  Hf12  1  0.952790  0.547140  0.952758  1
  Hf  Hf13  1  0.547140  0.952790  0.547312  1
  Hf  Hf14  1  0.547140  0.952790  0.952758  1
  Hf  Hf15  1  0.952790  0.547140  0.547312  1
  Tc  Tc16  1  0.334467  0.334467  0.996921  1
  Tc  Tc17  1  0.334467  0.334467  0.334144  1
  Ni  Ni18  1  0.324453  0.890869  0.892339  1
  Ni  Ni19  1  0.890869  0.324453  0.892339  1
  Ni  Ni20  1  0.891288  0.891288  0.325081  1
  Ni  Ni21  1  0.891288  0.891288  0.892343  1
  Mo  Mo22  1  0.001869  0.333167  0.332481  1
  Mo  Mo23  1  0.333167  0.001869  0.332481  1
