# generated using pymatgen
data_Zr4Be7BRu10
_symmetry_space_group_name_H-M   'P 1'
_cell_length_a   3.20159500
_cell_length_b   8.67687837
_cell_length_c   10.17936745
_cell_angle_alpha   90.09032078
_cell_angle_beta   90.00000000
_cell_angle_gamma   90.00000000
_symmetry_Int_Tables_number   1
_chemical_formula_structural   Zr4Be7BRu10
_chemical_formula_sum   'Zr4 Be7 B1 Ru10'
_cell_volume   282.78095360
_cell_formula_units_Z   1
loop_
 _symmetry_equiv_pos_site_id
 _symmetry_equiv_pos_as_xyz
  1  'x, y, z'
loop_
 _atom_site_type_symbol
 _atom_site_label
 _atom_site_symmetry_multiplicity
 _atom_site_fract_x
 _atom_site_fract_y
 _atom_site_fract_z
 _atom_site_occupancy
  Zr  Zr0  1  0.500000  0.842882  0.180041  1
  Zr  Zr1  1  0.500000  0.157849  0.815323  1
  Zr  Zr2  1  0.500000  0.656085  0.680014  1
  Zr  Zr3  1  0.500000  0.340680  0.318602  1
  Be  Be4  1  0.500000  0.961800  0.593317  1
  Be  Be5  1  0.500000  0.035027  0.406146  1
  Be  Be6  1  0.500000  0.845695  0.903214  1
  Be  Be7  1  0.500000  0.156862  0.096721  1
  Be  Be8  1  0.500000  0.656117  0.404127  1
  Be  Be9  1  0.500000  0.343025  0.596208  1
  Be  Be10  1  0.500000  0.466836  0.909814  1
  B  B11  1  0.500000  0.536313  0.093422  1
  Ru  Ru12  1  0.000000  0.658464  0.960605  1
  Ru  Ru13  1  0.000000  0.349011  0.051386  1
  Ru  Ru14  1  0.000000  0.839444  0.450122  1
  Ru  Ru15  1  0.000000  0.157530  0.548355  1
  Ru  Ru16  1  0.000000  0.003634  0.998940  1
  Ru  Ru17  1  0.000000  0.402866  0.759780  1
  Ru  Ru18  1  0.000000  0.594899  0.235837  1
  Ru  Ru19  1  0.000000  0.498469  0.497849  1
  Ru  Ru20  1  0.000000  0.898640  0.742050  1
  Ru  Ru21  1  0.000000  0.097873  0.258127  1
