# generated using pymatgen
data_PaTeSe
_symmetry_space_group_name_H-M   'P 1'
_cell_length_a   4.28626900
_cell_length_b   7.90311100
_cell_length_c   9.33205600
_cell_angle_alpha   90.00000000
_cell_angle_beta   90.00000000
_cell_angle_gamma   90.00000000
_symmetry_Int_Tables_number   1
_chemical_formula_structural   PaTeSe
_chemical_formula_sum   'Pa4 Te4 Se4'
_cell_volume   316.12208755
_cell_formula_units_Z   4
loop_
 _symmetry_equiv_pos_site_id
 _symmetry_equiv_pos_as_xyz
  1  'x, y, z'
loop_
 _atom_site_type_symbol
 _atom_site_label
 _atom_site_symmetry_multiplicity
 _atom_site_fract_x
 _atom_site_fract_y
 _atom_site_fract_z
 _atom_site_occupancy
  Pa  Pa0  1  0.250000  0.278625  0.630959  1
  Pa  Pa1  1  0.250000  0.778625  0.869041  1
  Pa  Pa2  1  0.750000  0.721375  0.369041  1
  Pa  Pa3  1  0.750000  0.221375  0.130959  1
  Te  Te4  1  0.250000  0.029973  0.340795  1
  Te  Te5  1  0.250000  0.529973  0.159205  1
  Te  Te6  1  0.750000  0.970027  0.659205  1
  Te  Te7  1  0.750000  0.470027  0.840795  1
  Se  Se8  1  0.250000  0.144796  0.928583  1
  Se  Se9  1  0.250000  0.644796  0.571417  1
  Se  Se10  1  0.750000  0.855204  0.071417  1
  Se  Se11  1  0.750000  0.355204  0.428583  1
