# generated using pymatgen
data_CeTh2(ZnPd)3
_symmetry_space_group_name_H-M   'P 1'
_cell_length_a   7.41404600
_cell_length_b   7.39528441
_cell_length_c   4.01851000
_cell_angle_alpha   90.00000000
_cell_angle_beta   90.00000000
_cell_angle_gamma   120.08395771
_symmetry_Int_Tables_number   1
_chemical_formula_structural   CeTh2(ZnPd)3
_chemical_formula_sum   'Ce1 Th2 Zn3 Pd3'
_cell_volume   190.65043541
_cell_formula_units_Z   1
loop_
 _symmetry_equiv_pos_site_id
 _symmetry_equiv_pos_as_xyz
  1  'x, y, z'
loop_
 _atom_site_type_symbol
 _atom_site_label
 _atom_site_symmetry_multiplicity
 _atom_site_fract_x
 _atom_site_fract_y
 _atom_site_fract_z
 _atom_site_occupancy
  Ce  Ce0  1  0.408987  0.000000  0.000000  1
  Th  Th1  1  0.999047  0.408874  0.000000  1
  Th  Th2  1  0.590172  0.591126  0.000000  1
  Zn  Zn3  1  0.002948  0.759030  0.500000  1
  Zn  Zn4  1  0.243918  0.240970  0.500000  1
  Zn  Zn5  1  0.755316  0.000000  0.500000  1
  Pd  Pd6  1  0.998416  0.000000  0.000000  1
  Pd  Pd7  1  0.667537  0.333879  0.500000  1
  Pd  Pd8  1  0.333657  0.666121  0.500000  1
