# generated using pymatgen
data_AcAg(MoO4)2
_symmetry_space_group_name_H-M   'P 1'
_cell_length_a   7.14795368
_cell_length_b   7.14795435
_cell_length_c   7.14795336
_cell_angle_alpha   134.48261692
_cell_angle_beta   134.48261154
_cell_angle_gamma   66.33517871
_symmetry_Int_Tables_number   1
_chemical_formula_structural   AcAg(MoO4)2
_chemical_formula_sum   'Ac1 Ag1 Mo2 O8'
_cell_volume   183.00214303
_cell_formula_units_Z   1
loop_
 _symmetry_equiv_pos_site_id
 _symmetry_equiv_pos_as_xyz
  1  'x, y, z'
loop_
 _atom_site_type_symbol
 _atom_site_label
 _atom_site_symmetry_multiplicity
 _atom_site_fract_x
 _atom_site_fract_y
 _atom_site_fract_z
 _atom_site_occupancy
  Ac  Ac0  1  0.750000  0.250000  0.500000  1
  Ag  Ag1  1  0.000000  0.000000  0.000000  1
  Mo  Mo2  1  0.500000  0.500000  0.000000  1
  Mo  Mo3  1  0.250000  0.750000  0.500000  1
  O  O4  1  0.646024  0.277062  0.094073  1
  O  O5  1  0.025569  0.433018  0.120802  1
  O  O6  1  0.722938  0.817011  0.368963  1
  O  O7  1  0.095232  0.974431  0.407448  1
  O  O8  1  0.566982  0.687784  0.592552  1
  O  O9  1  0.448049  0.353976  0.631037  1
  O  O10  1  0.312216  0.904768  0.879198  1
  O  O11  1  0.182989  0.551951  0.905927  1
