# generated using pymatgen
data_CrS23
_symmetry_space_group_name_H-M   'P 1'
_cell_length_a   5.45556065
_cell_length_b   9.35382023
_cell_length_c   15.89152000
_cell_angle_alpha   82.42591985
_cell_angle_beta   85.98404661
_cell_angle_gamma   91.36398717
_symmetry_Int_Tables_number   1
_chemical_formula_structural   CrS23
_chemical_formula_sum   'Cr1 S23'
_cell_volume   801.45279356
_cell_formula_units_Z   1
loop_
 _symmetry_equiv_pos_site_id
 _symmetry_equiv_pos_as_xyz
  1  'x, y, z'
loop_
 _atom_site_type_symbol
 _atom_site_label
 _atom_site_symmetry_multiplicity
 _atom_site_fract_x
 _atom_site_fract_y
 _atom_site_fract_z
 _atom_site_occupancy
  Cr  Cr0  1  0.724628  0.192638  0.426392  1
  S  S1  1  0.668057  0.966108  0.415096  1
  S  S2  1  0.019213  0.303399  0.096719  1
  S  S3  1  0.812128  0.235804  0.553109  1
  S  S4  1  0.383039  0.882792  0.506217  1
  S  S5  1  0.183042  0.285021  0.977703  1
  S  S6  1  0.823654  0.730763  0.021780  1
  S  S7  1  0.083875  0.189812  0.374545  1
  S  S8  1  0.614713  0.360238  0.328561  1
  S  S9  1  0.847905  0.107818  0.145435  1
  S  S10  1  0.279837  0.866509  0.119719  1
  S  S11  1  0.700500  0.659665  0.639138  1
  S  S12  1  0.322795  0.445846  0.559080  1
  S  S13  1  0.164200  0.901623  0.853501  1
  S  S14  1  0.733559  0.144367  0.877441  1
  S  S15  1  0.075143  0.680822  0.111518  1
  S  S16  1  0.527046  0.855204  0.622502  1
  S  S17  1  0.437754  0.231280  0.562376  1
  S  S18  1  0.983416  0.709093  0.902625  1
  S  S19  1  0.931555  0.331762  0.887483  1
  S  S20  1  0.246231  0.399056  0.349081  1
  S  S21  1  0.098802  0.978687  0.207508  1
  S  S22  1  0.418708  0.507628  0.672595  1
  S  S23  1  0.920198  0.034061  0.789880  1
