# generated using pymatgen
data_Tb3Ce(B4Os)4
_symmetry_space_group_name_H-M   'P 1'
_cell_length_a   5.99588335
_cell_length_b   11.60646462
_cell_length_c   3.58874700
_cell_angle_alpha   90.00000000
_cell_angle_beta   90.00000000
_cell_angle_gamma   89.92300432
_symmetry_Int_Tables_number   1
_chemical_formula_structural   Tb3Ce(B4Os)4
_chemical_formula_sum   'Tb3 Ce1 B16 Os4'
_cell_volume   249.74429571
_cell_formula_units_Z   1
loop_
 _symmetry_equiv_pos_site_id
 _symmetry_equiv_pos_as_xyz
  1  'x, y, z'
loop_
 _atom_site_type_symbol
 _atom_site_label
 _atom_site_symmetry_multiplicity
 _atom_site_fract_x
 _atom_site_fract_y
 _atom_site_fract_z
 _atom_site_occupancy
  Tb  Tb0  1  0.371844  0.651052  0.000000  1
  Tb  Tb1  1  0.127973  0.148910  0.000000  1
  Tb  Tb2  1  0.871982  0.850007  0.000000  1
  Ce  Ce3  1  0.628359  0.349899  0.000000  1
  B  B4  1  0.787812  0.185380  0.500000  1
  B  B5  1  0.211967  0.814407  0.500000  1
  B  B6  1  0.286783  0.314106  0.500000  1
  B  B7  1  0.713026  0.686416  0.500000  1
  B  B8  1  0.862867  0.030312  0.500000  1
  B  B9  1  0.136671  0.969336  0.500000  1
  B  B10  1  0.363155  0.469929  0.500000  1
  B  B11  1  0.636948  0.531040  0.500000  1
  B  B12  1  0.888994  0.454318  0.500000  1
  B  B13  1  0.112501  0.547443  0.500000  1
  B  B14  1  0.387187  0.045809  0.500000  1
  B  B15  1  0.612282  0.953274  0.500000  1
  B  B16  1  0.975239  0.309046  0.500000  1
  B  B17  1  0.025285  0.691461  0.500000  1
  B  B18  1  0.474086  0.190216  0.500000  1
  B  B19  1  0.525553  0.808889  0.500000  1
  Os  Os20  1  0.640477  0.093291  0.000000  1
  Os  Os21  1  0.359931  0.906545  0.000000  1
  Os  Os22  1  0.140378  0.405972  0.000000  1
  Os  Os23  1  0.858698  0.592941  0.000000  1
