# generated using pymatgen
data_YTm6Co2Sn23Os4
_symmetry_space_group_name_H-M   'P 1'
_cell_length_a   9.77834142
_cell_length_b   9.77834344
_cell_length_c   10.06509285
_cell_angle_alpha   90.02733693
_cell_angle_beta   89.97266318
_cell_angle_gamma   119.94960589
_symmetry_Int_Tables_number   1
_chemical_formula_structural   YTm6Co2Sn23Os4
_chemical_formula_sum   'Y1 Tm6 Co2 Sn23 Os4'
_cell_volume   833.87153239
_cell_formula_units_Z   1
loop_
 _symmetry_equiv_pos_site_id
 _symmetry_equiv_pos_as_xyz
  1  'x, y, z'
loop_
 _atom_site_type_symbol
 _atom_site_label
 _atom_site_symmetry_multiplicity
 _atom_site_fract_x
 _atom_site_fract_y
 _atom_site_fract_z
 _atom_site_occupancy
  Y  Y0  1  0.516915  0.483085  0.695072  1
  Tm  Tm1  1  0.993291  0.006709  0.982824  1
  Tm  Tm2  1  0.033858  0.514324  0.304945  1
  Tm  Tm3  1  0.485676  0.966142  0.304945  1
  Tm  Tm4  1  0.483196  0.516804  0.306235  1
  Tm  Tm5  1  0.971162  0.485605  0.698307  1
  Tm  Tm6  1  0.514395  0.028838  0.698307  1
  Co  Co7  1  0.342081  0.171375  0.200586  1
  Co  Co8  1  0.828625  0.657919  0.200586  1
  Sn  Sn9  1  0.000282  0.999718  0.496161  1
  Sn  Sn10  1  0.115932  0.884068  0.269673  1
  Sn  Sn11  1  0.765637  0.876439  0.271873  1
  Sn  Sn12  1  0.123561  0.234363  0.271873  1
  Sn  Sn13  1  0.881488  0.118512  0.719588  1
  Sn  Sn14  1  0.237264  0.117690  0.722545  1
  Sn  Sn15  1  0.882310  0.762736  0.722545  1
  Sn  Sn16  1  0.347219  0.003226  0.005961  1
  Sn  Sn17  1  0.653517  0.649771  0.005519  1
  Sn  Sn18  1  0.998041  0.352181  0.001021  1
  Sn  Sn19  1  0.350229  0.346483  0.005519  1
  Sn  Sn20  1  0.996774  0.652781  0.005961  1
  Sn  Sn21  1  0.647819  0.001959  0.001021  1
  Sn  Sn22  1  0.783374  0.563440  0.453716  1
  Sn  Sn23  1  0.779711  0.220289  0.462162  1
  Sn  Sn24  1  0.436560  0.216626  0.453716  1
  Sn  Sn25  1  0.219060  0.440099  0.539986  1
  Sn  Sn26  1  0.219947  0.780053  0.539019  1
  Sn  Sn27  1  0.559901  0.780940  0.539986  1
  Sn  Sn28  1  0.664974  0.335026  0.183520  1
  Sn  Sn29  1  0.333643  0.666357  0.824042  1
  Sn  Sn30  1  0.668572  0.331428  0.874438  1
  Sn  Sn31  1  0.333572  0.666428  0.129795  1
  Os  Os32  1  0.169745  0.830255  0.801205  1
  Os  Os33  1  0.663473  0.831984  0.802292  1
  Os  Os34  1  0.168016  0.336527  0.802292  1
  Os  Os35  1  0.830182  0.169818  0.202768  1
