# generated using pymatgen
data_ErSc3Zn2(B2Rh5)2
_symmetry_space_group_name_H-M   'P 1'
_cell_length_a   9.40793155
_cell_length_b   3.08754100
_cell_length_c   9.40793155
_cell_angle_alpha   90.00000000
_cell_angle_beta   89.39863078
_cell_angle_gamma   90.00000000
_symmetry_Int_Tables_number   1
_chemical_formula_structural   ErSc3Zn2(B2Rh5)2
_chemical_formula_sum   'Er1 Sc3 Zn2 B4 Rh10'
_cell_volume   273.26065763
_cell_formula_units_Z   1
loop_
 _symmetry_equiv_pos_site_id
 _symmetry_equiv_pos_as_xyz
  1  'x, y, z'
loop_
 _atom_site_type_symbol
 _atom_site_label
 _atom_site_symmetry_multiplicity
 _atom_site_fract_x
 _atom_site_fract_y
 _atom_site_fract_z
 _atom_site_occupancy
  Er  Er0  1  0.675891  0.000000  0.175890  1
  Sc  Sc1  1  0.175861  0.000000  0.326525  1
  Sc  Sc2  1  0.826526  0.000000  0.675862  1
  Sc  Sc3  1  0.323858  0.000000  0.823859  1
  Zn  Zn4  1  0.997098  0.000000  0.000416  1
  Zn  Zn5  1  0.500416  0.000000  0.497098  1
  B  B6  1  0.369464  0.000000  0.123363  1
  B  B7  1  0.878655  0.000000  0.378654  1
  B  B8  1  0.128043  0.000000  0.628043  1
  B  B9  1  0.623363  0.000000  0.869465  1
  Rh  Rh10  1  0.495782  0.500001  0.995782  1
  Rh  Rh11  1  0.214545  0.500001  0.070470  1
  Rh  Rh12  1  0.936086  0.500001  0.221488  1
  Rh  Rh13  1  0.423591  0.500001  0.281695  1
  Rh  Rh14  1  0.721489  0.500001  0.436086  1
  Rh  Rh15  1  0.002582  0.500001  0.502582  1
  Rh  Rh16  1  0.283687  0.500001  0.570897  1
  Rh  Rh17  1  0.570470  0.500001  0.714546  1
  Rh  Rh18  1  0.070897  0.500001  0.783687  1
  Rh  Rh19  1  0.781695  0.500001  0.923591  1
