# generated using pymatgen
data_Nd2ErGa6Ni8Ir
_symmetry_space_group_name_H-M   'P 1'
_cell_length_a   8.76758000
_cell_length_b   8.91526612
_cell_length_c   4.11681700
_cell_angle_alpha   90.00000000
_cell_angle_beta   90.00000000
_cell_angle_gamma   119.45351301
_symmetry_Int_Tables_number   1
_chemical_formula_structural   Nd2ErGa6Ni8Ir
_chemical_formula_sum   'Nd2 Er1 Ga6 Ni8 Ir1'
_cell_volume   280.20221047
_cell_formula_units_Z   1
loop_
 _symmetry_equiv_pos_site_id
 _symmetry_equiv_pos_as_xyz
  1  'x, y, z'
loop_
 _atom_site_type_symbol
 _atom_site_label
 _atom_site_symmetry_multiplicity
 _atom_site_fract_x
 _atom_site_fract_y
 _atom_site_fract_z
 _atom_site_occupancy
  Nd  Nd0  1  0.334386  0.666646  0.500000  1
  Nd  Nd1  1  0.667741  0.333354  0.500000  1
  Er  Er2  1  0.011302  0.000000  0.000000  1
  Ga  Ga3  1  0.475212  0.000000  0.000000  1
  Ga  Ga4  1  0.992071  0.470889  0.000000  1
  Ga  Ga5  1  0.521181  0.529111  0.000000  1
  Ga  Ga6  1  0.736134  0.000000  0.500000  1
  Ga  Ga7  1  0.993925  0.723151  0.500000  1
  Ga  Ga8  1  0.270773  0.276849  0.500000  1
  Ni  Ni9  1  0.193169  0.365896  0.000000  1
  Ni  Ni10  1  0.638509  0.834031  0.000000  1
  Ni  Ni11  1  0.162749  0.784462  0.000000  1
  Ni  Ni12  1  0.827274  0.634104  0.000000  1
  Ni  Ni13  1  0.804477  0.165969  0.000000  1
  Ni  Ni14  1  0.378287  0.215538  0.000000  1
  Ni  Ni15  1  0.996462  0.285873  0.500000  1
  Ni  Ni16  1  0.710589  0.714127  0.500000  1
  Ir  Ir17  1  0.285760  0.000000  0.500000  1
