# generated using pymatgen
data_Ca2Cd3O5
_symmetry_space_group_name_H-M   'P 1'
_cell_length_a   5.88156185
_cell_length_b   5.87597391
_cell_length_c   9.01895742
_cell_angle_alpha   109.04473496
_cell_angle_beta   70.89635362
_cell_angle_gamma   100.18881953
_symmetry_Int_Tables_number   1
_chemical_formula_structural   Ca2Cd3O5
_chemical_formula_sum   'Ca4 Cd6 O10'
_cell_volume   277.54868638
_cell_formula_units_Z   2
loop_
 _symmetry_equiv_pos_site_id
 _symmetry_equiv_pos_as_xyz
  1  'x, y, z'
loop_
 _atom_site_type_symbol
 _atom_site_label
 _atom_site_symmetry_multiplicity
 _atom_site_fract_x
 _atom_site_fract_y
 _atom_site_fract_z
 _atom_site_occupancy
  Ca  Ca0  1  0.000302  0.005778  0.998041  1
  Ca  Ca1  1  0.897720  0.497308  0.701004  1
  Ca  Ca2  1  0.500301  0.505781  0.498043  1
  Ca  Ca3  1  0.397720  0.997303  0.201002  1
  Cd  Cd4  1  0.699057  0.501642  0.099522  1
  Cd  Cd5  1  0.199055  0.001644  0.599526  1
  Cd  Cd6  1  0.096225  0.501203  0.298331  1
  Cd  Cd7  1  0.596227  0.001202  0.798332  1
  Cd  Cd8  1  0.301773  0.501932  0.900678  1
  Cd  Cd9  1  0.801775  0.001930  0.400677  1
  O  O10  1  0.949061  0.251446  0.849547  1
  O  O11  1  0.449061  0.751445  0.349547  1
  O  O12  1  0.351120  0.252658  0.049984  1
  O  O13  1  0.851122  0.752663  0.549985  1
  O  O14  1  0.047085  0.750379  0.149026  1
  O  O15  1  0.547087  0.250382  0.649027  1
  O  O16  1  0.247725  0.749235  0.749921  1
  O  O17  1  0.747726  0.249232  0.249921  1
  O  O18  1  0.650379  0.753613  0.949011  1
  O  O19  1  0.150377  0.253616  0.449012  1
