# generated using pymatgen
data_Tb2DyIn3GePt2
_symmetry_space_group_name_H-M   'P 1'
_cell_length_a   7.50787604
_cell_length_b   7.50660127
_cell_length_c   4.13679500
_cell_angle_alpha   90.00000000
_cell_angle_beta   90.00000000
_cell_angle_gamma   119.99409166
_symmetry_Int_Tables_number   1
_chemical_formula_structural   Tb2DyIn3GePt2
_chemical_formula_sum   'Tb2 Dy1 In3 Ge1 Pt2'
_cell_volume   201.92073858
_cell_formula_units_Z   1
loop_
 _symmetry_equiv_pos_site_id
 _symmetry_equiv_pos_as_xyz
  1  'x, y, z'
loop_
 _atom_site_type_symbol
 _atom_site_label
 _atom_site_symmetry_multiplicity
 _atom_site_fract_x
 _atom_site_fract_y
 _atom_site_fract_z
 _atom_site_occupancy
  Tb  Tb0  1  0.597652  0.008583  0.500000  1
  Tb  Tb1  1  0.410862  0.402385  0.500000  1
  Dy  Dy2  1  0.991355  0.589088  0.500000  1
  In  In3  1  0.750550  0.743013  0.000000  1
  In  In4  1  0.992547  0.249592  0.000000  1
  In  In5  1  0.256944  0.007433  0.000000  1
  Ge  Ge6  1  0.333199  0.666587  0.000000  1
  Pt  Pt7  1  0.666903  0.333493  0.000000  1
  Pt  Pt8  1  0.999989  0.999824  0.500000  1
