# generated using pymatgen
data_TbEr3Lu4In3Co
_symmetry_space_group_name_H-M   'P 1'
_cell_length_a   10.19679100
_cell_length_b   10.19679171
_cell_length_c   7.01796000
_cell_angle_alpha   90.00000000
_cell_angle_beta   90.00000000
_cell_angle_gamma   120.00000742
_symmetry_Int_Tables_number   1
_chemical_formula_structural   TbEr3Lu4In3Co
_chemical_formula_sum   'Tb2 Er6 Lu8 In6 Co2'
_cell_volume   631.92938942
_cell_formula_units_Z   2
loop_
 _symmetry_equiv_pos_site_id
 _symmetry_equiv_pos_as_xyz
  1  'x, y, z'
loop_
 _atom_site_type_symbol
 _atom_site_label
 _atom_site_symmetry_multiplicity
 _atom_site_fract_x
 _atom_site_fract_y
 _atom_site_fract_z
 _atom_site_occupancy
  Tb  Tb0  1  0.000000  0.000000  0.495130  1
  Tb  Tb1  1  0.000000  0.000000  0.995130  1
  Er  Er2  1  0.465122  0.534878  0.482521  1
  Er  Er3  1  0.069755  0.534878  0.482521  1
  Er  Er4  1  0.465122  0.930245  0.482521  1
  Er  Er5  1  0.534878  0.465122  0.982521  1
  Er  Er6  1  0.930245  0.465122  0.982521  1
  Er  Er7  1  0.534878  0.069755  0.982521  1
  Lu  Lu8  1  0.820079  0.179921  0.277648  1
  Lu  Lu9  1  0.359841  0.179921  0.277648  1
  Lu  Lu10  1  0.820079  0.640159  0.277648  1
  Lu  Lu11  1  0.179921  0.820079  0.777648  1
  Lu  Lu12  1  0.640159  0.820079  0.777648  1
  Lu  Lu13  1  0.179921  0.359841  0.777648  1
  Lu  Lu14  1  0.333333  0.666667  0.089662  1
  Lu  Lu15  1  0.666667  0.333333  0.589662  1
  In  In16  1  0.163566  0.836434  0.232874  1
  In  In17  1  0.672867  0.836434  0.232874  1
  In  In18  1  0.163566  0.327133  0.232874  1
  In  In19  1  0.836434  0.163566  0.732874  1
  In  In20  1  0.327133  0.163566  0.732874  1
  In  In21  1  0.836434  0.672867  0.732874  1
  Co  Co22  1  0.333333  0.666667  0.708356  1
  Co  Co23  1  0.666667  0.333333  0.208356  1
