# generated using pymatgen
data_Tb3Ho7(InBi2)2
_symmetry_space_group_name_H-M   'P 1'
_cell_length_a   9.07906070
_cell_length_b   9.09062713
_cell_length_c   6.49983900
_cell_angle_alpha   90.00000000
_cell_angle_beta   90.00000000
_cell_angle_gamma   119.86827002
_symmetry_Int_Tables_number   1
_chemical_formula_structural   Tb3Ho7(InBi2)2
_chemical_formula_sum   'Tb3 Ho7 In2 Bi4'
_cell_volume   465.20347274
_cell_formula_units_Z   1
loop_
 _symmetry_equiv_pos_site_id
 _symmetry_equiv_pos_as_xyz
  1  'x, y, z'
loop_
 _atom_site_type_symbol
 _atom_site_label
 _atom_site_symmetry_multiplicity
 _atom_site_fract_x
 _atom_site_fract_y
 _atom_site_fract_z
 _atom_site_occupancy
  Tb  Tb0  1  0.761867  0.761896  0.750000  1
  Tb  Tb1  1  0.235996  0.998400  0.750000  1
  Tb  Tb2  1  0.234191  0.234331  0.250000  1
  Ho  Ho3  1  0.668812  0.328785  0.003633  1
  Ho  Ho4  1  0.328909  0.668850  0.003640  1
  Ho  Ho5  1  0.328909  0.668850  0.496360  1
  Ho  Ho6  1  0.668812  0.328785  0.496367  1
  Ho  Ho7  1  0.998381  0.236155  0.750000  1
  Ho  Ho8  1  0.765182  0.008331  0.250000  1
  Ho  Ho9  1  0.008286  0.765065  0.250000  1
  In  In10  1  0.396274  0.001097  0.250000  1
  In  In11  1  0.001099  0.396315  0.250000  1
  Bi  Bi12  1  0.393444  0.393877  0.750000  1
  Bi  Bi13  1  0.603401  0.997395  0.750000  1
  Bi  Bi14  1  0.997006  0.602410  0.750000  1
  Bi  Bi15  1  0.609429  0.609458  0.250000  1
