# generated using pymatgen
data_Er4FeCu2Ru5
_symmetry_space_group_name_H-M   'P 1'
_cell_length_a   5.29688783
_cell_length_b   5.22587161
_cell_length_c   8.75987000
_cell_angle_alpha   90.00000000
_cell_angle_beta   90.00000000
_cell_angle_gamma   121.79452971
_symmetry_Int_Tables_number   1
_chemical_formula_structural   Er4FeCu2Ru5
_chemical_formula_sum   'Er4 Fe1 Cu2 Ru5'
_cell_volume   206.09477168
_cell_formula_units_Z   1
loop_
 _symmetry_equiv_pos_site_id
 _symmetry_equiv_pos_as_xyz
  1  'x, y, z'
loop_
 _atom_site_type_symbol
 _atom_site_label
 _atom_site_symmetry_multiplicity
 _atom_site_fract_x
 _atom_site_fract_y
 _atom_site_fract_z
 _atom_site_occupancy
  Er  Er0  1  0.329426  0.669366  0.437071  1
  Er  Er1  1  0.663429  0.341101  0.564661  1
  Er  Er2  1  0.663429  0.341101  0.935339  1
  Er  Er3  1  0.329426  0.669366  0.062929  1
  Fe  Fe4  1  0.161534  0.327048  0.750000  1
  Cu  Cu5  1  0.346528  0.159233  0.250000  1
  Cu  Cu6  1  0.842063  0.651940  0.250000  1
  Ru  Ru7  1  0.174804  0.829327  0.750000  1
  Ru  Ru8  1  0.657635  0.833936  0.750000  1
  Ru  Ru9  1  0.993951  0.012093  0.001371  1
  Ru  Ru10  1  0.843826  0.153398  0.250000  1
  Ru  Ru11  1  0.993951  0.012093  0.498629  1
