# generated using pymatgen
data_La3Nd(NiB10)2
_symmetry_space_group_name_H-M   'P 1'
_cell_length_a   4.21796000
_cell_length_b   5.67693029
_cell_length_c   11.29310458
_cell_angle_alpha   89.96337620
_cell_angle_beta   90.00000000
_cell_angle_gamma   90.00000000
_symmetry_Int_Tables_number   1
_chemical_formula_structural   La3Nd(NiB10)2
_chemical_formula_sum   'La3 Nd1 Ni2 B20'
_cell_volume   270.41406661
_cell_formula_units_Z   1
loop_
 _symmetry_equiv_pos_site_id
 _symmetry_equiv_pos_as_xyz
  1  'x, y, z'
loop_
 _atom_site_type_symbol
 _atom_site_label
 _atom_site_symmetry_multiplicity
 _atom_site_fract_x
 _atom_site_fract_y
 _atom_site_fract_z
 _atom_site_occupancy
  La  La0  1  0.500000  0.308657  0.863324  1
  La  La1  1  0.500000  0.691016  0.137350  1
  La  La2  1  0.500000  0.809165  0.636033  1
  Nd  Nd3  1  0.500000  0.190861  0.363713  1
  Ni  Ni4  1  0.000000  0.499041  0.498927  1
  Ni  Ni5  1  0.000000  0.999360  0.000643  1
  B  B6  1  0.000000  0.126009  0.540973  1
  B  B7  1  0.000000  0.874684  0.458066  1
  B  B8  1  0.000000  0.625431  0.958350  1
  B  B9  1  0.000000  0.373760  0.042289  1
  B  B10  1  0.000000  0.155267  0.696553  1
  B  B11  1  0.000000  0.844085  0.302458  1
  B  B12  1  0.299551  0.201493  0.114610  1
  B  B13  1  0.299367  0.798332  0.886326  1
  B  B14  1  0.700222  0.703118  0.386493  1
  B  B15  1  0.700604  0.298902  0.613098  1
  B  B16  1  0.700633  0.798332  0.886326  1
  B  B17  1  0.700449  0.201493  0.114610  1
  B  B18  1  0.299396  0.298902  0.613098  1
  B  B19  1  0.299778  0.703118  0.386493  1
  B  B20  1  0.000000  0.036010  0.188400  1
  B  B21  1  0.000000  0.963361  0.811673  1
  B  B22  1  0.000000  0.536311  0.311869  1
  B  B23  1  0.000000  0.463458  0.687771  1
  B  B24  1  0.000000  0.344634  0.197934  1
  B  B25  1  0.000000  0.655200  0.802621  1
