# generated using pymatgen
data_Sc4TcB8Ru7W2
_symmetry_space_group_name_H-M   'P 1'
_cell_length_a   3.04764600
_cell_length_b   8.61351162
_cell_length_c   10.02040177
_cell_angle_alpha   90.18586856
_cell_angle_beta   90.00000000
_cell_angle_gamma   90.00000000
_symmetry_Int_Tables_number   1
_chemical_formula_structural   Sc4TcB8Ru7W2
_chemical_formula_sum   'Sc4 Tc1 B8 Ru7 W2'
_cell_volume   263.04352372
_cell_formula_units_Z   1
loop_
 _symmetry_equiv_pos_site_id
 _symmetry_equiv_pos_as_xyz
  1  'x, y, z'
loop_
 _atom_site_type_symbol
 _atom_site_label
 _atom_site_symmetry_multiplicity
 _atom_site_fract_x
 _atom_site_fract_y
 _atom_site_fract_z
 _atom_site_occupancy
  Sc  Sc0  1  0.500000  0.837839  0.179422  1
  Sc  Sc1  1  0.500000  0.156726  0.819483  1
  Sc  Sc2  1  0.500000  0.655915  0.683103  1
  Sc  Sc3  1  0.500000  0.339335  0.317835  1
  Tc  Tc4  1  0.000000  0.662461  0.950276  1
  B  B5  1  0.500000  0.967381  0.589608  1
  B  B6  1  0.500000  0.036859  0.413463  1
  B  B7  1  0.500000  0.851561  0.901057  1
  B  B8  1  0.500000  0.149519  0.100306  1
  B  B9  1  0.500000  0.649288  0.399091  1
  B  B10  1  0.500000  0.352430  0.599963  1
  B  B11  1  0.500000  0.469852  0.910589  1
  B  B12  1  0.500000  0.540705  0.084307  1
  Ru  Ru13  1  0.000000  0.163725  0.549716  1
  Ru  Ru14  1  0.000000  0.998567  0.000994  1
  Ru  Ru15  1  0.000000  0.402546  0.760358  1
  Ru  Ru16  1  0.000000  0.592289  0.238903  1
  Ru  Ru17  1  0.000000  0.496918  0.499630  1
  Ru  Ru18  1  0.000000  0.904410  0.738501  1
  Ru  Ru19  1  0.000000  0.092040  0.262721  1
  W  W20  1  0.000000  0.339479  0.046913  1
  W  W21  1  0.000000  0.840157  0.453763  1
