# generated using pymatgen
data_Eu2HoTm3Ta2O14
_symmetry_space_group_name_H-M   'P 1'
_cell_length_a   6.43696488
_cell_length_b   6.43112436
_cell_length_c   7.51260568
_cell_angle_alpha   89.96241011
_cell_angle_beta   90.04163417
_cell_angle_gamma   108.83811267
_symmetry_Int_Tables_number   1
_chemical_formula_structural   Eu2HoTm3Ta2O14
_chemical_formula_sum   'Eu2 Ho1 Tm3 Ta2 O14'
_cell_volume   294.33989461
_cell_formula_units_Z   1
loop_
 _symmetry_equiv_pos_site_id
 _symmetry_equiv_pos_as_xyz
  1  'x, y, z'
loop_
 _atom_site_type_symbol
 _atom_site_label
 _atom_site_symmetry_multiplicity
 _atom_site_fract_x
 _atom_site_fract_y
 _atom_site_fract_z
 _atom_site_occupancy
  Eu  Eu0  1  0.503806  0.504007  0.500547  1
  Eu  Eu1  1  0.496734  0.497030  0.999456  1
  Ho  Ho2  1  0.465771  0.999920  0.251602  1
  Tm  Tm3  1  0.999206  0.466979  0.748482  1
  Tm  Tm4  1  0.000742  0.532902  0.248501  1
  Tm  Tm5  1  0.533531  0.000603  0.751528  1
  Ta  Ta6  1  0.999937  0.999810  0.500569  1
  Ta  Ta7  1  0.000221  0.000063  0.999419  1
  O  O8  1  0.643406  0.357053  0.750217  1
  O  O9  1  0.356747  0.640003  0.249766  1
  O  O10  1  0.932184  0.068759  0.750059  1
  O  O11  1  0.066926  0.931796  0.249932  1
  O  O12  1  0.931608  0.676611  0.532379  1
  O  O13  1  0.068619  0.322909  0.032326  1
  O  O14  1  0.322781  0.069430  0.966235  1
  O  O15  1  0.676734  0.929791  0.469794  1
  O  O16  1  0.363513  0.636151  0.749697  1
  O  O17  1  0.637878  0.367477  0.250247  1
  O  O18  1  0.936255  0.680121  0.963701  1
  O  O19  1  0.063884  0.319413  0.463824  1
  O  O20  1  0.319291  0.064661  0.537577  1
  O  O21  1  0.680226  0.934512  0.034140  1
