# generated using pymatgen
data_La3PrTmRu2
_symmetry_space_group_name_H-M   'P 1'
_cell_length_a   6.64593555
_cell_length_b   7.24350284
_cell_length_c   9.02265411
_cell_angle_alpha   94.97534803
_cell_angle_beta   111.61029979
_cell_angle_gamma   90.00000175
_symmetry_Int_Tables_number   1
_chemical_formula_structural   La3PrTmRu2
_chemical_formula_sum   'La6 Pr2 Tm2 Ru4'
_cell_volume   402.05812499
_cell_formula_units_Z   2
loop_
 _symmetry_equiv_pos_site_id
 _symmetry_equiv_pos_as_xyz
  1  'x, y, z'
loop_
 _atom_site_type_symbol
 _atom_site_label
 _atom_site_symmetry_multiplicity
 _atom_site_fract_x
 _atom_site_fract_y
 _atom_site_fract_z
 _atom_site_occupancy
  La  La0  1  0.794631  0.092201  0.817117  1
  La  La1  1  0.977514  0.407799  0.182883  1
  La  La2  1  0.204674  0.907294  0.182906  1
  La  La3  1  0.021768  0.592706  0.817094  1
  La  La4  1  0.210936  0.183692  0.577341  1
  La  La5  1  0.633594  0.316308  0.422659  1
  Pr  Pr6  1  0.792278  0.813220  0.427608  1
  Pr  Pr7  1  0.364670  0.686780  0.572392  1
  Tm  Tm8  1  0.432624  0.250000  0.000000  1
  Tm  Tm9  1  0.568353  0.750000  0.000000  1
  Ru  Ru10  1  0.604648  0.417862  0.787824  1
  Ru  Ru11  1  0.816823  0.082138  0.212176  1
  Ru  Ru12  1  0.394989  0.574728  0.212494  1
  Ru  Ru13  1  0.182496  0.925272  0.787506  1
