# generated using pymatgen
data_Nb12ZnGa8Os3N4
_symmetry_space_group_name_H-M   'P 1'
_cell_length_a   8.28223783
_cell_length_b   8.33327646
_cell_length_c   8.33327800
_cell_angle_alpha   60.00000181
_cell_angle_beta   59.79594040
_cell_angle_gamma   59.79593996
_symmetry_Int_Tables_number   1
_chemical_formula_structural   Nb12ZnGa8Os3N4
_chemical_formula_sum   'Nb12 Zn1 Ga8 Os3 N4'
_cell_volume   405.43191713
_cell_formula_units_Z   1
loop_
 _symmetry_equiv_pos_site_id
 _symmetry_equiv_pos_as_xyz
  1  'x, y, z'
loop_
 _atom_site_type_symbol
 _atom_site_label
 _atom_site_symmetry_multiplicity
 _atom_site_fract_x
 _atom_site_fract_y
 _atom_site_fract_z
 _atom_site_occupancy
  Nb  Nb0  1  0.438729  0.439322  0.060975  1
  Nb  Nb1  1  0.058206  0.442566  0.056661  1
  Nb  Nb2  1  0.438729  0.060975  0.060975  1
  Nb  Nb3  1  0.058206  0.056661  0.442566  1
  Nb  Nb4  1  0.438729  0.060975  0.439322  1
  Nb  Nb5  1  0.058206  0.442566  0.442566  1
  Nb  Nb6  1  0.811271  0.810678  0.189025  1
  Nb  Nb7  1  0.191794  0.807434  0.193339  1
  Nb  Nb8  1  0.811271  0.189025  0.189025  1
  Nb  Nb9  1  0.191794  0.193339  0.807434  1
  Nb  Nb10  1  0.811271  0.189025  0.810678  1
  Nb  Nb11  1  0.191794  0.807434  0.807434  1
  Zn  Zn12  1  0.125000  0.625000  0.625000  1
  Ga  Ga13  1  0.834974  0.837900  0.489227  1
  Ga  Ga14  1  0.834974  0.489227  0.837900  1
  Ga  Ga15  1  0.489037  0.836988  0.836988  1
  Ga  Ga16  1  0.834974  0.837900  0.837900  1
  Ga  Ga17  1  0.415026  0.412100  0.760773  1
  Ga  Ga18  1  0.415026  0.760773  0.412100  1
  Ga  Ga19  1  0.760963  0.413012  0.413012  1
  Ga  Ga20  1  0.415026  0.412100  0.412100  1
  Os  Os21  1  0.625000  0.625000  0.125000  1
  Os  Os22  1  0.625000  0.125000  0.625000  1
  Os  Os23  1  0.625000  0.625000  0.625000  1
  N  N24  1  0.125000  0.125000  0.625000  1
  N  N25  1  0.125000  0.625000  0.125000  1
  N  N26  1  0.625000  0.125000  0.125000  1
  N  N27  1  0.125000  0.125000  0.125000  1
