# generated using pymatgen
data_Al3SiTc3Ge2
_symmetry_space_group_name_H-M   'P 1'
_cell_length_a   4.68815945
_cell_length_b   4.68815998
_cell_length_c   6.69871490
_cell_angle_alpha   90.16097386
_cell_angle_beta   90.16096874
_cell_angle_gamma   120.02017755
_symmetry_Int_Tables_number   1
_chemical_formula_structural   Al3SiTc3Ge2
_chemical_formula_sum   'Al3 Si1 Tc3 Ge2'
_cell_volume   127.47696797
_cell_formula_units_Z   1
loop_
 _symmetry_equiv_pos_site_id
 _symmetry_equiv_pos_as_xyz
  1  'x, y, z'
loop_
 _atom_site_type_symbol
 _atom_site_label
 _atom_site_symmetry_multiplicity
 _atom_site_fract_x
 _atom_site_fract_y
 _atom_site_fract_z
 _atom_site_occupancy
  Al  Al0  1  0.331663  0.163221  0.169701  1
  Al  Al1  1  0.836779  0.668337  0.830299  1
  Al  Al2  1  0.833177  0.166823  0.500000  1
  Si  Si3  1  0.167661  0.832339  0.500000  1
  Tc  Tc4  1  0.999056  0.503039  0.169660  1
  Tc  Tc5  1  0.496961  0.000944  0.830340  1
  Tc  Tc6  1  0.501057  0.498943  0.500000  1
  Ge  Ge7  1  0.667466  0.833435  0.166555  1
  Ge  Ge8  1  0.166565  0.332534  0.833445  1
