# generated using pymatgen
data_Sr20InHg2Au9
_symmetry_space_group_name_H-M   'P 1'
_cell_length_a   8.51856300
_cell_length_b   8.51856300
_cell_length_c   15.60467200
_cell_angle_alpha   90.00000000
_cell_angle_beta   90.00000000
_cell_angle_gamma   90.00000000
_symmetry_Int_Tables_number   1
_chemical_formula_structural   Sr20InHg2Au9
_chemical_formula_sum   'Sr20 In1 Hg2 Au9'
_cell_volume   1132.36731108
_cell_formula_units_Z   1
loop_
 _symmetry_equiv_pos_site_id
 _symmetry_equiv_pos_as_xyz
  1  'x, y, z'
loop_
 _atom_site_type_symbol
 _atom_site_label
 _atom_site_symmetry_multiplicity
 _atom_site_fract_x
 _atom_site_fract_y
 _atom_site_fract_z
 _atom_site_occupancy
  Sr  Sr0  1  0.000000  0.000000  0.756541  1
  Sr  Sr1  1  0.500000  0.500000  0.251182  1
  Sr  Sr2  1  0.000000  0.000000  0.243459  1
  Sr  Sr3  1  0.500000  0.500000  0.748818  1
  Sr  Sr4  1  0.174104  0.659336  0.107133  1
  Sr  Sr5  1  0.666131  0.165863  0.610880  1
  Sr  Sr6  1  0.825896  0.340664  0.107133  1
  Sr  Sr7  1  0.333869  0.834137  0.610880  1
  Sr  Sr8  1  0.340664  0.174104  0.107133  1
  Sr  Sr9  1  0.834137  0.666131  0.610880  1
  Sr  Sr10  1  0.659336  0.825896  0.107133  1
  Sr  Sr11  1  0.165863  0.333869  0.610880  1
  Sr  Sr12  1  0.340664  0.825896  0.892867  1
  Sr  Sr13  1  0.834137  0.333869  0.389120  1
  Sr  Sr14  1  0.659336  0.174104  0.892867  1
  Sr  Sr15  1  0.165863  0.666131  0.389120  1
  Sr  Sr16  1  0.174104  0.340664  0.892867  1
  Sr  Sr17  1  0.666131  0.834137  0.389120  1
  Sr  Sr18  1  0.825896  0.659336  0.892867  1
  Sr  Sr19  1  0.333869  0.165863  0.389120  1
  In  In20  1  0.000000  0.000000  0.000000  1
  Hg  Hg21  1  0.000000  0.000000  0.500000  1
  Hg  Hg22  1  0.500000  0.500000  0.500000  1
  Au  Au23  1  0.627550  0.128621  0.248788  1
  Au  Au24  1  0.128621  0.627550  0.751212  1
  Au  Au25  1  0.871379  0.372450  0.751212  1
  Au  Au26  1  0.372450  0.871379  0.248788  1
  Au  Au27  1  0.372450  0.128621  0.751212  1
  Au  Au28  1  0.871379  0.627550  0.248788  1
  Au  Au29  1  0.128621  0.372450  0.248788  1
  Au  Au30  1  0.627550  0.871379  0.751212  1
  Au  Au31  1  0.500000  0.500000  0.000000  1
