# generated using pymatgen
data_Yb3(AsPd)4
_symmetry_space_group_name_H-M   'P 1'
_cell_length_a   8.12928204
_cell_length_b   8.12928184
_cell_length_c   8.12928144
_cell_angle_alpha   149.73939002
_cell_angle_beta   128.43616849
_cell_angle_gamma   60.96232592
_symmetry_Int_Tables_number   1
_chemical_formula_structural   Yb3(AsPd)4
_chemical_formula_sum   'Yb3 As4 Pd4'
_cell_volume   210.24366610
_cell_formula_units_Z   1
loop_
 _symmetry_equiv_pos_site_id
 _symmetry_equiv_pos_as_xyz
  1  'x, y, z'
loop_
 _atom_site_type_symbol
 _atom_site_label
 _atom_site_symmetry_multiplicity
 _atom_site_fract_x
 _atom_site_fract_y
 _atom_site_fract_z
 _atom_site_occupancy
  Yb  Yb0  1  0.000000  0.000000  0.000000  1
  Yb  Yb1  1  0.624704  0.124704  0.500000  1
  Yb  Yb2  1  0.375296  0.875296  0.500000  1
  As  As3  1  0.312169  0.500000  0.812169  1
  As  As4  1  0.687831  0.500000  0.187831  1
  As  As5  1  0.780384  0.780384  0.000000  1
  As  As6  1  0.219616  0.219616  0.000000  1
  Pd  Pd7  1  0.623501  0.324564  0.298937  1
  Pd  Pd8  1  0.974373  0.675436  0.298937  1
  Pd  Pd9  1  0.025627  0.324564  0.701063  1
  Pd  Pd10  1  0.376499  0.675436  0.701063  1
