# generated using pymatgen
data_Th2Al9TcPd2
_symmetry_space_group_name_H-M   'P 1'
_cell_length_a   7.74035738
_cell_length_b   7.74035655
_cell_length_c   9.59602900
_cell_angle_alpha   90.00000000
_cell_angle_beta   90.00000000
_cell_angle_gamma   119.04897456
_symmetry_Int_Tables_number   1
_chemical_formula_structural   Th2Al9TcPd2
_chemical_formula_sum   'Th4 Al18 Tc2 Pd4'
_cell_volume   502.60500756
_cell_formula_units_Z   2
loop_
 _symmetry_equiv_pos_site_id
 _symmetry_equiv_pos_as_xyz
  1  'x, y, z'
loop_
 _atom_site_type_symbol
 _atom_site_label
 _atom_site_symmetry_multiplicity
 _atom_site_fract_x
 _atom_site_fract_y
 _atom_site_fract_z
 _atom_site_occupancy
  Th  Th0  1  0.994361  0.678424  0.250000  1
  Th  Th1  1  0.005639  0.321576  0.750000  1
  Th  Th2  1  0.678424  0.994361  0.250000  1
  Th  Th3  1  0.321576  0.005639  0.750000  1
  Al  Al4  1  0.136504  0.136504  0.250000  1
  Al  Al5  1  0.863496  0.863496  0.750000  1
  Al  Al6  1  0.005579  0.334707  0.076387  1
  Al  Al7  1  0.994421  0.665293  0.923613  1
  Al  Al8  1  0.994421  0.665293  0.576387  1
  Al  Al9  1  0.334707  0.005579  0.423613  1
  Al  Al10  1  0.005579  0.334707  0.423613  1
  Al  Al11  1  0.665293  0.994421  0.576387  1
  Al  Al12  1  0.665293  0.994421  0.923613  1
  Al  Al13  1  0.334707  0.005579  0.076387  1
  Al  Al14  1  0.332648  0.332648  0.545848  1
  Al  Al15  1  0.667352  0.667352  0.454152  1
  Al  Al16  1  0.667352  0.667352  0.045848  1
  Al  Al17  1  0.332648  0.332648  0.954152  1
  Al  Al18  1  0.345455  0.549000  0.250000  1
  Al  Al19  1  0.654545  0.451000  0.750000  1
  Al  Al20  1  0.549000  0.345455  0.250000  1
  Al  Al21  1  0.451000  0.654545  0.750000  1
  Tc  Tc22  1  0.000000  0.000000  0.000000  1
  Tc  Tc23  1  0.000000  0.000000  0.500000  1
  Pd  Pd24  1  0.672273  0.327727  0.000000  1
  Pd  Pd25  1  0.327727  0.672273  0.000000  1
  Pd  Pd26  1  0.327727  0.672273  0.500000  1
  Pd  Pd27  1  0.672273  0.327727  0.500000  1
