# generated using pymatgen
data_Er3Tm7Ir3Os
_symmetry_space_group_name_H-M   'P 1'
_cell_length_a   6.40638180
_cell_length_b   7.19023116
_cell_length_c   8.31812639
_cell_angle_alpha   96.53362577
_cell_angle_beta   112.35105125
_cell_angle_gamma   89.93730989
_symmetry_Int_Tables_number   1
_chemical_formula_structural   Er3Tm7Ir3Os
_chemical_formula_sum   'Er3 Tm7 Ir3 Os1'
_cell_volume   351.70184428
_cell_formula_units_Z   1
loop_
 _symmetry_equiv_pos_site_id
 _symmetry_equiv_pos_as_xyz
  1  'x, y, z'
loop_
 _atom_site_type_symbol
 _atom_site_label
 _atom_site_symmetry_multiplicity
 _atom_site_fract_x
 _atom_site_fract_y
 _atom_site_fract_z
 _atom_site_occupancy
  Er  Er0  1  0.970738  0.917510  0.183499  1
  Er  Er1  1  0.789506  0.581866  0.821785  1
  Er  Er2  1  0.029307  0.082028  0.818467  1
  Tm  Tm3  1  0.211789  0.418474  0.183761  1
  Tm  Tm4  1  0.655395  0.817111  0.439662  1
  Tm  Tm5  1  0.210491  0.680958  0.556950  1
  Tm  Tm6  1  0.346592  0.181670  0.559133  1
  Tm  Tm7  1  0.786836  0.320035  0.439815  1
  Tm  Tm8  1  0.426722  0.749487  0.000335  1
  Tm  Tm9  1  0.574750  0.251195  0.000852  1
  Ir  Ir10  1  0.605611  0.926629  0.779588  1
  Ir  Ir11  1  0.174118  0.425201  0.781047  1
  Ir  Ir12  1  0.392281  0.074376  0.219166  1
  Os  Os13  1  0.825863  0.573461  0.215941  1
