# generated using pymatgen
data_Li4Sm2HoSn4
_symmetry_space_group_name_H-M   'P 1'
_cell_length_a   4.66179739
_cell_length_b   7.08177832
_cell_length_c   8.71988000
_cell_angle_alpha   113.95825182
_cell_angle_beta   105.50418139
_cell_angle_gamma   89.99999757
_symmetry_Int_Tables_number   1
_chemical_formula_structural   Li4Sm2HoSn4
_chemical_formula_sum   'Li4 Sm2 Ho1 Sn4'
_cell_volume   251.56726044
_cell_formula_units_Z   1
loop_
 _symmetry_equiv_pos_site_id
 _symmetry_equiv_pos_as_xyz
  1  'x, y, z'
loop_
 _atom_site_type_symbol
 _atom_site_label
 _atom_site_symmetry_multiplicity
 _atom_site_fract_x
 _atom_site_fract_y
 _atom_site_fract_z
 _atom_site_occupancy
  Li  Li0  1  0.326750  0.017191  0.653498  1
  Li  Li1  1  0.673250  0.982809  0.346502  1
  Li  Li2  1  0.326750  0.636307  0.653498  1
  Li  Li3  1  0.673250  0.363693  0.346502  1
  Sm  Sm4  1  0.871249  0.371249  0.742496  1
  Sm  Sm5  1  0.128751  0.628751  0.257504  1
  Ho  Ho6  1  0.000000  0.000000  0.000000  1
  Sn  Sn7  1  0.211916  0.211916  0.423830  1
  Sn  Sn8  1  0.788084  0.788084  0.576170  1
  Sn  Sn9  1  0.500000  0.296459  0.000000  1
  Sn  Sn10  1  0.500000  0.703541  0.000000  1
