# generated using pymatgen
data_YNp5(Ni3P2)6
_symmetry_space_group_name_H-M   'P 1'
_cell_length_a   3.74926716
_cell_length_b   10.42576100
_cell_length_c   12.28703100
_cell_angle_alpha   89.99855466
_cell_angle_beta   90.01655026
_cell_angle_gamma   89.99984654
_symmetry_Int_Tables_number   1
_chemical_formula_structural   YNp5(Ni3P2)6
_chemical_formula_sum   'Y1 Np5 Ni18 P12'
_cell_volume   480.28728376
_cell_formula_units_Z   1
loop_
 _symmetry_equiv_pos_site_id
 _symmetry_equiv_pos_as_xyz
  1  'x, y, z'
loop_
 _atom_site_type_symbol
 _atom_site_label
 _atom_site_symmetry_multiplicity
 _atom_site_fract_x
 _atom_site_fract_y
 _atom_site_fract_z
 _atom_site_occupancy
  Y  Y0  1  0.251809  0.499602  0.520369  1
  Np  Np1  1  0.751786  0.000258  0.478469  1
  Np  Np2  1  0.251827  0.683958  0.794020  1
  Np  Np3  1  0.251838  0.316332  0.794127  1
  Np  Np4  1  0.751735  0.815777  0.205975  1
  Np  Np5  1  0.751764  0.184364  0.206366  1
  Ni  Ni6  1  0.751810  0.999793  0.013829  1
  Ni  Ni7  1  0.252001  0.500211  0.986207  1
  Ni  Ni8  1  0.251683  0.199722  0.571239  1
  Ni  Ni9  1  0.251847  0.800811  0.571588  1
  Ni  Ni10  1  0.751895  0.302631  0.429053  1
  Ni  Ni11  1  0.751961  0.696422  0.429002  1
  Ni  Ni12  1  0.251586  0.620032  0.292479  1
  Ni  Ni13  1  0.251706  0.380058  0.292319  1
  Ni  Ni14  1  0.752004  0.879895  0.706971  1
  Ni  Ni15  1  0.752081  0.120228  0.708036  1
  Ni  Ni16  1  0.251929  0.168262  0.002708  1
  Ni  Ni17  1  0.251885  0.832056  0.002323  1
  Ni  Ni18  1  0.752009  0.331661  0.997163  1
  Ni  Ni19  1  0.751893  0.668700  0.997374  1
  Ni  Ni20  1  0.252098  0.000244  0.840843  1
  Ni  Ni21  1  0.751165  0.500185  0.158401  1
  Ni  Ni22  1  0.251770  0.998792  0.298851  1
  Ni  Ni23  1  0.751923  0.500018  0.701847  1
  P  P24  1  0.251819  0.187613  0.386368  1
  P  P25  1  0.251879  0.811882  0.386584  1
  P  P26  1  0.751728  0.312487  0.614281  1
  P  P27  1  0.751837  0.687198  0.613952  1
  P  P28  1  0.251714  0.000124  0.120339  1
  P  P29  1  0.751801  0.500037  0.879983  1
  P  P30  1  0.251701  0.653547  0.109141  1
  P  P31  1  0.251810  0.347007  0.109043  1
  P  P32  1  0.751833  0.846821  0.890586  1
  P  P33  1  0.751831  0.153235  0.890989  1
  P  P34  1  0.251949  0.000430  0.656649  1
  P  P35  1  0.751699  0.499607  0.342526  1
