# generated using pymatgen
data_Cs2In(GaSe2)5
_symmetry_space_group_name_H-M   'P 1'
_cell_length_a   13.75546700
_cell_length_b   7.76489715
_cell_length_c   11.27939863
_cell_angle_alpha   77.08497493
_cell_angle_beta   90.00000000
_cell_angle_gamma   90.00000000
_symmetry_Int_Tables_number   1
_chemical_formula_structural   Cs2In(GaSe2)5
_chemical_formula_sum   'Cs4 In2 Ga10 Se20'
_cell_volume   1174.27313203
_cell_formula_units_Z   2
loop_
 _symmetry_equiv_pos_site_id
 _symmetry_equiv_pos_as_xyz
  1  'x, y, z'
loop_
 _atom_site_type_symbol
 _atom_site_label
 _atom_site_symmetry_multiplicity
 _atom_site_fract_x
 _atom_site_fract_y
 _atom_site_fract_z
 _atom_site_occupancy
  Cs  Cs0  1  0.612191  0.835263  0.400019  1
  Cs  Cs1  1  0.113247  0.165900  0.100340  1
  Cs  Cs2  1  0.386753  0.165900  0.600340  1
  Cs  Cs3  1  0.887809  0.835263  0.900019  1
  In  In4  1  0.920238  0.799619  0.403439  1
  In  In5  1  0.579762  0.799619  0.903439  1
  Ga  Ga6  1  0.422268  0.204429  0.096895  1
  Ga  Ga7  1  0.396996  0.557815  0.807106  1
  Ga  Ga8  1  0.103004  0.557815  0.307106  1
  Ga  Ga9  1  0.337000  0.709069  0.124165  1
  Ga  Ga10  1  0.602978  0.436386  0.196557  1
  Ga  Ga11  1  0.077732  0.204429  0.596895  1
  Ga  Ga12  1  0.663177  0.292785  0.875128  1
  Ga  Ga13  1  0.897022  0.436386  0.696557  1
  Ga  Ga14  1  0.163000  0.709069  0.624165  1
  Ga  Ga15  1  0.836823  0.292785  0.375128  1
  Se  Se16  1  0.825897  0.712777  0.603436  1
  Se  Se17  1  0.113600  0.809893  0.409126  1
  Se  Se18  1  0.674103  0.712777  0.103436  1
  Se  Se19  1  0.386400  0.809893  0.909126  1
  Se  Se20  1  0.332876  0.280123  0.911108  1
  Se  Se21  1  0.664611  0.344093  0.401924  1
  Se  Se22  1  0.576813  0.562516  0.762693  1
  Se  Se23  1  0.603508  0.190129  0.087663  1
  Se  Se24  1  0.896492  0.190129  0.587663  1
  Se  Se25  1  0.638577  0.079699  0.751977  1
  Se  Se26  1  0.365738  0.938287  0.236216  1
  Se  Se27  1  0.167124  0.280123  0.411108  1
  Se  Se28  1  0.078610  0.428811  0.729910  1
  Se  Se29  1  0.923187  0.562516  0.262693  1
  Se  Se30  1  0.861423  0.079699  0.251977  1
  Se  Se31  1  0.134262  0.938287  0.736216  1
  Se  Se32  1  0.835389  0.344093  0.901924  1
  Se  Se33  1  0.334978  0.652407  0.602298  1
  Se  Se34  1  0.421390  0.428811  0.229910  1
  Se  Se35  1  0.165022  0.652407  0.102298  1
