# generated using pymatgen
data_Na12Li8Hf(SiAs4)3
_symmetry_space_group_name_H-M   'P 1'
_cell_length_a   9.57277398
_cell_length_b   9.57277427
_cell_length_c   13.92043293
_cell_angle_alpha   90.02858125
_cell_angle_beta   90.02858129
_cell_angle_gamma   143.25024117
_symmetry_Int_Tables_number   1
_chemical_formula_structural   Na12Li8Hf(SiAs4)3
_chemical_formula_sum   'Na12 Li8 Hf1 Si3 As12'
_cell_volume   763.24195156
_cell_formula_units_Z   1
loop_
 _symmetry_equiv_pos_site_id
 _symmetry_equiv_pos_as_xyz
  1  'x, y, z'
loop_
 _atom_site_type_symbol
 _atom_site_label
 _atom_site_symmetry_multiplicity
 _atom_site_fract_x
 _atom_site_fract_y
 _atom_site_fract_z
 _atom_site_occupancy
  Na  Na0  1  0.596269  0.933329  0.822964  1
  Na  Na1  1  0.267085  0.268005  0.324328  1
  Na  Na2  1  0.228481  0.232146  0.818545  1
  Na  Na3  1  0.731995  0.732915  0.675672  1
  Na  Na4  1  0.434158  0.094524  0.671744  1
  Na  Na5  1  0.905476  0.565842  0.328256  1
  Na  Na6  1  0.066671  0.403731  0.177036  1
  Na  Na7  1  0.402946  0.059548  0.180529  1
  Na  Na8  1  0.564437  0.902169  0.325262  1
  Na  Na9  1  0.097831  0.435563  0.674738  1
  Na  Na10  1  0.940452  0.597054  0.819471  1
  Na  Na11  1  0.767854  0.771519  0.181455  1
  Li  Li12  1  0.082094  0.917906  0.000000  1
  Li  Li13  1  0.581473  0.418527  0.500000  1
  Li  Li14  1  0.915062  0.084938  0.000000  1
  Li  Li15  1  0.756709  0.243291  0.000000  1
  Li  Li16  1  0.746184  0.253816  0.500000  1
  Li  Li17  1  0.247183  0.752817  0.000000  1
  Li  Li18  1  0.254306  0.745694  0.500000  1
  Li  Li19  1  0.418184  0.581816  0.500000  1
  Hf  Hf20  1  0.584741  0.415259  0.000000  1
  Si  Si21  1  0.089011  0.910989  0.500000  1
  Si  Si22  1  0.411677  0.588323  0.000000  1
  Si  Si23  1  0.910533  0.089467  0.500000  1
  As  As24  1  0.065557  0.386794  0.394288  1
  As  As25  1  0.901419  0.572306  0.112429  1
  As  As26  1  0.427694  0.098581  0.887571  1
  As  As27  1  0.613206  0.934443  0.605712  1
  As  As28  1  0.932333  0.611527  0.604760  1
  As  As29  1  0.114103  0.432689  0.893201  1
  As  As30  1  0.567311  0.885897  0.106799  1
  As  As31  1  0.388473  0.067667  0.395240  1
  As  As32  1  0.210423  0.210616  0.596224  1
  As  As33  1  0.724047  0.734763  0.896672  1
  As  As34  1  0.265237  0.275953  0.103328  1
  As  As35  1  0.789384  0.789577  0.403776  1
