# generated using pymatgen
data_SmDy3(MoN3)4
_symmetry_space_group_name_H-M   'P 1'
_cell_length_a   7.33450302
_cell_length_b   7.33450214
_cell_length_c   6.27391600
_cell_angle_alpha   73.71956978
_cell_angle_beta   73.71955550
_cell_angle_gamma   81.72857533
_symmetry_Int_Tables_number   1
_chemical_formula_structural   SmDy3(MoN3)4
_chemical_formula_sum   'Sm1 Dy3 Mo4 N12'
_cell_volume   310.19909174
_cell_formula_units_Z   1
loop_
 _symmetry_equiv_pos_site_id
 _symmetry_equiv_pos_as_xyz
  1  'x, y, z'
loop_
 _atom_site_type_symbol
 _atom_site_label
 _atom_site_symmetry_multiplicity
 _atom_site_fract_x
 _atom_site_fract_y
 _atom_site_fract_z
 _atom_site_occupancy
  Sm  Sm0  1  0.298560  0.701440  0.750000  1
  Dy  Dy1  1  0.910829  0.089171  0.750000  1
  Dy  Dy2  1  0.704005  0.295995  0.250000  1
  Dy  Dy3  1  0.085993  0.914007  0.250000  1
  Mo  Mo4  1  0.801712  0.619217  0.766762  1
  Mo  Mo5  1  0.198681  0.379691  0.235510  1
  Mo  Mo6  1  0.620309  0.801319  0.264490  1
  Mo  Mo7  1  0.380783  0.198288  0.733238  1
  N  N8  1  0.216373  0.001983  0.848657  1
  N  N9  1  0.362873  0.352081  0.441927  1
  N  N10  1  0.642364  0.648173  0.554505  1
  N  N11  1  0.623115  0.108181  0.660142  1
  N  N12  1  0.998017  0.783627  0.651343  1
  N  N13  1  0.779493  0.002984  0.151972  1
  N  N14  1  0.110907  0.622592  0.165087  1
  N  N15  1  0.891819  0.376885  0.839858  1
  N  N16  1  0.997016  0.220507  0.348028  1
  N  N17  1  0.351827  0.357636  0.945495  1
  N  N18  1  0.647919  0.637127  0.058073  1
  N  N19  1  0.377408  0.889093  0.334913  1
