# generated using pymatgen
data_LiPdCl5
_symmetry_space_group_name_H-M   'P 1'
_cell_length_a   6.38628827
_cell_length_b   9.40400091
_cell_length_c   12.76657970
_cell_angle_alpha   86.97532511
_cell_angle_beta   81.06005720
_cell_angle_gamma   70.15044196
_symmetry_Int_Tables_number   1
_chemical_formula_structural   LiPdCl5
_chemical_formula_sum   'Li4 Pd4 Cl20'
_cell_volume   712.40456307
_cell_formula_units_Z   4
loop_
 _symmetry_equiv_pos_site_id
 _symmetry_equiv_pos_as_xyz
  1  'x, y, z'
loop_
 _atom_site_type_symbol
 _atom_site_label
 _atom_site_symmetry_multiplicity
 _atom_site_fract_x
 _atom_site_fract_y
 _atom_site_fract_z
 _atom_site_occupancy
  Li  Li0  1  0.952611  0.594780  0.250000  1
  Li  Li1  1  0.047389  0.405220  0.750000  1
  Li  Li2  1  0.337810  0.824381  0.250000  1
  Li  Li3  1  0.662190  0.175619  0.750000  1
  Pd  Pd4  1  0.545468  0.409063  0.250000  1
  Pd  Pd5  1  0.454532  0.590937  0.750000  1
  Pd  Pd6  1  0.745184  0.009631  0.250000  1
  Pd  Pd7  1  0.254816  0.990369  0.750000  1
  Cl  Cl8  1  0.241850  0.790806  0.645079  1
  Cl  Cl9  1  0.467344  0.790806  0.854921  1
  Cl  Cl10  1  0.758150  0.209194  0.354921  1
  Cl  Cl11  1  0.532656  0.209194  0.145079  1
  Cl  Cl12  1  0.126332  0.582577  0.859433  1
  Cl  Cl13  1  0.791091  0.582577  0.640567  1
  Cl  Cl14  1  0.873668  0.417423  0.140567  1
  Cl  Cl15  1  0.208909  0.417423  0.359433  1
  Cl  Cl16  1  0.917245  0.998116  0.857882  1
  Cl  Cl17  1  0.584640  0.998116  0.642118  1
  Cl  Cl18  1  0.082755  0.001884  0.142118  1
  Cl  Cl19  1  0.415360  0.001884  0.357882  1
  Cl  Cl20  1  0.426433  0.407409  0.643566  1
  Cl  Cl21  1  0.666158  0.407409  0.856434  1
  Cl  Cl22  1  0.573567  0.592591  0.356434  1
  Cl  Cl23  1  0.333842  0.592591  0.143566  1
  Cl  Cl24  1  0.044827  0.174013  0.642898  1
  Cl  Cl25  1  0.281161  0.174013  0.857102  1
  Cl  Cl26  1  0.955173  0.825987  0.357102  1
  Cl  Cl27  1  0.718839  0.825987  0.142898  1
