# generated using pymatgen
data_Tb4Sm2CoI10
_symmetry_space_group_name_H-M   'P 1'
_cell_length_a   7.76213711
_cell_length_b   9.76339321
_cell_length_c   9.72706811
_cell_angle_alpha   106.96046118
_cell_angle_beta   96.60749606
_cell_angle_gamma   104.92401960
_symmetry_Int_Tables_number   1
_chemical_formula_structural   Tb4Sm2CoI10
_chemical_formula_sum   'Tb4 Sm2 Co1 I10'
_cell_volume   666.73562035
_cell_formula_units_Z   1
loop_
 _symmetry_equiv_pos_site_id
 _symmetry_equiv_pos_as_xyz
  1  'x, y, z'
loop_
 _atom_site_type_symbol
 _atom_site_label
 _atom_site_symmetry_multiplicity
 _atom_site_fract_x
 _atom_site_fract_y
 _atom_site_fract_z
 _atom_site_occupancy
  Tb  Tb0  1  0.030583  0.717413  0.915424  1
  Tb  Tb1  1  0.969417  0.282587  0.084576  1
  Tb  Tb2  1  0.656273  0.877492  0.836466  1
  Tb  Tb3  1  0.343727  0.122508  0.163534  1
  Sm  Sm4  1  0.888802  0.959204  0.229779  1
  Sm  Sm5  1  0.111198  0.040796  0.770221  1
  Co  Co6  1  0.000000  0.000000  0.000000  1
  I  I7  1  0.648924  0.550248  0.728415  1
  I  I8  1  0.351076  0.449752  0.271585  1
  I  I9  1  0.738745  0.911567  0.540140  1
  I  I10  1  0.261255  0.088433  0.459860  1
  I  I11  1  0.085282  0.374015  0.820395  1
  I  I12  1  0.914718  0.625985  0.179605  1
  I  I13  1  0.452316  0.816015  0.092212  1
  I  I14  1  0.547684  0.183985  0.907788  1
  I  I15  1  0.222860  0.741457  0.655139  1
  I  I16  1  0.777140  0.258543  0.344861  1
