# generated using pymatgen
data_Ac10Nd9MgSn16
_symmetry_space_group_name_H-M   'P 1'
_cell_length_a   8.53030301
_cell_length_b   8.67284267
_cell_length_c   16.53704600
_cell_angle_alpha   89.71070698
_cell_angle_beta   90.00306283
_cell_angle_gamma   89.99049572
_symmetry_Int_Tables_number   1
_chemical_formula_structural   Ac10Nd9MgSn16
_chemical_formula_sum   'Ac10 Nd9 Mg1 Sn16'
_cell_volume   1223.42772597
_cell_formula_units_Z   1
loop_
 _symmetry_equiv_pos_site_id
 _symmetry_equiv_pos_as_xyz
  1  'x, y, z'
loop_
 _atom_site_type_symbol
 _atom_site_label
 _atom_site_symmetry_multiplicity
 _atom_site_fract_x
 _atom_site_fract_y
 _atom_site_fract_z
 _atom_site_occupancy
  Ac  Ac0  1  0.489430  0.821165  0.904773  1
  Ac  Ac1  1  0.988502  0.679912  0.595204  1
  Ac  Ac2  1  0.507177  0.175594  0.401069  1
  Ac  Ac3  1  0.012755  0.316237  0.099854  1
  Ac  Ac4  1  0.507108  0.179165  0.098920  1
  Ac  Ac5  1  0.011792  0.312058  0.399993  1
  Ac  Ac6  1  0.485984  0.818533  0.596017  1
  Ac  Ac7  1  0.986615  0.682000  0.904197  1
  Ac  Ac8  1  0.641484  0.339959  0.883757  1
  Ac  Ac9  1  0.141727  0.161656  0.615658  1
  Nd  Nd10  1  0.357648  0.666239  0.373697  1
  Nd  Nd11  1  0.867599  0.840336  0.126543  1
  Nd  Nd12  1  0.353989  0.665690  0.122241  1
  Nd  Nd13  1  0.862819  0.841130  0.377079  1
  Nd  Nd14  1  0.646091  0.337679  0.622193  1
  Nd  Nd15  1  0.144799  0.163513  0.877839  1
  Nd  Nd16  1  0.308579  0.500478  0.751813  1
  Nd  Nd17  1  0.808440  0.001880  0.748700  1
  Nd  Nd18  1  0.691341  0.500209  0.251295  1
  Mg  Mg19  1  0.195439  0.993967  0.250246  1
  Sn  Sn20  1  0.193802  0.958601  0.041507  1
  Sn  Sn21  1  0.692642  0.539344  0.455906  1
  Sn  Sn22  1  0.791586  0.039269  0.540475  1
  Sn  Sn23  1  0.291604  0.461838  0.958844  1
  Sn  Sn24  1  0.816622  0.036070  0.960987  1
  Sn  Sn25  1  0.317790  0.465783  0.539568  1
  Sn  Sn26  1  0.195498  0.950338  0.450435  1
  Sn  Sn27  1  0.696451  0.548726  0.051640  1
  Sn  Sn28  1  0.683502  0.643999  0.748461  1
  Sn  Sn29  1  0.183832  0.858137  0.751642  1
  Sn  Sn30  1  0.317606  0.367296  0.249646  1
  Sn  Sn31  1  0.805100  0.137861  0.250388  1
  Sn  Sn32  1  0.443413  0.121210  0.751765  1
  Sn  Sn33  1  0.944993  0.379075  0.748209  1
  Sn  Sn34  1  0.557888  0.876564  0.248683  1
  Sn  Sn35  1  0.058352  0.618488  0.250758  1
