# generated using pymatgen
data_ErTm4Zr5(Si5Ir2)4
_symmetry_space_group_name_H-M   'P 1'
_cell_length_a   12.49454800
_cell_length_b   12.49454800
_cell_length_c   4.16567400
_cell_angle_alpha   90.00000000
_cell_angle_beta   90.00000000
_cell_angle_gamma   90.00000000
_symmetry_Int_Tables_number   1
_chemical_formula_structural   ErTm4Zr5(Si5Ir2)4
_chemical_formula_sum   'Er1 Tm4 Zr5 Si20 Ir8'
_cell_volume   650.31890496
_cell_formula_units_Z   1
loop_
 _symmetry_equiv_pos_site_id
 _symmetry_equiv_pos_as_xyz
  1  'x, y, z'
loop_
 _atom_site_type_symbol
 _atom_site_label
 _atom_site_symmetry_multiplicity
 _atom_site_fract_x
 _atom_site_fract_y
 _atom_site_fract_z
 _atom_site_occupancy
  Er  Er0  1  0.000000  0.000000  0.000000  1
  Tm  Tm1  1  0.884258  0.384263  0.500000  1
  Tm  Tm2  1  0.115742  0.615737  0.500000  1
  Tm  Tm3  1  0.384263  0.115742  0.500000  1
  Tm  Tm4  1  0.615737  0.884258  0.500000  1
  Zr  Zr5  1  0.500000  0.500000  0.000000  1
  Zr  Zr6  1  0.674056  0.175366  0.500000  1
  Zr  Zr7  1  0.325944  0.824634  0.500000  1
  Zr  Zr8  1  0.175366  0.325944  0.500000  1
  Zr  Zr9  1  0.824634  0.674056  0.500000  1
  Si  Si10  1  0.565892  0.067106  0.000000  1
  Si  Si11  1  0.434108  0.932894  0.000000  1
  Si  Si12  1  0.067106  0.434108  0.000000  1
  Si  Si13  1  0.932894  0.565892  0.000000  1
  Si  Si14  1  0.665538  0.700251  0.000000  1
  Si  Si15  1  0.334462  0.299749  0.000000  1
  Si  Si16  1  0.164684  0.801154  0.000000  1
  Si  Si17  1  0.835316  0.198846  0.000000  1
  Si  Si18  1  0.299749  0.665538  0.000000  1
  Si  Si19  1  0.700251  0.334462  0.000000  1
  Si  Si20  1  0.198846  0.164684  0.000000  1
  Si  Si21  1  0.801154  0.835316  0.000000  1
  Si  Si22  1  0.652827  0.507616  0.500000  1
  Si  Si23  1  0.347173  0.492384  0.500000  1
  Si  Si24  1  0.156474  0.992864  0.500000  1
  Si  Si25  1  0.843526  0.007136  0.500000  1
  Si  Si26  1  0.492384  0.652827  0.500000  1
  Si  Si27  1  0.507616  0.347173  0.500000  1
  Si  Si28  1  0.007136  0.156474  0.500000  1
  Si  Si29  1  0.992864  0.843526  0.500000  1
  Ir  Ir30  1  0.743793  0.519863  0.000000  1
  Ir  Ir31  1  0.256207  0.480137  0.000000  1
  Ir  Ir32  1  0.246489  0.980124  0.000000  1
  Ir  Ir33  1  0.753511  0.019876  0.000000  1
  Ir  Ir34  1  0.480137  0.743793  0.000000  1
  Ir  Ir35  1  0.519863  0.256207  0.000000  1
  Ir  Ir36  1  0.019876  0.246489  0.000000  1
  Ir  Ir37  1  0.980124  0.753511  0.000000  1
