# generated using pymatgen
data_LuBe2Pt3
_symmetry_space_group_name_H-M   'P 1'
_cell_length_a   5.42431100
_cell_length_b   5.42431151
_cell_length_c   3.50298700
_cell_angle_alpha   90.00000000
_cell_angle_beta   90.00000000
_cell_angle_gamma   119.99999080
_symmetry_Int_Tables_number   1
_chemical_formula_structural   LuBe2Pt3
_chemical_formula_sum   'Lu1 Be2 Pt3'
_cell_volume   89.26031220
_cell_formula_units_Z   1
loop_
 _symmetry_equiv_pos_site_id
 _symmetry_equiv_pos_as_xyz
  1  'x, y, z'
loop_
 _atom_site_type_symbol
 _atom_site_label
 _atom_site_symmetry_multiplicity
 _atom_site_fract_x
 _atom_site_fract_y
 _atom_site_fract_z
 _atom_site_occupancy
  Lu  Lu0  1  0.000000  0.000000  0.000000  1
  Be  Be1  1  0.666667  0.333333  0.000000  1
  Be  Be2  1  0.333333  0.666667  0.000000  1
  Pt  Pt3  1  0.500000  0.500000  0.500000  1
  Pt  Pt4  1  0.500000  0.000000  0.500000  1
  Pt  Pt5  1  0.000000  0.500000  0.500000  1
