# generated using pymatgen
data_Y3Lu9Co5Hg
_symmetry_space_group_name_H-M   'P 1'
_cell_length_a   8.13354512
_cell_length_b   8.13067991
_cell_length_c   8.13067900
_cell_angle_alpha   106.66178770
_cell_angle_beta   111.03222384
_cell_angle_gamma   110.74038118
_symmetry_Int_Tables_number   1
_chemical_formula_structural   Y3Lu9Co5Hg
_chemical_formula_sum   'Y3 Lu9 Co5 Hg1'
_cell_volume   413.25158442
_cell_formula_units_Z   1
loop_
 _symmetry_equiv_pos_site_id
 _symmetry_equiv_pos_as_xyz
  1  'x, y, z'
loop_
 _atom_site_type_symbol
 _atom_site_label
 _atom_site_symmetry_multiplicity
 _atom_site_fract_x
 _atom_site_fract_y
 _atom_site_fract_z
 _atom_site_occupancy
  Y  Y0  1  0.476585  0.288014  0.188570  1
  Y  Y1  1  0.099860  0.288214  0.811646  1
  Y  Y2  1  0.900204  0.713271  0.186933  1
  Lu  Lu3  1  0.526255  0.713009  0.813248  1
  Lu  Lu4  1  0.306984  0.620760  0.316146  1
  Lu  Lu5  1  0.306984  0.990839  0.686226  1
  Lu  Lu6  1  0.693228  0.379855  0.685676  1
  Lu  Lu7  1  0.693228  0.007550  0.313372  1
  Lu  Lu8  1  0.193277  0.215934  0.407566  1
  Lu  Lu9  1  0.807813  0.786102  0.596123  1
  Lu  Lu10  1  0.193277  0.785711  0.977341  1
  Lu  Lu11  1  0.807813  0.211690  0.021713  1
  Co  Co12  1  0.498624  0.615711  0.111520  1
  Co  Co13  1  0.498624  0.387104  0.882913  1
  Co  Co14  1  0.376346  0.000002  0.376343  1
  Co  Co15  1  0.622746  0.998468  0.624277  1
  Co  Co16  1  0.998559  0.997899  0.000660  1
  Hg  Hg17  1  0.999593  0.499864  0.499728  1
