# generated using pymatgen
data_Tb3Y3Co2(P3Rh4)4
_symmetry_space_group_name_H-M   'P 1'
_cell_length_a   3.85776000
_cell_length_b   11.16622645
_cell_length_c   12.79760651
_cell_angle_alpha   89.96764950
_cell_angle_beta   90.00000000
_cell_angle_gamma   90.00000000
_symmetry_Int_Tables_number   1
_chemical_formula_structural   Tb3Y3Co2(P3Rh4)4
_chemical_formula_sum   'Tb3 Y3 Co2 P12 Rh16'
_cell_volume   551.27756681
_cell_formula_units_Z   1
loop_
 _symmetry_equiv_pos_site_id
 _symmetry_equiv_pos_as_xyz
  1  'x, y, z'
loop_
 _atom_site_type_symbol
 _atom_site_label
 _atom_site_symmetry_multiplicity
 _atom_site_fract_x
 _atom_site_fract_y
 _atom_site_fract_z
 _atom_site_occupancy
  Tb  Tb0  1  0.000000  0.499932  0.521513  1
  Tb  Tb1  1  0.500000  0.000026  0.478344  1
  Tb  Tb2  1  0.000000  0.315458  0.798350  1
  Y  Y3  1  0.500000  0.815282  0.201577  1
  Y  Y4  1  0.500000  0.184563  0.201595  1
  Y  Y5  1  0.000000  0.684590  0.798486  1
  Co  Co6  1  0.000000  0.500033  0.980401  1
  Co  Co7  1  0.500000  0.999944  0.019991  1
  P  P8  1  0.500000  0.500006  0.881799  1
  P  P9  1  0.000000  0.999895  0.118309  1
  P  P10  1  0.500000  0.499944  0.350417  1
  P  P11  1  0.000000  0.000037  0.649397  1
  P  P12  1  0.500000  0.315457  0.619193  1
  P  P13  1  0.500000  0.684621  0.619373  1
  P  P14  1  0.000000  0.184395  0.380647  1
  P  P15  1  0.000000  0.815540  0.380642  1
  P  P16  1  0.500000  0.853387  0.895714  1
  P  P17  1  0.500000  0.146537  0.895816  1
  P  P18  1  0.000000  0.646790  0.104271  1
  P  P19  1  0.000000  0.353187  0.104265  1
  Rh  Rh20  1  0.500000  0.499838  0.167390  1
  Rh  Rh21  1  0.000000  0.000533  0.832244  1
  Rh  Rh22  1  0.500000  0.500079  0.703161  1
  Rh  Rh23  1  0.000000  0.999965  0.296859  1
  Rh  Rh24  1  0.500000  0.336718  0.994066  1
  Rh  Rh25  1  0.500000  0.663302  0.994005  1
  Rh  Rh26  1  0.000000  0.163368  0.006086  1
  Rh  Rh27  1  0.000000  0.836616  0.005849  1
  Rh  Rh28  1  0.500000  0.293574  0.430381  1
  Rh  Rh29  1  0.500000  0.706564  0.430384  1
  Rh  Rh30  1  0.000000  0.206031  0.569633  1
  Rh  Rh31  1  0.000000  0.793877  0.569757  1
  Rh  Rh32  1  0.500000  0.873552  0.712216  1
  Rh  Rh33  1  0.500000  0.126561  0.712023  1
  Rh  Rh34  1  0.000000  0.626636  0.287929  1
  Rh  Rh35  1  0.000000  0.373161  0.287915  1
