# generated using pymatgen
data_NaS8Cl3
_symmetry_space_group_name_H-M   'P 1'
_cell_length_a   7.85830442
_cell_length_b   10.21156939
_cell_length_c   11.43377724
_cell_angle_alpha   108.48153855
_cell_angle_beta   85.32317952
_cell_angle_gamma   111.93162918
_symmetry_Int_Tables_number   1
_chemical_formula_structural   NaS8Cl3
_chemical_formula_sum   'Na2 S16 Cl6'
_cell_volume   806.50628777
_cell_formula_units_Z   2
loop_
 _symmetry_equiv_pos_site_id
 _symmetry_equiv_pos_as_xyz
  1  'x, y, z'
loop_
 _atom_site_type_symbol
 _atom_site_label
 _atom_site_symmetry_multiplicity
 _atom_site_fract_x
 _atom_site_fract_y
 _atom_site_fract_z
 _atom_site_occupancy
  Na  Na0  1  0.880107  0.063960  0.899658  1
  Na  Na1  1  0.119893  0.936040  0.100342  1
  S  S2  1  0.785303  0.527672  0.803415  1
  S  S3  1  0.214697  0.472328  0.196585  1
  S  S4  1  0.743631  0.424976  0.615226  1
  S  S5  1  0.256369  0.575024  0.384774  1
  S  S6  1  0.735542  0.211313  0.576116  1
  S  S7  1  0.264458  0.788687  0.423884  1
  S  S8  1  0.987293  0.206092  0.514735  1
  S  S9  1  0.012707  0.793908  0.485265  1
  S  S10  1  0.939035  0.343378  0.160618  1
  S  S11  1  0.060965  0.656622  0.839382  1
  S  S12  1  0.804303  0.459609  0.111542  1
  S  S13  1  0.195697  0.540391  0.888458  1
  S  S14  1  0.686812  0.556687  0.265263  1
  S  S15  1  0.313188  0.443313  0.734737  1
  S  S16  1  0.855579  0.776002  0.340179  1
  S  S17  1  0.144421  0.223998  0.659821  1
  Cl  Cl18  1  0.444893  0.988259  0.815966  1
  Cl  Cl19  1  0.555107  0.011741  0.184034  1
  Cl  Cl20  1  0.765305  0.901767  0.059023  1
  Cl  Cl21  1  0.234695  0.098233  0.940977  1
  Cl  Cl22  1  0.634476  0.888661  0.706644  1
  Cl  Cl23  1  0.365524  0.111339  0.293356  1
