# generated using pymatgen
data_Dy5Tc6P12Ir12Pt
_symmetry_space_group_name_H-M   'P 1'
_cell_length_a   12.66660437
_cell_length_b   12.66169303
_cell_length_c   3.98400700
_cell_angle_alpha   90.00000000
_cell_angle_beta   90.00000000
_cell_angle_gamma   119.71974219
_symmetry_Int_Tables_number   1
_chemical_formula_structural   Dy5Tc6P12Ir12Pt
_chemical_formula_sum   'Dy5 Tc6 P12 Ir12 Pt1'
_cell_volume   554.90964301
_cell_formula_units_Z   1
loop_
 _symmetry_equiv_pos_site_id
 _symmetry_equiv_pos_as_xyz
  1  'x, y, z'
loop_
 _atom_site_type_symbol
 _atom_site_label
 _atom_site_symmetry_multiplicity
 _atom_site_fract_x
 _atom_site_fract_y
 _atom_site_fract_z
 _atom_site_occupancy
  Dy  Dy0  1  0.331806  0.664481  0.500000  1
  Dy  Dy1  1  0.666708  0.333840  0.500000  1
  Dy  Dy2  1  0.000515  0.812507  0.000000  1
  Dy  Dy3  1  0.188210  0.188475  0.000000  1
  Dy  Dy4  1  0.812548  0.999734  0.000000  1
  Tc  Tc5  1  0.990447  0.446723  0.500000  1
  Tc  Tc6  1  0.553355  0.543683  0.500000  1
  Tc  Tc7  1  0.457879  0.009792  0.500000  1
  Tc  Tc8  1  0.618646  0.799211  0.500000  1
  Tc  Tc9  1  0.200784  0.821409  0.500000  1
  Tc  Tc10  1  0.178740  0.379592  0.500000  1
  P  P11  1  0.006594  0.638941  0.500000  1
  P  P12  1  0.361338  0.368069  0.500000  1
  P  P13  1  0.637370  0.998299  0.500000  1
  P  P14  1  0.522180  0.689453  0.000000  1
  P  P15  1  0.300869  0.825068  0.000000  1
  P  P16  1  0.171966  0.477939  0.000000  1
  P  P17  1  0.482923  0.168067  0.000000  1
  P  P18  1  0.685138  0.517608  0.000000  1
  P  P19  1  0.832829  0.315561  0.000000  1
  P  P20  1  0.004588  0.182519  0.500000  1
  P  P21  1  0.817386  0.821849  0.500000  1
  P  P22  1  0.178876  0.996912  0.500000  1
  Ir  Ir23  1  0.124187  0.631164  0.000000  1
  Ir  Ir24  1  0.367025  0.492204  0.000000  1
  Ir  Ir25  1  0.493764  0.357567  0.000000  1
  Ir  Ir26  1  0.863419  0.506408  0.000000  1
  Ir  Ir27  1  0.643854  0.137178  0.000000  1
  Ir  Ir28  1  0.995534  0.281624  0.000000  1
  Ir  Ir29  1  0.718504  0.714116  0.000000  1
  Ir  Ir30  1  0.287524  0.005404  0.000000  1
  Ir  Ir31  1  0.374106  0.184821  0.500000  1
  Ir  Ir32  1  0.811273  0.626677  0.500000  1
  Ir  Ir33  1  0.816708  0.191508  0.500000  1
  Ir  Ir34  1  0.999837  0.999687  0.500000  1
  Pt  Pt35  1  0.502568  0.871912  0.000000  1
