# generated using pymatgen
data_SrCd2Sb4PbO14
_symmetry_space_group_name_H-M   'P 1'
_cell_length_a   7.50065469
_cell_length_b   7.50065458
_cell_length_c   7.50177865
_cell_angle_alpha   120.40190870
_cell_angle_beta   119.98777189
_cell_angle_gamma   89.65460838
_symmetry_Int_Tables_number   1
_chemical_formula_structural   SrCd2Sb4PbO14
_chemical_formula_sum   'Sr1 Cd2 Sb4 Pb1 O14'
_cell_volume   297.56641218
_cell_formula_units_Z   1
loop_
 _symmetry_equiv_pos_site_id
 _symmetry_equiv_pos_as_xyz
  1  'x, y, z'
loop_
 _atom_site_type_symbol
 _atom_site_label
 _atom_site_symmetry_multiplicity
 _atom_site_fract_x
 _atom_site_fract_y
 _atom_site_fract_z
 _atom_site_occupancy
  Sr  Sr0  1  0.000000  0.000000  0.500000  1
  Cd  Cd1  1  0.000000  0.000000  0.000000  1
  Cd  Cd2  1  0.500000  0.500000  0.000000  1
  Sb  Sb3  1  0.500000  0.000000  0.000000  1
  Sb  Sb4  1  0.500000  0.500000  0.500000  1
  Sb  Sb5  1  0.500000  0.000000  0.500000  1
  Sb  Sb6  1  0.000000  0.500000  0.500000  1
  Pb  Pb7  1  0.000000  0.500000  0.000000  1
  O  O8  1  0.440520  0.084480  0.765105  1
  O  O9  1  0.557312  0.323863  0.642623  1
  O  O10  1  0.181240  0.414689  0.357377  1
  O  O11  1  0.819374  0.175414  0.234895  1
  O  O12  1  0.559480  0.915520  0.234895  1
  O  O13  1  0.442688  0.676137  0.357377  1
  O  O14  1  0.818760  0.585311  0.642623  1
  O  O15  1  0.180626  0.824586  0.765105  1
  O  O16  1  0.599364  0.749956  0.849320  1
  O  O17  1  0.400636  0.250044  0.150680  1
  O  O18  1  0.179648  0.917509  0.264718  1
  O  O19  1  0.820352  0.082491  0.735282  1
  O  O20  1  0.847208  0.585070  0.264718  1
  O  O21  1  0.152792  0.414930  0.735282  1
