# generated using pymatgen
data_Tb3Zn3Hg2Ir
_symmetry_space_group_name_H-M   'P 1'
_cell_length_a   7.75783800
_cell_length_b   7.75783818
_cell_length_c   3.77567400
_cell_angle_alpha   90.00000000
_cell_angle_beta   90.00000000
_cell_angle_gamma   119.99999921
_symmetry_Int_Tables_number   1
_chemical_formula_structural   Tb3Zn3Hg2Ir
_chemical_formula_sum   'Tb3 Zn3 Hg2 Ir1'
_cell_volume   196.79159584
_cell_formula_units_Z   1
loop_
 _symmetry_equiv_pos_site_id
 _symmetry_equiv_pos_as_xyz
  1  'x, y, z'
loop_
 _atom_site_type_symbol
 _atom_site_label
 _atom_site_symmetry_multiplicity
 _atom_site_fract_x
 _atom_site_fract_y
 _atom_site_fract_z
 _atom_site_occupancy
  Tb  Tb0  1  0.029264  0.421015  0.000000  1
  Tb  Tb1  1  0.578985  0.608250  0.000000  1
  Tb  Tb2  1  0.391750  0.970736  0.000000  1
  Zn  Zn3  1  0.009900  0.727183  0.500000  1
  Zn  Zn4  1  0.272817  0.282718  0.500000  1
  Zn  Zn5  1  0.717282  0.990100  0.500000  1
  Hg  Hg6  1  0.000000  0.000000  0.000000  1
  Hg  Hg7  1  0.666667  0.333333  0.500000  1
  Ir  Ir8  1  0.333333  0.666667  0.500000  1
