# generated using pymatgen
data_TbCe2In3PdRh2
_symmetry_space_group_name_H-M   'P 1'
_cell_length_a   7.51169900
_cell_length_b   7.66962666
_cell_length_c   3.97769100
_cell_angle_alpha   90.00000000
_cell_angle_beta   90.00000000
_cell_angle_gamma   119.32114659
_symmetry_Int_Tables_number   1
_chemical_formula_structural   TbCe2In3PdRh2
_chemical_formula_sum   'Tb1 Ce2 In3 Pd1 Rh2'
_cell_volume   199.80412022
_cell_formula_units_Z   1
loop_
 _symmetry_equiv_pos_site_id
 _symmetry_equiv_pos_as_xyz
  1  'x, y, z'
loop_
 _atom_site_type_symbol
 _atom_site_label
 _atom_site_symmetry_multiplicity
 _atom_site_fract_x
 _atom_site_fract_y
 _atom_site_fract_z
 _atom_site_occupancy
  Tb  Tb0  1  0.410700  0.000000  0.500000  1
  Ce  Ce1  1  0.999050  0.416287  0.500000  1
  Ce  Ce2  1  0.582763  0.583713  0.500000  1
  In  In3  1  0.735467  0.000000  0.000000  1
  In  In4  1  0.009166  0.754088  0.000000  1
  In  In5  1  0.255078  0.245912  0.000000  1
  Pd  Pd6  1  0.993242  0.000000  0.500000  1
  Rh  Rh7  1  0.330667  0.646801  0.000000  1
  Rh  Rh8  1  0.683867  0.353199  0.000000  1
