# generated using pymatgen
data_Sr2Sb(S2O7)4
_symmetry_space_group_name_H-M   'P 1'
_cell_length_a   13.24635700
_cell_length_b   7.09495065
_cell_length_c   13.59632100
_cell_angle_alpha   65.86382484
_cell_angle_beta   90.00000000
_cell_angle_gamma   90.00000000
_symmetry_Int_Tables_number   1
_chemical_formula_structural   Sr2Sb(S2O7)4
_chemical_formula_sum   'Sr4 Sb2 S16 O56'
_cell_volume   1166.10155675
_cell_formula_units_Z   2
loop_
 _symmetry_equiv_pos_site_id
 _symmetry_equiv_pos_as_xyz
  1  'x, y, z'
loop_
 _atom_site_type_symbol
 _atom_site_label
 _atom_site_symmetry_multiplicity
 _atom_site_fract_x
 _atom_site_fract_y
 _atom_site_fract_z
 _atom_site_occupancy
  Sr  Sr0  1  0.865875  0.143120  0.158881  1
  Sr  Sr1  1  0.634125  0.143120  0.658881  1
  Sr  Sr2  1  0.134125  0.856880  0.841119  1
  Sr  Sr3  1  0.365875  0.856880  0.341119  1
  Sb  Sb4  1  0.500000  0.500000  0.000000  1
  Sb  Sb5  1  0.000000  0.500000  0.500000  1
  S  S6  1  0.658865  0.205789  0.938588  1
  S  S7  1  0.841135  0.205789  0.438588  1
  S  S8  1  0.341135  0.794211  0.061412  1
  S  S9  1  0.158865  0.794211  0.561412  1
  S  S10  1  0.971559  0.688014  0.099706  1
  S  S11  1  0.528441  0.688014  0.599706  1
  S  S12  1  0.028441  0.311986  0.900294  1
  S  S13  1  0.471559  0.311986  0.400294  1
  S  S14  1  0.732463  0.617983  0.907305  1
  S  S15  1  0.767537  0.617983  0.407305  1
  S  S16  1  0.267537  0.382017  0.092695  1
  S  S17  1  0.232463  0.382017  0.592695  1
  S  S18  1  0.587350  0.228386  0.240220  1
  S  S19  1  0.912650  0.228386  0.740220  1
  S  S20  1  0.412650  0.771614  0.759780  1
  S  S21  1  0.087350  0.771614  0.259780  1
  O  O22  1  0.632278  0.127302  0.860359  1
  O  O23  1  0.867722  0.127302  0.360359  1
  O  O24  1  0.367722  0.872698  0.139641  1
  O  O25  1  0.132278  0.872698  0.639641  1
  O  O26  1  0.586658  0.263785  0.347142  1
  O  O27  1  0.913342  0.263785  0.847142  1
  O  O28  1  0.413342  0.736215  0.652858  1
  O  O29  1  0.086658  0.736215  0.152858  1
  O  O30  1  0.534651  0.040954  0.254048  1
  O  O31  1  0.965349  0.040954  0.754048  1
  O  O32  1  0.465349  0.959046  0.745952  1
  O  O33  1  0.034651  0.959046  0.245952  1
  O  O34  1  0.566541  0.222858  0.000994  1
  O  O35  1  0.933459  0.222858  0.500994  1
  O  O36  1  0.433459  0.777142  0.999006  1
  O  O37  1  0.066541  0.777142  0.499006  1
  O  O38  1  0.897260  0.808588  0.126764  1
  O  O39  1  0.602740  0.808588  0.626764  1
  O  O40  1  0.102740  0.191412  0.873236  1
  O  O41  1  0.397260  0.191412  0.373236  1
  O  O42  1  0.688085  0.448138  0.861869  1
  O  O43  1  0.811915  0.448138  0.361869  1
  O  O44  1  0.311915  0.551862  0.138131  1
  O  O45  1  0.188085  0.551862  0.638131  1
  O  O46  1  0.527908  0.418692  0.165396  1
  O  O47  1  0.972092  0.418692  0.665396  1
  O  O48  1  0.472092  0.581308  0.834604  1
  O  O49  1  0.027908  0.581308  0.334604  1
  O  O50  1  0.741049  0.111336  0.011164  1
  O  O51  1  0.758951  0.111336  0.511164  1
  O  O52  1  0.258951  0.888664  0.988836  1
  O  O53  1  0.241049  0.888664  0.488836  1
  O  O54  1  0.643560  0.652350  0.968970  1
  O  O55  1  0.856440  0.652350  0.468970  1
  O  O56  1  0.356440  0.347650  0.031030  1
  O  O57  1  0.143560  0.347650  0.531030  1
  O  O58  1  0.750012  0.795572  0.809020  1
  O  O59  1  0.749988  0.795572  0.309020  1
  O  O60  1  0.249988  0.204428  0.190980  1
  O  O61  1  0.250012  0.204428  0.690980  1
  O  O62  1  0.814650  0.521598  0.979185  1
  O  O63  1  0.685350  0.521598  0.479185  1
  O  O64  1  0.185350  0.478402  0.020815  1
  O  O65  1  0.314650  0.478402  0.520815  1
  O  O66  1  0.960618  0.466816  0.155590  1
  O  O67  1  0.539382  0.466816  0.655590  1
  O  O68  1  0.039382  0.533184  0.844410  1
  O  O69  1  0.460618  0.533184  0.344410  1
  O  O70  1  0.001860  0.766182  0.988322  1
  O  O71  1  0.498140  0.766182  0.488322  1
  O  O72  1  0.998140  0.233818  0.011678  1
  O  O73  1  0.501860  0.233818  0.511678  1
  O  O74  1  0.691643  0.243322  0.207504  1
  O  O75  1  0.808357  0.243322  0.707504  1
  O  O76  1  0.308357  0.756678  0.792496  1
  O  O77  1  0.191643  0.756678  0.292496  1
