# generated using pymatgen
data_Nd3Er(B4W)4
_symmetry_space_group_name_H-M   'P 1'
_cell_length_a   3.68245700
_cell_length_b   6.10517688
_cell_length_c   11.81242438
_cell_angle_alpha   89.85539259
_cell_angle_beta   90.00000000
_cell_angle_gamma   90.00000000
_symmetry_Int_Tables_number   1
_chemical_formula_structural   Nd3Er(B4W)4
_chemical_formula_sum   'Nd3 Er1 B16 W4'
_cell_volume   265.56668527
_cell_formula_units_Z   1
loop_
 _symmetry_equiv_pos_site_id
 _symmetry_equiv_pos_as_xyz
  1  'x, y, z'
loop_
 _atom_site_type_symbol
 _atom_site_label
 _atom_site_symmetry_multiplicity
 _atom_site_fract_x
 _atom_site_fract_y
 _atom_site_fract_z
 _atom_site_occupancy
  Nd  Nd0  1  0.000000  0.625651  0.349640  1
  Nd  Nd1  1  0.000000  0.374330  0.651138  1
  Nd  Nd2  1  0.000000  0.125484  0.149693  1
  Er  Er3  1  0.000000  0.873957  0.850729  1
  B  B4  1  0.500000  0.782636  0.183802  1
  B  B5  1  0.500000  0.212577  0.815384  1
  B  B6  1  0.500000  0.282629  0.314952  1
  B  B7  1  0.500000  0.717769  0.687818  1
  B  B8  1  0.500000  0.864574  0.029461  1
  B  B9  1  0.500000  0.134712  0.965982  1
  B  B10  1  0.500000  0.363311  0.468388  1
  B  B11  1  0.500000  0.637056  0.533327  1
  B  B12  1  0.500000  0.887793  0.454633  1
  B  B13  1  0.500000  0.111323  0.547447  1
  B  B14  1  0.500000  0.388917  0.044508  1
  B  B15  1  0.500000  0.615474  0.951407  1
  B  B16  1  0.500000  0.976064  0.309161  1
  B  B17  1  0.500000  0.021845  0.694269  1
  B  B18  1  0.500000  0.476210  0.189980  1
  B  B19  1  0.500000  0.526898  0.808582  1
  W  W20  1  0.000000  0.630032  0.081800  1
  W  W21  1  0.000000  0.371170  0.915176  1
  W  W22  1  0.000000  0.128685  0.417118  1
  W  W23  1  0.000000  0.870901  0.585605  1
