# generated using pymatgen
data_Tb10Ce2Tc3Pt
_symmetry_space_group_name_H-M   'P 1'
_cell_length_a   6.33365117
_cell_length_b   7.24556364
_cell_length_c   9.50161700
_cell_angle_alpha   90.00000000
_cell_angle_beta   90.00000000
_cell_angle_gamma   90.11031574
_symmetry_Int_Tables_number   1
_chemical_formula_structural   Tb10Ce2Tc3Pt
_chemical_formula_sum   'Tb10 Ce2 Tc3 Pt1'
_cell_volume   436.03668748
_cell_formula_units_Z   1
loop_
 _symmetry_equiv_pos_site_id
 _symmetry_equiv_pos_as_xyz
  1  'x, y, z'
loop_
 _atom_site_type_symbol
 _atom_site_label
 _atom_site_symmetry_multiplicity
 _atom_site_fract_x
 _atom_site_fract_y
 _atom_site_fract_z
 _atom_site_occupancy
  Tb  Tb0  1  0.633317  0.040964  0.250000  1
  Tb  Tb1  1  0.868887  0.531680  0.250000  1
  Tb  Tb2  1  0.172742  0.180327  0.062270  1
  Tb  Tb3  1  0.829766  0.821939  0.934112  1
  Tb  Tb4  1  0.664470  0.320227  0.938597  1
  Tb  Tb5  1  0.829766  0.821939  0.565888  1
  Tb  Tb6  1  0.333105  0.674875  0.064373  1
  Tb  Tb7  1  0.172742  0.180327  0.437730  1
  Tb  Tb8  1  0.333105  0.674875  0.435627  1
  Tb  Tb9  1  0.664470  0.320227  0.561403  1
  Ce  Ce10  1  0.361133  0.941155  0.750000  1
  Ce  Ce11  1  0.133589  0.442873  0.750000  1
  Tc  Tc12  1  0.451080  0.387087  0.250000  1
  Tc  Tc13  1  0.503324  0.638232  0.750000  1
  Tc  Tc14  1  0.997322  0.136712  0.750000  1
  Pt  Pt15  1  0.051182  0.886559  0.250000  1
