# generated using pymatgen
data_Ho4Tm(In2Rh)2
_symmetry_space_group_name_H-M   'P 1'
_cell_length_a   3.61644200
_cell_length_b   7.98013909
_cell_length_c   18.26390462
_cell_angle_alpha   90.03650228
_cell_angle_beta   90.00000000
_cell_angle_gamma   90.00000000
_symmetry_Int_Tables_number   1
_chemical_formula_structural   Ho4Tm(In2Rh)2
_chemical_formula_sum   'Ho8 Tm2 In8 Rh4'
_cell_volume   527.09088690
_cell_formula_units_Z   2
loop_
 _symmetry_equiv_pos_site_id
 _symmetry_equiv_pos_as_xyz
  1  'x, y, z'
loop_
 _atom_site_type_symbol
 _atom_site_label
 _atom_site_symmetry_multiplicity
 _atom_site_fract_x
 _atom_site_fract_y
 _atom_site_fract_z
 _atom_site_occupancy
  Ho  Ho0  1  0.000000  0.500000  0.500000  1
  Ho  Ho1  1  0.000000  0.000000  0.000000  1
  Ho  Ho2  1  0.000000  0.745980  0.279019  1
  Ho  Ho3  1  0.000000  0.254020  0.720981  1
  Ho  Ho4  1  0.000000  0.753881  0.778288  1
  Ho  Ho5  1  0.000000  0.246119  0.221712  1
  Ho  Ho6  1  0.000000  0.617508  0.088504  1
  Ho  Ho7  1  0.000000  0.382492  0.911496  1
  Tm  Tm8  1  0.000000  0.882680  0.588689  1
  Tm  Tm9  1  0.000000  0.117320  0.411311  1
  In  In10  1  0.500000  0.707385  0.931758  1
  In  In11  1  0.500000  0.292615  0.068242  1
  In  In12  1  0.500000  0.795125  0.432640  1
  In  In13  1  0.500000  0.204875  0.567360  1
  In  In14  1  0.500000  0.573291  0.650076  1
  In  In15  1  0.500000  0.426709  0.349924  1
  In  In16  1  0.500000  0.928602  0.150890  1
  In  In17  1  0.500000  0.071398  0.849110  1
  Rh  Rh18  1  0.500000  0.523740  0.195230  1
  Rh  Rh19  1  0.500000  0.476260  0.804770  1
  Rh  Rh20  1  0.500000  0.975592  0.694189  1
  Rh  Rh21  1  0.500000  0.024408  0.305811  1
