# generated using pymatgen
data_Zr2FeB2MoRu4
_symmetry_space_group_name_H-M   'P 1'
_cell_length_a   9.33696000
_cell_length_b   9.33696000
_cell_length_c   3.09109600
_cell_angle_alpha   90.00000000
_cell_angle_beta   90.00000000
_cell_angle_gamma   90.00000000
_symmetry_Int_Tables_number   1
_chemical_formula_structural   Zr2FeB2MoRu4
_chemical_formula_sum   'Zr4 Fe2 B4 Mo2 Ru8'
_cell_volume   269.47810810
_cell_formula_units_Z   2
loop_
 _symmetry_equiv_pos_site_id
 _symmetry_equiv_pos_as_xyz
  1  'x, y, z'
loop_
 _atom_site_type_symbol
 _atom_site_label
 _atom_site_symmetry_multiplicity
 _atom_site_fract_x
 _atom_site_fract_y
 _atom_site_fract_z
 _atom_site_occupancy
  Zr  Zr0  1  0.674421  0.174421  0.000000  1
  Zr  Zr1  1  0.325579  0.825579  0.000000  1
  Zr  Zr2  1  0.174421  0.325579  0.000000  1
  Zr  Zr3  1  0.825579  0.674421  0.000000  1
  Fe  Fe4  1  0.500000  0.000000  0.500000  1
  Fe  Fe5  1  0.000000  0.500000  0.500000  1
  B  B6  1  0.111931  0.611931  0.000000  1
  B  B7  1  0.888069  0.388069  0.000000  1
  B  B8  1  0.611931  0.888069  0.000000  1
  B  B9  1  0.388069  0.111931  0.000000  1
  Mo  Mo10  1  0.000000  0.000000  0.000000  1
  Mo  Mo11  1  0.500000  0.500000  0.000000  1
  Ru  Ru12  1  0.221330  0.067016  0.500000  1
  Ru  Ru13  1  0.778670  0.932984  0.500000  1
  Ru  Ru14  1  0.067016  0.778670  0.500000  1
  Ru  Ru15  1  0.721330  0.432984  0.500000  1
  Ru  Ru16  1  0.932984  0.221330  0.500000  1
  Ru  Ru17  1  0.278670  0.567016  0.500000  1
  Ru  Ru18  1  0.567016  0.721330  0.500000  1
  Ru  Ru19  1  0.432984  0.278670  0.500000  1
