# generated using pymatgen
data_Tb14Lu2Tl3InRh4
_symmetry_space_group_name_H-M   'P 1'
_cell_length_a   9.64483465
_cell_length_b   9.65127451
_cell_length_c   9.64464300
_cell_angle_alpha   60.04153434
_cell_angle_beta   60.19424715
_cell_angle_gamma   60.06943845
_symmetry_Int_Tables_number   1
_chemical_formula_structural   Tb14Lu2Tl3InRh4
_chemical_formula_sum   'Tb14 Lu2 Tl3 In1 Rh4'
_cell_volume   636.28085846
_cell_formula_units_Z   1
loop_
 _symmetry_equiv_pos_site_id
 _symmetry_equiv_pos_as_xyz
  1  'x, y, z'
loop_
 _atom_site_type_symbol
 _atom_site_label
 _atom_site_symmetry_multiplicity
 _atom_site_fract_x
 _atom_site_fract_y
 _atom_site_fract_z
 _atom_site_occupancy
  Tb  Tb0  1  0.314600  0.687511  0.311494  1
  Tb  Tb1  1  0.935257  0.938181  0.562479  1
  Tb  Tb2  1  0.147751  0.149763  0.549735  1
  Tb  Tb3  1  0.560497  0.939371  0.558054  1
  Tb  Tb4  1  0.149785  0.151559  0.152513  1
  Tb  Tb5  1  0.312706  0.311286  0.688100  1
  Tb  Tb6  1  0.935818  0.561998  0.560831  1
  Tb  Tb7  1  0.560063  0.559142  0.940472  1
  Tb  Tb8  1  0.562410  0.936839  0.939187  1
  Tb  Tb9  1  0.934922  0.562303  0.940092  1
  Tb  Tb10  1  0.147225  0.550374  0.150089  1
  Tb  Tb11  1  0.312428  0.688530  0.687419  1
  Tb  Tb12  1  0.687856  0.312912  0.686239  1
  Tb  Tb13  1  0.553648  0.147279  0.147919  1
  Lu  Lu14  1  0.688216  0.313520  0.311932  1
  Lu  Lu15  1  0.687938  0.687278  0.311332  1
  Tl  Tl16  1  0.915921  0.914717  0.255087  1
  Tl  Tl17  1  0.255796  0.914649  0.915145  1
  Tl  Tl18  1  0.915462  0.255666  0.914943  1
  In  In19  1  0.917044  0.916025  0.916732  1
  Rh  Rh20  1  0.361159  0.355619  0.356564  1
  Rh  Rh21  1  0.923772  0.360687  0.357193  1
  Rh  Rh22  1  0.357988  0.358171  0.928534  1
  Rh  Rh23  1  0.361735  0.926619  0.357920  1
