# generated using pymatgen
data_Er2Bi2IrRh3O14
_symmetry_space_group_name_H-M   'P 1'
_cell_length_a   7.23207819
_cell_length_b   7.26992265
_cell_length_c   7.26509307
_cell_angle_alpha   60.42924051
_cell_angle_beta   60.15020854
_cell_angle_gamma   60.17205485
_symmetry_Int_Tables_number   1
_chemical_formula_structural   Er2Bi2IrRh3O14
_chemical_formula_sum   'Er2 Bi2 Ir1 Rh3 O14'
_cell_volume   271.62418909
_cell_formula_units_Z   1
loop_
 _symmetry_equiv_pos_site_id
 _symmetry_equiv_pos_as_xyz
  1  'x, y, z'
loop_
 _atom_site_type_symbol
 _atom_site_label
 _atom_site_symmetry_multiplicity
 _atom_site_fract_x
 _atom_site_fract_y
 _atom_site_fract_z
 _atom_site_occupancy
  Er  Er0  1  0.625000  0.125000  0.125000  1
  Er  Er1  1  0.125000  0.125000  0.125000  1
  Bi  Bi2  1  0.125000  0.625000  0.125000  1
  Bi  Bi3  1  0.125000  0.125000  0.625000  1
  Ir  Ir4  1  0.625000  0.125000  0.625000  1
  Rh  Rh5  1  0.125000  0.625000  0.625000  1
  Rh  Rh6  1  0.625000  0.625000  0.125000  1
  Rh  Rh7  1  0.625000  0.625000  0.625000  1
  O  O8  1  0.704552  0.721187  0.287051  1
  O  O9  1  0.292053  0.287641  0.715766  1
  O  O10  1  0.704539  0.287641  0.715766  1
  O  O11  1  0.287209  0.721187  0.287051  1
  O  O12  1  0.291191  0.710263  0.707355  1
  O  O13  1  0.711258  0.286116  0.291367  1
  O  O14  1  0.545448  0.528813  0.962949  1
  O  O15  1  0.957947  0.962359  0.534234  1
  O  O16  1  0.545461  0.962359  0.534234  1
  O  O17  1  0.962791  0.528813  0.962949  1
  O  O18  1  0.958809  0.539737  0.542645  1
  O  O19  1  0.538742  0.963884  0.958633  1
  O  O20  1  0.256871  0.242463  0.243795  1
  O  O21  1  0.993129  0.007537  0.006205  1
