# generated using pymatgen
data_V4Co3CuO14
_symmetry_space_group_name_H-M   'P 1'
_cell_length_a   5.61806293
_cell_length_b   5.74350678
_cell_length_c   10.23776652
_cell_angle_alpha   75.08652073
_cell_angle_beta   76.46166657
_cell_angle_gamma   93.83671168
_symmetry_Int_Tables_number   1
_chemical_formula_structural   V4Co3CuO14
_chemical_formula_sum   'V4 Co3 Cu1 O14'
_cell_volume   307.49242014
_cell_formula_units_Z   1
loop_
 _symmetry_equiv_pos_site_id
 _symmetry_equiv_pos_as_xyz
  1  'x, y, z'
loop_
 _atom_site_type_symbol
 _atom_site_label
 _atom_site_symmetry_multiplicity
 _atom_site_fract_x
 _atom_site_fract_y
 _atom_site_fract_z
 _atom_site_occupancy
  V  V0  1  0.473387  0.992259  0.708213  1
  V  V1  1  0.995620  0.530453  0.791861  1
  V  V2  1  0.527455  0.000554  0.294886  1
  V  V3  1  0.998733  0.470887  0.206404  1
  Co  Co4  1  0.580214  0.750493  0.027910  1
  Co  Co5  1  0.255774  0.412199  0.474520  1
  Co  Co6  1  0.414836  0.250349  0.970640  1
  Cu  Cu7  1  0.770080  0.620307  0.513725  1
  O  O8  1  0.676912  0.841961  0.621235  1
  O  O9  1  0.144149  0.323882  0.880574  1
  O  O10  1  0.325836  0.146407  0.383561  1
  O  O11  1  0.849012  0.675198  0.117745  1
  O  O12  1  0.474893  0.278636  0.604936  1
  O  O13  1  0.700181  0.517806  0.897963  1
  O  O14  1  0.528418  0.703646  0.401339  1
  O  O15  1  0.295188  0.481772  0.102834  1
  O  O16  1  0.829671  0.170852  0.247446  1
  O  O17  1  0.165734  0.825473  0.754057  1
  O  O18  1  0.010673  0.535981  0.364279  1
  O  O19  1  0.448476  0.989085  0.140171  1
  O  O20  1  0.988312  0.471306  0.630280  1
  O  O21  1  0.546449  0.010493  0.865418  1
