# generated using pymatgen
data_CaY(Si2Rh3)2
_symmetry_space_group_name_H-M   'P 1'
_cell_length_a   6.65723217
_cell_length_b   6.65723142
_cell_length_c   6.65723209
_cell_angle_alpha   130.16636087
_cell_angle_beta   115.01625811
_cell_angle_gamma   86.10751586
_symmetry_Int_Tables_number   1
_chemical_formula_structural   CaY(Si2Rh3)2
_chemical_formula_sum   'Ca1 Y1 Si4 Rh6'
_cell_volume   195.16482659
_cell_formula_units_Z   1
loop_
 _symmetry_equiv_pos_site_id
 _symmetry_equiv_pos_as_xyz
  1  'x, y, z'
loop_
 _atom_site_type_symbol
 _atom_site_label
 _atom_site_symmetry_multiplicity
 _atom_site_fract_x
 _atom_site_fract_y
 _atom_site_fract_z
 _atom_site_occupancy
  Ca  Ca0  1  0.250000  0.534275  0.284275  1
  Y  Y1  1  0.750000  0.457092  0.707092  1
  Si  Si2  1  0.078760  0.882094  0.803334  1
  Si  Si3  1  0.922761  0.119126  0.196365  1
  Si  Si4  1  0.577239  0.773604  0.196365  1
  Si  Si5  1  0.421240  0.224574  0.803334  1
  Rh  Rh6  1  0.716310  0.002433  0.716938  1
  Rh  Rh7  1  0.214505  0.500629  0.716938  1
  Rh  Rh8  1  0.285495  0.002433  0.286123  1
  Rh  Rh9  1  0.783690  0.500629  0.286123  1
  Rh  Rh10  1  0.998288  0.001556  0.499844  1
  Rh  Rh11  1  0.501712  0.001556  0.003268  1
