# generated using pymatgen
data_Dy20Ir3Os4Rh5
_symmetry_space_group_name_H-M   'P 1'
_cell_length_a   10.87425311
_cell_length_b   10.87425311
_cell_length_c   6.40676507
_cell_angle_alpha   90.01202055
_cell_angle_beta   90.01202055
_cell_angle_gamma   89.98887137
_symmetry_Int_Tables_number   1
_chemical_formula_structural   Dy20Ir3Os4Rh5
_chemical_formula_sum   'Dy20 Ir3 Os4 Rh5'
_cell_volume   757.59595440
_cell_formula_units_Z   1
loop_
 _symmetry_equiv_pos_site_id
 _symmetry_equiv_pos_as_xyz
  1  'x, y, z'
loop_
 _atom_site_type_symbol
 _atom_site_label
 _atom_site_symmetry_multiplicity
 _atom_site_fract_x
 _atom_site_fract_y
 _atom_site_fract_z
 _atom_site_occupancy
  Dy  Dy0  1  0.294628  0.087244  0.377313  1
  Dy  Dy1  1  0.294603  0.912789  0.877362  1
  Dy  Dy2  1  0.705385  0.086278  0.877630  1
  Dy  Dy3  1  0.705324  0.912750  0.377198  1
  Dy  Dy4  1  0.585786  0.793592  0.878310  1
  Dy  Dy5  1  0.585459  0.205624  0.377324  1
  Dy  Dy6  1  0.414139  0.793523  0.378024  1
  Dy  Dy7  1  0.413216  0.205818  0.878584  1
  Dy  Dy8  1  0.206408  0.414214  0.621690  1
  Dy  Dy9  1  0.206477  0.585861  0.121976  1
  Dy  Dy10  1  0.794376  0.414541  0.122676  1
  Dy  Dy11  1  0.794182  0.586784  0.621416  1
  Dy  Dy12  1  0.912756  0.705372  0.122687  1
  Dy  Dy13  1  0.913722  0.294615  0.622370  1
  Dy  Dy14  1  0.087211  0.705397  0.622638  1
  Dy  Dy15  1  0.087250  0.294676  0.122802  1
  Dy  Dy16  1  0.999999  0.000006  0.500110  1
  Dy  Dy17  1  0.999994  0.000001  0.999890  1
  Dy  Dy18  1  0.499768  0.500288  0.000422  1
  Dy  Dy19  1  0.499712  0.500232  0.499578  1
  Ir  Ir20  1  0.652338  0.651998  0.250090  1
  Ir  Ir21  1  0.348002  0.347662  0.249910  1
  Ir  Ir22  1  0.347667  0.652333  0.750000  1
  Os  Os23  1  0.500290  0.000445  0.123818  1
  Os  Os24  1  0.500290  0.000515  0.624001  1
  Os  Os25  1  0.999485  0.499710  0.875999  1
  Os  Os26  1  0.999555  0.499710  0.376182  1
  Rh  Rh27  1  0.848298  0.151702  0.250000  1
  Rh  Rh28  1  0.848507  0.848505  0.749926  1
  Rh  Rh29  1  0.151495  0.151493  0.750074  1
  Rh  Rh30  1  0.151434  0.848566  0.250000  1
  Rh  Rh31  1  0.652246  0.347754  0.750000  1
