# generated using pymatgen
data_DyHo9(SnBi)3
_symmetry_space_group_name_H-M   'P 1'
_cell_length_a   9.03706600
_cell_length_b   9.03769967
_cell_length_c   6.43342900
_cell_angle_alpha   90.00000000
_cell_angle_beta   90.00000000
_cell_angle_gamma   119.99767335
_symmetry_Int_Tables_number   1
_chemical_formula_structural   DyHo9(SnBi)3
_chemical_formula_sum   'Dy1 Ho9 Sn3 Bi3'
_cell_volume   455.06002354
_cell_formula_units_Z   1
loop_
 _symmetry_equiv_pos_site_id
 _symmetry_equiv_pos_as_xyz
  1  'x, y, z'
loop_
 _atom_site_type_symbol
 _atom_site_label
 _atom_site_symmetry_multiplicity
 _atom_site_fract_x
 _atom_site_fract_y
 _atom_site_fract_z
 _atom_site_occupancy
  Dy  Dy0  1  0.241698  0.000000  0.250000  1
  Ho  Ho1  1  0.995147  0.757088  0.750000  1
  Ho  Ho2  1  0.995167  0.235140  0.250000  1
  Ho  Ho3  1  0.760027  0.764860  0.250000  1
  Ho  Ho4  1  0.763391  0.000000  0.750000  1
  Ho  Ho5  1  0.238058  0.242912  0.750000  1
  Ho  Ho6  1  0.335051  0.666520  0.501673  1
  Ho  Ho7  1  0.668532  0.333480  0.998327  1
  Ho  Ho8  1  0.668532  0.333480  0.501673  1
  Ho  Ho9  1  0.335051  0.666520  0.998327  1
  Sn  Sn10  1  0.000714  0.394203  0.750000  1
  Sn  Sn11  1  0.606511  0.605797  0.750000  1
  Sn  Sn12  1  0.605540  0.000000  0.250000  1
  Bi  Bi13  1  0.392304  0.000000  0.750000  1
  Bi  Bi14  1  0.393644  0.393009  0.250000  1
  Bi  Bi15  1  0.000634  0.606991  0.250000  1
