# generated using pymatgen
data_Pr20Ir11Rh
_symmetry_space_group_name_H-M   'P 1'
_cell_length_a   11.34142100
_cell_length_b   11.34142100
_cell_length_c   6.67297100
_cell_angle_alpha   90.00000000
_cell_angle_beta   90.00000000
_cell_angle_gamma   90.00000000
_symmetry_Int_Tables_number   1
_chemical_formula_structural   Pr20Ir11Rh
_chemical_formula_sum   'Pr20 Ir11 Rh1'
_cell_volume   858.32978138
_cell_formula_units_Z   1
loop_
 _symmetry_equiv_pos_site_id
 _symmetry_equiv_pos_as_xyz
  1  'x, y, z'
loop_
 _atom_site_type_symbol
 _atom_site_label
 _atom_site_symmetry_multiplicity
 _atom_site_fract_x
 _atom_site_fract_y
 _atom_site_fract_z
 _atom_site_occupancy
  Pr  Pr0  1  0.292482  0.090589  0.385726  1
  Pr  Pr1  1  0.291396  0.908950  0.883200  1
  Pr  Pr2  1  0.708604  0.091050  0.883200  1
  Pr  Pr3  1  0.707518  0.909411  0.385726  1
  Pr  Pr4  1  0.591050  0.791396  0.883200  1
  Pr  Pr5  1  0.590589  0.207518  0.385726  1
  Pr  Pr6  1  0.409411  0.792482  0.385726  1
  Pr  Pr7  1  0.408950  0.208604  0.883200  1
  Pr  Pr8  1  0.207820  0.409199  0.615702  1
  Pr  Pr9  1  0.208039  0.591650  0.116167  1
  Pr  Pr10  1  0.791961  0.408350  0.116167  1
  Pr  Pr11  1  0.792180  0.590801  0.615702  1
  Pr  Pr12  1  0.908350  0.708039  0.116167  1
  Pr  Pr13  1  0.909199  0.292180  0.615702  1
  Pr  Pr14  1  0.090801  0.707820  0.615702  1
  Pr  Pr15  1  0.091650  0.291961  0.116167  1
  Pr  Pr16  1  0.000000  0.000000  0.499724  1
  Pr  Pr17  1  0.000000  0.000000  0.000246  1
  Pr  Pr18  1  0.500000  0.500000  0.000246  1
  Pr  Pr19  1  0.500000  0.500000  0.499724  1
  Ir  Ir20  1  0.844978  0.152119  0.250393  1
  Ir  Ir21  1  0.846489  0.846699  0.749217  1
  Ir  Ir22  1  0.153511  0.153301  0.749217  1
  Ir  Ir23  1  0.155022  0.847881  0.250393  1
  Ir  Ir24  1  0.653301  0.346489  0.749217  1
  Ir  Ir25  1  0.652119  0.655022  0.250393  1
  Ir  Ir26  1  0.347881  0.344978  0.250393  1
  Ir  Ir27  1  0.346699  0.653511  0.749217  1
  Ir  Ir28  1  0.500000  0.000000  0.623222  1
  Ir  Ir29  1  0.000000  0.500000  0.881290  1
  Ir  Ir30  1  0.000000  0.500000  0.380120  1
  Rh  Rh31  1  0.500000  0.000000  0.113811  1
