# generated using pymatgen
data_Nd2Ga3SiPt4
_symmetry_space_group_name_H-M   'P 1'
_cell_length_a   4.28715100
_cell_length_b   4.28715100
_cell_length_c   10.41057900
_cell_angle_alpha   90.00000000
_cell_angle_beta   90.00000000
_cell_angle_gamma   90.00000000
_symmetry_Int_Tables_number   1
_chemical_formula_structural   Nd2Ga3SiPt4
_chemical_formula_sum   'Nd2 Ga3 Si1 Pt4'
_cell_volume   191.34294091
_cell_formula_units_Z   1
loop_
 _symmetry_equiv_pos_site_id
 _symmetry_equiv_pos_as_xyz
  1  'x, y, z'
loop_
 _atom_site_type_symbol
 _atom_site_label
 _atom_site_symmetry_multiplicity
 _atom_site_fract_x
 _atom_site_fract_y
 _atom_site_fract_z
 _atom_site_occupancy
  Nd  Nd0  1  0.000000  0.500000  0.252415  1
  Nd  Nd1  1  0.500000  0.000000  0.745335  1
  Ga  Ga2  1  0.000000  0.000000  0.496606  1
  Ga  Ga3  1  0.500000  0.500000  0.496606  1
  Ga  Ga4  1  0.000000  0.500000  0.871729  1
  Si  Si5  1  0.500000  0.000000  0.127979  1
  Pt  Pt6  1  0.000000  0.000000  0.009879  1
  Pt  Pt7  1  0.500000  0.500000  0.009879  1
  Pt  Pt8  1  0.000000  0.500000  0.633588  1
  Pt  Pt9  1  0.500000  0.000000  0.355983  1
