# generated using pymatgen
data_Tm2ZnGaPd4
_symmetry_space_group_name_H-M   'P 1'
_cell_length_a   4.40135500
_cell_length_b   4.40135554
_cell_length_c   8.92780000
_cell_angle_alpha   90.00000000
_cell_angle_beta   90.00000000
_cell_angle_gamma   120.00001848
_symmetry_Int_Tables_number   1
_chemical_formula_structural   Tm2ZnGaPd4
_chemical_formula_sum   'Tm2 Zn1 Ga1 Pd4'
_cell_volume   149.77794051
_cell_formula_units_Z   1
loop_
 _symmetry_equiv_pos_site_id
 _symmetry_equiv_pos_as_xyz
  1  'x, y, z'
loop_
 _atom_site_type_symbol
 _atom_site_label
 _atom_site_symmetry_multiplicity
 _atom_site_fract_x
 _atom_site_fract_y
 _atom_site_fract_z
 _atom_site_occupancy
  Tm  Tm0  1  0.333333  0.666667  0.252554  1
  Tm  Tm1  1  0.666667  0.333333  0.747446  1
  Zn  Zn2  1  0.000000  0.000000  0.500000  1
  Ga  Ga3  1  0.000000  0.000000  0.000000  1
  Pd  Pd4  1  0.333333  0.666667  0.917340  1
  Pd  Pd5  1  0.666667  0.333333  0.082660  1
  Pd  Pd6  1  0.666667  0.333333  0.415633  1
  Pd  Pd7  1  0.333333  0.666667  0.584367  1
