# generated using pymatgen
data_Tb6RhI10
_symmetry_space_group_name_H-M   'P 1'
_cell_length_a   7.76619938
_cell_length_b   9.72068962
_cell_length_c   9.81077100
_cell_angle_alpha   107.38836440
_cell_angle_beta   97.09919051
_cell_angle_gamma   104.82285000
_symmetry_Int_Tables_number   1
_chemical_formula_structural   Tb6RhI10
_chemical_formula_sum   'Tb6 Rh1 I10'
_cell_volume   667.01828882
_cell_formula_units_Z   1
loop_
 _symmetry_equiv_pos_site_id
 _symmetry_equiv_pos_as_xyz
  1  'x, y, z'
loop_
 _atom_site_type_symbol
 _atom_site_label
 _atom_site_symmetry_multiplicity
 _atom_site_fract_x
 _atom_site_fract_y
 _atom_site_fract_z
 _atom_site_occupancy
  Tb  Tb0  1  0.529663  0.220118  0.417172  1
  Tb  Tb1  1  0.470337  0.779882  0.582828  1
  Tb  Tb2  1  0.147512  0.372149  0.331973  1
  Tb  Tb3  1  0.852488  0.627851  0.668027  1
  Tb  Tb4  1  0.613766  0.541385  0.258207  1
  Tb  Tb5  1  0.386234  0.458615  0.741793  1
  Rh  Rh6  1  0.500000  0.500000  0.500000  1
  I  I7  1  0.146320  0.045829  0.225929  1
  I  I8  1  0.853680  0.954171  0.774071  1
  I  I9  1  0.238228  0.410736  0.035767  1
  I  I10  1  0.761772  0.589264  0.964233  1
  I  I11  1  0.715290  0.239841  0.152499  1
  I  I12  1  0.284710  0.760159  0.847501  1
  I  I13  1  0.047578  0.683727  0.408430  1
  I  I14  1  0.952422  0.316273  0.591570  1
  I  I15  1  0.413497  0.127232  0.678364  1
  I  I16  1  0.586503  0.872768  0.321636  1
