# generated using pymatgen
data_ThNi3BPt
_symmetry_space_group_name_H-M   'P 1'
_cell_length_a   5.16613300
_cell_length_b   5.16168129
_cell_length_c   7.25885000
_cell_angle_alpha   90.00000000
_cell_angle_beta   90.00000000
_cell_angle_gamma   120.02854023
_symmetry_Int_Tables_number   1
_chemical_formula_structural   ThNi3BPt
_chemical_formula_sum   'Th2 Ni6 B2 Pt2'
_cell_volume   167.58311213
_cell_formula_units_Z   2
loop_
 _symmetry_equiv_pos_site_id
 _symmetry_equiv_pos_as_xyz
  1  'x, y, z'
loop_
 _atom_site_type_symbol
 _atom_site_label
 _atom_site_symmetry_multiplicity
 _atom_site_fract_x
 _atom_site_fract_y
 _atom_site_fract_z
 _atom_site_occupancy
  Th  Th0  1  0.999980  0.000000  0.000000  1
  Th  Th1  1  0.999982  0.000000  0.500000  1
  Ni  Ni2  1  0.499981  0.000000  0.304695  1
  Ni  Ni3  1  0.499987  0.500002  0.304729  1
  Ni  Ni4  1  0.999985  0.499998  0.304729  1
  Ni  Ni5  1  0.499981  0.000000  0.695305  1
  Ni  Ni6  1  0.499987  0.500002  0.695271  1
  Ni  Ni7  1  0.999985  0.499998  0.695271  1
  B  B8  1  0.333345  0.666719  0.500000  1
  B  B9  1  0.666625  0.333281  0.500000  1
  Pt  Pt10  1  0.333345  0.666730  0.000000  1
  Pt  Pt11  1  0.666616  0.333270  0.000000  1
