# generated using pymatgen
data_ThNiSbH
_symmetry_space_group_name_H-M   'P 1'
_cell_length_a   4.33795800
_cell_length_b   4.33795778
_cell_length_c   8.91498000
_cell_angle_alpha   90.00000000
_cell_angle_beta   90.00000000
_cell_angle_gamma   120.00001691
_symmetry_Int_Tables_number   1
_chemical_formula_structural   ThNiSbH
_chemical_formula_sum   'Th2 Ni2 Sb2 H2'
_cell_volume   145.28527336
_cell_formula_units_Z   2
loop_
 _symmetry_equiv_pos_site_id
 _symmetry_equiv_pos_as_xyz
  1  'x, y, z'
loop_
 _atom_site_type_symbol
 _atom_site_label
 _atom_site_symmetry_multiplicity
 _atom_site_fract_x
 _atom_site_fract_y
 _atom_site_fract_z
 _atom_site_occupancy
  Th  Th0  1  0.666667  0.333333  0.785998  1
  Th  Th1  1  0.333333  0.666667  0.285998  1
  Ni  Ni2  1  0.666667  0.333333  0.124210  1
  Ni  Ni3  1  0.333333  0.666667  0.624210  1
  Sb  Sb4  1  0.000000  0.000000  0.035293  1
  Sb  Sb5  1  0.000000  0.000000  0.535293  1
  H  H6  1  0.666667  0.333333  0.304500  1
  H  H7  1  0.333333  0.666667  0.804500  1
