# generated using pymatgen
data_KNd(AsAu)2
_symmetry_space_group_name_H-M   'P 1'
_cell_length_a   4.49047500
_cell_length_b   4.49047438
_cell_length_c   8.95665600
_cell_angle_alpha   90.00000000
_cell_angle_beta   90.00000000
_cell_angle_gamma   119.99999719
_symmetry_Int_Tables_number   1
_chemical_formula_structural   KNd(AsAu)2
_chemical_formula_sum   'K1 Nd1 As2 Au2'
_cell_volume   156.40874973
_cell_formula_units_Z   1
loop_
 _symmetry_equiv_pos_site_id
 _symmetry_equiv_pos_as_xyz
  1  'x, y, z'
loop_
 _atom_site_type_symbol
 _atom_site_label
 _atom_site_symmetry_multiplicity
 _atom_site_fract_x
 _atom_site_fract_y
 _atom_site_fract_z
 _atom_site_occupancy
  K  K0  1  0.000000  0.000000  0.500000  1
  Nd  Nd1  1  0.000000  0.000000  0.000000  1
  As  As2  1  0.666667  0.333333  0.786897  1
  As  As3  1  0.333333  0.666667  0.213103  1
  Au  Au4  1  0.333333  0.666667  0.782556  1
  Au  Au5  1  0.666667  0.333333  0.217444  1
