# generated using pymatgen
data_Zr3PaPt4
_symmetry_space_group_name_H-M   'P 1'
_cell_length_a   4.37493700
_cell_length_b   5.49762872
_cell_length_c   6.75822203
_cell_angle_alpha   92.00960325
_cell_angle_beta   90.00000000
_cell_angle_gamma   90.00000000
_symmetry_Int_Tables_number   1
_chemical_formula_structural   Zr3PaPt4
_chemical_formula_sum   'Zr3 Pa1 Pt4'
_cell_volume   162.44729227
_cell_formula_units_Z   1
loop_
 _symmetry_equiv_pos_site_id
 _symmetry_equiv_pos_as_xyz
  1  'x, y, z'
loop_
 _atom_site_type_symbol
 _atom_site_label
 _atom_site_symmetry_multiplicity
 _atom_site_fract_x
 _atom_site_fract_y
 _atom_site_fract_z
 _atom_site_occupancy
  Zr  Zr0  1  0.750000  0.347705  0.812071  1
  Zr  Zr1  1  0.750000  0.141495  0.327372  1
  Zr  Zr2  1  0.250000  0.864873  0.676780  1
  Pa  Pa3  1  0.250000  0.646040  0.178312  1
  Pt  Pt4  1  0.250000  0.156690  0.054004  1
  Pt  Pt5  1  0.750000  0.835284  0.940333  1
  Pt  Pt6  1  0.750000  0.665885  0.466209  1
  Pt  Pt7  1  0.250000  0.342027  0.544918  1
