# generated using pymatgen
data_HoTm(LuSb)3
_symmetry_space_group_name_H-M   'P 1'
_cell_length_a   8.05150600
_cell_length_b   9.12463300
_cell_length_c   11.69558500
_cell_angle_alpha   90.00000000
_cell_angle_beta   90.00000000
_cell_angle_gamma   90.00000000
_symmetry_Int_Tables_number   1
_chemical_formula_structural   HoTm(LuSb)3
_chemical_formula_sum   'Ho4 Tm4 Lu12 Sb12'
_cell_volume   859.23997999
_cell_formula_units_Z   4
loop_
 _symmetry_equiv_pos_site_id
 _symmetry_equiv_pos_as_xyz
  1  'x, y, z'
loop_
 _atom_site_type_symbol
 _atom_site_label
 _atom_site_symmetry_multiplicity
 _atom_site_fract_x
 _atom_site_fract_y
 _atom_site_fract_z
 _atom_site_occupancy
  Ho  Ho0  1  0.175815  0.750000  0.228994  1
  Ho  Ho1  1  0.675815  0.250000  0.271006  1
  Ho  Ho2  1  0.824185  0.250000  0.771006  1
  Ho  Ho3  1  0.324185  0.750000  0.728994  1
  Tm  Tm4  1  0.658441  0.750000  0.290850  1
  Tm  Tm5  1  0.158441  0.250000  0.209150  1
  Tm  Tm6  1  0.341559  0.250000  0.709150  1
  Tm  Tm7  1  0.841559  0.750000  0.790850  1
  Lu  Lu8  1  0.808855  0.939077  0.066001  1
  Lu  Lu9  1  0.308855  0.060923  0.433999  1
  Lu  Lu10  1  0.191145  0.439077  0.933999  1
  Lu  Lu11  1  0.691145  0.560923  0.566001  1
  Lu  Lu12  1  0.191145  0.060923  0.933999  1
  Lu  Lu13  1  0.691145  0.939077  0.566001  1
  Lu  Lu14  1  0.808855  0.560923  0.066001  1
  Lu  Lu15  1  0.308855  0.439077  0.433999  1
  Lu  Lu16  1  0.524693  0.250000  0.995143  1
  Lu  Lu17  1  0.024693  0.750000  0.504857  1
  Lu  Lu18  1  0.475307  0.750000  0.004857  1
  Lu  Lu19  1  0.975307  0.250000  0.495143  1
  Sb  Sb20  1  0.936347  0.990938  0.326233  1
  Sb  Sb21  1  0.436347  0.009062  0.173767  1
  Sb  Sb22  1  0.063653  0.490938  0.673767  1
  Sb  Sb23  1  0.563653  0.509062  0.826233  1
  Sb  Sb24  1  0.063653  0.009062  0.673767  1
  Sb  Sb25  1  0.563653  0.990938  0.826233  1
  Sb  Sb26  1  0.936347  0.509062  0.326233  1
  Sb  Sb27  1  0.436347  0.490938  0.173767  1
  Sb  Sb28  1  0.903155  0.250000  0.024925  1
  Sb  Sb29  1  0.403155  0.750000  0.475075  1
  Sb  Sb30  1  0.096845  0.750000  0.975075  1
  Sb  Sb31  1  0.596845  0.250000  0.524925  1
