# generated using pymatgen
data_Sm2Fe5CoMo2(P3Rh)2
_symmetry_space_group_name_H-M   'P 1'
_cell_length_a   3.77316300
_cell_length_b   10.56981400
_cell_length_c   12.09827800
_cell_angle_alpha   90.00000000
_cell_angle_beta   90.00000000
_cell_angle_gamma   90.00000000
_symmetry_Int_Tables_number   1
_chemical_formula_structural   Sm2Fe5CoMo2(P3Rh)2
_chemical_formula_sum   'Sm4 Fe10 Co2 Mo4 P12 Rh4'
_cell_volume   482.49906016
_cell_formula_units_Z   2
loop_
 _symmetry_equiv_pos_site_id
 _symmetry_equiv_pos_as_xyz
  1  'x, y, z'
loop_
 _atom_site_type_symbol
 _atom_site_label
 _atom_site_symmetry_multiplicity
 _atom_site_fract_x
 _atom_site_fract_y
 _atom_site_fract_z
 _atom_site_occupancy
  Sm  Sm0  1  0.250000  0.581798  0.708464  1
  Sm  Sm1  1  0.250000  0.918202  0.208464  1
  Sm  Sm2  1  0.750000  0.418355  0.291832  1
  Sm  Sm3  1  0.750000  0.081645  0.791832  1
  Fe  Fe4  1  0.250000  0.220129  0.175848  1
  Fe  Fe5  1  0.250000  0.279871  0.675848  1
  Fe  Fe6  1  0.750000  0.779016  0.824191  1
  Fe  Fe7  1  0.750000  0.720984  0.324191  1
  Fe  Fe8  1  0.250000  0.882332  0.692823  1
  Fe  Fe9  1  0.250000  0.617668  0.192823  1
  Fe  Fe10  1  0.750000  0.118133  0.306852  1
  Fe  Fe11  1  0.750000  0.381867  0.806852  1
  Fe  Fe12  1  0.250000  0.464309  0.938216  1
  Fe  Fe13  1  0.250000  0.035691  0.438216  1
  Co  Co14  1  0.750000  0.536731  0.064398  1
  Co  Co15  1  0.750000  0.963269  0.564398  1
  Mo  Mo16  1  0.250000  0.698612  0.985782  1
  Mo  Mo17  1  0.250000  0.801388  0.485782  1
  Mo  Mo18  1  0.750000  0.300389  0.012475  1
  Mo  Mo19  1  0.750000  0.199611  0.512475  1
  P  P20  1  0.250000  0.421184  0.113913  1
  P  P21  1  0.250000  0.078816  0.613913  1
  P  P22  1  0.750000  0.576816  0.886076  1
  P  P23  1  0.750000  0.923184  0.386076  1
  P  P24  1  0.250000  0.277110  0.858919  1
  P  P25  1  0.250000  0.222890  0.358919  1
  P  P26  1  0.750000  0.723508  0.141307  1
  P  P27  1  0.750000  0.776492  0.641307  1
  P  P28  1  0.250000  0.608073  0.377904  1
  P  P29  1  0.250000  0.891927  0.877904  1
  P  P30  1  0.750000  0.392148  0.621261  1
  P  P31  1  0.750000  0.107852  0.121261  1
  Rh  Rh32  1  0.250000  0.403883  0.483589  1
  Rh  Rh33  1  0.250000  0.096117  0.983589  1
  Rh  Rh34  1  0.750000  0.597402  0.516149  1
  Rh  Rh35  1  0.750000  0.902598  0.016149  1
