# generated using pymatgen
data_CaNd4Sn3N
_symmetry_space_group_name_H-M   'P 1'
_cell_length_a   9.57477207
_cell_length_b   9.57477242
_cell_length_c   9.57477234
_cell_angle_alpha   128.84936619
_cell_angle_beta   128.84936476
_cell_angle_gamma   75.25307084
_symmetry_Int_Tables_number   1
_chemical_formula_structural   CaNd4Sn3N
_chemical_formula_sum   'Ca2 Nd8 Sn6 N2'
_cell_volume   518.24227076
_cell_formula_units_Z   2
loop_
 _symmetry_equiv_pos_site_id
 _symmetry_equiv_pos_as_xyz
  1  'x, y, z'
loop_
 _atom_site_type_symbol
 _atom_site_label
 _atom_site_symmetry_multiplicity
 _atom_site_fract_x
 _atom_site_fract_y
 _atom_site_fract_z
 _atom_site_occupancy
  Ca  Ca0  1  0.500000  0.500000  0.000000  1
  Ca  Ca1  1  0.000000  0.000000  0.000000  1
  Nd  Nd2  1  0.499964  0.999964  0.808863  1
  Nd  Nd3  1  0.191101  0.691101  0.191137  1
  Nd  Nd4  1  0.999964  0.191101  0.500000  1
  Nd  Nd5  1  0.691101  0.499964  0.500000  1
  Nd  Nd6  1  0.500036  0.000036  0.191137  1
  Nd  Nd7  1  0.808899  0.308899  0.808863  1
  Nd  Nd8  1  0.000036  0.808899  0.500000  1
  Nd  Nd9  1  0.308899  0.500036  0.500000  1
  Sn  Sn10  1  0.250000  0.250000  0.000000  1
  Sn  Sn11  1  0.750000  0.750000  0.000000  1
  Sn  Sn12  1  0.871410  0.371410  0.242823  1
  Sn  Sn13  1  0.128590  0.628590  0.757177  1
  Sn  Sn14  1  0.371410  0.128590  0.500000  1
  Sn  Sn15  1  0.628590  0.871410  0.500000  1
  N  N16  1  0.250000  0.750000  0.500000  1
  N  N17  1  0.750000  0.250000  0.500000  1
