# generated using pymatgen
data_In4CuHg(SeO3)8
_symmetry_space_group_name_H-M   'P 1'
_cell_length_a   4.95942162
_cell_length_b   8.96933220
_cell_length_c   16.35202002
_cell_angle_alpha   70.23747431
_cell_angle_beta   86.11124786
_cell_angle_gamma   89.38681104
_symmetry_Int_Tables_number   1
_chemical_formula_structural   In4CuHg(SeO3)8
_chemical_formula_sum   'In4 Cu1 Hg1 Se8 O24'
_cell_volume   682.90673334
_cell_formula_units_Z   1
loop_
 _symmetry_equiv_pos_site_id
 _symmetry_equiv_pos_as_xyz
  1  'x, y, z'
loop_
 _atom_site_type_symbol
 _atom_site_label
 _atom_site_symmetry_multiplicity
 _atom_site_fract_x
 _atom_site_fract_y
 _atom_site_fract_z
 _atom_site_occupancy
  In  In0  1  0.555595  0.152121  0.775566  1
  In  In1  1  0.940101  0.160177  0.285221  1
  In  In2  1  0.444405  0.847879  0.224434  1
  In  In3  1  0.059899  0.839823  0.714779  1
  Cu  Cu4  1  0.500000  0.000000  0.500000  1
  Hg  Hg5  1  0.000000  0.000000  0.000000  1
  Se  Se6  1  0.553715  0.790931  0.877894  1
  Se  Se7  1  0.874654  0.798183  0.391653  1
  Se  Se8  1  0.446285  0.209069  0.122106  1
  Se  Se9  1  0.125346  0.201817  0.608347  1
  Se  Se10  1  0.012296  0.346406  0.857308  1
  Se  Se11  1  0.447196  0.337528  0.369879  1
  Se  Se12  1  0.987704  0.653594  0.142692  1
  Se  Se13  1  0.552804  0.662472  0.630121  1
  O  O14  1  0.780854  0.347428  0.782642  1
  O  O15  1  0.703118  0.356343  0.288905  1
  O  O16  1  0.219146  0.652572  0.217358  1
  O  O17  1  0.296882  0.643657  0.711095  1
  O  O18  1  0.824841  0.717249  0.833708  1
  O  O19  1  0.634065  0.727696  0.343958  1
  O  O20  1  0.175159  0.282751  0.166292  1
  O  O21  1  0.365935  0.272304  0.656042  1
  O  O22  1  0.223778  0.188471  0.858878  1
  O  O23  1  0.244646  0.183560  0.366942  1
  O  O24  1  0.776222  0.811529  0.141122  1
  O  O25  1  0.755354  0.816440  0.633058  1
  O  O26  1  0.681835  0.958837  0.892159  1
  O  O27  1  0.747773  0.974419  0.403435  1
  O  O28  1  0.318165  0.041163  0.107841  1
  O  O29  1  0.252227  0.025581  0.596565  1
  O  O30  1  0.379000  0.909295  0.787879  1
  O  O31  1  0.093798  0.910641  0.302965  1
  O  O32  1  0.621000  0.090705  0.212121  1
  O  O33  1  0.906202  0.089359  0.697035  1
  O  O34  1  0.855927  0.247428  0.959233  1
  O  O35  1  0.590085  0.227768  0.465366  1
  O  O36  1  0.144073  0.752572  0.040767  1
  O  O37  1  0.409915  0.772232  0.534634  1
