# generated using pymatgen
data_NdHoCu3Ni7Sn2
_symmetry_space_group_name_H-M   'P 1'
_cell_length_a   4.93491500
_cell_length_b   4.93491410
_cell_length_c   19.61272200
_cell_angle_alpha   90.00000000
_cell_angle_beta   90.00000000
_cell_angle_gamma   119.99999936
_symmetry_Int_Tables_number   1
_chemical_formula_structural   NdHoCu3Ni7Sn2
_chemical_formula_sum   'Nd2 Ho2 Cu6 Ni14 Sn4'
_cell_volume   413.64500161
_cell_formula_units_Z   2
loop_
 _symmetry_equiv_pos_site_id
 _symmetry_equiv_pos_as_xyz
  1  'x, y, z'
loop_
 _atom_site_type_symbol
 _atom_site_label
 _atom_site_symmetry_multiplicity
 _atom_site_fract_x
 _atom_site_fract_y
 _atom_site_fract_z
 _atom_site_occupancy
  Nd  Nd0  1  0.000000  0.000000  0.500000  1
  Nd  Nd1  1  0.000000  0.000000  0.000000  1
  Ho  Ho2  1  0.333333  0.666667  0.251718  1
  Ho  Ho3  1  0.666667  0.333333  0.748282  1
  Cu  Cu4  1  0.000000  0.000000  0.250309  1
  Cu  Cu5  1  0.000000  0.000000  0.749691  1
  Cu  Cu6  1  0.333333  0.666667  0.749326  1
  Cu  Cu7  1  0.666667  0.333333  0.250674  1
  Cu  Cu8  1  0.333333  0.666667  0.958004  1
  Cu  Cu9  1  0.666667  0.333333  0.041996  1
  Ni  Ni10  1  0.666667  0.333333  0.457719  1
  Ni  Ni11  1  0.333333  0.666667  0.542281  1
  Ni  Ni12  1  0.833630  0.166370  0.354078  1
  Ni  Ni13  1  0.833630  0.667260  0.354078  1
  Ni  Ni14  1  0.332740  0.166370  0.354078  1
  Ni  Ni15  1  0.166370  0.833630  0.645922  1
  Ni  Ni16  1  0.166370  0.332740  0.645922  1
  Ni  Ni17  1  0.667260  0.833630  0.645922  1
  Ni  Ni18  1  0.165962  0.834038  0.853247  1
  Ni  Ni19  1  0.165962  0.331925  0.853247  1
  Ni  Ni20  1  0.668075  0.834038  0.853247  1
  Ni  Ni21  1  0.834038  0.165962  0.146753  1
  Ni  Ni22  1  0.834038  0.668075  0.146753  1
  Ni  Ni23  1  0.331925  0.165962  0.146753  1
  Sn  Sn24  1  0.333333  0.666667  0.411386  1
  Sn  Sn25  1  0.666667  0.333333  0.588614  1
  Sn  Sn26  1  0.666667  0.333333  0.907415  1
  Sn  Sn27  1  0.333333  0.666667  0.092585  1
