# generated using pymatgen
data_ZnNiBi3Sb3O14
_symmetry_space_group_name_H-M   'P 1'
_cell_length_a   7.30253184
_cell_length_b   7.30251724
_cell_length_c   7.30247749
_cell_angle_alpha   62.11791998
_cell_angle_beta   62.11794739
_cell_angle_gamma   62.11777635
_symmetry_Int_Tables_number   1
_chemical_formula_structural   ZnNiBi3Sb3O14
_chemical_formula_sum   'Zn1 Ni1 Bi3 Sb3 O14'
_cell_volume   288.39340856
_cell_formula_units_Z   1
loop_
 _symmetry_equiv_pos_site_id
 _symmetry_equiv_pos_as_xyz
  1  'x, y, z'
loop_
 _atom_site_type_symbol
 _atom_site_label
 _atom_site_symmetry_multiplicity
 _atom_site_fract_x
 _atom_site_fract_y
 _atom_site_fract_z
 _atom_site_occupancy
  Zn  Zn0  1  0.499992  0.999939  0.500068  1
  Ni  Ni1  1  0.999954  0.499760  0.000336  1
  Bi  Bi2  1  0.000002  0.000014  0.499980  1
  Bi  Bi3  1  0.500013  0.000025  0.999992  1
  Bi  Bi4  1  0.499994  0.500006  0.499973  1
  Sb  Sb5  1  0.500002  0.500016  0.999979  1
  Sb  Sb6  1  0.000003  0.500015  0.499982  1
  Sb  Sb7  1  0.000004  0.000013  0.999980  1
  O  O8  1  0.609118  0.109121  0.609110  1
  O  O9  1  0.390885  0.890890  0.390876  1
  O  O10  1  0.076121  0.179342  0.679303  1
  O  O11  1  0.679334  0.179347  0.076076  1
  O  O12  1  0.679327  0.576147  0.679299  1
  O  O13  1  0.923888  0.820688  0.320652  1
  O  O14  1  0.320680  0.820693  0.923841  1
  O  O15  1  0.320672  0.423916  0.320650  1
  O  O16  1  0.658260  0.586817  0.086780  1
  O  O17  1  0.086814  0.586828  0.658232  1
  O  O18  1  0.086811  0.158271  0.086776  1
  O  O19  1  0.341744  0.413206  0.913187  1
  O  O20  1  0.913191  0.413194  0.341738  1
  O  O21  1  0.913193  0.841752  0.913191  1
