# generated using pymatgen
data_Ho9Er(TmGa10)2
_symmetry_space_group_name_H-M   'P 1'
_cell_length_a   6.07677203
_cell_length_b   9.61804400
_cell_length_c   11.48298706
_cell_angle_alpha   90.00000000
_cell_angle_beta   90.01095545
_cell_angle_gamma   90.00000000
_symmetry_Int_Tables_number   1
_chemical_formula_structural   Ho9Er(TmGa10)2
_chemical_formula_sum   'Ho9 Er1 Tm2 Ga20'
_cell_volume   671.14223629
_cell_formula_units_Z   1
loop_
 _symmetry_equiv_pos_site_id
 _symmetry_equiv_pos_as_xyz
  1  'x, y, z'
loop_
 _atom_site_type_symbol
 _atom_site_label
 _atom_site_symmetry_multiplicity
 _atom_site_fract_x
 _atom_site_fract_y
 _atom_site_fract_z
 _atom_site_occupancy
  Ho  Ho0  1  0.848577  0.750000  0.074105  1
  Ho  Ho1  1  0.890743  0.509717  0.351826  1
  Ho  Ho2  1  0.609240  0.990465  0.851466  1
  Ho  Ho3  1  0.109345  0.009951  0.648200  1
  Ho  Ho4  1  0.390446  0.490190  0.148336  1
  Ho  Ho5  1  0.109345  0.490049  0.648200  1
  Ho  Ho6  1  0.390446  0.009810  0.148336  1
  Ho  Ho7  1  0.890743  0.990283  0.351826  1
  Ho  Ho8  1  0.609240  0.509535  0.851466  1
  Er  Er9  1  0.151531  0.250000  0.925969  1
  Tm  Tm10  1  0.651538  0.750000  0.573938  1
  Tm  Tm11  1  0.348506  0.250000  0.425896  1
  Ga  Ga12  1  0.874780  0.053251  0.090501  1
  Ga  Ga13  1  0.624947  0.447364  0.590214  1
  Ga  Ga14  1  0.125079  0.552554  0.909383  1
  Ga  Ga15  1  0.375096  0.947539  0.409869  1
  Ga  Ga16  1  0.125079  0.947446  0.909383  1
  Ga  Ga17  1  0.375096  0.552461  0.409869  1
  Ga  Ga18  1  0.874780  0.446749  0.090501  1
  Ga  Ga19  1  0.624947  0.052636  0.590214  1
  Ga  Ga20  1  0.173389  0.750000  0.251798  1
  Ga  Ga21  1  0.328000  0.750000  0.751182  1
  Ga  Ga22  1  0.827561  0.250000  0.748449  1
  Ga  Ga23  1  0.672123  0.250000  0.248647  1
  Ga  Ga24  1  0.372223  0.750000  0.004901  1
  Ga  Ga25  1  0.126758  0.750000  0.505500  1
  Ga  Ga26  1  0.626606  0.250000  0.994823  1
  Ga  Ga27  1  0.873317  0.250000  0.494711  1
  Ga  Ga28  1  0.603403  0.750000  0.299844  1
  Ga  Ga29  1  0.896550  0.750000  0.798520  1
  Ga  Ga30  1  0.396767  0.250000  0.700820  1
  Ga  Ga31  1  0.103794  0.250000  0.201308  1
