# generated using pymatgen
data_Dy2ZnCo6SiB2
_symmetry_space_group_name_H-M   'P 1'
_cell_length_a   5.12245101
_cell_length_b   5.12217274
_cell_length_c   6.56550100
_cell_angle_alpha   90.00000000
_cell_angle_beta   90.00000000
_cell_angle_gamma   119.99600038
_symmetry_Int_Tables_number   1
_chemical_formula_structural   Dy2ZnCo6SiB2
_chemical_formula_sum   'Dy2 Zn1 Co6 Si1 B2'
_cell_volume   149.19285987
_cell_formula_units_Z   1
loop_
 _symmetry_equiv_pos_site_id
 _symmetry_equiv_pos_as_xyz
  1  'x, y, z'
loop_
 _atom_site_type_symbol
 _atom_site_label
 _atom_site_symmetry_multiplicity
 _atom_site_fract_x
 _atom_site_fract_y
 _atom_site_fract_z
 _atom_site_occupancy
  Dy  Dy0  1  0.999979  0.000006  0.000000  1
  Dy  Dy1  1  0.999995  0.000000  0.500000  1
  Zn  Zn2  1  0.333288  0.666602  0.000000  1
  Co  Co3  1  0.502118  0.004255  0.289804  1
  Co  Co4  1  0.502116  0.497876  0.289838  1
  Co  Co5  1  0.995720  0.497865  0.289840  1
  Co  Co6  1  0.502118  0.004255  0.710196  1
  Co  Co7  1  0.502116  0.497876  0.710162  1
  Co  Co8  1  0.995720  0.497865  0.710160  1
  Si  Si9  1  0.666664  0.333408  0.000000  1
  B  B10  1  0.333324  0.666680  0.500000  1
  B  B11  1  0.666642  0.333313  0.500000  1
