# generated using pymatgen
data_Rb(IrO3)2
_symmetry_space_group_name_H-M   'P 1'
_cell_length_a   7.21858253
_cell_length_b   7.21858235
_cell_length_c   7.21858200
_cell_angle_alpha   60.00000162
_cell_angle_beta   60.00000242
_cell_angle_gamma   60.00000346
_symmetry_Int_Tables_number   1
_chemical_formula_structural   Rb(IrO3)2
_chemical_formula_sum   'Rb2 Ir4 O12'
_cell_volume   265.97496620
_cell_formula_units_Z   2
loop_
 _symmetry_equiv_pos_site_id
 _symmetry_equiv_pos_as_xyz
  1  'x, y, z'
loop_
 _atom_site_type_symbol
 _atom_site_label
 _atom_site_symmetry_multiplicity
 _atom_site_fract_x
 _atom_site_fract_y
 _atom_site_fract_z
 _atom_site_occupancy
  Rb  Rb0  1  0.250000  0.250000  0.250000  1
  Rb  Rb1  1  0.000000  0.000000  0.000000  1
  Ir  Ir2  1  0.125000  0.625000  0.625000  1
  Ir  Ir3  1  0.625000  0.625000  0.125000  1
  Ir  Ir4  1  0.625000  0.125000  0.625000  1
  Ir  Ir5  1  0.625000  0.625000  0.625000  1
  O  O6  1  0.944477  0.555523  0.555523  1
  O  O7  1  0.305523  0.305523  0.694477  1
  O  O8  1  0.694477  0.694477  0.305523  1
  O  O9  1  0.555523  0.944477  0.944477  1
  O  O10  1  0.305523  0.694477  0.694477  1
  O  O11  1  0.944477  0.944477  0.555523  1
  O  O12  1  0.555523  0.944477  0.555523  1
  O  O13  1  0.694477  0.305523  0.694477  1
  O  O14  1  0.305523  0.694477  0.305523  1
  O  O15  1  0.944477  0.555523  0.944477  1
  O  O16  1  0.694477  0.305523  0.305523  1
  O  O17  1  0.555523  0.555523  0.944477  1
