# generated using pymatgen
data_La20Ir6Pt5Rh
_symmetry_space_group_name_H-M   'P 1'
_cell_length_a   11.50808940
_cell_length_b   11.49533444
_cell_length_c   6.74527204
_cell_angle_alpha   90.04556664
_cell_angle_beta   90.04466165
_cell_angle_gamma   89.96536470
_symmetry_Int_Tables_number   1
_chemical_formula_structural   La20Ir6Pt5Rh
_chemical_formula_sum   'La20 Ir6 Pt5 Rh1'
_cell_volume   892.32684627
_cell_formula_units_Z   1
loop_
 _symmetry_equiv_pos_site_id
 _symmetry_equiv_pos_as_xyz
  1  'x, y, z'
loop_
 _atom_site_type_symbol
 _atom_site_label
 _atom_site_symmetry_multiplicity
 _atom_site_fract_x
 _atom_site_fract_y
 _atom_site_fract_z
 _atom_site_occupancy
  La  La0  1  0.296889  0.093734  0.385000  1
  La  La1  1  0.296661  0.905567  0.881760  1
  La  La2  1  0.703635  0.089446  0.882551  1
  La  La3  1  0.702698  0.905642  0.384776  1
  La  La4  1  0.589272  0.791373  0.889906  1
  La  La5  1  0.587144  0.204236  0.386252  1
  La  La6  1  0.410766  0.792887  0.392964  1
  La  La7  1  0.407923  0.206528  0.891012  1
  La  La8  1  0.207575  0.411400  0.609029  1
  La  La9  1  0.206045  0.589437  0.109278  1
  La  La10  1  0.796764  0.412636  0.115696  1
  La  La11  1  0.794536  0.591444  0.608102  1
  La  La12  1  0.906368  0.702465  0.116742  1
  La  La13  1  0.911244  0.297423  0.616378  1
  La  La14  1  0.093632  0.702320  0.617204  1
  La  La15  1  0.094320  0.297910  0.117073  1
  La  La16  1  0.999760  0.999719  0.499469  1
  La  La17  1  0.000274  0.000217  0.000683  1
  La  La18  1  0.497391  0.502272  0.002277  1
  La  La19  1  0.497706  0.502553  0.498534  1
  Ir  Ir20  1  0.653234  0.654744  0.249807  1
  Ir  Ir21  1  0.347807  0.344286  0.250120  1
  Ir  Ir22  1  0.345587  0.654841  0.749255  1
  Ir  Ir23  1  0.500379  0.001469  0.624172  1
  Ir  Ir24  1  0.998529  0.499632  0.878207  1
  Ir  Ir25  1  0.999642  0.499314  0.380098  1
  Pt  Pt26  1  0.844552  0.153623  0.249995  1
  Pt  Pt27  1  0.845908  0.846829  0.749858  1
  Pt  Pt28  1  0.153463  0.153817  0.749470  1
  Pt  Pt29  1  0.154810  0.846927  0.249993  1
  Pt  Pt30  1  0.654809  0.344827  0.749697  1
  Rh  Rh31  1  0.500679  0.000483  0.114647  1
