# generated using pymatgen
data_Ac7La(CdSi2)4
_symmetry_space_group_name_H-M   'P 1'
_cell_length_a   4.47444800
_cell_length_b   8.02881416
_cell_length_c   15.65299104
_cell_angle_alpha   90.21013369
_cell_angle_beta   90.00000000
_cell_angle_gamma   90.00000000
_symmetry_Int_Tables_number   1
_chemical_formula_structural   Ac7La(CdSi2)4
_chemical_formula_sum   'Ac7 La1 Cd4 Si8'
_cell_volume   562.32227398
_cell_formula_units_Z   1
loop_
 _symmetry_equiv_pos_site_id
 _symmetry_equiv_pos_as_xyz
  1  'x, y, z'
loop_
 _atom_site_type_symbol
 _atom_site_label
 _atom_site_symmetry_multiplicity
 _atom_site_fract_x
 _atom_site_fract_y
 _atom_site_fract_z
 _atom_site_occupancy
  Ac  Ac0  1  0.500000  0.745491  0.032636  1
  Ac  Ac1  1  0.500000  0.246810  0.961910  1
  Ac  Ac2  1  0.500000  0.251285  0.469751  1
  Ac  Ac3  1  0.500000  0.753421  0.535212  1
  Ac  Ac4  1  0.500000  0.621664  0.283211  1
  Ac  Ac5  1  0.500000  0.381467  0.719373  1
  Ac  Ac6  1  0.500000  0.123642  0.215382  1
  La  La7  1  0.500000  0.879711  0.783255  1
  Cd  Cd8  1  0.000000  0.942743  0.376561  1
  Cd  Cd9  1  0.000000  0.054222  0.629284  1
  Cd  Cd10  1  0.000000  0.437901  0.121129  1
  Cd  Cd11  1  0.000000  0.570958  0.874983  1
  Si  Si12  1  0.000000  0.545937  0.428333  1
  Si  Si13  1  0.000000  0.461487  0.576353  1
  Si  Si14  1  0.000000  0.042613  0.069852  1
  Si  Si15  1  0.000000  0.944514  0.922549  1
  Si  Si16  1  0.000000  0.831549  0.177863  1
  Si  Si17  1  0.000000  0.156819  0.816254  1
  Si  Si18  1  0.000000  0.328603  0.323604  1
  Si  Si19  1  0.000000  0.679163  0.682505  1
