# generated using pymatgen
data_Ho12Tc3Hg2
_symmetry_space_group_name_H-M   'P 1'
_cell_length_a   8.36652854
_cell_length_b   8.36652836
_cell_length_c   8.36652907
_cell_angle_alpha   109.97185234
_cell_angle_beta   109.97185049
_cell_angle_gamma   108.47453411
_symmetry_Int_Tables_number   1
_chemical_formula_structural   Ho12Tc3Hg2
_chemical_formula_sum   'Ho12 Tc3 Hg2'
_cell_volume   450.72914803
_cell_formula_units_Z   1
loop_
 _symmetry_equiv_pos_site_id
 _symmetry_equiv_pos_as_xyz
  1  'x, y, z'
loop_
 _atom_site_type_symbol
 _atom_site_label
 _atom_site_symmetry_multiplicity
 _atom_site_fract_x
 _atom_site_fract_y
 _atom_site_fract_z
 _atom_site_occupancy
  Ho  Ho0  1  0.186140  0.432055  0.245916  1
  Ho  Ho1  1  0.813860  0.567945  0.754084  1
  Ho  Ho2  1  0.186140  0.940225  0.754084  1
  Ho  Ho3  1  0.940225  0.186140  0.754084  1
  Ho  Ho4  1  0.813860  0.059775  0.245916  1
  Ho  Ho5  1  0.059775  0.813860  0.245916  1
  Ho  Ho6  1  0.432055  0.186140  0.245916  1
  Ho  Ho7  1  0.567945  0.813860  0.754084  1
  Ho  Ho8  1  0.318238  0.318238  0.636478  1
  Ho  Ho9  1  0.681762  0.681762  0.363522  1
  Ho  Ho10  1  0.681762  0.318238  0.000000  1
  Ho  Ho11  1  0.318238  0.681762  0.000000  1
  Tc  Tc12  1  0.338803  0.338803  0.000000  1
  Tc  Tc13  1  0.661197  0.661197  0.000000  1
  Tc  Tc14  1  0.000000  0.000000  0.000000  1
  Hg  Hg15  1  0.000000  0.500000  0.500000  1
  Hg  Hg16  1  0.500000  0.000000  0.500000  1
