# generated using pymatgen
data_La4TmPb3Se
_symmetry_space_group_name_H-M   'P 1'
_cell_length_a   9.64084605
_cell_length_b   9.63844204
_cell_length_c   7.08646302
_cell_angle_alpha   89.99490093
_cell_angle_beta   90.00932616
_cell_angle_gamma   120.00081694
_symmetry_Int_Tables_number   1
_chemical_formula_structural   La4TmPb3Se
_chemical_formula_sum   'La8 Tm2 Pb6 Se2'
_cell_volume   570.26742493
_cell_formula_units_Z   2
loop_
 _symmetry_equiv_pos_site_id
 _symmetry_equiv_pos_as_xyz
  1  'x, y, z'
loop_
 _atom_site_type_symbol
 _atom_site_label
 _atom_site_symmetry_multiplicity
 _atom_site_fract_x
 _atom_site_fract_y
 _atom_site_fract_z
 _atom_site_occupancy
  La  La0  1  0.748014  0.748009  0.753147  1
  La  La1  1  0.252078  0.000008  0.753015  1
  La  La2  1  0.999989  0.252001  0.753091  1
  La  La3  1  0.251986  0.251991  0.246853  1
  La  La4  1  0.747922  0.999992  0.246985  1
  La  La5  1  0.000011  0.747999  0.246909  1
  La  La6  1  0.333386  0.666726  0.499993  1
  La  La7  1  0.666614  0.333274  0.500007  1
  Tm  Tm8  1  0.666609  0.333258  0.000005  1
  Tm  Tm9  1  0.333391  0.666742  0.999995  1
  Pb  Pb10  1  0.396275  0.396449  0.760808  1
  Pb  Pb11  1  0.603602  0.999998  0.760735  1
  Pb  Pb12  1  0.999826  0.603572  0.760770  1
  Pb  Pb13  1  0.603725  0.603551  0.239192  1
  Pb  Pb14  1  0.396398  0.000002  0.239265  1
  Pb  Pb15  1  0.000174  0.396428  0.239230  1
  Se  Se16  1  0.000000  0.000000  0.000000  1
  Se  Se17  1  0.000000  0.000000  0.500000  1
