# generated using pymatgen
data_Y5Cd2(InPd)2
_symmetry_space_group_name_H-M   'P 1'
_cell_length_a   3.64879700
_cell_length_b   8.03694200
_cell_length_c   18.34586400
_cell_angle_alpha   90.00000000
_cell_angle_beta   90.00000000
_cell_angle_gamma   90.00000000
_symmetry_Int_Tables_number   1
_chemical_formula_structural   Y5Cd2(InPd)2
_chemical_formula_sum   'Y10 Cd4 In4 Pd4'
_cell_volume   537.99557801
_cell_formula_units_Z   2
loop_
 _symmetry_equiv_pos_site_id
 _symmetry_equiv_pos_as_xyz
  1  'x, y, z'
loop_
 _atom_site_type_symbol
 _atom_site_label
 _atom_site_symmetry_multiplicity
 _atom_site_fract_x
 _atom_site_fract_y
 _atom_site_fract_z
 _atom_site_occupancy
  Y  Y0  1  0.000000  0.500000  0.500000  1
  Y  Y1  1  0.000000  0.000000  0.000000  1
  Y  Y2  1  0.000000  0.742864  0.283035  1
  Y  Y3  1  0.000000  0.257136  0.716965  1
  Y  Y4  1  0.000000  0.757136  0.783035  1
  Y  Y5  1  0.000000  0.242864  0.216965  1
  Y  Y6  1  0.000000  0.613026  0.083836  1
  Y  Y7  1  0.000000  0.386974  0.916164  1
  Y  Y8  1  0.000000  0.886974  0.583836  1
  Y  Y9  1  0.000000  0.113026  0.416164  1
  Cd  Cd10  1  0.500000  0.710304  0.932323  1
  Cd  Cd11  1  0.500000  0.289696  0.067677  1
  Cd  Cd12  1  0.500000  0.789696  0.432323  1
  Cd  Cd13  1  0.500000  0.210304  0.567677  1
  In  In14  1  0.500000  0.577562  0.648254  1
  In  In15  1  0.500000  0.422438  0.351746  1
  In  In16  1  0.500000  0.922438  0.148254  1
  In  In17  1  0.500000  0.077562  0.851746  1
  Pd  Pd18  1  0.500000  0.527680  0.197339  1
  Pd  Pd19  1  0.500000  0.472320  0.802661  1
  Pd  Pd20  1  0.500000  0.972320  0.697339  1
  Pd  Pd21  1  0.500000  0.027680  0.302661  1
