# generated using pymatgen
data_Sr3Tc2(P3Ru2)2
_symmetry_space_group_name_H-M   'P 1'
_cell_length_a   8.50524403
_cell_length_b   8.49453832
_cell_length_c   8.49453714
_cell_angle_alpha   151.82192014
_cell_angle_beta   99.08353453
_cell_angle_gamma   87.73579183
_symmetry_Int_Tables_number   1
_chemical_formula_structural   Sr3Tc2(P3Ru2)2
_chemical_formula_sum   'Sr3 Tc2 P6 Ru4'
_cell_volume   279.55786751
_cell_formula_units_Z   1
loop_
 _symmetry_equiv_pos_site_id
 _symmetry_equiv_pos_as_xyz
  1  'x, y, z'
loop_
 _atom_site_type_symbol
 _atom_site_label
 _atom_site_symmetry_multiplicity
 _atom_site_fract_x
 _atom_site_fract_y
 _atom_site_fract_z
 _atom_site_occupancy
  Sr  Sr0  1  0.334401  0.334036  0.000365  1
  Sr  Sr1  1  0.668141  0.666898  0.001243  1
  Sr  Sr2  1  0.999579  0.999139  0.000440  1
  Tc  Tc3  1  0.584964  0.833948  0.751015  1
  Tc  Tc4  1  0.250996  0.499483  0.751512  1
  P  P5  1  0.313624  0.666533  0.647090  1
  P  P6  1  0.682110  0.332861  0.349249  1
  P  P7  1  0.982479  0.332936  0.649543  1
  P  P8  1  0.350237  0.000600  0.349636  1
  P  P9  1  0.019553  0.666477  0.353077  1
  P  P10  1  0.649586  0.000510  0.649078  1
  Ru  Ru11  1  0.750580  0.502226  0.248354  1
  Ru  Ru12  1  0.080000  0.831072  0.248928  1
  Ru  Ru13  1  0.411653  0.166623  0.245029  1
  Ru  Ru14  1  0.922098  0.166657  0.755442  1
