# generated using pymatgen
data_Dy5YAl24Os7Pt
_symmetry_space_group_name_H-M   'P 1'
_cell_length_a   8.84116996
_cell_length_b   8.84254237
_cell_length_c   9.55933518
_cell_angle_alpha   89.62584367
_cell_angle_beta   90.37255714
_cell_angle_gamma   119.85581848
_symmetry_Int_Tables_number   1
_chemical_formula_structural   Dy5YAl24Os7Pt
_chemical_formula_sum   'Dy5 Y1 Al24 Os7 Pt1'
_cell_volume   648.12987272
_cell_formula_units_Z   1
loop_
 _symmetry_equiv_pos_site_id
 _symmetry_equiv_pos_as_xyz
  1  'x, y, z'
loop_
 _atom_site_type_symbol
 _atom_site_label
 _atom_site_symmetry_multiplicity
 _atom_site_fract_x
 _atom_site_fract_y
 _atom_site_fract_z
 _atom_site_occupancy
  Dy  Dy0  1  0.809416  0.613055  0.748688  1
  Dy  Dy1  1  0.613142  0.809472  0.251320  1
  Dy  Dy2  1  0.386935  0.190585  0.748681  1
  Dy  Dy3  1  0.194858  0.805213  0.251680  1
  Dy  Dy4  1  0.805121  0.194873  0.748335  1
  Y  Y5  1  0.190569  0.386799  0.251271  1
  Al  Al6  1  0.331591  0.668473  0.019139  1
  Al  Al7  1  0.668434  0.331576  0.980802  1
  Al  Al8  1  0.666595  0.333432  0.516550  1
  Al  Al9  1  0.333420  0.666611  0.483497  1
  Al  Al10  1  0.163533  0.325538  0.577082  1
  Al  Al11  1  0.836472  0.674464  0.422958  1
  Al  Al12  1  0.674460  0.836442  0.577040  1
  Al  Al13  1  0.842131  0.675506  0.077306  1
  Al  Al14  1  0.325561  0.163530  0.423002  1
  Al  Al15  1  0.157865  0.324497  0.922655  1
  Al  Al16  1  0.163482  0.836465  0.575258  1
  Al  Al17  1  0.324521  0.157855  0.077263  1
  Al  Al18  1  0.836464  0.163497  0.424778  1
  Al  Al19  1  0.675496  0.842117  0.922697  1
  Al  Al20  1  0.836859  0.163090  0.075355  1
  Al  Al21  1  0.163093  0.836876  0.924600  1
  Al  Al22  1  0.560326  0.121886  0.249075  1
  Al  Al23  1  0.439673  0.878099  0.750926  1
  Al  Al24  1  0.878091  0.439703  0.249087  1
  Al  Al25  1  0.121905  0.560333  0.750919  1
  Al  Al26  1  0.561818  0.438268  0.251932  1
  Al  Al27  1  0.438222  0.561774  0.748066  1
  Al  Al28  1  0.999609  0.000148  0.250132  1
  Al  Al29  1  0.000311  0.999680  0.749868  1
  Os  Os30  1  0.499997  0.000010  0.000008  1
  Os  Os31  1  0.999961  0.500024  0.999949  1
  Os  Os32  1  0.499997  0.999994  0.499988  1
  Os  Os33  1  0.999946  0.500041  0.500079  1
  Os  Os34  1  0.500058  0.500030  0.500041  1
  Os  Os35  1  0.000011  0.000011  0.000037  1
  Os  Os36  1  0.000008  0.000021  0.499958  1
  Pt  Pt37  1  0.500048  0.500012  0.999976  1
