# generated using pymatgen
data_Er3In4CuIr
_symmetry_space_group_name_H-M   'P 1'
_cell_length_a   7.95972200
_cell_length_b   7.95972247
_cell_length_c   3.68248900
_cell_angle_alpha   90.00000000
_cell_angle_beta   90.00000000
_cell_angle_gamma   119.99999805
_symmetry_Int_Tables_number   1
_chemical_formula_structural   Er3In4CuIr
_chemical_formula_sum   'Er3 In4 Cu1 Ir1'
_cell_volume   202.05421930
_cell_formula_units_Z   1
loop_
 _symmetry_equiv_pos_site_id
 _symmetry_equiv_pos_as_xyz
  1  'x, y, z'
loop_
 _atom_site_type_symbol
 _atom_site_label
 _atom_site_symmetry_multiplicity
 _atom_site_fract_x
 _atom_site_fract_y
 _atom_site_fract_z
 _atom_site_occupancy
  Er  Er0  1  0.705725  0.955229  0.500000  1
  Er  Er1  1  0.249504  0.294275  0.500000  1
  Er  Er2  1  0.044771  0.750496  0.500000  1
  In  In3  1  0.926317  0.337328  0.000000  1
  In  In4  1  0.411013  0.073683  0.000000  1
  In  In5  1  0.662672  0.588987  0.000000  1
  In  In6  1  0.333333  0.666667  0.000000  1
  Cu  Cu7  1  0.666667  0.333333  0.500000  1
  Ir  Ir8  1  0.000000  0.000000  0.000000  1
