# generated using pymatgen
data_Sr4TaV2WO12
_symmetry_space_group_name_H-M   'P 1'
_cell_length_a   5.63545817
_cell_length_b   5.63545322
_cell_length_c   8.13488325
_cell_angle_alpha   89.99224459
_cell_angle_beta   89.99786626
_cell_angle_gamma   89.99992498
_symmetry_Int_Tables_number   1
_chemical_formula_structural   Sr4TaV2WO12
_chemical_formula_sum   'Sr4 Ta1 V2 W1 O12'
_cell_volume   258.35055526
_cell_formula_units_Z   1
loop_
 _symmetry_equiv_pos_site_id
 _symmetry_equiv_pos_as_xyz
  1  'x, y, z'
loop_
 _atom_site_type_symbol
 _atom_site_label
 _atom_site_symmetry_multiplicity
 _atom_site_fract_x
 _atom_site_fract_y
 _atom_site_fract_z
 _atom_site_occupancy
  Sr  Sr0  1  0.000195  0.500019  0.246875  1
  Sr  Sr1  1  0.499976  0.999924  0.753113  1
  Sr  Sr2  1  0.500017  0.000086  0.246875  1
  Sr  Sr3  1  0.999810  0.499982  0.753113  1
  Ta  Ta4  1  0.499995  0.500011  0.499971  1
  V  V5  1  0.000004  0.999983  0.499994  1
  V  V6  1  0.500013  0.499966  0.000144  1
  W  W7  1  0.999995  0.000005  0.999988  1
  O  O8  1  0.999996  0.000031  0.240939  1
  O  O9  1  0.499988  0.499984  0.743509  1
  O  O10  1  0.500018  0.500016  0.256468  1
  O  O11  1  0.999999  0.999978  0.759053  1
  O  O12  1  0.710059  0.788756  0.500019  1
  O  O13  1  0.209929  0.292247  0.999947  1
  O  O14  1  0.790106  0.707744  0.000029  1
  O  O15  1  0.289907  0.211266  0.499984  1
  O  O16  1  0.707759  0.209913  0.999941  1
  O  O17  1  0.211240  0.710080  0.500000  1
  O  O18  1  0.788733  0.289925  0.500003  1
  O  O19  1  0.292260  0.790088  0.000034  1
