# generated using pymatgen
data_Hf4Zr4Co7Si14Ru
_symmetry_space_group_name_H-M   'P 1'
_cell_length_a   9.49529688
_cell_length_b   9.49354257
_cell_length_c   9.49919613
_cell_angle_alpha   94.15030704
_cell_angle_beta   94.16014089
_cell_angle_gamma   148.76079274
_symmetry_Int_Tables_number   1
_chemical_formula_structural   Hf4Zr4Co7Si14Ru
_chemical_formula_sum   'Hf4 Zr4 Co7 Si14 Ru1'
_cell_volume   427.70228689
_cell_formula_units_Z   1
loop_
 _symmetry_equiv_pos_site_id
 _symmetry_equiv_pos_as_xyz
  1  'x, y, z'
loop_
 _atom_site_type_symbol
 _atom_site_label
 _atom_site_symmetry_multiplicity
 _atom_site_fract_x
 _atom_site_fract_y
 _atom_site_fract_z
 _atom_site_occupancy
  Hf  Hf0  1  0.138085  0.138085  0.276173  1
  Hf  Hf1  1  0.862133  0.862133  0.724264  1
  Hf  Hf2  1  0.861571  0.137099  0.000846  1
  Hf  Hf3  1  0.139275  0.863747  0.000846  1
  Zr  Zr4  1  0.499611  0.304969  0.804484  1
  Zr  Zr5  1  0.500991  0.695603  0.196521  1
  Zr  Zr6  1  0.695529  0.500917  0.196521  1
  Zr  Zr7  1  0.304874  0.499516  0.804484  1
  Co  Co8  1  0.103631  0.603631  0.207260  1
  Co  Co9  1  0.100582  0.896902  0.499266  1
  Co  Co10  1  0.398684  0.602364  0.499266  1
  Co  Co11  1  0.600141  0.396499  0.499014  1
  Co  Co12  1  0.898873  0.102515  0.499014  1
  Co  Co13  1  0.898178  0.398178  0.796357  1
  Co  Co14  1  0.601622  0.101622  0.203242  1
  Si  Si15  1  0.507677  0.100755  0.587753  1
  Si  Si16  1  0.502550  0.910068  0.407381  1
  Si  Si17  1  0.904832  0.497313  0.407381  1
  Si  Si18  1  0.080077  0.486998  0.587753  1
  Si  Si19  1  0.751384  0.751818  0.000421  1
  Si  Si20  1  0.249037  0.248603  0.000421  1
  Si  Si21  1  0.289434  0.289434  0.578866  1
  Si  Si22  1  0.710668  0.710668  0.421339  1
  Si  Si23  1  0.721319  0.302020  0.004117  1
  Si  Si24  1  0.282798  0.702097  0.004117  1
  Si  Si25  1  0.999932  0.301057  0.301046  1
  Si  Si26  1  0.990574  0.694158  0.698208  1
  Si  Si27  1  0.707633  0.004050  0.698208  1
  Si  Si28  1  0.301115  0.999990  0.301046  1
  Ru  Ru29  1  0.397192  0.897192  0.794385  1
