# generated using pymatgen
data_RbBaO4
_symmetry_space_group_name_H-M   'P 1'
_cell_length_a   8.18149400
_cell_length_b   8.28638020
_cell_length_c   8.13225277
_cell_angle_alpha   61.14124713
_cell_angle_beta   90.00000000
_cell_angle_gamma   90.00000000
_symmetry_Int_Tables_number   1
_chemical_formula_structural   RbBaO4
_chemical_formula_sum   'Rb4 Ba4 O16'
_cell_volume   482.85789713
_cell_formula_units_Z   4
loop_
 _symmetry_equiv_pos_site_id
 _symmetry_equiv_pos_as_xyz
  1  'x, y, z'
loop_
 _atom_site_type_symbol
 _atom_site_label
 _atom_site_symmetry_multiplicity
 _atom_site_fract_x
 _atom_site_fract_y
 _atom_site_fract_z
 _atom_site_occupancy
  Rb  Rb0  1  0.166084  0.499612  0.678844  1
  Rb  Rb1  1  0.333916  0.499612  0.178844  1
  Rb  Rb2  1  0.833916  0.500388  0.321156  1
  Rb  Rb3  1  0.666084  0.500388  0.821156  1
  Ba  Ba4  1  0.003685  0.952213  0.774199  1
  Ba  Ba5  1  0.496315  0.952213  0.274199  1
  Ba  Ba6  1  0.996315  0.047787  0.225801  1
  Ba  Ba7  1  0.503685  0.047787  0.725801  1
  O  O8  1  0.897636  0.787686  0.574274  1
  O  O9  1  0.602364  0.787686  0.074274  1
  O  O10  1  0.102364  0.212314  0.425726  1
  O  O11  1  0.397636  0.212314  0.925726  1
  O  O12  1  0.788931  0.227044  0.722093  1
  O  O13  1  0.711069  0.227044  0.222093  1
  O  O14  1  0.211069  0.772956  0.277907  1
  O  O15  1  0.288931  0.772956  0.777907  1
  O  O16  1  0.902217  0.215396  0.859661  1
  O  O17  1  0.597783  0.215396  0.359661  1
  O  O18  1  0.097783  0.784604  0.140339  1
  O  O19  1  0.402217  0.784604  0.640339  1
  O  O20  1  0.718859  0.775837  0.950955  1
  O  O21  1  0.781141  0.775837  0.450955  1
  O  O22  1  0.281141  0.224163  0.049045  1
  O  O23  1  0.218859  0.224163  0.549045  1
