# generated using pymatgen
data_Y9Lu(In2Ir)4
_symmetry_space_group_name_H-M   'P 1'
_cell_length_a   3.65133400
_cell_length_b   8.03727743
_cell_length_c   18.33348797
_cell_angle_alpha   90.37348396
_cell_angle_beta   90.00000000
_cell_angle_gamma   90.00000000
_symmetry_Int_Tables_number   1
_chemical_formula_structural   Y9Lu(In2Ir)4
_chemical_formula_sum   'Y9 Lu1 In8 Ir4'
_cell_volume   538.01748707
_cell_formula_units_Z   1
loop_
 _symmetry_equiv_pos_site_id
 _symmetry_equiv_pos_as_xyz
  1  'x, y, z'
loop_
 _atom_site_type_symbol
 _atom_site_label
 _atom_site_symmetry_multiplicity
 _atom_site_fract_x
 _atom_site_fract_y
 _atom_site_fract_z
 _atom_site_occupancy
  Y  Y0  1  0.500000  0.757751  0.221946  1
  Y  Y1  1  0.500000  0.258584  0.278242  1
  Y  Y2  1  0.500000  0.743942  0.722542  1
  Y  Y3  1  0.500000  0.117319  0.589433  1
  Y  Y4  1  0.500000  0.885956  0.411248  1
  Y  Y5  1  0.500000  0.383605  0.088656  1
  Y  Y6  1  0.500000  0.611684  0.909245  1
  Y  Y7  1  0.500000  0.997824  0.000073  1
  Y  Y8  1  0.500000  0.501796  0.500154  1
  Lu  Lu9  1  0.500000  0.241491  0.777186  1
  In  In10  1  0.000000  0.071740  0.149646  1
  In  In11  1  0.000000  0.931965  0.851079  1
  In  In12  1  0.000000  0.427750  0.649130  1
  In  In13  1  0.000000  0.572910  0.350749  1
  In  In14  1  0.000000  0.208467  0.432059  1
  In  In15  1  0.000000  0.794693  0.569046  1
  In  In16  1  0.000000  0.289484  0.931317  1
  In  In17  1  0.000000  0.705602  0.067207  1
  Ir  Ir18  1  0.000000  0.024457  0.698135  1
  Ir  Ir19  1  0.000000  0.983797  0.304155  1
  Ir  Ir20  1  0.000000  0.483058  0.195586  1
  Ir  Ir21  1  0.000000  0.506125  0.803165  1
