# generated using pymatgen
data_Yb3Hf3Sc2(Ni4P3)4
_symmetry_space_group_name_H-M   'P 1'
_cell_length_a   12.39600800
_cell_length_b   12.38319020
_cell_length_c   3.77671000
_cell_angle_alpha   90.00000000
_cell_angle_beta   90.00000000
_cell_angle_gamma   119.96580150
_symmetry_Int_Tables_number   1
_chemical_formula_structural   Yb3Hf3Sc2(Ni4P3)4
_chemical_formula_sum   'Yb3 Hf3 Sc2 Ni16 P12'
_cell_volume   502.23643886
_cell_formula_units_Z   1
loop_
 _symmetry_equiv_pos_site_id
 _symmetry_equiv_pos_as_xyz
  1  'x, y, z'
loop_
 _atom_site_type_symbol
 _atom_site_label
 _atom_site_symmetry_multiplicity
 _atom_site_fract_x
 _atom_site_fract_y
 _atom_site_fract_z
 _atom_site_occupancy
  Yb  Yb0  1  0.000000  0.816996  0.500000  1
  Yb  Yb1  1  0.332347  0.666290  0.000000  1
  Yb  Yb2  1  0.667653  0.333943  0.000000  1
  Hf  Hf3  1  0.560748  0.560811  0.000000  1
  Hf  Hf4  1  0.439252  0.000062  0.000000  1
  Hf  Hf5  1  0.000000  0.437153  0.000000  1
  Sc  Sc6  1  0.185874  0.185541  0.500000  1
  Sc  Sc7  1  0.814126  0.999668  0.500000  1
  Ni  Ni8  1  0.726121  0.729661  0.500000  1
  Ni  Ni9  1  0.273879  0.003539  0.500000  1
  Ni  Ni10  1  0.000000  0.269804  0.500000  1
  Ni  Ni11  1  0.182637  0.371493  0.000000  1
  Ni  Ni12  1  0.626032  0.810095  0.000000  1
  Ni  Ni13  1  0.191305  0.815507  0.000000  1
  Ni  Ni14  1  0.808695  0.624201  0.000000  1
  Ni  Ni15  1  0.817363  0.188857  0.000000  1
  Ni  Ni16  1  0.373968  0.184063  0.000000  1
  Ni  Ni17  1  0.359476  0.483676  0.500000  1
  Ni  Ni18  1  0.515012  0.875005  0.500000  1
  Ni  Ni19  1  0.125018  0.639388  0.500000  1
  Ni  Ni20  1  0.874982  0.514368  0.500000  1
  Ni  Ni21  1  0.640524  0.124200  0.500000  1
  Ni  Ni22  1  0.484988  0.359991  0.500000  1
  Ni  Ni23  1  0.000000  0.001931  0.000000  1
  P  P24  1  0.823810  0.827925  0.000000  1
  P  P25  1  0.176190  0.004115  0.000000  1
  P  P26  1  0.000000  0.174424  0.000000  1
  P  P27  1  0.169053  0.474025  0.500000  1
  P  P28  1  0.523238  0.693300  0.500000  1
  P  P29  1  0.304959  0.831577  0.500000  1
  P  P30  1  0.695041  0.526616  0.500000  1
  P  P31  1  0.830947  0.304971  0.500000  1
  P  P32  1  0.476762  0.170061  0.500000  1
  P  P33  1  0.352868  0.353028  0.000000  1
  P  P34  1  0.647132  0.000161  0.000000  1
  P  P35  1  0.000000  0.643553  0.000000  1
