# generated using pymatgen
data_Tm7Pa(Ta3Ge4)4
_symmetry_space_group_name_H-M   'P 1'
_cell_length_a   6.98301798
_cell_length_b   7.13102689
_cell_length_c   13.49238953
_cell_angle_alpha   90.04126083
_cell_angle_beta   90.16873980
_cell_angle_gamma   89.96021930
_symmetry_Int_Tables_number   1
_chemical_formula_structural   Tm7Pa(Ta3Ge4)4
_chemical_formula_sum   'Tm7 Pa1 Ta12 Ge16'
_cell_volume   671.86498042
_cell_formula_units_Z   1
loop_
 _symmetry_equiv_pos_site_id
 _symmetry_equiv_pos_as_xyz
  1  'x, y, z'
loop_
 _atom_site_type_symbol
 _atom_site_label
 _atom_site_symmetry_multiplicity
 _atom_site_fract_x
 _atom_site_fract_y
 _atom_site_fract_z
 _atom_site_occupancy
  Tm  Tm0  1  0.994081  0.825428  0.907811  1
  Tm  Tm1  1  0.505699  0.324879  0.093980  1
  Tm  Tm2  1  0.006839  0.174843  0.404039  1
  Tm  Tm3  1  0.505754  0.326062  0.405207  1
  Tm  Tm4  1  0.006308  0.174677  0.094026  1
  Tm  Tm5  1  0.493287  0.675007  0.906853  1
  Tm  Tm6  1  0.990946  0.824579  0.593838  1
  Pa  Pa7  1  0.495117  0.674783  0.593711  1
  Ta  Ta8  1  0.656269  0.166811  0.626879  1
  Ta  Ta9  1  0.156599  0.329335  0.873427  1
  Ta  Ta10  1  0.341189  0.831384  0.126172  1
  Ta  Ta11  1  0.839686  0.667475  0.373976  1
  Ta  Ta12  1  0.344234  0.830618  0.375144  1
  Ta  Ta13  1  0.842035  0.668742  0.126416  1
  Ta  Ta14  1  0.660893  0.168076  0.874334  1
  Ta  Ta15  1  0.162915  0.335844  0.626054  1
  Ta  Ta16  1  0.831552  0.488568  0.749469  1
  Ta  Ta17  1  0.334618  0.009413  0.748704  1
  Ta  Ta18  1  0.164901  0.512439  0.249362  1
  Ta  Ta19  1  0.667053  0.987230  0.250070  1
  Ge  Ge20  1  0.680067  0.963417  0.456579  1
  Ge  Ge21  1  0.177975  0.537872  0.042126  1
  Ge  Ge22  1  0.322601  0.038396  0.957813  1
  Ge  Ge23  1  0.825864  0.455944  0.541111  1
  Ge  Ge24  1  0.317103  0.042522  0.541445  1
  Ge  Ge25  1  0.821772  0.462442  0.958162  1
  Ge  Ge26  1  0.678134  0.961956  0.042742  1
  Ge  Ge27  1  0.177426  0.539437  0.456013  1
  Ge  Ge28  1  0.459630  0.379731  0.751983  1
  Ge  Ge29  1  0.959863  0.120274  0.748804  1
  Ge  Ge30  1  0.539781  0.618884  0.249431  1
  Ge  Ge31  1  0.041656  0.880292  0.250408  1
  Ge  Ge32  1  0.695434  0.859246  0.753522  1
  Ge  Ge33  1  0.189109  0.643358  0.751856  1
  Ge  Ge34  1  0.307663  0.143122  0.249236  1
  Ge  Ge35  1  0.805949  0.356917  0.249296  1
