# generated using pymatgen
data_Ac7Pr(Sc3Pb4)4
_symmetry_space_group_name_H-M   'P 1'
_cell_length_a   8.22625221
_cell_length_b   15.60749774
_cell_length_c   8.28870100
_cell_angle_alpha   89.89690607
_cell_angle_beta   90.01281559
_cell_angle_gamma   90.16598375
_symmetry_Int_Tables_number   1
_chemical_formula_structural   Ac7Pr(Sc3Pb4)4
_chemical_formula_sum   'Ac7 Pr1 Sc12 Pb16'
_cell_volume   1064.19015946
_cell_formula_units_Z   1
loop_
 _symmetry_equiv_pos_site_id
 _symmetry_equiv_pos_as_xyz
  1  'x, y, z'
loop_
 _atom_site_type_symbol
 _atom_site_label
 _atom_site_symmetry_multiplicity
 _atom_site_fract_x
 _atom_site_fract_y
 _atom_site_fract_z
 _atom_site_occupancy
  Ac  Ac0  1  0.482386  0.594211  0.673374  1
  Ac  Ac1  1  0.983593  0.906147  0.828078  1
  Ac  Ac2  1  0.517931  0.093339  0.328354  1
  Ac  Ac3  1  0.018200  0.407659  0.171840  1
  Ac  Ac4  1  0.514297  0.408978  0.325449  1
  Ac  Ac5  1  0.017251  0.093397  0.173081  1
  Ac  Ac6  1  0.481059  0.903671  0.673037  1
  Pr  Pr7  1  0.977941  0.595977  0.825213  1
  Sc  Sc8  1  0.644813  0.625615  0.153569  1
  Sc  Sc9  1  0.143986  0.869533  0.345419  1
  Sc  Sc10  1  0.355130  0.127180  0.842835  1
  Sc  Sc11  1  0.854652  0.374308  0.658412  1
  Sc  Sc12  1  0.358075  0.375486  0.845553  1
  Sc  Sc13  1  0.855008  0.127394  0.655182  1
  Sc  Sc14  1  0.646477  0.871430  0.155784  1
  Sc  Sc15  1  0.146289  0.627109  0.343760  1
  Sc  Sc16  1  0.810908  0.748443  0.491195  1
  Sc  Sc17  1  0.309882  0.748269  0.007179  1
  Sc  Sc18  1  0.190086  0.250615  0.510164  1
  Sc  Sc19  1  0.691756  0.251695  0.990871  1
  Pb  Pb20  1  0.690691  0.455580  0.945879  1
  Pb  Pb21  1  0.183650  0.047621  0.553341  1
  Pb  Pb22  1  0.318023  0.950702  0.055234  1
  Pb  Pb23  1  0.819324  0.548200  0.452477  1
  Pb  Pb24  1  0.307257  0.550295  0.045716  1
  Pb  Pb25  1  0.816401  0.950402  0.446804  1
  Pb  Pb26  1  0.682474  0.048423  0.945633  1
  Pb  Pb27  1  0.180026  0.454242  0.557037  1
  Pb  Pb28  1  0.451733  0.748450  0.356312  1
  Pb  Pb29  1  0.951372  0.747173  0.140260  1
  Pb  Pb30  1  0.548582  0.252059  0.642691  1
  Pb  Pb31  1  0.050073  0.250189  0.857005  1
  Pb  Pb32  1  0.675511  0.748402  0.859759  1
  Pb  Pb33  1  0.165814  0.746504  0.644232  1
  Pb  Pb34  1  0.330775  0.250407  0.138567  1
  Pb  Pb35  1  0.828574  0.250891  0.360705  1
