# generated using pymatgen
data_Tm12Th4Cd4Ir3Ru
_symmetry_space_group_name_H-M   'P 1'
_cell_length_a   9.65610339
_cell_length_b   9.65603994
_cell_length_c   9.65655491
_cell_angle_alpha   59.80419301
_cell_angle_beta   59.81175892
_cell_angle_gamma   59.81510146
_symmetry_Int_Tables_number   1
_chemical_formula_structural   Tm12Th4Cd4Ir3Ru
_chemical_formula_sum   'Tm12 Th4 Cd4 Ir3 Ru1'
_cell_volume   633.92011400
_cell_formula_units_Z   1
loop_
 _symmetry_equiv_pos_site_id
 _symmetry_equiv_pos_as_xyz
  1  'x, y, z'
loop_
 _atom_site_type_symbol
 _atom_site_label
 _atom_site_symmetry_multiplicity
 _atom_site_fract_x
 _atom_site_fract_y
 _atom_site_fract_z
 _atom_site_occupancy
  Tm  Tm0  1  0.063531  0.437354  0.437314  1
  Tm  Tm1  1  0.436817  0.062843  0.062709  1
  Tm  Tm2  1  0.437362  0.063536  0.437314  1
  Tm  Tm3  1  0.062845  0.436816  0.062707  1
  Tm  Tm4  1  0.437501  0.437494  0.063266  1
  Tm  Tm5  1  0.062931  0.062929  0.436645  1
  Tm  Tm6  1  0.185208  0.815772  0.815464  1
  Tm  Tm7  1  0.815113  0.184923  0.184250  1
  Tm  Tm8  1  0.815764  0.185203  0.815464  1
  Tm  Tm9  1  0.184928  0.815108  0.184252  1
  Tm  Tm10  1  0.815871  0.815875  0.184619  1
  Tm  Tm11  1  0.184819  0.184815  0.814729  1
  Th  Th12  1  0.600341  0.600341  0.600200  1
  Th  Th13  1  0.598883  0.598895  0.200420  1
  Th  Th14  1  0.599224  0.199500  0.599117  1
  Th  Th15  1  0.199504  0.599216  0.599111  1
  Cd  Cd16  1  0.833103  0.833106  0.833944  1
  Cd  Cd17  1  0.832883  0.832873  0.499115  1
  Cd  Cd18  1  0.832602  0.499141  0.833422  1
  Cd  Cd19  1  0.499136  0.832608  0.833427  1
  Ir  Ir20  1  0.392411  0.392421  0.823318  1
  Ir  Ir21  1  0.392222  0.823548  0.392631  1
  Ir  Ir22  1  0.823548  0.392227  0.392625  1
  Ru  Ru23  1  0.393453  0.393452  0.393936  1
