# generated using pymatgen
data_Tb8Dy2Sn5Sb
_symmetry_space_group_name_H-M   'P 1'
_cell_length_a   9.02155500
_cell_length_b   9.01333414
_cell_length_c   6.53759902
_cell_angle_alpha   90.00756725
_cell_angle_beta   90.00000000
_cell_angle_gamma   120.03017221
_symmetry_Int_Tables_number   1
_chemical_formula_structural   Tb8Dy2Sn5Sb
_chemical_formula_sum   'Tb8 Dy2 Sn5 Sb1'
_cell_volume   460.23925471
_cell_formula_units_Z   1
loop_
 _symmetry_equiv_pos_site_id
 _symmetry_equiv_pos_as_xyz
  1  'x, y, z'
loop_
 _atom_site_type_symbol
 _atom_site_label
 _atom_site_symmetry_multiplicity
 _atom_site_fract_x
 _atom_site_fract_y
 _atom_site_fract_z
 _atom_site_occupancy
  Tb  Tb0  1  0.997846  0.759647  0.750011  1
  Tb  Tb1  1  0.000797  0.239542  0.250020  1
  Tb  Tb2  1  0.761255  0.760458  0.249980  1
  Tb  Tb3  1  0.761184  0.000000  0.750000  1
  Tb  Tb4  1  0.238199  0.240353  0.749989  1
  Tb  Tb5  1  0.239550  0.000000  0.250000  1
  Tb  Tb6  1  0.333200  0.665685  0.500772  1
  Tb  Tb7  1  0.667516  0.334315  0.999228  1
  Dy  Dy8  1  0.667580  0.334383  0.500755  1
  Dy  Dy9  1  0.333196  0.665617  0.999245  1
  Sn  Sn10  1  0.395194  0.394403  0.250012  1
  Sn  Sn11  1  0.000790  0.605597  0.249988  1
  Sn  Sn12  1  0.999948  0.395483  0.750005  1
  Sn  Sn13  1  0.604465  0.604517  0.749995  1
  Sn  Sn14  1  0.605899  0.000000  0.250000  1
  Sb  Sb15  1  0.393380  0.000000  0.750000  1
