# generated using pymatgen
data_Ho3Er2Hf5(Si5Ir2)4
_symmetry_space_group_name_H-M   'P 1'
_cell_length_a   12.48003807
_cell_length_b   12.48004707
_cell_length_c   4.16204700
_cell_angle_alpha   90.00000000
_cell_angle_beta   90.00000000
_cell_angle_gamma   90.01218449
_symmetry_Int_Tables_number   1
_chemical_formula_structural   Ho3Er2Hf5(Si5Ir2)4
_chemical_formula_sum   'Ho3 Er2 Hf5 Si20 Ir8'
_cell_volume   648.24489285
_cell_formula_units_Z   1
loop_
 _symmetry_equiv_pos_site_id
 _symmetry_equiv_pos_as_xyz
  1  'x, y, z'
loop_
 _atom_site_type_symbol
 _atom_site_label
 _atom_site_symmetry_multiplicity
 _atom_site_fract_x
 _atom_site_fract_y
 _atom_site_fract_z
 _atom_site_occupancy
  Ho  Ho0  1  0.884111  0.384440  0.500000  1
  Ho  Ho1  1  0.115893  0.615554  0.500000  1
  Ho  Ho2  1  0.384457  0.115873  0.500000  1
  Er  Er3  1  0.999983  0.000012  0.000000  1
  Er  Er4  1  0.615536  0.884162  0.500000  1
  Hf  Hf5  1  0.500000  0.500010  0.000000  1
  Hf  Hf6  1  0.673465  0.174977  0.500000  1
  Hf  Hf7  1  0.326572  0.824985  0.500000  1
  Hf  Hf8  1  0.174990  0.326538  0.500000  1
  Hf  Hf9  1  0.824982  0.673471  0.500000  1
  Si  Si10  1  0.565732  0.067561  0.000000  1
  Si  Si11  1  0.434338  0.932373  0.000000  1
  Si  Si12  1  0.067621  0.434272  0.000000  1
  Si  Si13  1  0.932381  0.565726  0.000000  1
  Si  Si14  1  0.665812  0.701402  0.000000  1
  Si  Si15  1  0.334182  0.298653  0.000000  1
  Si  Si16  1  0.164193  0.800780  0.000000  1
  Si  Si17  1  0.835806  0.199213  0.000000  1
  Si  Si18  1  0.298671  0.665828  0.000000  1
  Si  Si19  1  0.701339  0.334175  0.000000  1
  Si  Si20  1  0.199229  0.164180  0.000000  1
  Si  Si21  1  0.800718  0.835828  0.000000  1
  Si  Si22  1  0.651257  0.507612  0.500000  1
  Si  Si23  1  0.348750  0.492394  0.500000  1
  Si  Si24  1  0.156123  0.992843  0.500000  1
  Si  Si25  1  0.843845  0.007158  0.500000  1
  Si  Si26  1  0.492392  0.651282  0.500000  1
  Si  Si27  1  0.507610  0.348737  0.500000  1
  Si  Si28  1  0.007164  0.156112  0.500000  1
  Si  Si29  1  0.992836  0.843878  0.500000  1
  Ir  Ir30  1  0.742209  0.521379  0.000000  1
  Ir  Ir31  1  0.257791  0.478633  0.000000  1
  Ir  Ir32  1  0.246391  0.978229  0.000000  1
  Ir  Ir33  1  0.753482  0.021603  0.000000  1
  Ir  Ir34  1  0.478779  0.742335  0.000000  1
  Ir  Ir35  1  0.521374  0.257785  0.000000  1
  Ir  Ir36  1  0.021769  0.246391  0.000000  1
  Ir  Ir37  1  0.978216  0.753614  0.000000  1
