# generated using pymatgen
data_Yb12Dy7HoSi16
_symmetry_space_group_name_H-M   'P 1'
_cell_length_a   7.42181904
_cell_length_b   7.79238702
_cell_length_c   15.11302405
_cell_angle_alpha   90.00035052
_cell_angle_beta   89.99114844
_cell_angle_gamma   89.99114241
_symmetry_Int_Tables_number   1
_chemical_formula_structural   Yb12Dy7HoSi16
_chemical_formula_sum   'Yb12 Dy7 Ho1 Si16'
_cell_volume   874.04187245
_cell_formula_units_Z   1
loop_
 _symmetry_equiv_pos_site_id
 _symmetry_equiv_pos_as_xyz
  1  'x, y, z'
loop_
 _atom_site_type_symbol
 _atom_site_label
 _atom_site_symmetry_multiplicity
 _atom_site_fract_x
 _atom_site_fract_y
 _atom_site_fract_z
 _atom_site_occupancy
  Yb  Yb0  1  0.970568  0.815555  0.403138  1
  Yb  Yb1  1  0.470522  0.684471  0.096853  1
  Yb  Yb2  1  0.529445  0.315541  0.596855  1
  Yb  Yb3  1  0.029462  0.184444  0.903157  1
  Yb  Yb4  1  0.029435  0.184458  0.596854  1
  Yb  Yb5  1  0.529421  0.315533  0.903160  1
  Yb  Yb6  1  0.470560  0.684456  0.403140  1
  Yb  Yb7  1  0.970596  0.815569  0.096861  1
  Yb  Yb8  1  0.354754  0.019249  0.750001  1
  Yb  Yb9  1  0.854756  0.480765  0.749996  1
  Yb  Yb10  1  0.145266  0.519202  0.249981  1
  Yb  Yb11  1  0.645197  0.980783  0.249985  1
  Dy  Dy12  1  0.813775  0.322944  0.378928  1
  Dy  Dy13  1  0.186209  0.677046  0.878937  1
  Dy  Dy14  1  0.686209  0.822952  0.621063  1
  Dy  Dy15  1  0.313808  0.177069  0.378900  1
  Dy  Dy16  1  0.813797  0.322895  0.121072  1
  Dy  Dy17  1  0.186213  0.677047  0.621063  1
  Dy  Dy18  1  0.686183  0.822964  0.878954  1
  Ho  Ho19  1  0.313818  0.176930  0.121085  1
  Si  Si20  1  0.858773  0.533094  0.538543  1
  Si  Si21  1  0.358715  0.967017  0.961547  1
  Si  Si22  1  0.641233  0.033099  0.461461  1
  Si  Si23  1  0.141396  0.466789  0.038608  1
  Si  Si24  1  0.141220  0.466915  0.461458  1
  Si  Si25  1  0.641056  0.033179  0.038594  1
  Si  Si26  1  0.358781  0.966906  0.538542  1
  Si  Si27  1  0.858787  0.533065  0.961459  1
  Si  Si28  1  0.978504  0.885288  0.750000  1
  Si  Si29  1  0.478512  0.614718  0.750001  1
  Si  Si30  1  0.521360  0.385158  0.249963  1
  Si  Si31  1  0.021605  0.114775  0.249926  1
  Si  Si32  1  0.249334  0.393971  0.750002  1
  Si  Si33  1  0.749334  0.106033  0.750001  1
  Si  Si34  1  0.250738  0.894088  0.249927  1
  Si  Si35  1  0.750658  0.606036  0.249986  1
