# generated using pymatgen
data_NdMnCo4P3
_symmetry_space_group_name_H-M   'P 1'
_cell_length_a   3.69429900
_cell_length_b   10.43851900
_cell_length_c   11.91714900
_cell_angle_alpha   90.00000000
_cell_angle_beta   90.00000000
_cell_angle_gamma   90.00000000
_symmetry_Int_Tables_number   1
_chemical_formula_structural   NdMnCo4P3
_chemical_formula_sum   'Nd4 Mn4 Co16 P12'
_cell_volume   459.56113967
_cell_formula_units_Z   4
loop_
 _symmetry_equiv_pos_site_id
 _symmetry_equiv_pos_as_xyz
  1  'x, y, z'
loop_
 _atom_site_type_symbol
 _atom_site_label
 _atom_site_symmetry_multiplicity
 _atom_site_fract_x
 _atom_site_fract_y
 _atom_site_fract_z
 _atom_site_occupancy
  Nd  Nd0  1  0.250000  0.582607  0.703252  1
  Nd  Nd1  1  0.250000  0.917393  0.203252  1
  Nd  Nd2  1  0.750000  0.417393  0.296748  1
  Nd  Nd3  1  0.750000  0.082607  0.796748  1
  Mn  Mn4  1  0.250000  0.707805  0.988702  1
  Mn  Mn5  1  0.250000  0.792195  0.488702  1
  Mn  Mn6  1  0.750000  0.292195  0.011298  1
  Mn  Mn7  1  0.750000  0.207805  0.511298  1
  Co  Co8  1  0.250000  0.405470  0.490039  1
  Co  Co9  1  0.250000  0.094530  0.990039  1
  Co  Co10  1  0.750000  0.594530  0.509961  1
  Co  Co11  1  0.750000  0.905470  0.009961  1
  Co  Co12  1  0.250000  0.220847  0.175730  1
  Co  Co13  1  0.250000  0.279153  0.675730  1
  Co  Co14  1  0.750000  0.779153  0.824270  1
  Co  Co15  1  0.750000  0.720847  0.324270  1
  Co  Co16  1  0.250000  0.883112  0.697776  1
  Co  Co17  1  0.250000  0.616888  0.197776  1
  Co  Co18  1  0.750000  0.116888  0.302224  1
  Co  Co19  1  0.750000  0.383112  0.802224  1
  Co  Co20  1  0.250000  0.466876  0.933238  1
  Co  Co21  1  0.250000  0.033124  0.433238  1
  Co  Co22  1  0.750000  0.533124  0.066762  1
  Co  Co23  1  0.750000  0.966876  0.566762  1
  P  P24  1  0.250000  0.418901  0.110564  1
  P  P25  1  0.250000  0.081099  0.610564  1
  P  P26  1  0.750000  0.581099  0.889436  1
  P  P27  1  0.750000  0.918901  0.389436  1
  P  P28  1  0.250000  0.274517  0.867544  1
  P  P29  1  0.250000  0.225483  0.367544  1
  P  P30  1  0.750000  0.725483  0.132456  1
  P  P31  1  0.750000  0.774517  0.632456  1
  P  P32  1  0.250000  0.603733  0.393026  1
  P  P33  1  0.250000  0.896267  0.893026  1
  P  P34  1  0.750000  0.396267  0.606974  1
  P  P35  1  0.750000  0.103733  0.106974  1
