# generated using pymatgen
data_Ta12MnGa8Cu3C4
_symmetry_space_group_name_H-M   'P 1'
_cell_length_a   8.28677457
_cell_length_b   8.23367320
_cell_length_c   8.23367200
_cell_angle_alpha   60.00000482
_cell_angle_beta   60.21175317
_cell_angle_gamma   60.21174752
_symmetry_Int_Tables_number   1
_chemical_formula_structural   Ta12MnGa8Cu3C4
_chemical_formula_sum   'Ta12 Mn1 Ga8 Cu3 C4'
_cell_volume   398.51102984
_cell_formula_units_Z   1
loop_
 _symmetry_equiv_pos_site_id
 _symmetry_equiv_pos_as_xyz
  1  'x, y, z'
loop_
 _atom_site_type_symbol
 _atom_site_label
 _atom_site_symmetry_multiplicity
 _atom_site_fract_x
 _atom_site_fract_y
 _atom_site_fract_z
 _atom_site_occupancy
  Ta  Ta0  1  0.683365  0.311156  0.694323  1
  Ta  Ta1  1  0.933017  0.566237  0.566237  1
  Ta  Ta2  1  0.566635  0.938844  0.938844  1
  Ta  Ta3  1  0.933017  0.566237  0.934508  1
  Ta  Ta4  1  0.566635  0.555677  0.938844  1
  Ta  Ta5  1  0.933017  0.934508  0.566237  1
  Ta  Ta6  1  0.683365  0.694323  0.311156  1
  Ta  Ta7  1  0.316983  0.683763  0.683763  1
  Ta  Ta8  1  0.683365  0.311156  0.311156  1
  Ta  Ta9  1  0.316983  0.315492  0.683763  1
  Ta  Ta10  1  0.566635  0.938844  0.555677  1
  Ta  Ta11  1  0.316983  0.683763  0.315492  1
  Mn  Mn12  1  0.625000  0.125000  0.125000  1
  Ga  Ga13  1  0.334747  0.333352  0.333352  1
  Ga  Ga14  1  0.262851  0.912382  0.912382  1
  Ga  Ga15  1  0.915253  0.251451  0.916648  1
  Ga  Ga16  1  0.915253  0.916648  0.251451  1
  Ga  Ga17  1  0.334747  0.998549  0.333352  1
  Ga  Ga18  1  0.334747  0.333352  0.998549  1
  Ga  Ga19  1  0.987149  0.337618  0.337618  1
  Ga  Ga20  1  0.915253  0.916648  0.916648  1
  Cu  Cu21  1  0.125000  0.125000  0.125000  1
  Cu  Cu22  1  0.125000  0.625000  0.125000  1
  Cu  Cu23  1  0.125000  0.125000  0.625000  1
  C  C24  1  0.625000  0.625000  0.625000  1
  C  C25  1  0.125000  0.625000  0.625000  1
  C  C26  1  0.625000  0.125000  0.625000  1
  C  C27  1  0.625000  0.625000  0.125000  1
