# generated using pymatgen
data_Ho7Hf(Si4Mo3)4
_symmetry_space_group_name_H-M   'P 1'
_cell_length_a   6.72612828
_cell_length_b   6.90062233
_cell_length_c   12.89554531
_cell_angle_alpha   89.86277820
_cell_angle_beta   90.00590444
_cell_angle_gamma   90.11705853
_symmetry_Int_Tables_number   1
_chemical_formula_structural   Ho7Hf(Si4Mo3)4
_chemical_formula_sum   'Ho7 Hf1 Si16 Mo12'
_cell_volume   598.53694539
_cell_formula_units_Z   1
loop_
 _symmetry_equiv_pos_site_id
 _symmetry_equiv_pos_as_xyz
  1  'x, y, z'
loop_
 _atom_site_type_symbol
 _atom_site_label
 _atom_site_symmetry_multiplicity
 _atom_site_fract_x
 _atom_site_fract_y
 _atom_site_fract_z
 _atom_site_occupancy
  Ho  Ho0  1  0.996893  0.166809  0.094149  1
  Ho  Ho1  1  0.003569  0.832877  0.905059  1
  Ho  Ho2  1  0.503589  0.666623  0.906313  1
  Ho  Ho3  1  0.004602  0.832319  0.593279  1
  Ho  Ho4  1  0.496938  0.332178  0.094075  1
  Ho  Ho5  1  0.997477  0.168284  0.407356  1
  Ho  Ho6  1  0.497440  0.333229  0.407810  1
  Hf  Hf7  1  0.505008  0.671163  0.597692  1
  Si  Si8  1  0.034342  0.134054  0.748905  1
  Si  Si9  1  0.963707  0.866158  0.250349  1
  Si  Si10  1  0.464465  0.631860  0.249606  1
  Si  Si11  1  0.534800  0.369730  0.747605  1
  Si  Si12  1  0.304598  0.867635  0.748638  1
  Si  Si13  1  0.696727  0.129672  0.250972  1
  Si  Si14  1  0.197639  0.368465  0.250590  1
  Si  Si15  1  0.800053  0.632167  0.748854  1
  Si  Si16  1  0.168077  0.461391  0.546103  1
  Si  Si17  1  0.836885  0.542692  0.456195  1
  Si  Si18  1  0.340567  0.954826  0.456035  1
  Si  Si19  1  0.840643  0.542088  0.046647  1
  Si  Si20  1  0.658808  0.038600  0.546452  1
  Si  Si21  1  0.158290  0.457683  0.952546  1
  Si  Si22  1  0.658803  0.042086  0.952297  1
  Si  Si23  1  0.340529  0.958083  0.046633  1
  Mo  Mo24  1  0.167153  0.505194  0.746881  1
  Mo  Mo25  1  0.834293  0.497672  0.251525  1
  Mo  Mo26  1  0.333716  0.000521  0.250537  1
  Mo  Mo27  1  0.665248  0.994492  0.747484  1
  Mo  Mo28  1  0.331859  0.164295  0.624436  1
  Mo  Mo29  1  0.666187  0.831669  0.377359  1
  Mo  Mo30  1  0.169010  0.664831  0.375676  1
  Mo  Mo31  1  0.667656  0.834207  0.125266  1
  Mo  Mo32  1  0.830739  0.339754  0.624246  1
  Mo  Mo33  1  0.331685  0.166951  0.873522  1
  Mo  Mo34  1  0.829972  0.336201  0.874173  1
  Mo  Mo35  1  0.168033  0.663542  0.124739  1
