# generated using pymatgen
data_Dy8Si12AgPt3
_symmetry_space_group_name_H-M   'P 1'
_cell_length_a   8.15283100
_cell_length_b   8.15283182
_cell_length_c   8.20361700
_cell_angle_alpha   90.00000000
_cell_angle_beta   90.00000000
_cell_angle_gamma   119.99999260
_symmetry_Int_Tables_number   1
_chemical_formula_structural   Dy8Si12AgPt3
_chemical_formula_sum   'Dy8 Si12 Ag1 Pt3'
_cell_volume   472.22933742
_cell_formula_units_Z   1
loop_
 _symmetry_equiv_pos_site_id
 _symmetry_equiv_pos_as_xyz
  1  'x, y, z'
loop_
 _atom_site_type_symbol
 _atom_site_label
 _atom_site_symmetry_multiplicity
 _atom_site_fract_x
 _atom_site_fract_y
 _atom_site_fract_z
 _atom_site_occupancy
  Dy  Dy0  1  0.000000  0.000000  0.249356  1
  Dy  Dy1  1  0.000000  0.000000  0.751075  1
  Dy  Dy2  1  0.006215  0.503108  0.247340  1
  Dy  Dy3  1  0.496892  0.503108  0.247340  1
  Dy  Dy4  1  0.499120  0.998238  0.752488  1
  Dy  Dy5  1  0.496892  0.993785  0.247340  1
  Dy  Dy6  1  0.499120  0.500880  0.752488  1
  Dy  Dy7  1  0.001762  0.500880  0.752488  1
  Si  Si8  1  0.165328  0.330654  0.998639  1
  Si  Si9  1  0.669346  0.834672  0.998639  1
  Si  Si10  1  0.166608  0.333214  0.500674  1
  Si  Si11  1  0.331517  0.165759  0.001381  1
  Si  Si12  1  0.165328  0.834672  0.998639  1
  Si  Si13  1  0.666786  0.833392  0.500674  1
  Si  Si14  1  0.834241  0.668483  0.001381  1
  Si  Si15  1  0.324177  0.162089  0.500113  1
  Si  Si16  1  0.166608  0.833392  0.500674  1
  Si  Si17  1  0.837911  0.675823  0.500113  1
  Si  Si18  1  0.834241  0.165759  0.001381  1
  Si  Si19  1  0.837911  0.162089  0.500113  1
  Ag  Ag20  1  0.666667  0.333333  0.495871  1
  Pt  Pt21  1  0.333333  0.666667  0.998125  1
  Pt  Pt22  1  0.333333  0.666667  0.501565  1
  Pt  Pt23  1  0.666667  0.333333  0.002099  1
