# generated using pymatgen
data_Er3TiAl11Ru4
_symmetry_space_group_name_H-M   'P 1'
_cell_length_a   8.82310300
_cell_length_b   8.82310246
_cell_length_c   9.50861200
_cell_angle_alpha   90.00000000
_cell_angle_beta   90.00000000
_cell_angle_gamma   119.99999829
_symmetry_Int_Tables_number   1
_chemical_formula_structural   Er3TiAl11Ru4
_chemical_formula_sum   'Er6 Ti2 Al22 Ru8'
_cell_volume   641.04783402
_cell_formula_units_Z   2
loop_
 _symmetry_equiv_pos_site_id
 _symmetry_equiv_pos_as_xyz
  1  'x, y, z'
loop_
 _atom_site_type_symbol
 _atom_site_label
 _atom_site_symmetry_multiplicity
 _atom_site_fract_x
 _atom_site_fract_y
 _atom_site_fract_z
 _atom_site_occupancy
  Er  Er0  1  0.194395  0.388791  0.251070  1
  Er  Er1  1  0.805605  0.611209  0.748930  1
  Er  Er2  1  0.611209  0.805605  0.251070  1
  Er  Er3  1  0.388791  0.194395  0.748930  1
  Er  Er4  1  0.194395  0.805605  0.251070  1
  Er  Er5  1  0.805605  0.194395  0.748930  1
  Ti  Ti6  1  0.333333  0.666667  0.998078  1
  Ti  Ti7  1  0.666667  0.333333  0.001922  1
  Al  Al8  1  0.666667  0.333333  0.517856  1
  Al  Al9  1  0.333333  0.666667  0.482144  1
  Al  Al10  1  0.161441  0.322882  0.577677  1
  Al  Al11  1  0.838559  0.677118  0.422323  1
  Al  Al12  1  0.677118  0.838559  0.577677  1
  Al  Al13  1  0.840815  0.681630  0.077485  1
  Al  Al14  1  0.322882  0.161441  0.422323  1
  Al  Al15  1  0.159185  0.318370  0.922515  1
  Al  Al16  1  0.161441  0.838559  0.577677  1
  Al  Al17  1  0.318370  0.159185  0.077485  1
  Al  Al18  1  0.838559  0.161441  0.422323  1
  Al  Al19  1  0.681630  0.840815  0.922515  1
  Al  Al20  1  0.840815  0.159185  0.077485  1
  Al  Al21  1  0.159185  0.840815  0.922515  1
  Al  Al22  1  0.560754  0.121508  0.251958  1
  Al  Al23  1  0.439246  0.878492  0.748042  1
  Al  Al24  1  0.878492  0.439246  0.251958  1
  Al  Al25  1  0.121508  0.560754  0.748042  1
  Al  Al26  1  0.560754  0.439246  0.251958  1
  Al  Al27  1  0.439246  0.560754  0.748042  1
  Al  Al28  1  0.000000  0.000000  0.250458  1
  Al  Al29  1  0.000000  0.000000  0.749542  1
  Ru  Ru30  1  0.500000  0.000000  0.000000  1
  Ru  Ru31  1  0.000000  0.500000  0.000000  1
  Ru  Ru32  1  0.500000  0.000000  0.500000  1
  Ru  Ru33  1  0.500000  0.500000  0.000000  1
  Ru  Ru34  1  0.000000  0.500000  0.500000  1
  Ru  Ru35  1  0.500000  0.500000  0.500000  1
  Ru  Ru36  1  0.000000  0.000000  0.000000  1
  Ru  Ru37  1  0.000000  0.000000  0.500000  1
