# generated using pymatgen
data_Tb8Ta3Ti8Si16Pd
_symmetry_space_group_name_H-M   'P 1'
_cell_length_a   7.06779823
_cell_length_b   7.06779880
_cell_length_c   12.93683231
_cell_angle_alpha   90.20978476
_cell_angle_beta   89.79021680
_cell_angle_gamma   89.54080881
_symmetry_Int_Tables_number   1
_chemical_formula_structural   Tb8Ta3Ti8Si16Pd
_chemical_formula_sum   'Tb8 Ta3 Ti8 Si16 Pd1'
_cell_volume   646.21413329
_cell_formula_units_Z   1
loop_
 _symmetry_equiv_pos_site_id
 _symmetry_equiv_pos_as_xyz
  1  'x, y, z'
loop_
 _atom_site_type_symbol
 _atom_site_label
 _atom_site_symmetry_multiplicity
 _atom_site_fract_x
 _atom_site_fract_y
 _atom_site_fract_z
 _atom_site_occupancy
  Tb  Tb0  1  0.340405  0.002417  0.467627  1
  Tb  Tb1  1  0.497137  0.840690  0.718090  1
  Tb  Tb2  1  0.501908  0.158957  0.215094  1
  Tb  Tb3  1  0.840690  0.497137  0.281910  1
  Tb  Tb4  1  0.158957  0.501908  0.784906  1
  Tb  Tb5  1  0.657306  0.999616  0.968309  1
  Tb  Tb6  1  0.002417  0.340405  0.532373  1
  Tb  Tb7  1  0.999616  0.657306  0.031691  1
  Ta  Ta8  1  0.174513  0.825823  0.248779  1
  Ta  Ta9  1  0.825823  0.174513  0.751221  1
  Ta  Ta10  1  0.673654  0.673654  0.500000  1
  Ti  Ti11  1  0.148355  0.006129  0.876356  1
  Ti  Ti12  1  0.492330  0.655150  0.125393  1
  Ti  Ti13  1  0.509584  0.348933  0.627030  1
  Ti  Ti14  1  0.655150  0.492330  0.874607  1
  Ti  Ti15  1  0.348933  0.509584  0.372970  1
  Ti  Ti16  1  0.847546  0.990203  0.374676  1
  Ti  Ti17  1  0.006129  0.148355  0.123644  1
  Ti  Ti18  1  0.990203  0.847546  0.625324  1
  Si  Si19  1  0.201528  0.131149  0.685483  1
  Si  Si20  1  0.373608  0.709471  0.933120  1
  Si  Si21  1  0.629689  0.297077  0.434555  1
  Si  Si22  1  0.709471  0.373608  0.066880  1
  Si  Si23  1  0.297077  0.629689  0.565445  1
  Si  Si24  1  0.799047  0.868993  0.184051  1
  Si  Si25  1  0.131149  0.201528  0.314517  1
  Si  Si26  1  0.868993  0.799047  0.815949  1
  Si  Si27  1  0.287348  0.945317  0.063089  1
  Si  Si28  1  0.546689  0.792631  0.314428  1
  Si  Si29  1  0.450999  0.209357  0.813889  1
  Si  Si30  1  0.792631  0.546689  0.685572  1
  Si  Si31  1  0.209357  0.450999  0.186111  1
  Si  Si32  1  0.708239  0.047067  0.564455  1
  Si  Si33  1  0.945317  0.287348  0.936911  1
  Si  Si34  1  0.047067  0.708239  0.435545  1
  Pd  Pd35  1  0.331136  0.331136  0.000000  1
