# generated using pymatgen
data_CsNa11(GaAs2)4
_symmetry_space_group_name_H-M   'P 1'
_cell_length_a   23.16686699
_cell_length_b   4.82867300
_cell_length_c   17.04234413
_cell_angle_alpha   90.00000000
_cell_angle_beta   90.03613790
_cell_angle_gamma   90.00000000
_symmetry_Int_Tables_number   1
_chemical_formula_structural   CsNa11(GaAs2)4
_chemical_formula_sum   'Cs3 Na33 Ga12 As24'
_cell_volume   1906.44528371
_cell_formula_units_Z   3
loop_
 _symmetry_equiv_pos_site_id
 _symmetry_equiv_pos_as_xyz
  1  'x, y, z'
loop_
 _atom_site_type_symbol
 _atom_site_label
 _atom_site_symmetry_multiplicity
 _atom_site_fract_x
 _atom_site_fract_y
 _atom_site_fract_z
 _atom_site_occupancy
  Cs  Cs0  1  0.501043  0.250000  0.808706  1
  Cs  Cs1  1  0.001454  0.250000  0.691103  1
  Cs  Cs2  1  0.498738  0.750000  0.191360  1
  Na  Na3  1  0.994736  0.750000  0.311252  1
  Na  Na4  1  0.552672  0.250000  0.032557  1
  Na  Na5  1  0.052174  0.250000  0.464711  1
  Na  Na6  1  0.447020  0.750000  0.967562  1
  Na  Na7  1  0.949097  0.750000  0.530598  1
  Na  Na8  1  0.557796  0.250000  0.351327  1
  Na  Na9  1  0.057145  0.250000  0.150564  1
  Na  Na10  1  0.441804  0.750000  0.648723  1
  Na  Na11  1  0.942478  0.750000  0.851392  1
  Na  Na12  1  0.678768  0.250000  0.921085  1
  Na  Na13  1  0.178058  0.250000  0.579174  1
  Na  Na14  1  0.321115  0.750000  0.079265  1
  Na  Na15  1  0.822051  0.750000  0.419107  1
  Na  Na16  1  0.681157  0.250000  0.692265  1
  Na  Na17  1  0.181075  0.250000  0.807746  1
  Na  Na18  1  0.318013  0.750000  0.307765  1
  Na  Na19  1  0.819350  0.750000  0.192867  1
  Na  Na20  1  0.690116  0.250000  0.458396  1
  Na  Na21  1  0.189599  0.250000  0.041278  1
  Na  Na22  1  0.309575  0.750000  0.541311  1
  Na  Na23  1  0.810419  0.750000  0.959171  1
  Na  Na24  1  0.836436  0.250000  0.798098  1
  Na  Na25  1  0.336099  0.250000  0.702032  1
  Na  Na26  1  0.161166  0.750000  0.202300  1
  Na  Na27  1  0.663714  0.750000  0.298121  1
  Na  Na28  1  0.840394  0.250000  0.581487  1
  Na  Na29  1  0.338941  0.250000  0.917729  1
  Na  Na30  1  0.158245  0.750000  0.417421  1
  Na  Na31  1  0.660980  0.750000  0.082546  1
  Na  Na32  1  0.041437  0.250000  0.945830  1
  Na  Na33  1  0.540999  0.250000  0.554333  1
  Na  Na34  1  0.959712  0.750000  0.055732  1
  Na  Na35  1  0.458548  0.750000  0.445577  1
  Ga  Ga36  1  0.717256  0.250000  0.191226  1
  Ga  Ga37  1  0.213482  0.250000  0.309343  1
  Ga  Ga38  1  0.283586  0.750000  0.809449  1
  Ga  Ga39  1  0.783535  0.750000  0.690387  1
  Ga  Ga40  1  0.865604  0.250000  0.069483  1
  Ga  Ga41  1  0.362907  0.250000  0.431665  1
  Ga  Ga42  1  0.136404  0.750000  0.932069  1
  Ga  Ga43  1  0.636468  0.750000  0.567612  1
  Ga  Ga44  1  0.874369  0.250000  0.308982  1
  Ga  Ga45  1  0.371127  0.250000  0.190318  1
  Ga  Ga46  1  0.128201  0.750000  0.689925  1
  Ga  Ga47  1  0.628167  0.750000  0.810139  1
  As  As48  1  0.615314  0.250000  0.192221  1
  As  As49  1  0.110206  0.250000  0.308256  1
  As  As50  1  0.385551  0.750000  0.808081  1
  As  As51  1  0.885403  0.750000  0.691221  1
  As  As52  1  0.761166  0.250000  0.062164  1
  As  As53  1  0.258475  0.250000  0.438342  1
  As  As54  1  0.240609  0.750000  0.939000  1
  As  As55  1  0.740731  0.750000  0.560479  1
  As  As56  1  0.768378  0.250000  0.316349  1
  As  As57  1  0.265342  0.250000  0.184693  1
  As  As58  1  0.233662  0.750000  0.684059  1
  As  As59  1  0.733591  0.750000  0.815960  1
  As  As60  1  0.910903  0.250000  0.943411  1
  As  As61  1  0.410377  0.250000  0.556440  1
  As  As62  1  0.089139  0.750000  0.056483  1
  As  As63  1  0.589045  0.750000  0.442919  1
  As  As64  1  0.920904  0.250000  0.433925  1
  As  As65  1  0.414900  0.250000  0.062639  1
  As  As66  1  0.084594  0.750000  0.562509  1
  As  As67  1  0.584923  0.750000  0.938110  1
  As  As68  1  0.927761  0.250000  0.185457  1
  As  As69  1  0.423895  0.250000  0.316425  1
  As  As70  1  0.075948  0.750000  0.816340  1
  As  As71  1  0.575958  0.750000  0.683428  1
