# generated using pymatgen
data_Y11Th5(MgRu)4
_symmetry_space_group_name_H-M   'P 1'
_cell_length_a   9.75191932
_cell_length_b   9.82505010
_cell_length_c   9.82505112
_cell_angle_alpha   59.85235192
_cell_angle_beta   60.24592359
_cell_angle_gamma   60.24591852
_symmetry_Int_Tables_number   1
_chemical_formula_structural   Y11Th5(MgRu)4
_chemical_formula_sum   'Y11 Th5 Mg4 Ru4'
_cell_volume   667.35748872
_cell_formula_units_Z   1
loop_
 _symmetry_equiv_pos_site_id
 _symmetry_equiv_pos_as_xyz
  1  'x, y, z'
loop_
 _atom_site_type_symbol
 _atom_site_label
 _atom_site_symmetry_multiplicity
 _atom_site_fract_x
 _atom_site_fract_y
 _atom_site_fract_z
 _atom_site_occupancy
  Y  Y0  1  0.186798  0.813202  0.813202  1
  Y  Y1  1  0.191295  0.809392  0.185819  1
  Y  Y2  1  0.813493  0.185819  0.809392  1
  Y  Y3  1  0.191295  0.185819  0.809392  1
  Y  Y4  1  0.813493  0.809392  0.185819  1
  Y  Y5  1  0.933244  0.566756  0.566756  1
  Y  Y6  1  0.564160  0.935840  0.935840  1
  Y  Y7  1  0.562881  0.936532  0.563614  1
  Y  Y8  1  0.936973  0.563614  0.936532  1
  Y  Y9  1  0.562881  0.563614  0.936532  1
  Y  Y10  1  0.936973  0.936532  0.563614  1
  Th  Th11  1  0.341703  0.348102  0.348102  1
  Th  Th12  1  0.345728  0.346930  0.961613  1
  Th  Th13  1  0.345728  0.961613  0.346930  1
  Th  Th14  1  0.962093  0.348102  0.348102  1
  Th  Th15  1  0.815887  0.184113  0.184113  1
  Mg  Mg16  1  0.581391  0.579270  0.579270  1
  Mg  Mg17  1  0.579624  0.581599  0.259155  1
  Mg  Mg18  1  0.579624  0.259155  0.581599  1
  Mg  Mg19  1  0.260071  0.579270  0.579270  1
  Ru  Ru20  1  0.127742  0.148636  0.148636  1
  Ru  Ru21  1  0.145968  0.143013  0.565051  1
  Ru  Ru22  1  0.145968  0.565051  0.143013  1
  Ru  Ru23  1  0.574986  0.148636  0.148636  1
