# generated using pymatgen
data_Lu12Tc3Ir
_symmetry_space_group_name_H-M   'P 1'
_cell_length_a   6.14700833
_cell_length_b   7.27654637
_cell_length_c   8.91207600
_cell_angle_alpha   90.00000000
_cell_angle_beta   90.00000000
_cell_angle_gamma   90.07281762
_symmetry_Int_Tables_number   1
_chemical_formula_structural   Lu12Tc3Ir
_chemical_formula_sum   'Lu12 Tc3 Ir1'
_cell_volume   398.62784644
_cell_formula_units_Z   1
loop_
 _symmetry_equiv_pos_site_id
 _symmetry_equiv_pos_as_xyz
  1  'x, y, z'
loop_
 _atom_site_type_symbol
 _atom_site_label
 _atom_site_symmetry_multiplicity
 _atom_site_fract_x
 _atom_site_fract_y
 _atom_site_fract_z
 _atom_site_occupancy
  Lu  Lu0  1  0.332388  0.675853  0.062880  1
  Lu  Lu1  1  0.163880  0.175043  0.438244  1
  Lu  Lu2  1  0.665456  0.323451  0.560780  1
  Lu  Lu3  1  0.834924  0.825393  0.939242  1
  Lu  Lu4  1  0.665456  0.323451  0.939220  1
  Lu  Lu5  1  0.834924  0.825393  0.560758  1
  Lu  Lu6  1  0.332388  0.675853  0.437120  1
  Lu  Lu7  1  0.163880  0.175043  0.061756  1
  Lu  Lu8  1  0.874495  0.538593  0.250000  1
  Lu  Lu9  1  0.625752  0.037274  0.250000  1
  Lu  Lu10  1  0.129959  0.459797  0.750000  1
  Lu  Lu11  1  0.372552  0.961675  0.750000  1
  Tc  Tc12  1  0.041543  0.883075  0.250000  1
  Tc  Tc13  1  0.460465  0.385197  0.250000  1
  Tc  Tc14  1  0.959208  0.117234  0.750000  1
  Ir  Ir15  1  0.542730  0.617675  0.750000  1
