# generated using pymatgen
data_Sr2Pr(B3Ir4)2
_symmetry_space_group_name_H-M   'P 1'
_cell_length_a   10.00694487
_cell_length_b   9.12155856
_cell_length_c   5.71052800
_cell_angle_alpha   81.34674968
_cell_angle_beta   64.30922942
_cell_angle_gamma   34.34401345
_symmetry_Int_Tables_number   1
_chemical_formula_structural   Sr2Pr(B3Ir4)2
_chemical_formula_sum   'Sr2 Pr1 B6 Ir8'
_cell_volume   241.92591160
_cell_formula_units_Z   1
loop_
 _symmetry_equiv_pos_site_id
 _symmetry_equiv_pos_as_xyz
  1  'x, y, z'
loop_
 _atom_site_type_symbol
 _atom_site_label
 _atom_site_symmetry_multiplicity
 _atom_site_fract_x
 _atom_site_fract_y
 _atom_site_fract_z
 _atom_site_occupancy
  Sr  Sr0  1  0.317893  0.317893  0.682107  1
  Sr  Sr1  1  0.682107  0.682107  0.317893  1
  Pr  Pr2  1  0.500000  0.500000  0.500000  1
  B  B3  1  0.667947  0.989890  0.010110  1
  B  B4  1  0.989890  0.667947  0.332053  1
  B  B5  1  0.332053  0.010110  0.989890  1
  B  B6  1  0.010110  0.332053  0.667947  1
  B  B7  1  0.166389  0.833611  0.166389  1
  B  B8  1  0.833611  0.166389  0.833611  1
  Ir  Ir9  1  0.584564  0.584564  0.915436  1
  Ir  Ir10  1  0.913547  0.913547  0.086453  1
  Ir  Ir11  1  0.415436  0.415436  0.084564  1
  Ir  Ir12  1  0.084564  0.084564  0.415436  1
  Ir  Ir13  1  0.915436  0.915436  0.584564  1
  Ir  Ir14  1  0.250000  0.250000  0.250000  1
  Ir  Ir15  1  0.086453  0.086453  0.913547  1
  Ir  Ir16  1  0.750000  0.750000  0.750000  1
