# generated using pymatgen
data_Dy5CrFeO12
_symmetry_space_group_name_H-M   'P 1'
_cell_length_a   6.76672214
_cell_length_b   6.76672116
_cell_length_c   7.31732500
_cell_angle_alpha   74.37198464
_cell_angle_beta   74.37198696
_cell_angle_gamma   51.53035902
_symmetry_Int_Tables_number   1
_chemical_formula_structural   Dy5CrFeO12
_chemical_formula_sum   'Dy5 Cr1 Fe1 O12'
_cell_volume   250.31186566
_cell_formula_units_Z   1
loop_
 _symmetry_equiv_pos_site_id
 _symmetry_equiv_pos_as_xyz
  1  'x, y, z'
loop_
 _atom_site_type_symbol
 _atom_site_label
 _atom_site_symmetry_multiplicity
 _atom_site_fract_x
 _atom_site_fract_y
 _atom_site_fract_z
 _atom_site_occupancy
  Dy  Dy0  1  0.309701  0.304376  0.358847  1
  Dy  Dy1  1  0.695624  0.690299  0.641153  1
  Dy  Dy2  1  0.311781  0.307800  0.830003  1
  Dy  Dy3  1  0.692200  0.688219  0.169997  1
  Dy  Dy4  1  0.006335  0.993665  0.500000  1
  Cr  Cr5  1  0.227729  0.772271  0.000000  1
  Fe  Fe6  1  0.744486  0.255514  0.000000  1
  O  O7  1  0.899330  0.422365  0.921139  1
  O  O8  1  0.420546  0.893273  0.922462  1
  O  O9  1  0.106727  0.579454  0.077538  1
  O  O10  1  0.577635  0.100670  0.078861  1
  O  O11  1  0.097644  0.593550  0.577776  1
  O  O12  1  0.598717  0.093174  0.578611  1
  O  O13  1  0.906826  0.401283  0.421389  1
  O  O14  1  0.406450  0.902356  0.422224  1
  O  O15  1  0.010557  0.991872  0.821109  1
  O  O16  1  0.008128  0.989443  0.178891  1
  O  O17  1  0.489373  0.509791  0.815345  1
  O  O18  1  0.490209  0.510627  0.184655  1
