# generated using pymatgen
data_Ho4SiSn5Rh7
_symmetry_space_group_name_H-M   'P 1'
_cell_length_a   7.52568562
_cell_length_b   7.52568683
_cell_length_c   7.52568603
_cell_angle_alpha   109.69611562
_cell_angle_beta   109.02234966
_cell_angle_gamma   109.69612257
_symmetry_Int_Tables_number   1
_chemical_formula_structural   Ho4SiSn5Rh7
_chemical_formula_sum   'Ho4 Si1 Sn5 Rh7'
_cell_volume   328.09262552
_cell_formula_units_Z   1
loop_
 _symmetry_equiv_pos_site_id
 _symmetry_equiv_pos_as_xyz
  1  'x, y, z'
loop_
 _atom_site_type_symbol
 _atom_site_label
 _atom_site_symmetry_multiplicity
 _atom_site_fract_x
 _atom_site_fract_y
 _atom_site_fract_z
 _atom_site_occupancy
  Ho  Ho0  1  0.474286  0.463247  0.474286  1
  Ho  Ho1  1  0.011039  0.536753  0.011039  1
  Ho  Ho2  1  0.474286  0.000000  0.011039  1
  Ho  Ho3  1  0.011039  0.000000  0.474286  1
  Si  Si4  1  0.348651  0.000000  0.348651  1
  Sn  Sn5  1  0.704175  0.000000  0.704175  1
  Sn  Sn6  1  0.672303  0.684846  0.987457  1
  Sn  Sn7  1  0.302611  0.315154  0.987457  1
  Sn  Sn8  1  0.987457  0.684846  0.672303  1
  Sn  Sn9  1  0.987457  0.315154  0.302611  1
  Rh  Rh10  1  0.500041  0.757039  0.257080  1
  Rh  Rh11  1  0.743002  0.242961  0.500041  1
  Rh  Rh12  1  0.257080  0.757039  0.500041  1
  Rh  Rh13  1  0.240841  0.500000  0.740841  1
  Rh  Rh14  1  0.044850  0.000000  0.044850  1
  Rh  Rh15  1  0.500041  0.242961  0.743002  1
  Rh  Rh16  1  0.740841  0.500000  0.240841  1
