# generated using pymatgen
data_NpBr11
_symmetry_space_group_name_H-M   'P 1'
_cell_length_a   7.98633244
_cell_length_b   8.52193949
_cell_length_c   8.71174558
_cell_angle_alpha   89.99304739
_cell_angle_beta   88.32223363
_cell_angle_gamma   112.32354293
_symmetry_Int_Tables_number   1
_chemical_formula_structural   NpBr11
_chemical_formula_sum   'Np1 Br11'
_cell_volume   548.20077214
_cell_formula_units_Z   1
loop_
 _symmetry_equiv_pos_site_id
 _symmetry_equiv_pos_as_xyz
  1  'x, y, z'
loop_
 _atom_site_type_symbol
 _atom_site_label
 _atom_site_symmetry_multiplicity
 _atom_site_fract_x
 _atom_site_fract_y
 _atom_site_fract_z
 _atom_site_occupancy
  Np  Np0  1  0.000000  0.500000  0.500000  1
  Br  Br1  1  0.307173  0.204109  0.090893  1
  Br  Br2  1  0.000000  0.000000  0.000000  1
  Br  Br3  1  0.692827  0.795891  0.909107  1
  Br  Br4  1  0.488757  0.244972  0.844379  1
  Br  Br5  1  0.511243  0.755028  0.155621  1
  Br  Br6  1  0.885098  0.752720  0.522059  1
  Br  Br7  1  0.913181  0.465706  0.209554  1
  Br  Br8  1  0.114902  0.247280  0.477941  1
  Br  Br9  1  0.347333  0.735359  0.426606  1
  Br  Br10  1  0.652667  0.264641  0.573394  1
  Br  Br11  1  0.086819  0.534294  0.790446  1
