# generated using pymatgen
data_TaTi18Si16Os
_symmetry_space_group_name_H-M   'P 1'
_cell_length_a   6.68537400
_cell_length_b   6.68537360
_cell_length_c   12.18755482
_cell_angle_alpha   89.78395877
_cell_angle_beta   90.21604441
_cell_angle_gamma   90.00671555
_symmetry_Int_Tables_number   1
_chemical_formula_structural   TaTi18Si16Os
_chemical_formula_sum   'Ta1 Ti18 Si16 Os1'
_cell_volume   544.70554344
_cell_formula_units_Z   1
loop_
 _symmetry_equiv_pos_site_id
 _symmetry_equiv_pos_as_xyz
  1  'x, y, z'
loop_
 _atom_site_type_symbol
 _atom_site_label
 _atom_site_symmetry_multiplicity
 _atom_site_fract_x
 _atom_site_fract_y
 _atom_site_fract_z
 _atom_site_occupancy
  Ta  Ta0  1  0.828307  0.828307  0.500000  1
  Ti  Ti1  1  0.996129  0.147172  0.624487  1
  Ti  Ti2  1  0.351889  0.499989  0.869742  1
  Ti  Ti3  1  0.649653  0.504604  0.370966  1
  Ti  Ti4  1  0.499989  0.351889  0.130258  1
  Ti  Ti5  1  0.504604  0.649653  0.629034  1
  Ti  Ti6  1  0.005577  0.848746  0.119931  1
  Ti  Ti7  1  0.147172  0.996129  0.375513  1
  Ti  Ti8  1  0.848746  0.005577  0.880069  1
  Ti  Ti9  1  0.002360  0.344698  0.220819  1
  Ti  Ti10  1  0.154731  0.501561  0.469239  1
  Ti  Ti11  1  0.839988  0.500556  0.970386  1
  Ti  Ti12  1  0.501561  0.154731  0.530761  1
  Ti  Ti13  1  0.500556  0.839988  0.029614  1
  Ti  Ti14  1  0.998088  0.657177  0.721038  1
  Ti  Ti15  1  0.344698  0.002360  0.779181  1
  Ti  Ti16  1  0.657177  0.998088  0.278962  1
  Ti  Ti17  1  0.328831  0.670626  0.247042  1
  Ti  Ti18  1  0.670626  0.328831  0.752958  1
  Si  Si19  1  0.046514  0.300505  0.816164  1
  Si  Si20  1  0.199044  0.539192  0.062556  1
  Si  Si21  1  0.800460  0.451586  0.565379  1
  Si  Si22  1  0.539192  0.199044  0.937444  1
  Si  Si23  1  0.451586  0.800460  0.434621  1
  Si  Si24  1  0.957476  0.696851  0.311870  1
  Si  Si25  1  0.300505  0.046514  0.183836  1
  Si  Si26  1  0.696851  0.957476  0.688130  1
  Si  Si27  1  0.294605  0.357203  0.673517  1
  Si  Si28  1  0.140754  0.794759  0.921248  1
  Si  Si29  1  0.858755  0.207490  0.423161  1
  Si  Si30  1  0.794759  0.140754  0.078752  1
  Si  Si31  1  0.207490  0.858755  0.576839  1
  Si  Si32  1  0.705937  0.644388  0.173174  1
  Si  Si33  1  0.357203  0.294605  0.326483  1
  Si  Si34  1  0.644388  0.705937  0.826826  1
  Os  Os35  1  0.173801  0.173801  0.000000  1
