# generated using pymatgen
data_Ac3MgIn2Pd2Rh
_symmetry_space_group_name_H-M   'P 1'
_cell_length_a   7.85504700
_cell_length_b   7.82303325
_cell_length_c   4.39779300
_cell_angle_alpha   90.00000000
_cell_angle_beta   90.00000000
_cell_angle_gamma   120.13545864
_symmetry_Int_Tables_number   1
_chemical_formula_structural   Ac3MgIn2Pd2Rh
_chemical_formula_sum   'Ac3 Mg1 In2 Pd2 Rh1'
_cell_volume   233.71950633
_cell_formula_units_Z   1
loop_
 _symmetry_equiv_pos_site_id
 _symmetry_equiv_pos_as_xyz
  1  'x, y, z'
loop_
 _atom_site_type_symbol
 _atom_site_label
 _atom_site_symmetry_multiplicity
 _atom_site_fract_x
 _atom_site_fract_y
 _atom_site_fract_z
 _atom_site_occupancy
  Ac  Ac0  1  0.405326  0.000000  0.500000  1
  Ac  Ac1  1  0.002715  0.413256  0.500000  1
  Ac  Ac2  1  0.589459  0.586744  0.500000  1
  Mg  Mg3  1  0.770276  0.000000  0.000000  1
  In  In4  1  0.996872  0.765066  0.000000  1
  In  In5  1  0.231806  0.234934  0.000000  1
  Pd  Pd6  1  0.335667  0.670268  0.000000  1
  Pd  Pd7  1  0.665400  0.329732  0.000000  1
  Rh  Rh8  1  0.002480  0.000000  0.500000  1
