# generated using pymatgen
data_Ho5Zr(SnIr)6
_symmetry_space_group_name_H-M   'P 1'
_cell_length_a   7.53562187
_cell_length_b   7.46414643
_cell_length_c   7.77997400
_cell_angle_alpha   90.00000000
_cell_angle_beta   90.00000000
_cell_angle_gamma   120.26552705
_symmetry_Int_Tables_number   1
_chemical_formula_structural   Ho5Zr(SnIr)6
_chemical_formula_sum   'Ho5 Zr1 Sn6 Ir6'
_cell_volume   377.95473167
_cell_formula_units_Z   1
loop_
 _symmetry_equiv_pos_site_id
 _symmetry_equiv_pos_as_xyz
  1  'x, y, z'
loop_
 _atom_site_type_symbol
 _atom_site_label
 _atom_site_symmetry_multiplicity
 _atom_site_fract_x
 _atom_site_fract_y
 _atom_site_fract_z
 _atom_site_occupancy
  Ho  Ho0  1  0.409180  0.002013  0.250000  1
  Ho  Ho1  1  0.596139  0.595908  0.750000  1
  Ho  Ho2  1  0.593797  0.596617  0.250000  1
  Ho  Ho3  1  0.995319  0.402575  0.250000  1
  Ho  Ho4  1  0.005847  0.406568  0.750000  1
  Zr  Zr5  1  0.398245  0.998587  0.750000  1
  Sn  Sn6  1  0.262224  0.263966  0.498421  1
  Sn  Sn7  1  0.262224  0.263966  0.001579  1
  Sn  Sn8  1  0.742002  0.000241  0.991719  1
  Sn  Sn9  1  0.997181  0.735489  0.498793  1
  Sn  Sn10  1  0.742002  0.000241  0.508281  1
  Sn  Sn11  1  0.997181  0.735489  0.001207  1
  Ir  Ir12  1  0.657683  0.321684  0.515346  1
  Ir  Ir13  1  0.657683  0.321684  0.984654  1
  Ir  Ir14  1  0.335486  0.677541  0.993160  1
  Ir  Ir15  1  0.335486  0.677541  0.506840  1
  Ir  Ir16  1  0.013632  0.000120  0.750000  1
  Ir  Ir17  1  0.998691  0.999771  0.250000  1
