# generated using pymatgen
data_SmHo3(TcB2)4
_symmetry_space_group_name_H-M   'P 1'
_cell_length_a   5.29828200
_cell_length_b   5.96613839
_cell_length_c   6.45095263
_cell_angle_alpha   90.15885060
_cell_angle_beta   90.00000000
_cell_angle_gamma   90.00000000
_symmetry_Int_Tables_number   1
_chemical_formula_structural   SmHo3(TcB2)4
_chemical_formula_sum   'Sm1 Ho3 Tc4 B8'
_cell_volume   203.91565878
_cell_formula_units_Z   1
loop_
 _symmetry_equiv_pos_site_id
 _symmetry_equiv_pos_as_xyz
  1  'x, y, z'
loop_
 _atom_site_type_symbol
 _atom_site_label
 _atom_site_symmetry_multiplicity
 _atom_site_fract_x
 _atom_site_fract_y
 _atom_site_fract_z
 _atom_site_occupancy
  Sm  Sm0  1  0.750000  0.487761  0.842207  1
  Ho  Ho1  1  0.250000  0.014701  0.339408  1
  Ho  Ho2  1  0.250000  0.514431  0.161044  1
  Ho  Ho3  1  0.750000  0.987139  0.660319  1
  Tc  Tc4  1  0.250000  0.180233  0.814541  1
  Tc  Tc5  1  0.250000  0.683374  0.683184  1
  Tc  Tc6  1  0.750000  0.819101  0.187677  1
  Tc  Tc7  1  0.750000  0.317619  0.315347  1
  B  B8  1  0.079369  0.370974  0.534564  1
  B  B9  1  0.420951  0.870914  0.964107  1
  B  B10  1  0.577413  0.629500  0.461570  1
  B  B11  1  0.922052  0.126433  0.037896  1
  B  B12  1  0.922587  0.629500  0.461570  1
  B  B13  1  0.577948  0.126433  0.037896  1
  B  B14  1  0.420631  0.370974  0.534564  1
  B  B15  1  0.079049  0.870914  0.964107  1
