# generated using pymatgen
data_TmLuSc3Sn4
_symmetry_space_group_name_H-M   'P 1'
_cell_length_a   7.65129919
_cell_length_b   7.89858582
_cell_length_c   14.76885694
_cell_angle_alpha   89.98945303
_cell_angle_beta   90.11834485
_cell_angle_gamma   89.96525538
_symmetry_Int_Tables_number   1
_chemical_formula_structural   TmLuSc3Sn4
_chemical_formula_sum   'Tm4 Lu4 Sc12 Sn16'
_cell_volume   892.54556335
_cell_formula_units_Z   4
loop_
 _symmetry_equiv_pos_site_id
 _symmetry_equiv_pos_as_xyz
  1  'x, y, z'
loop_
 _atom_site_type_symbol
 _atom_site_label
 _atom_site_symmetry_multiplicity
 _atom_site_fract_x
 _atom_site_fract_y
 _atom_site_fract_z
 _atom_site_occupancy
  Tm  Tm0  1  0.490959  0.321577  0.093022  1
  Tm  Tm1  1  0.991114  0.178128  0.406878  1
  Tm  Tm2  1  0.491076  0.321338  0.406532  1
  Tm  Tm3  1  0.509227  0.678642  0.593609  1
  Lu  Lu4  1  0.990196  0.178887  0.093135  1
  Lu  Lu5  1  0.010111  0.821374  0.906959  1
  Lu  Lu6  1  0.509596  0.678905  0.906581  1
  Lu  Lu7  1  0.009286  0.821218  0.593646  1
  Sc  Sc8  1  0.170523  0.495448  0.750361  1
  Sc  Sc9  1  0.829368  0.504801  0.249635  1
  Sc  Sc10  1  0.328965  0.995266  0.249661  1
  Sc  Sc11  1  0.670061  0.004159  0.750328  1
  Sc  Sc12  1  0.341309  0.159424  0.627398  1
  Sc  Sc13  1  0.658116  0.840079  0.372857  1
  Sc  Sc14  1  0.158034  0.660268  0.372616  1
  Sc  Sc15  1  0.657088  0.840003  0.126836  1
  Sc  Sc16  1  0.841560  0.340260  0.627652  1
  Sc  Sc17  1  0.342301  0.159581  0.872667  1
  Sc  Sc18  1  0.842222  0.339972  0.872624  1
  Sc  Sc19  1  0.157342  0.660460  0.127056  1
  Sn  Sn20  1  0.033023  0.121554  0.749990  1
  Sn  Sn21  1  0.966173  0.878373  0.249843  1
  Sn  Sn22  1  0.466858  0.622069  0.249890  1
  Sn  Sn23  1  0.532755  0.377879  0.749880  1
  Sn  Sn24  1  0.312958  0.846337  0.750404  1
  Sn  Sn25  1  0.687034  0.152930  0.249736  1
  Sn  Sn26  1  0.186587  0.346568  0.249645  1
  Sn  Sn27  1  0.813718  0.654044  0.750377  1
  Sn  Sn28  1  0.185666  0.457749  0.542391  1
  Sn  Sn29  1  0.814484  0.542749  0.457880  1
  Sn  Sn30  1  0.313913  0.956675  0.457938  1
  Sn  Sn31  1  0.813431  0.543179  0.041836  1
  Sn  Sn32  1  0.687349  0.042381  0.542483  1
  Sn  Sn33  1  0.187796  0.457890  0.957706  1
  Sn  Sn34  1  0.688082  0.041805  0.957819  1
  Sn  Sn35  1  0.311718  0.958030  0.042131  1
