# generated using pymatgen
data_DyEr9In8Pt3Au
_symmetry_space_group_name_H-M   'P 1'
_cell_length_a   3.61096900
_cell_length_b   8.15249406
_cell_length_c   18.24487205
_cell_angle_alpha   90.02498384
_cell_angle_beta   90.00000000
_cell_angle_gamma   90.00000000
_symmetry_Int_Tables_number   1
_chemical_formula_structural   DyEr9In8Pt3Au
_chemical_formula_sum   'Dy1 Er9 In8 Pt3 Au1'
_cell_volume   537.09985083
_cell_formula_units_Z   1
loop_
 _symmetry_equiv_pos_site_id
 _symmetry_equiv_pos_as_xyz
  1  'x, y, z'
loop_
 _atom_site_type_symbol
 _atom_site_label
 _atom_site_symmetry_multiplicity
 _atom_site_fract_x
 _atom_site_fract_y
 _atom_site_fract_z
 _atom_site_occupancy
  Dy  Dy0  1  0.000000  0.499188  0.500533  1
  Er  Er1  1  0.000000  0.120354  0.419748  1
  Er  Er2  1  0.000000  0.883750  0.586046  1
  Er  Er3  1  0.000000  0.384262  0.914440  1
  Er  Er4  1  0.000000  0.616203  0.083627  1
  Er  Er5  1  0.000000  0.252683  0.217278  1
  Er  Er6  1  0.000000  0.755515  0.779711  1
  Er  Er7  1  0.000000  0.256022  0.720954  1
  Er  Er8  1  0.000000  0.731432  0.279122  1
  Er  Er9  1  0.000000  0.999460  0.999101  1
  In  In10  1  0.500000  0.422092  0.352269  1
  In  In11  1  0.500000  0.576171  0.648911  1
  In  In12  1  0.500000  0.076013  0.851763  1
  In  In13  1  0.500000  0.922514  0.147131  1
  In  In14  1  0.500000  0.291579  0.065443  1
  In  In15  1  0.500000  0.708279  0.933017  1
  In  In16  1  0.500000  0.207892  0.567933  1
  In  In17  1  0.500000  0.792099  0.433854  1
  Pt  Pt18  1  0.500000  0.974222  0.697126  1
  Pt  Pt19  1  0.500000  0.474411  0.803346  1
  Pt  Pt20  1  0.500000  0.527435  0.196295  1
  Au  Au21  1  0.500000  0.028424  0.302353  1
