# generated using pymatgen
data_Ac8Yb3Dy9Sn16
_symmetry_space_group_name_H-M   'P 1'
_cell_length_a   8.25597400
_cell_length_b   8.54910216
_cell_length_c   16.12281700
_cell_angle_alpha   90.00000000
_cell_angle_beta   90.00000000
_cell_angle_gamma   89.93706854
_symmetry_Int_Tables_number   1
_chemical_formula_structural   Ac8Yb3Dy9Sn16
_chemical_formula_sum   'Ac8 Yb3 Dy9 Sn16'
_cell_volume   1137.96652262
_cell_formula_units_Z   1
loop_
 _symmetry_equiv_pos_site_id
 _symmetry_equiv_pos_as_xyz
  1  'x, y, z'
loop_
 _atom_site_type_symbol
 _atom_site_label
 _atom_site_symmetry_multiplicity
 _atom_site_fract_x
 _atom_site_fract_y
 _atom_site_fract_z
 _atom_site_occupancy
  Ac  Ac0  1  0.500608  0.675384  0.597106  1
  Ac  Ac1  1  0.004619  0.826211  0.904076  1
  Ac  Ac2  1  0.495418  0.323387  0.096304  1
  Ac  Ac3  1  0.994393  0.178225  0.404437  1
  Ac  Ac4  1  0.495418  0.323387  0.403696  1
  Ac  Ac5  1  0.994393  0.178225  0.095563  1
  Ac  Ac6  1  0.500608  0.675384  0.902894  1
  Ac  Ac7  1  0.004619  0.826211  0.595924  1
  Yb  Yb8  1  0.330759  0.999785  0.750000  1
  Yb  Yb9  1  0.169950  0.498715  0.250000  1
  Yb  Yb10  1  0.669628  0.999597  0.250000  1
  Dy  Dy11  1  0.665471  0.167892  0.626089  1
  Dy  Dy12  1  0.169143  0.331816  0.874848  1
  Dy  Dy13  1  0.334577  0.828954  0.124360  1
  Dy  Dy14  1  0.834496  0.668326  0.376672  1
  Dy  Dy15  1  0.334577  0.828954  0.375640  1
  Dy  Dy16  1  0.834496  0.668326  0.123328  1
  Dy  Dy17  1  0.665471  0.167892  0.873911  1
  Dy  Dy18  1  0.169143  0.331816  0.625152  1
  Dy  Dy19  1  0.832135  0.500038  0.750000  1
  Sn  Sn20  1  0.668314  0.957101  0.461255  1
  Sn  Sn21  1  0.170926  0.541044  0.039472  1
  Sn  Sn22  1  0.332171  0.042667  0.960736  1
  Sn  Sn23  1  0.829408  0.459792  0.543796  1
  Sn  Sn24  1  0.332171  0.042667  0.539264  1
  Sn  Sn25  1  0.829408  0.459792  0.956204  1
  Sn  Sn26  1  0.668314  0.957101  0.038745  1
  Sn  Sn27  1  0.170926  0.541044  0.460528  1
  Sn  Sn28  1  0.470278  0.374526  0.750000  1
  Sn  Sn29  1  0.967245  0.133781  0.750000  1
  Sn  Sn30  1  0.535596  0.627708  0.250000  1
  Sn  Sn31  1  0.034242  0.871625  0.250000  1
  Sn  Sn32  1  0.705020  0.864245  0.750000  1
  Sn  Sn33  1  0.194199  0.629849  0.750000  1
  Sn  Sn34  1  0.295321  0.125677  0.250000  1
  Sn  Sn35  1  0.796543  0.372858  0.250000  1
