# generated using pymatgen
data_Ho2UFe2
_symmetry_space_group_name_H-M   'P 1'
_cell_length_a   5.87907427
_cell_length_b   5.87907471
_cell_length_c   5.87907465
_cell_angle_alpha   144.65186933
_cell_angle_beta   121.33273925
_cell_angle_gamma   70.38737587
_symmetry_Int_Tables_number   1
_chemical_formula_structural   Ho2UFe2
_chemical_formula_sum   'Ho2 U1 Fe2'
_cell_volume   98.79305202
_cell_formula_units_Z   1
loop_
 _symmetry_equiv_pos_site_id
 _symmetry_equiv_pos_as_xyz
  1  'x, y, z'
loop_
 _atom_site_type_symbol
 _atom_site_label
 _atom_site_symmetry_multiplicity
 _atom_site_fract_x
 _atom_site_fract_y
 _atom_site_fract_z
 _atom_site_occupancy
  Ho  Ho0  1  0.697992  0.197992  0.500000  1
  Ho  Ho1  1  0.302009  0.802009  0.500001  1
  U  U2  1  0.000000  0.000000  0.000000  1
  Fe  Fe3  1  0.719315  0.500000  0.219315  1
  Fe  Fe4  1  0.280685  0.500001  0.780686  1
