# generated using pymatgen
data_ThBIr2Au
_symmetry_space_group_name_H-M   'P 1'
_cell_length_a   3.97992800
_cell_length_b   3.97992800
_cell_length_c   10.34601500
_cell_angle_alpha   90.00000000
_cell_angle_beta   90.00000000
_cell_angle_gamma   90.00000000
_symmetry_Int_Tables_number   1
_chemical_formula_structural   ThBIr2Au
_chemical_formula_sum   'Th2 B2 Ir4 Au2'
_cell_volume   163.87908655
_cell_formula_units_Z   2
loop_
 _symmetry_equiv_pos_site_id
 _symmetry_equiv_pos_as_xyz
  1  'x, y, z'
loop_
 _atom_site_type_symbol
 _atom_site_label
 _atom_site_symmetry_multiplicity
 _atom_site_fract_x
 _atom_site_fract_y
 _atom_site_fract_z
 _atom_site_occupancy
  Th  Th0  1  0.000000  0.500000  0.238993  1
  Th  Th1  1  0.500000  0.000000  0.761007  1
  B  B2  1  0.000000  0.500000  0.905378  1
  B  B3  1  0.500000  0.000000  0.094622  1
  Ir  Ir4  1  0.000000  0.000000  0.000000  1
  Ir  Ir5  1  0.500000  0.500000  0.000000  1
  Ir  Ir6  1  0.000000  0.500000  0.700723  1
  Ir  Ir7  1  0.500000  0.000000  0.299277  1
  Au  Au8  1  0.000000  0.000000  0.500000  1
  Au  Au9  1  0.500000  0.500000  0.500000  1
