# generated using pymatgen
data_U4BeCo6As
_symmetry_space_group_name_H-M   'P 1'
_cell_length_a   5.05746300
_cell_length_b   5.05746287
_cell_length_c   7.63225100
_cell_angle_alpha   90.00000000
_cell_angle_beta   90.00000000
_cell_angle_gamma   120.00000738
_symmetry_Int_Tables_number   1
_chemical_formula_structural   U4BeCo6As
_chemical_formula_sum   'U4 Be1 Co6 As1'
_cell_volume   169.06303505
_cell_formula_units_Z   1
loop_
 _symmetry_equiv_pos_site_id
 _symmetry_equiv_pos_as_xyz
  1  'x, y, z'
loop_
 _atom_site_type_symbol
 _atom_site_label
 _atom_site_symmetry_multiplicity
 _atom_site_fract_x
 _atom_site_fract_y
 _atom_site_fract_z
 _atom_site_occupancy
  U  U0  1  0.333333  0.666667  0.449179  1
  U  U1  1  0.666667  0.333333  0.550821  1
  U  U2  1  0.666667  0.333333  0.907599  1
  U  U3  1  0.333333  0.666667  0.092401  1
  Be  Be4  1  0.000000  0.000000  0.500000  1
  Co  Co5  1  0.832935  0.167065  0.260135  1
  Co  Co6  1  0.832935  0.665872  0.260135  1
  Co  Co7  1  0.334128  0.167065  0.260135  1
  Co  Co8  1  0.167065  0.832935  0.739865  1
  Co  Co9  1  0.167065  0.334128  0.739865  1
  Co  Co10  1  0.665872  0.832935  0.739865  1
  As  As11  1  0.000000  0.000000  0.000000  1
