# generated using pymatgen
data_Na2V3Co3Ni6As7
_symmetry_space_group_name_H-M   'P 1'
_cell_length_a   9.44877100
_cell_length_b   9.44877149
_cell_length_c   3.75698100
_cell_angle_alpha   90.00000000
_cell_angle_beta   90.00000000
_cell_angle_gamma   120.00000178
_symmetry_Int_Tables_number   1
_chemical_formula_structural   Na2V3Co3Ni6As7
_chemical_formula_sum   'Na2 V3 Co3 Ni6 As7'
_cell_volume   290.48271323
_cell_formula_units_Z   1
loop_
 _symmetry_equiv_pos_site_id
 _symmetry_equiv_pos_as_xyz
  1  'x, y, z'
loop_
 _atom_site_type_symbol
 _atom_site_label
 _atom_site_symmetry_multiplicity
 _atom_site_fract_x
 _atom_site_fract_y
 _atom_site_fract_z
 _atom_site_occupancy
  Na  Na0  1  0.333333  0.666667  0.000000  1
  Na  Na1  1  0.666667  0.333333  0.500000  1
  V  V2  1  0.215167  0.119385  0.500000  1
  V  V3  1  0.880615  0.095783  0.500000  1
  V  V4  1  0.904217  0.784833  0.500000  1
  Co  Co5  1  0.120325  0.277624  0.000000  1
  Co  Co6  1  0.722376  0.842701  0.000000  1
  Co  Co7  1  0.157299  0.879675  0.000000  1
  Ni  Ni8  1  0.429689  0.374455  0.000000  1
  Ni  Ni9  1  0.625545  0.055235  0.000000  1
  Ni  Ni10  1  0.944765  0.570311  0.000000  1
  Ni  Ni11  1  0.047571  0.431837  0.500000  1
  Ni  Ni12  1  0.568163  0.615734  0.500000  1
  Ni  Ni13  1  0.384266  0.952429  0.500000  1
  As  As14  1  0.288792  0.409359  0.500000  1
  As  As15  1  0.590641  0.879433  0.500000  1
  As  As16  1  0.120567  0.711208  0.500000  1
  As  As17  1  0.411497  0.118461  0.000000  1
  As  As18  1  0.881539  0.293036  0.000000  1
  As  As19  1  0.706964  0.588503  0.000000  1
  As  As20  1  0.000000  0.000000  0.000000  1
