# generated using pymatgen
data_Sc5Tc4P12Ir8Rh7
_symmetry_space_group_name_H-M   'P 1'
_cell_length_a   12.61093462
_cell_length_b   12.48472632
_cell_length_c   3.90130200
_cell_angle_alpha   90.00000000
_cell_angle_beta   90.00000000
_cell_angle_gamma   119.74082817
_symmetry_Int_Tables_number   1
_chemical_formula_structural   Sc5Tc4P12Ir8Rh7
_chemical_formula_sum   'Sc5 Tc4 P12 Ir8 Rh7'
_cell_volume   533.32849346
_cell_formula_units_Z   1
loop_
 _symmetry_equiv_pos_site_id
 _symmetry_equiv_pos_as_xyz
  1  'x, y, z'
loop_
 _atom_site_type_symbol
 _atom_site_label
 _atom_site_symmetry_multiplicity
 _atom_site_fract_x
 _atom_site_fract_y
 _atom_site_fract_z
 _atom_site_occupancy
  Sc  Sc0  1  0.331855  0.662680  0.000000  1
  Sc  Sc1  1  0.665979  0.333255  0.000000  1
  Sc  Sc2  1  0.821004  0.002666  0.500000  1
  Sc  Sc3  1  0.000355  0.818998  0.500000  1
  Sc  Sc4  1  0.184919  0.187027  0.500000  1
  Tc  Tc5  1  0.452340  0.998081  0.000000  1
  Tc  Tc6  1  0.992592  0.449126  0.000000  1
  Tc  Tc7  1  0.549525  0.545060  0.000000  1
  Tc  Tc8  1  0.178435  0.378998  0.000000  1
  P  P9  1  0.176597  0.001706  0.000000  1
  P  P10  1  0.005756  0.181470  0.000000  1
  P  P11  1  0.823508  0.825607  0.000000  1
  P  P12  1  0.171305  0.481858  0.500000  1
  P  P13  1  0.516532  0.682879  0.500000  1
  P  P14  1  0.314886  0.828206  0.500000  1
  P  P15  1  0.684954  0.516892  0.500000  1
  P  P16  1  0.830709  0.317578  0.500000  1
  P  P17  1  0.483610  0.166580  0.500000  1
  P  P18  1  0.637554  0.998017  0.000000  1
  P  P19  1  0.000657  0.639117  0.000000  1
  P  P20  1  0.357130  0.362367  0.000000  1
  Ir  Ir21  1  0.641836  0.133267  0.500000  1
  Ir  Ir22  1  0.494478  0.355896  0.500000  1
  Ir  Ir23  1  0.816307  0.188388  0.000000  1
  Ir  Ir24  1  0.371595  0.180393  0.000000  1
  Ir  Ir25  1  0.285323  0.999413  0.500000  1
  Ir  Ir26  1  0.994321  0.282777  0.500000  1
  Ir  Ir27  1  0.716644  0.717157  0.500000  1
  Ir  Ir28  1  0.000177  0.000023  0.000000  1
  Rh  Rh29  1  0.362755  0.489822  0.500000  1
  Rh  Rh30  1  0.509894  0.866510  0.500000  1
  Rh  Rh31  1  0.130137  0.640025  0.500000  1
  Rh  Rh32  1  0.867219  0.512676  0.500000  1
  Rh  Rh33  1  0.626269  0.806202  0.000000  1
  Rh  Rh34  1  0.193844  0.819673  0.000000  1
  Rh  Rh35  1  0.808998  0.629613  0.000000  1
