# generated using pymatgen
data_TaTiSi4(MoIr2)2
_symmetry_space_group_name_H-M   'P 1'
_cell_length_a   3.84776500
_cell_length_b   6.31471748
_cell_length_c   7.22260486
_cell_angle_alpha   90.10178962
_cell_angle_beta   90.00000000
_cell_angle_gamma   90.00000000
_symmetry_Int_Tables_number   1
_chemical_formula_structural   TaTiSi4(MoIr2)2
_chemical_formula_sum   'Ta1 Ti1 Si4 Mo2 Ir4'
_cell_volume   175.49131792
_cell_formula_units_Z   1
loop_
 _symmetry_equiv_pos_site_id
 _symmetry_equiv_pos_as_xyz
  1  'x, y, z'
loop_
 _atom_site_type_symbol
 _atom_site_label
 _atom_site_symmetry_multiplicity
 _atom_site_fract_x
 _atom_site_fract_y
 _atom_site_fract_z
 _atom_site_occupancy
  Ta  Ta0  1  0.750000  0.975687  0.170061  1
  Ti  Ti1  1  0.750000  0.473639  0.326573  1
  Si  Si2  1  0.250000  0.759303  0.383550  1
  Si  Si3  1  0.250000  0.268196  0.120488  1
  Si  Si4  1  0.750000  0.234551  0.627586  1
  Si  Si5  1  0.750000  0.731169  0.868834  1
  Mo  Mo6  1  0.250000  0.027558  0.826823  1
  Mo  Mo7  1  0.250000  0.525178  0.675885  1
  Ir  Ir8  1  0.250000  0.148494  0.434062  1
  Ir  Ir9  1  0.250000  0.649581  0.066696  1
  Ir  Ir10  1  0.750000  0.854177  0.559366  1
  Ir  Ir11  1  0.750000  0.352466  0.940076  1
