# generated using pymatgen
data_Ba3Tc2(P3Ru2)2
_symmetry_space_group_name_H-M   'P 1'
_cell_length_a   8.89069065
_cell_length_b   8.89287919
_cell_length_c   8.89287771
_cell_angle_alpha   153.33147628
_cell_angle_beta   93.13624598
_cell_angle_gamma   92.96338239
_symmetry_Int_Tables_number   1
_chemical_formula_structural   Ba3Tc2(P3Ru2)2
_chemical_formula_sum   'Ba3 Tc2 P6 Ru4'
_cell_volume   307.06117619
_cell_formula_units_Z   1
loop_
 _symmetry_equiv_pos_site_id
 _symmetry_equiv_pos_as_xyz
  1  'x, y, z'
loop_
 _atom_site_type_symbol
 _atom_site_label
 _atom_site_symmetry_multiplicity
 _atom_site_fract_x
 _atom_site_fract_y
 _atom_site_fract_z
 _atom_site_occupancy
  Ba  Ba0  1  0.332249  0.332050  0.000199  1
  Ba  Ba1  1  0.667712  0.666734  0.000978  1
  Ba  Ba2  1  0.001434  0.001227  0.000207  1
  Tc  Tc3  1  0.585325  0.834433  0.750891  1
  Tc  Tc4  1  0.249926  0.498914  0.751011  1
  P  P5  1  0.323156  0.666623  0.656532  1
  P  P6  1  0.677267  0.334049  0.343218  1
  P  P7  1  0.989423  0.332741  0.656680  1
  P  P8  1  0.342730  0.999414  0.343316  1
  P  P9  1  0.009196  0.666650  0.342547  1
  P  P10  1  0.657052  0.000536  0.656517  1
  Ru  Ru11  1  0.749937  0.501800  0.248137  1
  Ru  Ru12  1  0.079807  0.831516  0.248292  1
  Ru  Ru13  1  0.415663  0.166676  0.248987  1
  Ru  Ru14  1  0.919124  0.166636  0.752489  1
