# generated using pymatgen
data_Tb7Tm(Co5B2)4
_symmetry_space_group_name_H-M   'P 1'
_cell_length_a   5.06942600
_cell_length_b   5.06914428
_cell_length_c   19.98750800
_cell_angle_alpha   90.00052475
_cell_angle_beta   89.99991179
_cell_angle_gamma   120.00231072
_symmetry_Int_Tables_number   1
_chemical_formula_structural   Tb7Tm(Co5B2)4
_chemical_formula_sum   'Tb7 Tm1 Co20 B8'
_cell_volume   444.80802084
_cell_formula_units_Z   1
loop_
 _symmetry_equiv_pos_site_id
 _symmetry_equiv_pos_as_xyz
  1  'x, y, z'
loop_
 _atom_site_type_symbol
 _atom_site_label
 _atom_site_symmetry_multiplicity
 _atom_site_fract_x
 _atom_site_fract_y
 _atom_site_fract_z
 _atom_site_occupancy
  Tb  Tb0  1  0.666666  0.333297  0.976891  1
  Tb  Tb1  1  0.333337  0.666680  0.478084  1
  Tb  Tb2  1  0.333326  0.666650  0.021530  1
  Tb  Tb3  1  0.333346  0.666688  0.174907  1
  Tb  Tb4  1  0.666662  0.333322  0.522250  1
  Tb  Tb5  1  0.666686  0.333311  0.675084  1
  Tb  Tb6  1  0.333345  0.666680  0.325461  1
  Tm  Tm7  1  0.666724  0.333316  0.824592  1
  Co  Co8  1  0.162126  0.324161  0.893052  1
  Co  Co9  1  0.162084  0.837944  0.606114  1
  Co  Co10  1  0.837912  0.162091  0.394392  1
  Co  Co11  1  0.334833  0.167411  0.250438  1
  Co  Co12  1  0.324205  0.162099  0.394376  1
  Co  Co13  1  0.837906  0.675805  0.105868  1
  Co  Co14  1  0.837897  0.675756  0.394384  1
  Co  Co15  1  0.832523  0.665100  0.250434  1
  Co  Co16  1  0.675850  0.837865  0.606130  1
  Co  Co17  1  0.665020  0.832497  0.750289  1
  Co  Co18  1  0.837905  0.162140  0.105870  1
  Co  Co19  1  0.675876  0.837904  0.893063  1
  Co  Co20  1  0.999967  0.999917  0.999516  1
  Co  Co21  1  0.167531  0.334999  0.750288  1
  Co  Co22  1  0.167504  0.832535  0.750294  1
  Co  Co23  1  0.832547  0.167444  0.250437  1
  Co  Co24  1  0.324205  0.162135  0.105883  1
  Co  Co25  1  0.999977  0.999977  0.500234  1
  Co  Co26  1  0.162050  0.838012  0.893072  1
  Co  Co27  1  0.162113  0.324181  0.606140  1
  B  B28  1  0.333295  0.666716  0.824997  1
  B  B29  1  0.333325  0.666710  0.674818  1
  B  B30  1  0.666675  0.333320  0.325834  1
  B  B31  1  0.999978  0.000039  0.821996  1
  B  B32  1  0.666667  0.333339  0.174865  1
  B  B33  1  0.000017  0.000019  0.677725  1
  B  B34  1  0.999964  0.999958  0.322939  1
  B  B35  1  0.999958  0.999978  0.177754  1
