# generated using pymatgen
data_Dy3HoAl6(Ga2Ir)6
_symmetry_space_group_name_H-M   'P 1'
_cell_length_a   7.55963902
_cell_length_b   7.55780910
_cell_length_c   9.52429701
_cell_angle_alpha   90.16791945
_cell_angle_beta   89.92969796
_cell_angle_gamma   119.73731725
_symmetry_Int_Tables_number   1
_chemical_formula_structural   Dy3HoAl6(Ga2Ir)6
_chemical_formula_sum   'Dy3 Ho1 Al6 Ga12 Ir6'
_cell_volume   472.50036203
_cell_formula_units_Z   1
loop_
 _symmetry_equiv_pos_site_id
 _symmetry_equiv_pos_as_xyz
  1  'x, y, z'
loop_
 _atom_site_type_symbol
 _atom_site_label
 _atom_site_symmetry_multiplicity
 _atom_site_fract_x
 _atom_site_fract_y
 _atom_site_fract_z
 _atom_site_occupancy
  Dy  Dy0  1  0.998669  0.667097  0.251096  1
  Dy  Dy1  1  0.001344  0.332903  0.748898  1
  Dy  Dy2  1  0.671434  0.000430  0.254559  1
  Ho  Ho3  1  0.328553  0.999542  0.745428  1
  Al  Al4  1  0.664207  0.997754  0.928147  1
  Al  Al5  1  0.335656  0.002223  0.071653  1
  Al  Al6  1  0.332636  0.332520  0.553742  1
  Al  Al7  1  0.667364  0.667357  0.446348  1
  Al  Al8  1  0.667858  0.667296  0.054965  1
  Al  Al9  1  0.332143  0.332600  0.944952  1
  Ga  Ga10  1  0.128704  0.125501  0.249344  1
  Ga  Ga11  1  0.871438  0.874559  0.750653  1
  Ga  Ga12  1  0.998732  0.333364  0.077930  1
  Ga  Ga13  1  0.001412  0.666784  0.921982  1
  Ga  Ga14  1  0.998455  0.664870  0.579575  1
  Ga  Ga15  1  0.335008  0.000002  0.418497  1
  Ga  Ga16  1  0.001725  0.335315  0.420516  1
  Ga  Ga17  1  0.664802  0.999968  0.581704  1
  Ga  Ga18  1  0.344655  0.549744  0.249899  1
  Ga  Ga19  1  0.655230  0.450107  0.750099  1
  Ga  Ga20  1  0.547550  0.343363  0.249095  1
  Ga  Ga21  1  0.452412  0.656714  0.750903  1
  Ir  Ir22  1  0.667300  0.325875  0.999109  1
  Ir  Ir23  1  0.332626  0.674094  0.000785  1
  Ir  Ir24  1  0.330336  0.669492  0.500746  1
  Ir  Ir25  1  0.669596  0.330495  0.499364  1
  Ir  Ir26  1  0.000072  0.000015  0.999948  1
  Ir  Ir27  1  0.000081  0.000017  0.500064  1
