# generated using pymatgen
data_Tb2Tc(Ni3P2)3
_symmetry_space_group_name_H-M   'P 1'
_cell_length_a   3.72696000
_cell_length_b   10.47226200
_cell_length_c   11.90705600
_cell_angle_alpha   90.00000000
_cell_angle_beta   90.00000000
_cell_angle_gamma   90.00000000
_symmetry_Int_Tables_number   1
_chemical_formula_structural   Tb2Tc(Ni3P2)3
_chemical_formula_sum   'Tb4 Tc2 Ni18 P12'
_cell_volume   464.72884242
_cell_formula_units_Z   2
loop_
 _symmetry_equiv_pos_site_id
 _symmetry_equiv_pos_as_xyz
  1  'x, y, z'
loop_
 _atom_site_type_symbol
 _atom_site_label
 _atom_site_symmetry_multiplicity
 _atom_site_fract_x
 _atom_site_fract_y
 _atom_site_fract_z
 _atom_site_occupancy
  Tb  Tb0  1  0.250000  0.583051  0.704319  1
  Tb  Tb1  1  0.250000  0.916949  0.204319  1
  Tb  Tb2  1  0.750000  0.412595  0.295725  1
  Tb  Tb3  1  0.750000  0.087405  0.795725  1
  Tc  Tc4  1  0.250000  0.708092  0.988285  1
  Tc  Tc5  1  0.250000  0.791908  0.488285  1
  Ni  Ni6  1  0.750000  0.286618  0.010628  1
  Ni  Ni7  1  0.750000  0.213382  0.510628  1
  Ni  Ni8  1  0.250000  0.406676  0.487602  1
  Ni  Ni9  1  0.250000  0.093324  0.987602  1
  Ni  Ni10  1  0.750000  0.591205  0.510950  1
  Ni  Ni11  1  0.750000  0.908795  0.010950  1
  Ni  Ni12  1  0.250000  0.219279  0.176645  1
  Ni  Ni13  1  0.250000  0.280721  0.676645  1
  Ni  Ni14  1  0.750000  0.779114  0.821159  1
  Ni  Ni15  1  0.750000  0.720886  0.321159  1
  Ni  Ni16  1  0.250000  0.887235  0.703629  1
  Ni  Ni17  1  0.250000  0.612765  0.203629  1
  Ni  Ni18  1  0.750000  0.118173  0.300255  1
  Ni  Ni19  1  0.750000  0.381827  0.800255  1
  Ni  Ni20  1  0.250000  0.462881  0.931923  1
  Ni  Ni21  1  0.250000  0.037119  0.431923  1
  Ni  Ni22  1  0.750000  0.529977  0.069184  1
  Ni  Ni23  1  0.750000  0.970023  0.569184  1
  P  P24  1  0.250000  0.417284  0.113666  1
  P  P25  1  0.250000  0.082716  0.613666  1
  P  P26  1  0.750000  0.582316  0.887666  1
  P  P27  1  0.750000  0.917684  0.387666  1
  P  P28  1  0.250000  0.269805  0.869120  1
  P  P29  1  0.250000  0.230195  0.369120  1
  P  P30  1  0.750000  0.730158  0.129591  1
  P  P31  1  0.750000  0.769842  0.629591  1
  P  P32  1  0.250000  0.597558  0.391486  1
  P  P33  1  0.250000  0.902442  0.891486  1
  P  P34  1  0.750000  0.397705  0.608166  1
  P  P35  1  0.750000  0.102295  0.108166  1
