# generated using pymatgen
data_La6ReI10
_symmetry_space_group_name_H-M   'P 1'
_cell_length_a   8.22963635
_cell_length_b   10.15621860
_cell_length_c   10.13606583
_cell_angle_alpha   107.55195640
_cell_angle_beta   96.91799684
_cell_angle_gamma   105.41017494
_symmetry_Int_Tables_number   1
_chemical_formula_structural   La6ReI10
_chemical_formula_sum   'La6 Re1 I10'
_cell_volume   759.94249541
_cell_formula_units_Z   1
loop_
 _symmetry_equiv_pos_site_id
 _symmetry_equiv_pos_as_xyz
  1  'x, y, z'
loop_
 _atom_site_type_symbol
 _atom_site_label
 _atom_site_symmetry_multiplicity
 _atom_site_fract_x
 _atom_site_fract_y
 _atom_site_fract_z
 _atom_site_occupancy
  La  La0  1  0.467929  0.284814  0.584309  1
  La  La1  1  0.532071  0.715186  0.415691  1
  La  La2  1  0.868266  0.137494  0.682649  1
  La  La3  1  0.131734  0.862506  0.317351  1
  La  La4  1  0.384393  0.956618  0.732794  1
  La  La5  1  0.615607  0.043382  0.267206  1
  Re  Re6  1  0.500000  0.000000  0.500000  1
  I  I7  1  0.413704  0.629861  0.680369  1
  I  I8  1  0.586296  0.370139  0.319631  1
  I  I9  1  0.293732  0.261151  0.852075  1
  I  I10  1  0.706268  0.738849  0.147925  1
  I  I11  1  0.852854  0.457808  0.771629  1
  I  I12  1  0.147146  0.542192  0.228371  1
  I  I13  1  0.045134  0.180946  0.412114  1
  I  I14  1  0.243962  0.914627  0.040177  1
  I  I15  1  0.756038  0.085373  0.959823  1
  I  I16  1  0.954866  0.819054  0.587886  1
