# generated using pymatgen
data_Dy2Y6Sc12Si15Ag
_symmetry_space_group_name_H-M   'P 1'
_cell_length_a   7.13738959
_cell_length_b   7.38084910
_cell_length_c   14.08628234
_cell_angle_alpha   89.88204606
_cell_angle_beta   89.60382089
_cell_angle_gamma   90.18141791
_symmetry_Int_Tables_number   1
_chemical_formula_structural   Dy2Y6Sc12Si15Ag
_chemical_formula_sum   'Dy2 Y6 Sc12 Si15 Ag1'
_cell_volume   742.04222474
_cell_formula_units_Z   1
loop_
 _symmetry_equiv_pos_site_id
 _symmetry_equiv_pos_as_xyz
  1  'x, y, z'
loop_
 _atom_site_type_symbol
 _atom_site_label
 _atom_site_symmetry_multiplicity
 _atom_site_fract_x
 _atom_site_fract_y
 _atom_site_fract_z
 _atom_site_occupancy
  Dy  Dy0  1  0.512453  0.323220  0.399921  1
  Dy  Dy1  1  0.493537  0.677916  0.600024  1
  Y  Y2  1  0.012196  0.175051  0.097809  1
  Y  Y3  1  0.987559  0.826050  0.903782  1
  Y  Y4  1  0.487260  0.676457  0.903514  1
  Y  Y5  1  0.988480  0.830998  0.597761  1
  Y  Y6  1  0.512068  0.324137  0.096820  1
  Y  Y7  1  0.008975  0.171543  0.398869  1
  Sc  Sc8  1  0.162998  0.501200  0.753006  1
  Sc  Sc9  1  0.837738  0.498935  0.250906  1
  Sc  Sc10  1  0.337959  0.999935  0.248890  1
  Sc  Sc11  1  0.664693  0.996381  0.751319  1
  Sc  Sc12  1  0.341456  0.173187  0.626863  1
  Sc  Sc13  1  0.665388  0.823128  0.373830  1
  Sc  Sc14  1  0.167460  0.675305  0.372040  1
  Sc  Sc15  1  0.670097  0.824293  0.124732  1
  Sc  Sc16  1  0.825897  0.325337  0.625339  1
  Sc  Sc17  1  0.328759  0.175249  0.876046  1
  Sc  Sc18  1  0.830240  0.322675  0.875914  1
  Sc  Sc19  1  0.169157  0.676512  0.125187  1
  Si  Si20  1  0.035990  0.121459  0.749997  1
  Si  Si21  1  0.965333  0.882605  0.248873  1
  Si  Si22  1  0.466584  0.616292  0.248342  1
  Si  Si23  1  0.534361  0.385100  0.752025  1
  Si  Si24  1  0.285056  0.874124  0.750762  1
  Si  Si25  1  0.712687  0.127002  0.248636  1
  Si  Si26  1  0.214635  0.371801  0.248730  1
  Si  Si27  1  0.787999  0.626941  0.752240  1
  Si  Si28  1  0.835269  0.537800  0.459185  1
  Si  Si29  1  0.338611  0.962007  0.460757  1
  Si  Si30  1  0.843789  0.535576  0.039147  1
  Si  Si31  1  0.658644  0.036233  0.537936  1
  Si  Si32  1  0.155158  0.464392  0.961654  1
  Si  Si33  1  0.656714  0.035238  0.960570  1
  Si  Si34  1  0.342910  0.964392  0.039871  1
  Ag  Ag35  1  0.161892  0.461530  0.538699  1
