# generated using pymatgen
data_Ca2MgPdRh
_symmetry_space_group_name_H-M   'P 1'
_cell_length_a   5.73147658
_cell_length_b   5.73147677
_cell_length_c   5.73147698
_cell_angle_alpha   136.58392240
_cell_angle_beta   116.69903982
_cell_angle_gamma   79.88142927
_symmetry_Int_Tables_number   1
_chemical_formula_structural   Ca2MgPdRh
_chemical_formula_sum   'Ca2 Mg1 Pd1 Rh1'
_cell_volume   112.06981531
_cell_formula_units_Z   1
loop_
 _symmetry_equiv_pos_site_id
 _symmetry_equiv_pos_as_xyz
  1  'x, y, z'
loop_
 _atom_site_type_symbol
 _atom_site_label
 _atom_site_symmetry_multiplicity
 _atom_site_fract_x
 _atom_site_fract_y
 _atom_site_fract_z
 _atom_site_occupancy
  Ca  Ca0  1  0.703812  0.200012  0.503800  1
  Ca  Ca1  1  0.303788  0.799988  0.503800  1
  Mg  Mg2  1  0.992589  0.000000  0.992589  1
  Pd  Pd3  1  0.269228  0.500000  0.769228  1
  Rh  Rh4  1  0.730584  0.500000  0.230584  1
