# generated using pymatgen
data_Dy7Y(MnS4)4
_symmetry_space_group_name_H-M   'P 1'
_cell_length_a   6.41663500
_cell_length_b   7.92431600
_cell_length_c   13.54453001
_cell_angle_alpha   90.00000000
_cell_angle_beta   90.00326690
_cell_angle_gamma   90.00000000
_symmetry_Int_Tables_number   1
_chemical_formula_structural   Dy7Y(MnS4)4
_chemical_formula_sum   'Dy7 Y1 Mn4 S16'
_cell_volume   688.70472195
_cell_formula_units_Z   1
loop_
 _symmetry_equiv_pos_site_id
 _symmetry_equiv_pos_as_xyz
  1  'x, y, z'
loop_
 _atom_site_type_symbol
 _atom_site_label
 _atom_site_symmetry_multiplicity
 _atom_site_fract_x
 _atom_site_fract_y
 _atom_site_fract_z
 _atom_site_occupancy
  Dy  Dy0  1  0.000001  0.500020  0.000024  1
  Dy  Dy1  1  0.499998  0.000006  0.499997  1
  Dy  Dy2  1  0.000001  0.999980  0.000024  1
  Dy  Dy3  1  0.499998  0.499994  0.499997  1
  Dy  Dy4  1  0.505256  0.750000  0.766013  1
  Dy  Dy5  1  0.005258  0.250000  0.733990  1
  Dy  Dy6  1  0.494720  0.250000  0.233986  1
  Y  Y7  1  0.994680  0.750000  0.266002  1
  Mn  Mn8  1  0.411461  0.750000  0.092353  1
  Mn  Mn9  1  0.088790  0.750000  0.592358  1
  Mn  Mn10  1  0.588742  0.250000  0.907650  1
  Mn  Mn11  1  0.911171  0.250000  0.407651  1
  S  S12  1  0.778530  0.750000  0.089978  1
  S  S13  1  0.721248  0.750000  0.590147  1
  S  S14  1  0.221257  0.250000  0.909845  1
  S  S15  1  0.278746  0.250000  0.409851  1
  S  S16  1  0.244361  0.750000  0.430281  1
  S  S17  1  0.255811  0.750000  0.930102  1
  S  S18  1  0.755815  0.250000  0.569894  1
  S  S19  1  0.744159  0.250000  0.069891  1
  S  S20  1  0.742120  0.486652  0.331266  1
  S  S21  1  0.757623  0.013083  0.831172  1
  S  S22  1  0.257624  0.986912  0.668828  1
  S  S23  1  0.242632  0.512813  0.168717  1
  S  S24  1  0.257624  0.513088  0.668828  1
  S  S25  1  0.242632  0.987187  0.168717  1
  S  S26  1  0.742120  0.013348  0.331266  1
  S  S27  1  0.757623  0.486917  0.831172  1
