# generated using pymatgen
data_La4Nd(SnBi)2
_symmetry_space_group_name_H-M   'P 1'
_cell_length_a   8.59296600
_cell_length_b   8.63701000
_cell_length_c   16.51378300
_cell_angle_alpha   90.00000000
_cell_angle_beta   90.00000000
_cell_angle_gamma   90.00000000
_symmetry_Int_Tables_number   1
_chemical_formula_structural   La4Nd(SnBi)2
_chemical_formula_sum   'La16 Nd4 Sn8 Bi8'
_cell_volume   1225.61223924
_cell_formula_units_Z   4
loop_
 _symmetry_equiv_pos_site_id
 _symmetry_equiv_pos_as_xyz
  1  'x, y, z'
loop_
 _atom_site_type_symbol
 _atom_site_label
 _atom_site_symmetry_multiplicity
 _atom_site_fract_x
 _atom_site_fract_y
 _atom_site_fract_z
 _atom_site_occupancy
  La  La0  1  0.388206  0.837953  0.879091  1
  La  La1  1  0.888206  0.662047  0.620909  1
  La  La2  1  0.611794  0.162047  0.379091  1
  La  La3  1  0.111794  0.337953  0.120909  1
  La  La4  1  0.611794  0.162047  0.120909  1
  La  La5  1  0.111794  0.337953  0.379091  1
  La  La6  1  0.388206  0.837953  0.620909  1
  La  La7  1  0.888206  0.662047  0.879091  1
  La  La8  1  0.550919  0.326581  0.890985  1
  La  La9  1  0.050919  0.173419  0.609015  1
  La  La10  1  0.449081  0.673419  0.390985  1
  La  La11  1  0.949081  0.826581  0.109015  1
  La  La12  1  0.449081  0.673419  0.109015  1
  La  La13  1  0.949081  0.826581  0.390985  1
  La  La14  1  0.550919  0.326581  0.609015  1
  La  La15  1  0.050919  0.173419  0.890985  1
  Nd  Nd16  1  0.218029  0.496024  0.750000  1
  Nd  Nd17  1  0.718029  0.003976  0.750000  1
  Nd  Nd18  1  0.781971  0.503976  0.250000  1
  Nd  Nd19  1  0.281971  0.996024  0.250000  1
  Sn  Sn20  1  0.586841  0.624200  0.750000  1
  Sn  Sn21  1  0.086841  0.875800  0.750000  1
  Sn  Sn22  1  0.413159  0.375800  0.250000  1
  Sn  Sn23  1  0.913159  0.124200  0.250000  1
  Sn  Sn24  1  0.354016  0.141114  0.750000  1
  Sn  Sn25  1  0.854016  0.358886  0.750000  1
  Sn  Sn26  1  0.645984  0.858886  0.250000  1
  Sn  Sn27  1  0.145984  0.641114  0.250000  1
  Bi  Bi28  1  0.269527  0.019296  0.047124  1
  Bi  Bi29  1  0.769527  0.480704  0.452876  1
  Bi  Bi30  1  0.730473  0.980704  0.547124  1
  Bi  Bi31  1  0.230473  0.519296  0.952876  1
  Bi  Bi32  1  0.730473  0.980704  0.952876  1
  Bi  Bi33  1  0.230473  0.519296  0.547124  1
  Bi  Bi34  1  0.269527  0.019296  0.452876  1
  Bi  Bi35  1  0.769527  0.480704  0.047124  1
