# generated using pymatgen
data_LaSb12Ru3Pt
_symmetry_space_group_name_H-M   'P 1'
_cell_length_a   8.17005093
_cell_length_b   8.17459326
_cell_length_c   8.17459316
_cell_angle_alpha   109.48247146
_cell_angle_beta   109.45996186
_cell_angle_gamma   109.45996776
_symmetry_Int_Tables_number   1
_chemical_formula_structural   LaSb12Ru3Pt
_chemical_formula_sum   'La1 Sb12 Ru3 Pt1'
_cell_volume   420.33494543
_cell_formula_units_Z   1
loop_
 _symmetry_equiv_pos_site_id
 _symmetry_equiv_pos_as_xyz
  1  'x, y, z'
loop_
 _atom_site_type_symbol
 _atom_site_label
 _atom_site_symmetry_multiplicity
 _atom_site_fract_x
 _atom_site_fract_y
 _atom_site_fract_z
 _atom_site_occupancy
  La  La0  1  0.000000  0.000000  0.000000  1
  Sb  Sb1  1  0.150620  0.814474  0.654784  1
  Sb  Sb2  1  0.849380  0.185526  0.345216  1
  Sb  Sb3  1  0.841981  0.503748  0.661743  1
  Sb  Sb4  1  0.158019  0.496252  0.338257  1
  Sb  Sb5  1  0.819762  0.661743  0.157995  1
  Sb  Sb6  1  0.180238  0.338257  0.842005  1
  Sb  Sb7  1  0.504164  0.654784  0.840310  1
  Sb  Sb8  1  0.495836  0.345216  0.159690  1
  Sb  Sb9  1  0.663854  0.159690  0.814474  1
  Sb  Sb10  1  0.336146  0.840310  0.185526  1
  Sb  Sb11  1  0.661767  0.842005  0.503748  1
  Sb  Sb12  1  0.338233  0.157995  0.496252  1
  Ru  Ru13  1  0.000000  0.000000  0.500000  1
  Ru  Ru14  1  0.000000  0.500000  0.000000  1
  Ru  Ru15  1  0.500000  0.500000  0.500000  1
  Pt  Pt16  1  0.500000  0.000000  0.000000  1
