# generated using pymatgen
data_Dy3MgCdIn3Ir
_symmetry_space_group_name_H-M   'P 1'
_cell_length_a   8.33456200
_cell_length_b   8.33456177
_cell_length_c   3.59829600
_cell_angle_alpha   90.00000000
_cell_angle_beta   90.00000000
_cell_angle_gamma   120.00000304
_symmetry_Int_Tables_number   1
_chemical_formula_structural   Dy3MgCdIn3Ir
_chemical_formula_sum   'Dy3 Mg1 Cd1 In3 Ir1'
_cell_volume   216.46767651
_cell_formula_units_Z   1
loop_
 _symmetry_equiv_pos_site_id
 _symmetry_equiv_pos_as_xyz
  1  'x, y, z'
loop_
 _atom_site_type_symbol
 _atom_site_label
 _atom_site_symmetry_multiplicity
 _atom_site_fract_x
 _atom_site_fract_y
 _atom_site_fract_z
 _atom_site_occupancy
  Dy  Dy0  1  0.583333  0.632179  0.000000  1
  Dy  Dy1  1  0.367821  0.951155  0.000000  1
  Dy  Dy2  1  0.048845  0.416667  0.000000  1
  Mg  Mg3  1  0.000000  0.000000  0.000000  1
  Cd  Cd4  1  0.666667  0.333333  0.500000  1
  In  In5  1  0.986671  0.707588  0.500000  1
  In  In6  1  0.292412  0.279083  0.500000  1
  In  In7  1  0.720917  0.013329  0.500000  1
  Ir  Ir8  1  0.333333  0.666667  0.500000  1
