# generated using pymatgen
data_Yb2Lu3CuPb3
_symmetry_space_group_name_H-M   'P 1'
_cell_length_a   9.05574600
_cell_length_b   9.05574506
_cell_length_c   6.77517900
_cell_angle_alpha   90.00000000
_cell_angle_beta   90.00000000
_cell_angle_gamma   120.00000344
_symmetry_Int_Tables_number   1
_chemical_formula_structural   Yb2Lu3CuPb3
_chemical_formula_sum   'Yb4 Lu6 Cu2 Pb6'
_cell_volume   481.17140553
_cell_formula_units_Z   2
loop_
 _symmetry_equiv_pos_site_id
 _symmetry_equiv_pos_as_xyz
  1  'x, y, z'
loop_
 _atom_site_type_symbol
 _atom_site_label
 _atom_site_symmetry_multiplicity
 _atom_site_fract_x
 _atom_site_fract_y
 _atom_site_fract_z
 _atom_site_occupancy
  Yb  Yb0  1  0.333333  0.666667  0.500000  1
  Yb  Yb1  1  0.666667  0.333333  0.500000  1
  Yb  Yb2  1  0.666667  0.333333  0.000000  1
  Yb  Yb3  1  0.333333  0.666667  0.000000  1
  Lu  Lu4  1  0.250276  0.000000  0.750000  1
  Lu  Lu5  1  0.749724  0.000000  0.250000  1
  Lu  Lu6  1  0.000000  0.250276  0.750000  1
  Lu  Lu7  1  0.000000  0.749724  0.250000  1
  Lu  Lu8  1  0.749724  0.749724  0.750000  1
  Lu  Lu9  1  0.250276  0.250276  0.250000  1
  Cu  Cu10  1  0.000000  0.000000  0.500000  1
  Cu  Cu11  1  0.000000  0.000000  0.000000  1
  Pb  Pb12  1  0.607282  0.000000  0.750000  1
  Pb  Pb13  1  0.392718  0.000000  0.250000  1
  Pb  Pb14  1  0.000000  0.607282  0.750000  1
  Pb  Pb15  1  0.000000  0.392718  0.250000  1
  Pb  Pb16  1  0.392718  0.392718  0.750000  1
  Pb  Pb17  1  0.607282  0.607282  0.250000  1
