# generated using pymatgen
data_YbU2(SnIr)3
_symmetry_space_group_name_H-M   'P 1'
_cell_length_a   7.31463700
_cell_length_b   7.47254808
_cell_length_c   4.00948200
_cell_angle_alpha   90.00000000
_cell_angle_beta   90.00000000
_cell_angle_gamma   119.30337720
_symmetry_Int_Tables_number   1
_chemical_formula_structural   YbU2(SnIr)3
_chemical_formula_sum   'Yb1 U2 Sn3 Ir3'
_cell_volume   191.11130687
_cell_formula_units_Z   1
loop_
 _symmetry_equiv_pos_site_id
 _symmetry_equiv_pos_as_xyz
  1  'x, y, z'
loop_
 _atom_site_type_symbol
 _atom_site_label
 _atom_site_symmetry_multiplicity
 _atom_site_fract_x
 _atom_site_fract_y
 _atom_site_fract_z
 _atom_site_occupancy
  Yb  Yb0  1  0.408619  0.000000  0.500000  1
  U  U1  1  0.002777  0.415079  0.500000  1
  U  U2  1  0.587698  0.584921  0.500000  1
  Sn  Sn3  1  0.013300  0.758161  0.000000  1
  Sn  Sn4  1  0.255139  0.241839  0.000000  1
  Sn  Sn5  1  0.729178  0.000000  0.000000  1
  Ir  Ir6  1  0.330878  0.639879  0.000000  1
  Ir  Ir7  1  0.690999  0.360121  0.000000  1
  Ir  Ir8  1  0.981413  0.000000  0.500000  1
