# generated using pymatgen
data_Yb3V(FeO4)2
_symmetry_space_group_name_H-M   'P 1'
_cell_length_a   5.45865800
_cell_length_b   5.50766019
_cell_length_c   11.16483100
_cell_angle_alpha   89.98494697
_cell_angle_beta   90.00000000
_cell_angle_gamma   90.00000000
_symmetry_Int_Tables_number   1
_chemical_formula_structural   Yb3V(FeO4)2
_chemical_formula_sum   'Yb6 V2 Fe4 O16'
_cell_volume   335.66430597
_cell_formula_units_Z   2
loop_
 _symmetry_equiv_pos_site_id
 _symmetry_equiv_pos_as_xyz
  1  'x, y, z'
loop_
 _atom_site_type_symbol
 _atom_site_label
 _atom_site_symmetry_multiplicity
 _atom_site_fract_x
 _atom_site_fract_y
 _atom_site_fract_z
 _atom_site_occupancy
  Yb  Yb0  1  0.964029  0.223658  0.810935  1
  Yb  Yb1  1  0.960880  0.227895  0.187916  1
  Yb  Yb2  1  0.464029  0.776342  0.189065  1
  Yb  Yb3  1  0.460880  0.772105  0.812084  1
  Yb  Yb4  1  0.042153  0.228607  0.501777  1
  Yb  Yb5  1  0.542153  0.771393  0.498223  1
  V  V6  1  0.497587  0.264405  0.332926  1
  V  V7  1  0.997587  0.735595  0.667074  1
  Fe  Fe8  1  0.441648  0.312663  0.000545  1
  Fe  Fe9  1  0.941648  0.687337  0.999455  1
  Fe  Fe10  1  0.499368  0.256635  0.668589  1
  Fe  Fe11  1  0.999368  0.743365  0.331411  1
  O  O12  1  0.265828  0.963827  0.645066  1
  O  O13  1  0.274265  0.977332  0.358456  1
  O  O14  1  0.765828  0.036173  0.354934  1
  O  O15  1  0.774265  0.022668  0.641544  1
  O  O16  1  0.219329  0.468009  0.702770  1
  O  O17  1  0.231271  0.464145  0.292431  1
  O  O18  1  0.719329  0.531991  0.297230  1
  O  O19  1  0.731271  0.535855  0.707569  1
  O  O20  1  0.086663  0.365056  0.999779  1
  O  O21  1  0.586663  0.634944  0.000221  1
  O  O22  1  0.534792  0.168640  0.855285  1
  O  O23  1  0.534161  0.172926  0.146600  1
  O  O24  1  0.034792  0.831360  0.144715  1
  O  O25  1  0.034161  0.827074  0.853400  1
  O  O26  1  0.480025  0.344671  0.498327  1
  O  O27  1  0.980025  0.655329  0.501673  1
