# generated using pymatgen
data_TbSm4Dy11(C2Br3)4
_symmetry_space_group_name_H-M   'P 1'
_cell_length_a   3.71222400
_cell_length_b   10.79853708
_cell_length_c   20.77617814
_cell_angle_alpha   90.01357332
_cell_angle_beta   90.00000000
_cell_angle_gamma   90.00000000
_symmetry_Int_Tables_number   1
_chemical_formula_structural   TbSm4Dy11(C2Br3)4
_chemical_formula_sum   'Tb1 Sm4 Dy11 C8 Br12'
_cell_volume   832.84608051
_cell_formula_units_Z   1
loop_
 _symmetry_equiv_pos_site_id
 _symmetry_equiv_pos_as_xyz
  1  'x, y, z'
loop_
 _atom_site_type_symbol
 _atom_site_label
 _atom_site_symmetry_multiplicity
 _atom_site_fract_x
 _atom_site_fract_y
 _atom_site_fract_z
 _atom_site_occupancy
  Tb  Tb0  1  0.250000  0.400291  0.172127  1
  Sm  Sm1  1  0.250000  0.865059  0.579668  1
  Sm  Sm2  1  0.750000  0.134906  0.420526  1
  Sm  Sm3  1  0.750000  0.635257  0.079547  1
  Sm  Sm4  1  0.250000  0.365114  0.920263  1
  Dy  Dy5  1  0.250000  0.865050  0.744226  1
  Dy  Dy6  1  0.750000  0.134948  0.255937  1
  Dy  Dy7  1  0.750000  0.635228  0.244244  1
  Dy  Dy8  1  0.250000  0.364931  0.755727  1
  Dy  Dy9  1  0.250000  0.869148  0.170249  1
  Dy  Dy10  1  0.750000  0.130774  0.829744  1
  Dy  Dy11  1  0.750000  0.630834  0.670224  1
  Dy  Dy12  1  0.250000  0.369316  0.329984  1
  Dy  Dy13  1  0.250000  0.900854  0.327508  1
  Dy  Dy14  1  0.750000  0.099157  0.672545  1
  Dy  Dy15  1  0.750000  0.599156  0.827402  1
  C  C16  1  0.250000  0.613747  0.750490  1
  C  C17  1  0.750000  0.386022  0.249878  1
  C  C18  1  0.750000  0.886406  0.250636  1
  C  C19  1  0.250000  0.113817  0.749468  1
  C  C20  1  0.250000  0.634966  0.158388  1
  C  C21  1  0.750000  0.365943  0.841485  1
  C  C22  1  0.750000  0.865894  0.658436  1
  C  C23  1  0.250000  0.133902  0.341748  1
  Br  Br24  1  0.250000  0.606217  0.558498  1
  Br  Br25  1  0.750000  0.393662  0.441833  1
  Br  Br26  1  0.750000  0.893889  0.058355  1
  Br  Br27  1  0.250000  0.106250  0.941439  1
  Br  Br28  1  0.250000  0.631452  0.950159  1
  Br  Br29  1  0.750000  0.368703  0.048954  1
  Br  Br30  1  0.750000  0.868607  0.450400  1
  Br  Br31  1  0.250000  0.131359  0.549848  1
  Br  Br32  1  0.250000  0.636954  0.354740  1
  Br  Br33  1  0.750000  0.363183  0.645446  1
  Br  Br34  1  0.750000  0.863188  0.854529  1
  Br  Br35  1  0.250000  0.135818  0.145351  1
