# generated using pymatgen
data_Cs4Zr6FeI18
_symmetry_space_group_name_H-M   'P 1'
_cell_length_a   11.63306892
_cell_length_b   11.95406768
_cell_length_c   12.08327652
_cell_angle_alpha   118.37321888
_cell_angle_beta   100.32059560
_cell_angle_gamma   104.17958711
_symmetry_Int_Tables_number   1
_chemical_formula_structural   Cs4Zr6FeI18
_chemical_formula_sum   'Cs4 Zr6 Fe1 I18'
_cell_volume   1344.64105863
_cell_formula_units_Z   1
loop_
 _symmetry_equiv_pos_site_id
 _symmetry_equiv_pos_as_xyz
  1  'x, y, z'
loop_
 _atom_site_type_symbol
 _atom_site_label
 _atom_site_symmetry_multiplicity
 _atom_site_fract_x
 _atom_site_fract_y
 _atom_site_fract_z
 _atom_site_occupancy
  Cs  Cs0  1  0.656336  0.537267  0.229104  1
  Cs  Cs1  1  0.343664  0.462733  0.770896  1
  Cs  Cs2  1  0.691236  0.226652  0.564252  1
  Cs  Cs3  1  0.308764  0.773348  0.435748  1
  Zr  Zr4  1  0.142650  0.052842  0.216094  1
  Zr  Zr5  1  0.857350  0.947158  0.783906  1
  Zr  Zr6  1  0.868519  0.117078  0.123174  1
  Zr  Zr7  1  0.131481  0.882922  0.876826  1
  Zr  Zr8  1  0.138390  0.224839  0.043196  1
  Zr  Zr9  1  0.861610  0.775161  0.956804  1
  Fe  Fe10  1  0.000000  0.000000  0.000000  1
  I  I11  1  0.007426  0.394194  0.188849  1
  I  I12  1  0.992574  0.605806  0.811151  1
  I  I13  1  0.322556  0.323647  0.301858  1
  I  I14  1  0.677444  0.676353  0.698142  1
  I  I15  1  0.309803  0.506025  0.096217  1
  I  I16  1  0.690197  0.493975  0.903783  1
  I  I17  1  0.003187  0.802254  0.201267  1
  I  I18  1  0.996813  0.197746  0.798733  1
  I  I19  1  0.708388  0.260659  0.273206  1
  I  I20  1  0.291612  0.739341  0.726794  1
  I  I21  1  0.309799  0.125524  0.908121  1
  I  I22  1  0.690201  0.874476  0.091879  1
  I  I23  1  0.014471  0.196803  0.392723  1
  I  I24  1  0.985529  0.803197  0.607277  1
  I  I25  1  0.313860  0.927433  0.108197  1
  I  I26  1  0.686140  0.072567  0.891803  1
  I  I27  1  0.322171  0.117538  0.484988  1
  I  I28  1  0.677829  0.882462  0.515012  1
