# generated using pymatgen
data_CaYCd30O32
_symmetry_space_group_name_H-M   'P 1'
_cell_length_a   9.51264600
_cell_length_b   9.51264600
_cell_length_c   9.56672600
_cell_angle_alpha   90.00000000
_cell_angle_beta   90.00000000
_cell_angle_gamma   90.00000000
_symmetry_Int_Tables_number   1
_chemical_formula_structural   CaYCd30O32
_chemical_formula_sum   'Ca1 Y1 Cd30 O32'
_cell_volume   865.69718695
_cell_formula_units_Z   1
loop_
 _symmetry_equiv_pos_site_id
 _symmetry_equiv_pos_as_xyz
  1  'x, y, z'
loop_
 _atom_site_type_symbol
 _atom_site_label
 _atom_site_symmetry_multiplicity
 _atom_site_fract_x
 _atom_site_fract_y
 _atom_site_fract_z
 _atom_site_occupancy
  Ca  Ca0  1  0.000000  0.000000  0.000000  1
  Y  Y1  1  0.000000  0.000000  0.500000  1
  Cd  Cd2  1  0.000000  0.500000  0.000000  1
  Cd  Cd3  1  0.000000  0.500000  0.500000  1
  Cd  Cd4  1  0.500000  0.000000  0.000000  1
  Cd  Cd5  1  0.500000  0.000000  0.500000  1
  Cd  Cd6  1  0.500000  0.500000  0.000000  1
  Cd  Cd7  1  0.500000  0.500000  0.500000  1
  Cd  Cd8  1  0.000000  0.253197  0.247787  1
  Cd  Cd9  1  0.000000  0.253197  0.752213  1
  Cd  Cd10  1  0.000000  0.746803  0.247787  1
  Cd  Cd11  1  0.000000  0.746803  0.752213  1
  Cd  Cd12  1  0.500000  0.250659  0.249442  1
  Cd  Cd13  1  0.500000  0.250659  0.750558  1
  Cd  Cd14  1  0.500000  0.749341  0.249442  1
  Cd  Cd15  1  0.500000  0.749341  0.750558  1
  Cd  Cd16  1  0.253197  0.000000  0.247787  1
  Cd  Cd17  1  0.253197  0.000000  0.752213  1
  Cd  Cd18  1  0.250659  0.500000  0.249442  1
  Cd  Cd19  1  0.250659  0.500000  0.750558  1
  Cd  Cd20  1  0.746803  0.000000  0.247787  1
  Cd  Cd21  1  0.746803  0.000000  0.752213  1
  Cd  Cd22  1  0.749341  0.500000  0.249442  1
  Cd  Cd23  1  0.749341  0.500000  0.750558  1
  Cd  Cd24  1  0.251103  0.251103  0.000000  1
  Cd  Cd25  1  0.252615  0.252615  0.500000  1
  Cd  Cd26  1  0.251103  0.748897  0.000000  1
  Cd  Cd27  1  0.252615  0.747385  0.500000  1
  Cd  Cd28  1  0.748897  0.251103  0.000000  1
  Cd  Cd29  1  0.747385  0.252615  0.500000  1
  Cd  Cd30  1  0.748897  0.748897  0.000000  1
  Cd  Cd31  1  0.747385  0.747385  0.500000  1
  O  O32  1  0.249766  0.000000  0.000000  1
  O  O33  1  0.242562  0.000000  0.500000  1
  O  O34  1  0.250217  0.500000  0.000000  1
  O  O35  1  0.248728  0.500000  0.500000  1
  O  O36  1  0.750234  0.000000  0.000000  1
  O  O37  1  0.757438  0.000000  0.500000  1
  O  O38  1  0.749783  0.500000  0.000000  1
  O  O39  1  0.751272  0.500000  0.500000  1
  O  O40  1  0.249023  0.249023  0.250738  1
  O  O41  1  0.249023  0.249023  0.749262  1
  O  O42  1  0.249023  0.750977  0.250738  1
  O  O43  1  0.249023  0.750977  0.749262  1
  O  O44  1  0.750977  0.249023  0.250738  1
  O  O45  1  0.750977  0.249023  0.749262  1
  O  O46  1  0.750977  0.750977  0.250738  1
  O  O47  1  0.750977  0.750977  0.749262  1
  O  O48  1  0.000000  0.000000  0.256431  1
  O  O49  1  0.000000  0.000000  0.743569  1
  O  O50  1  0.000000  0.500000  0.252626  1
  O  O51  1  0.000000  0.500000  0.747374  1
  O  O52  1  0.500000  0.000000  0.252626  1
  O  O53  1  0.500000  0.000000  0.747374  1
  O  O54  1  0.500000  0.500000  0.251058  1
  O  O55  1  0.500000  0.500000  0.748942  1
  O  O56  1  0.000000  0.249766  0.000000  1
  O  O57  1  0.000000  0.242562  0.500000  1
  O  O58  1  0.000000  0.750234  0.000000  1
  O  O59  1  0.000000  0.757438  0.500000  1
  O  O60  1  0.500000  0.250217  0.000000  1
  O  O61  1  0.500000  0.248728  0.500000  1
  O  O62  1  0.500000  0.749783  0.000000  1
  O  O63  1  0.500000  0.751272  0.500000  1
