# generated using pymatgen
data_Tb4TmReRuO12
_symmetry_space_group_name_H-M   'P 1'
_cell_length_a   6.85397321
_cell_length_b   6.85397489
_cell_length_c   7.50785520
_cell_angle_alpha   73.76709313
_cell_angle_beta   73.76708966
_cell_angle_gamma   49.01418140
_symmetry_Int_Tables_number   1
_chemical_formula_structural   Tb4TmReRuO12
_chemical_formula_sum   'Tb4 Tm1 Re1 Ru1 O12'
_cell_volume   253.36468464
_cell_formula_units_Z   1
loop_
 _symmetry_equiv_pos_site_id
 _symmetry_equiv_pos_as_xyz
  1  'x, y, z'
loop_
 _atom_site_type_symbol
 _atom_site_label
 _atom_site_symmetry_multiplicity
 _atom_site_fract_x
 _atom_site_fract_y
 _atom_site_fract_z
 _atom_site_occupancy
  Tb  Tb0  1  0.818341  0.787428  0.357507  1
  Tb  Tb1  1  0.212572  0.181659  0.642493  1
  Tb  Tb2  1  0.190269  0.179372  0.174900  1
  Tb  Tb3  1  0.820628  0.809731  0.825100  1
  Tm  Tm4  1  0.510939  0.489061  0.500000  1
  Re  Re5  1  0.700973  0.299027  0.000000  1
  Ru  Ru6  1  0.267452  0.732548  0.000000  1
  O  O7  1  0.413087  0.934507  0.914363  1
  O  O8  1  0.065493  0.586913  0.085637  1
  O  O9  1  0.589513  0.094662  0.085794  1
  O  O10  1  0.905338  0.410487  0.914206  1
  O  O11  1  0.609267  0.094508  0.566292  1
  O  O12  1  0.905492  0.390733  0.433708  1
  O  O13  1  0.412459  0.894173  0.425060  1
  O  O14  1  0.985597  0.015772  0.824941  1
  O  O15  1  0.984228  0.014403  0.175059  1
  O  O16  1  0.498218  0.495692  0.796620  1
  O  O17  1  0.504308  0.501782  0.203380  1
  O  O18  1  0.105827  0.587541  0.574940  1
