# generated using pymatgen
data_Pr3BiPt3RhF28
_symmetry_space_group_name_H-M   'P 1'
_cell_length_a   5.69375299
_cell_length_b   9.23471339
_cell_length_c   12.31187735
_cell_angle_alpha   61.96682516
_cell_angle_beta   90.21397360
_cell_angle_gamma   90.03822817
_symmetry_Int_Tables_number   1
_chemical_formula_structural   Pr3BiPt3RhF28
_chemical_formula_sum   'Pr3 Bi1 Pt3 Rh1 F28'
_cell_volume   571.40507715
_cell_formula_units_Z   1
loop_
 _symmetry_equiv_pos_site_id
 _symmetry_equiv_pos_as_xyz
  1  'x, y, z'
loop_
 _atom_site_type_symbol
 _atom_site_label
 _atom_site_symmetry_multiplicity
 _atom_site_fract_x
 _atom_site_fract_y
 _atom_site_fract_z
 _atom_site_occupancy
  Pr  Pr0  1  0.261571  0.192934  0.736781  1
  Pr  Pr1  1  0.237295  0.189837  0.233997  1
  Pr  Pr2  1  0.740103  0.810339  0.264979  1
  Bi  Bi3  1  0.766448  0.819800  0.761030  1
  Pt  Pt4  1  0.257711  0.728308  0.543504  1
  Pt  Pt5  1  0.242730  0.727372  0.040253  1
  Pt  Pt6  1  0.743547  0.271978  0.458942  1
  Rh  Rh7  1  0.756233  0.273243  0.957268  1
  F  F8  1  0.431999  0.706774  0.914937  1
  F  F9  1  0.931335  0.292995  0.585221  1
  F  F10  1  0.567533  0.289527  0.081920  1
  F  F11  1  0.069182  0.707070  0.416892  1
  F  F12  1  0.450869  0.279651  0.541380  1
  F  F13  1  0.947318  0.718962  0.957868  1
  F  F14  1  0.550144  0.718407  0.461308  1
  F  F15  1  0.047427  0.281712  0.041440  1
  F  F16  1  0.765813  0.507649  0.861254  1
  F  F17  1  0.264897  0.487117  0.639434  1
  F  F18  1  0.234853  0.486972  0.137484  1
  F  F19  1  0.732688  0.512246  0.362416  1
  F  F20  1  0.757051  0.035674  0.049234  1
  F  F21  1  0.259633  0.969162  0.451193  1
  F  F22  1  0.242485  0.968569  0.948529  1
  F  F23  1  0.743893  0.029337  0.550685  1
  F  F24  1  0.968450  0.729962  0.630246  1
  F  F25  1  0.470140  0.268995  0.868041  1
  F  F26  1  0.031324  0.271418  0.371282  1
  F  F27  1  0.529903  0.729186  0.128754  1
  F  F28  1  0.056457  0.743555  0.169212  1
  F  F29  1  0.559491  0.256507  0.329223  1
  F  F30  1  0.941315  0.254978  0.830995  1
  F  F31  1  0.441559  0.744413  0.673206  1
  F  F32  1  0.406354  0.967328  0.229845  1
  F  F33  1  0.904657  0.031532  0.271450  1
  F  F34  1  0.600367  0.028665  0.769472  1
  F  F35  1  0.087228  0.967825  0.730326  1
