# generated using pymatgen
data_Pr4SmY5(Sn5Rh2)4
_symmetry_space_group_name_H-M   'P 1'
_cell_length_a   14.16842600
_cell_length_b   14.16842600
_cell_length_c   4.57586000
_cell_angle_alpha   90.00000000
_cell_angle_beta   90.00000000
_cell_angle_gamma   90.00000000
_symmetry_Int_Tables_number   1
_chemical_formula_structural   Pr4SmY5(Sn5Rh2)4
_chemical_formula_sum   'Pr4 Sm1 Y5 Sn20 Rh8'
_cell_volume   918.57779117
_cell_formula_units_Z   1
loop_
 _symmetry_equiv_pos_site_id
 _symmetry_equiv_pos_as_xyz
  1  'x, y, z'
loop_
 _atom_site_type_symbol
 _atom_site_label
 _atom_site_symmetry_multiplicity
 _atom_site_fract_x
 _atom_site_fract_y
 _atom_site_fract_z
 _atom_site_occupancy
  Pr  Pr0  1  0.888064  0.388059  0.500000  1
  Pr  Pr1  1  0.111936  0.611941  0.500000  1
  Pr  Pr2  1  0.388059  0.111936  0.500000  1
  Pr  Pr3  1  0.611941  0.888064  0.500000  1
  Sm  Sm4  1  0.500000  0.500000  0.000000  1
  Y  Y5  1  0.000000  0.000000  0.000000  1
  Y  Y6  1  0.677297  0.177283  0.500000  1
  Y  Y7  1  0.322703  0.822717  0.500000  1
  Y  Y8  1  0.177283  0.322703  0.500000  1
  Y  Y9  1  0.822717  0.677297  0.500000  1
  Sn  Sn10  1  0.570343  0.070387  0.000000  1
  Sn  Sn11  1  0.429657  0.929613  0.000000  1
  Sn  Sn12  1  0.070387  0.429657  0.000000  1
  Sn  Sn13  1  0.929613  0.570343  0.000000  1
  Sn  Sn14  1  0.654217  0.698069  0.000000  1
  Sn  Sn15  1  0.345783  0.301931  0.000000  1
  Sn  Sn16  1  0.154239  0.801927  0.000000  1
  Sn  Sn17  1  0.845761  0.198073  0.000000  1
  Sn  Sn18  1  0.301931  0.654217  0.000000  1
  Sn  Sn19  1  0.698069  0.345783  0.000000  1
  Sn  Sn20  1  0.198073  0.154239  0.000000  1
  Sn  Sn21  1  0.801927  0.845761  0.000000  1
  Sn  Sn22  1  0.662192  0.505717  0.500000  1
  Sn  Sn23  1  0.337808  0.494283  0.500000  1
  Sn  Sn24  1  0.161639  0.994325  0.500000  1
  Sn  Sn25  1  0.838361  0.005675  0.500000  1
  Sn  Sn26  1  0.494283  0.662192  0.500000  1
  Sn  Sn27  1  0.505717  0.337808  0.500000  1
  Sn  Sn28  1  0.005675  0.161639  0.500000  1
  Sn  Sn29  1  0.994325  0.838361  0.500000  1
  Rh  Rh30  1  0.746330  0.529336  0.000000  1
  Rh  Rh31  1  0.253670  0.470664  0.000000  1
  Rh  Rh32  1  0.245977  0.970742  0.000000  1
  Rh  Rh33  1  0.754023  0.029258  0.000000  1
  Rh  Rh34  1  0.470664  0.746330  0.000000  1
  Rh  Rh35  1  0.529336  0.253670  0.000000  1
  Rh  Rh36  1  0.029258  0.245977  0.000000  1
  Rh  Rh37  1  0.970742  0.754023  0.000000  1
