# generated using pymatgen
data_YHoCuSi2Ru
_symmetry_space_group_name_H-M   'P 1'
_cell_length_a   4.21086200
_cell_length_b   6.94701412
_cell_length_c   7.33753303
_cell_angle_alpha   91.44845765
_cell_angle_beta   90.00000000
_cell_angle_gamma   90.00000000
_symmetry_Int_Tables_number   1
_chemical_formula_structural   YHoCuSi2Ru
_chemical_formula_sum   'Y2 Ho2 Cu2 Si4 Ru2'
_cell_volume   214.57566480
_cell_formula_units_Z   2
loop_
 _symmetry_equiv_pos_site_id
 _symmetry_equiv_pos_as_xyz
  1  'x, y, z'
loop_
 _atom_site_type_symbol
 _atom_site_label
 _atom_site_symmetry_multiplicity
 _atom_site_fract_x
 _atom_site_fract_y
 _atom_site_fract_z
 _atom_site_occupancy
  Y  Y0  1  0.250000  0.993580  0.797766  1
  Y  Y1  1  0.750000  0.006420  0.202234  1
  Ho  Ho2  1  0.250000  0.492219  0.687988  1
  Ho  Ho3  1  0.750000  0.507781  0.312012  1
  Cu  Cu4  1  0.750000  0.832215  0.573255  1
  Cu  Cu5  1  0.250000  0.167785  0.426745  1
  Si  Si6  1  0.250000  0.299592  0.090583  1
  Si  Si7  1  0.750000  0.700408  0.909417  1
  Si  Si8  1  0.250000  0.795470  0.389503  1
  Si  Si9  1  0.750000  0.204530  0.610497  1
  Ru  Ru10  1  0.750000  0.347741  0.933775  1
  Ru  Ru11  1  0.250000  0.652259  0.066225  1
