# generated using pymatgen
data_Lu3Sc7Si5Bi
_symmetry_space_group_name_H-M   'P 1'
_cell_length_a   8.11070600
_cell_length_b   8.14308869
_cell_length_c   5.93279200
_cell_angle_alpha   90.00000000
_cell_angle_beta   90.00000000
_cell_angle_gamma   119.86853849
_symmetry_Int_Tables_number   1
_chemical_formula_structural   Lu3Sc7Si5Bi
_chemical_formula_sum   'Lu3 Sc7 Si5 Bi1'
_cell_volume   339.79060174
_cell_formula_units_Z   1
loop_
 _symmetry_equiv_pos_site_id
 _symmetry_equiv_pos_as_xyz
  1  'x, y, z'
loop_
 _atom_site_type_symbol
 _atom_site_label
 _atom_site_symmetry_multiplicity
 _atom_site_fract_x
 _atom_site_fract_y
 _atom_site_fract_z
 _atom_site_occupancy
  Lu  Lu0  1  0.755297  0.756804  0.250000  1
  Lu  Lu1  1  0.998492  0.243196  0.250000  1
  Lu  Lu2  1  0.238466  0.000000  0.250000  1
  Sc  Sc3  1  0.677526  0.347176  0.003869  1
  Sc  Sc4  1  0.330349  0.652824  0.496131  1
  Sc  Sc5  1  0.330349  0.652824  0.003869  1
  Sc  Sc6  1  0.677526  0.347176  0.496131  1
  Sc  Sc7  1  0.769547  0.000000  0.750000  1
  Sc  Sc8  1  0.982842  0.743556  0.750000  1
  Sc  Sc9  1  0.239286  0.256444  0.750000  1
  Si  Si10  1  0.398123  0.395093  0.250000  1
  Si  Si11  1  0.003029  0.604907  0.250000  1
  Si  Si12  1  0.998486  0.393987  0.750000  1
  Si  Si13  1  0.604498  0.606013  0.750000  1
  Si  Si14  1  0.602989  0.000000  0.250000  1
  Bi  Bi15  1  0.393195  0.000000  0.750000  1
