# generated using pymatgen
data_Ca12Sn8Ir7Pd
_symmetry_space_group_name_H-M   'P 1'
_cell_length_a   5.94443133
_cell_length_b   8.18982963
_cell_length_c   14.16337101
_cell_angle_alpha   89.99234626
_cell_angle_beta   90.21049671
_cell_angle_gamma   90.18653030
_symmetry_Int_Tables_number   1
_chemical_formula_structural   Ca12Sn8Ir7Pd
_chemical_formula_sum   'Ca12 Sn8 Ir7 Pd1'
_cell_volume   689.51954018
_cell_formula_units_Z   1
loop_
 _symmetry_equiv_pos_site_id
 _symmetry_equiv_pos_as_xyz
  1  'x, y, z'
loop_
 _atom_site_type_symbol
 _atom_site_label
 _atom_site_symmetry_multiplicity
 _atom_site_fract_x
 _atom_site_fract_y
 _atom_site_fract_z
 _atom_site_occupancy
  Ca  Ca0  1  0.154996  0.396835  0.592674  1
  Ca  Ca1  1  0.848806  0.611467  0.091732  1
  Ca  Ca2  1  0.154040  0.103902  0.407936  1
  Ca  Ca3  1  0.844299  0.897163  0.906454  1
  Ca  Ca4  1  0.843959  0.602711  0.407734  1
  Ca  Ca5  1  0.157444  0.395479  0.903810  1
  Ca  Ca6  1  0.844168  0.896143  0.592522  1
  Ca  Ca7  1  0.154951  0.096536  0.093458  1
  Ca  Ca8  1  0.619527  0.248649  0.748251  1
  Ca  Ca9  1  0.377564  0.753193  0.254550  1
  Ca  Ca10  1  0.620445  0.244413  0.253640  1
  Ca  Ca11  1  0.379818  0.750803  0.748586  1
  Sn  Sn12  1  0.634575  0.250723  0.500060  1
  Sn  Sn13  1  0.363623  0.753787  0.996829  1
  Sn  Sn14  1  0.363364  0.748629  0.500584  1
  Sn  Sn15  1  0.644322  0.248481  0.999241  1
  Sn  Sn16  1  0.127879  0.094118  0.749202  1
  Sn  Sn17  1  0.869933  0.903174  0.250678  1
  Sn  Sn18  1  0.126194  0.402700  0.250090  1
  Sn  Sn19  1  0.869277  0.595260  0.750770  1
  Ir  Ir20  1  0.362648  0.035863  0.592265  1
  Ir  Ir21  1  0.634591  0.963737  0.093095  1
  Ir  Ir22  1  0.362895  0.464109  0.406102  1
  Ir  Ir23  1  0.636699  0.535277  0.908931  1
  Ir  Ir24  1  0.636539  0.963709  0.407831  1
  Ir  Ir25  1  0.363838  0.042571  0.906872  1
  Ir  Ir26  1  0.636504  0.535739  0.593388  1
  Pd  Pd27  1  0.367102  0.464832  0.092717  1
