# generated using pymatgen
data_Dy2HoLu3MnBi2
_symmetry_space_group_name_H-M   'P 1'
_cell_length_a   8.17849000
_cell_length_b   8.18162302
_cell_length_c   4.26242500
_cell_angle_alpha   90.00000000
_cell_angle_beta   90.00000000
_cell_angle_gamma   119.98734153
_symmetry_Int_Tables_number   1
_chemical_formula_structural   Dy2HoLu3MnBi2
_chemical_formula_sum   'Dy2 Ho1 Lu3 Mn1 Bi2'
_cell_volume   247.03321839
_cell_formula_units_Z   1
loop_
 _symmetry_equiv_pos_site_id
 _symmetry_equiv_pos_as_xyz
  1  'x, y, z'
loop_
 _atom_site_type_symbol
 _atom_site_label
 _atom_site_symmetry_multiplicity
 _atom_site_fract_x
 _atom_site_fract_y
 _atom_site_fract_z
 _atom_site_occupancy
  Dy  Dy0  1  0.000064  0.611613  0.000000  1
  Dy  Dy1  1  0.388451  0.388387  0.000000  1
  Ho  Ho2  1  0.611972  0.000000  0.000000  1
  Lu  Lu3  1  0.229668  0.000000  0.500000  1
  Lu  Lu4  1  0.999728  0.229436  0.500000  1
  Lu  Lu5  1  0.770291  0.770564  0.500000  1
  Mn  Mn6  1  0.999594  0.000000  0.000000  1
  Bi  Bi7  1  0.333602  0.666973  0.500000  1
  Bi  Bi8  1  0.666630  0.333027  0.500000  1
