# generated using pymatgen
data_Pr8Tm12Si15Ge
_symmetry_space_group_name_H-M   'P 1'
_cell_length_a   7.47717841
_cell_length_b   7.76531016
_cell_length_c   14.73387948
_cell_angle_alpha   90.00577519
_cell_angle_beta   89.91081803
_cell_angle_gamma   90.02233781
_symmetry_Int_Tables_number   1
_chemical_formula_structural   Pr8Tm12Si15Ge
_chemical_formula_sum   'Pr8 Tm12 Si15 Ge1'
_cell_volume   855.48638401
_cell_formula_units_Z   1
loop_
 _symmetry_equiv_pos_site_id
 _symmetry_equiv_pos_as_xyz
  1  'x, y, z'
loop_
 _atom_site_type_symbol
 _atom_site_label
 _atom_site_symmetry_multiplicity
 _atom_site_fract_x
 _atom_site_fract_y
 _atom_site_fract_z
 _atom_site_occupancy
  Pr  Pr0  1  0.019003  0.176127  0.401800  1
  Pr  Pr1  1  0.520070  0.322672  0.401956  1
  Pr  Pr2  1  0.480446  0.677008  0.902197  1
  Pr  Pr3  1  0.481887  0.677863  0.597990  1
  Pr  Pr4  1  0.979646  0.824233  0.597922  1
  Pr  Pr5  1  0.980424  0.823121  0.902240  1
  Pr  Pr6  1  0.519590  0.323032  0.097770  1
  Pr  Pr7  1  0.019627  0.176944  0.097756  1
  Tm  Tm8  1  0.324296  0.176506  0.623946  1
  Tm  Tm9  1  0.676529  0.822290  0.376393  1
  Tm  Tm10  1  0.654826  0.990683  0.750109  1
  Tm  Tm11  1  0.176396  0.678594  0.375994  1
  Tm  Tm12  1  0.823329  0.322088  0.876480  1
  Tm  Tm13  1  0.822118  0.321758  0.623682  1
  Tm  Tm14  1  0.845130  0.490706  0.249981  1
  Tm  Tm15  1  0.345201  0.009346  0.249941  1
  Tm  Tm16  1  0.323332  0.177805  0.876467  1
  Tm  Tm17  1  0.176629  0.677901  0.123524  1
  Tm  Tm18  1  0.676646  0.822130  0.123501  1
  Tm  Tm19  1  0.154840  0.509435  0.750918  1
  Si  Si20  1  0.275488  0.879698  0.749977  1
  Si  Si21  1  0.471030  0.616060  0.250013  1
  Si  Si22  1  0.028929  0.116220  0.749962  1
  Si  Si23  1  0.528683  0.383951  0.749956  1
  Si  Si24  1  0.971058  0.883997  0.249922  1
  Si  Si25  1  0.724508  0.120131  0.250005  1
  Si  Si26  1  0.852736  0.532164  0.039696  1
  Si  Si27  1  0.352762  0.967792  0.039733  1
  Si  Si28  1  0.147271  0.467834  0.960293  1
  Si  Si29  1  0.647390  0.032285  0.539770  1
  Si  Si30  1  0.352522  0.967780  0.460287  1
  Si  Si31  1  0.848762  0.532959  0.459358  1
  Si  Si32  1  0.775706  0.620147  0.749919  1
  Si  Si33  1  0.224493  0.379872  0.250017  1
  Si  Si34  1  0.647241  0.032200  0.960273  1
  Ge  Ge35  1  0.151458  0.466666  0.540251  1
