# generated using pymatgen
data_YbEr3(FeB4)4
_symmetry_space_group_name_H-M   'P 1'
_cell_length_a   3.34752900
_cell_length_b   5.87385647
_cell_length_c   11.35770092
_cell_angle_alpha   89.95397097
_cell_angle_beta   90.00000000
_cell_angle_gamma   90.00000000
_symmetry_Int_Tables_number   1
_chemical_formula_structural   YbEr3(FeB4)4
_chemical_formula_sum   'Yb1 Er3 Fe4 B16'
_cell_volume   223.32532080
_cell_formula_units_Z   1
loop_
 _symmetry_equiv_pos_site_id
 _symmetry_equiv_pos_as_xyz
  1  'x, y, z'
loop_
 _atom_site_type_symbol
 _atom_site_label
 _atom_site_symmetry_multiplicity
 _atom_site_fract_x
 _atom_site_fract_y
 _atom_site_fract_z
 _atom_site_occupancy
  Yb  Yb0  1  0.000000  0.627334  0.349615  1
  Er  Er1  1  0.000000  0.373076  0.649805  1
  Er  Er2  1  0.000000  0.127197  0.151315  1
  Er  Er3  1  0.000000  0.873165  0.849478  1
  Fe  Fe4  1  0.000000  0.634226  0.087191  1
  Fe  Fe5  1  0.000000  0.366096  0.911531  1
  Fe  Fe6  1  0.000000  0.132707  0.413349  1
  Fe  Fe7  1  0.000000  0.867459  0.588427  1
  B  B8  1  0.500000  0.782124  0.183691  1
  B  B9  1  0.500000  0.217038  0.816024  1
  B  B10  1  0.500000  0.282456  0.316672  1
  B  B11  1  0.500000  0.716784  0.683289  1
  B  B12  1  0.500000  0.861726  0.031535  1
  B  B13  1  0.500000  0.138592  0.968277  1
  B  B14  1  0.500000  0.361413  0.468250  1
  B  B15  1  0.500000  0.638744  0.531768  1
  B  B16  1  0.500000  0.887521  0.453772  1
  B  B17  1  0.500000  0.111309  0.545977  1
  B  B18  1  0.500000  0.388873  0.046336  1
  B  B19  1  0.500000  0.611517  0.953543  1
  B  B20  1  0.500000  0.977028  0.309888  1
  B  B21  1  0.500000  0.023887  0.690561  1
  B  B22  1  0.500000  0.476239  0.190498  1
  B  B23  1  0.500000  0.523490  0.809208  1
