# generated using pymatgen
data_HoTmLu3Pb4
_symmetry_space_group_name_H-M   'P 1'
_cell_length_a   8.10342600
_cell_length_b   15.40004400
_cell_length_c   8.17197800
_cell_angle_alpha   90.00000000
_cell_angle_beta   90.00000000
_cell_angle_gamma   90.00000000
_symmetry_Int_Tables_number   1
_chemical_formula_structural   HoTmLu3Pb4
_chemical_formula_sum   'Ho4 Tm4 Lu12 Pb16'
_cell_volume   1019.80660627
_cell_formula_units_Z   4
loop_
 _symmetry_equiv_pos_site_id
 _symmetry_equiv_pos_as_xyz
  1  'x, y, z'
loop_
 _atom_site_type_symbol
 _atom_site_label
 _atom_site_symmetry_multiplicity
 _atom_site_fract_x
 _atom_site_fract_y
 _atom_site_fract_z
 _atom_site_occupancy
  Ho  Ho0  1  0.535862  0.400473  0.322999  1
  Ho  Ho1  1  0.035862  0.099527  0.177001  1
  Ho  Ho2  1  0.464138  0.900473  0.677001  1
  Ho  Ho3  1  0.964138  0.599527  0.822999  1
  Tm  Tm4  1  0.464090  0.599668  0.676946  1
  Tm  Tm5  1  0.964090  0.900332  0.823054  1
  Tm  Tm6  1  0.535910  0.099668  0.323054  1
  Tm  Tm7  1  0.035910  0.400332  0.176946  1
  Lu  Lu8  1  0.623360  0.621242  0.158816  1
  Lu  Lu9  1  0.123360  0.878758  0.341184  1
  Lu  Lu10  1  0.376640  0.121242  0.841184  1
  Lu  Lu11  1  0.876640  0.378758  0.658816  1
  Lu  Lu12  1  0.376622  0.378819  0.841172  1
  Lu  Lu13  1  0.876622  0.121181  0.658828  1
  Lu  Lu14  1  0.623378  0.878819  0.158828  1
  Lu  Lu15  1  0.123378  0.621181  0.341172  1
  Lu  Lu16  1  0.792099  0.749967  0.495340  1
  Lu  Lu17  1  0.292099  0.750033  0.004660  1
  Lu  Lu18  1  0.207901  0.249967  0.504660  1
  Lu  Lu19  1  0.707901  0.250033  0.995340  1
  Pb  Pb20  1  0.717953  0.457261  0.966093  1
  Pb  Pb21  1  0.217953  0.042739  0.533907  1
  Pb  Pb22  1  0.282047  0.957261  0.033907  1
  Pb  Pb23  1  0.782047  0.542739  0.466093  1
  Pb  Pb24  1  0.282347  0.542548  0.034141  1
  Pb  Pb25  1  0.782347  0.957452  0.465859  1
  Pb  Pb26  1  0.717653  0.042548  0.965859  1
  Pb  Pb27  1  0.217653  0.457452  0.534141  1
  Pb  Pb28  1  0.429496  0.750009  0.371346  1
  Pb  Pb29  1  0.929496  0.749991  0.128654  1
  Pb  Pb30  1  0.570504  0.250009  0.628654  1
  Pb  Pb31  1  0.070504  0.249991  0.871346  1
  Pb  Pb32  1  0.652877  0.749861  0.846639  1
  Pb  Pb33  1  0.152877  0.750139  0.653361  1
  Pb  Pb34  1  0.347123  0.249861  0.153361  1
  Pb  Pb35  1  0.847123  0.250139  0.346639  1
