# generated using pymatgen
data_Tm3P2Se
_symmetry_space_group_name_H-M   'P 1'
_cell_length_a   6.88525262
_cell_length_b   6.88525346
_cell_length_c   6.88525243
_cell_angle_alpha   146.51315912
_cell_angle_beta   131.93221250
_cell_angle_gamma   59.85012953
_symmetry_Int_Tables_number   1
_chemical_formula_structural   Tm3P2Se
_chemical_formula_sum   'Tm3 P2 Se1'
_cell_volume   132.76702467
_cell_formula_units_Z   1
loop_
 _symmetry_equiv_pos_site_id
 _symmetry_equiv_pos_as_xyz
  1  'x, y, z'
loop_
 _atom_site_type_symbol
 _atom_site_label
 _atom_site_symmetry_multiplicity
 _atom_site_fract_x
 _atom_site_fract_y
 _atom_site_fract_z
 _atom_site_occupancy
  Tm  Tm0  1  0.500000  0.000000  0.500000  1
  Tm  Tm1  1  0.177940  0.677940  0.500000  1
  Tm  Tm2  1  0.822060  0.322060  0.500000  1
  P  P3  1  0.664434  0.664434  0.000000  1
  P  P4  1  0.335566  0.335566  0.000000  1
  Se  Se5  1  0.000000  0.000000  0.000000  1
