# generated using pymatgen
data_Lu5CdBi2Se
_symmetry_space_group_name_H-M   'P 1'
_cell_length_a   9.03049300
_cell_length_b   9.03049380
_cell_length_c   6.57117000
_cell_angle_alpha   90.00000000
_cell_angle_beta   90.00000000
_cell_angle_gamma   120.14593679
_symmetry_Int_Tables_number   1
_chemical_formula_structural   Lu5CdBi2Se
_chemical_formula_sum   'Lu10 Cd2 Bi4 Se2'
_cell_volume   463.39971154
_cell_formula_units_Z   2
loop_
 _symmetry_equiv_pos_site_id
 _symmetry_equiv_pos_as_xyz
  1  'x, y, z'
loop_
 _atom_site_type_symbol
 _atom_site_label
 _atom_site_symmetry_multiplicity
 _atom_site_fract_x
 _atom_site_fract_y
 _atom_site_fract_z
 _atom_site_occupancy
  Lu  Lu0  1  0.668409  0.327879  0.005389  1
  Lu  Lu1  1  0.327879  0.668409  0.005389  1
  Lu  Lu2  1  0.327879  0.668409  0.494611  1
  Lu  Lu3  1  0.668409  0.327879  0.494611  1
  Lu  Lu4  1  0.747901  0.747901  0.750000  1
  Lu  Lu5  1  0.252372  0.999511  0.750000  1
  Lu  Lu6  1  0.999511  0.252372  0.750000  1
  Lu  Lu7  1  0.251408  0.251408  0.250000  1
  Lu  Lu8  1  0.749342  0.011137  0.250000  1
  Lu  Lu9  1  0.011137  0.749342  0.250000  1
  Cd  Cd10  1  0.394730  0.001251  0.250000  1
  Cd  Cd11  1  0.001251  0.394730  0.250000  1
  Bi  Bi12  1  0.395762  0.395762  0.750000  1
  Bi  Bi13  1  0.601881  0.996738  0.750000  1
  Bi  Bi14  1  0.996738  0.601881  0.750000  1
  Bi  Bi15  1  0.610377  0.610377  0.250000  1
  Se  Se16  1  0.997507  0.997507  0.998605  1
  Se  Se17  1  0.997507  0.997507  0.501395  1
