# generated using pymatgen
data_La2NiRu3
_symmetry_space_group_name_H-M   'P 1'
_cell_length_a   5.45789829
_cell_length_b   5.45789874
_cell_length_c   5.45789894
_cell_angle_alpha   58.68024798
_cell_angle_beta   58.68024351
_cell_angle_gamma   58.68025227
_symmetry_Int_Tables_number   1
_chemical_formula_structural   La2NiRu3
_chemical_formula_sum   'La2 Ni1 Ru3'
_cell_volume   111.49659974
_cell_formula_units_Z   1
loop_
 _symmetry_equiv_pos_site_id
 _symmetry_equiv_pos_as_xyz
  1  'x, y, z'
loop_
 _atom_site_type_symbol
 _atom_site_label
 _atom_site_symmetry_multiplicity
 _atom_site_fract_x
 _atom_site_fract_y
 _atom_site_fract_z
 _atom_site_occupancy
  La  La0  1  0.121886  0.121886  0.121886  1
  La  La1  1  0.878114  0.878114  0.878114  1
  Ni  Ni2  1  0.500000  0.500000  0.500000  1
  Ru  Ru3  1  0.500000  0.000000  0.500000  1
  Ru  Ru4  1  0.000000  0.500000  0.500000  1
  Ru  Ru5  1  0.500000  0.500000  0.000000  1
