# generated using pymatgen
data_Y4As3Se
_symmetry_space_group_name_H-M   'P 1'
_cell_length_a   7.14320905
_cell_length_b   7.14320765
_cell_length_c   7.13826967
_cell_angle_alpha   80.27857882
_cell_angle_beta   80.27858351
_cell_angle_gamma   33.57795766
_symmetry_Int_Tables_number   1
_chemical_formula_structural   Y4As3Se
_chemical_formula_sum   'Y4 As3 Se1'
_cell_volume   198.28876908
_cell_formula_units_Z   1
loop_
 _symmetry_equiv_pos_site_id
 _symmetry_equiv_pos_as_xyz
  1  'x, y, z'
loop_
 _atom_site_type_symbol
 _atom_site_label
 _atom_site_symmetry_multiplicity
 _atom_site_fract_x
 _atom_site_fract_y
 _atom_site_fract_z
 _atom_site_occupancy
  Y  Y0  1  0.248999  0.248999  0.256698  1
  Y  Y1  1  0.500864  0.500864  0.493349  1
  Y  Y2  1  0.745845  0.745845  0.744158  1
  Y  Y3  1  0.004339  0.004339  0.005726  1
  As  As4  1  0.626983  0.626983  0.122494  1
  As  As5  1  0.874925  0.874925  0.375077  1
  As  As6  1  0.123155  0.123155  0.627424  1
  Se  Se7  1  0.374890  0.374890  0.875073  1
