# generated using pymatgen
data_Tm3Mg2ZrIr3
_symmetry_space_group_name_H-M   'P 1'
_cell_length_a   7.25568487
_cell_length_b   7.13239738
_cell_length_c   4.17317700
_cell_angle_alpha   90.00000000
_cell_angle_beta   90.00000000
_cell_angle_gamma   119.43950016
_symmetry_Int_Tables_number   1
_chemical_formula_structural   Tm3Mg2ZrIr3
_chemical_formula_sum   'Tm3 Mg2 Zr1 Ir3'
_cell_volume   188.07741964
_cell_formula_units_Z   1
loop_
 _symmetry_equiv_pos_site_id
 _symmetry_equiv_pos_as_xyz
  1  'x, y, z'
loop_
 _atom_site_type_symbol
 _atom_site_label
 _atom_site_symmetry_multiplicity
 _atom_site_fract_x
 _atom_site_fract_y
 _atom_site_fract_z
 _atom_site_occupancy
  Tm  Tm0  1  0.000000  0.396503  0.500000  1
  Tm  Tm1  1  0.579196  0.586446  0.500000  1
  Tm  Tm2  1  0.420804  0.007251  0.500000  1
  Mg  Mg3  1  0.248345  0.249421  0.000000  1
  Mg  Mg4  1  0.751655  0.001075  0.000000  1
  Zr  Zr5  1  0.000000  0.751437  0.000000  1
  Ir  Ir6  1  0.327208  0.675604  0.000000  1
  Ir  Ir7  1  0.672792  0.348394  0.000000  1
  Ir  Ir8  1  0.000000  0.983869  0.500000  1
