# generated using pymatgen
data_Tm3U(ReB6)2
_symmetry_space_group_name_H-M   'P 1'
_cell_length_a   3.65691000
_cell_length_b   9.10006356
_cell_length_c   11.45499822
_cell_angle_alpha   90.35881377
_cell_angle_beta   90.00000000
_cell_angle_gamma   90.00000000
_symmetry_Int_Tables_number   1
_chemical_formula_structural   Tm3U(ReB6)2
_chemical_formula_sum   'Tm6 U2 Re4 B24'
_cell_volume   381.19325511
_cell_formula_units_Z   2
loop_
 _symmetry_equiv_pos_site_id
 _symmetry_equiv_pos_as_xyz
  1  'x, y, z'
loop_
 _atom_site_type_symbol
 _atom_site_label
 _atom_site_symmetry_multiplicity
 _atom_site_fract_x
 _atom_site_fract_y
 _atom_site_fract_z
 _atom_site_occupancy
  Tm  Tm0  1  0.000000  0.822848  0.085818  1
  Tm  Tm1  1  0.000000  0.177152  0.914182  1
  Tm  Tm2  1  0.000000  0.944908  0.372685  1
  Tm  Tm3  1  0.000000  0.055092  0.627315  1
  Tm  Tm4  1  0.000000  0.443759  0.126604  1
  Tm  Tm5  1  0.000000  0.556241  0.873396  1
  U  U6  1  0.000000  0.322387  0.413678  1
  U  U7  1  0.000000  0.677613  0.586322  1
  Re  Re8  1  0.000000  0.635581  0.325131  1
  Re  Re9  1  0.000000  0.364419  0.674869  1
  Re  Re10  1  0.000000  0.140748  0.182127  1
  Re  Re11  1  0.000000  0.859252  0.817873  1
  B  B12  1  0.500000  0.552935  0.434166  1
  B  B13  1  0.500000  0.447065  0.565834  1
  B  B14  1  0.500000  0.053157  0.066941  1
  B  B15  1  0.500000  0.946843  0.933059  1
  B  B16  1  0.500000  0.749146  0.420429  1
  B  B17  1  0.500000  0.250854  0.579571  1
  B  B18  1  0.500000  0.248743  0.080069  1
  B  B19  1  0.500000  0.751257  0.919931  1
  B  B20  1  0.500000  0.792395  0.265187  1
  B  B21  1  0.500000  0.207605  0.734813  1
  B  B22  1  0.500000  0.293446  0.235054  1
  B  B23  1  0.500000  0.706554  0.764946  1
  B  B24  1  0.500000  0.631169  0.184972  1
  B  B25  1  0.500000  0.368831  0.815028  1
  B  B26  1  0.500000  0.132841  0.315498  1
  B  B27  1  0.500000  0.867159  0.684502  1
  B  B28  1  0.500000  0.981418  0.212296  1
  B  B29  1  0.500000  0.018582  0.787704  1
  B  B30  1  0.500000  0.481620  0.287034  1
  B  B31  1  0.500000  0.518380  0.712966  1
  B  B32  1  0.500000  0.603771  0.029153  1
  B  B33  1  0.500000  0.396229  0.970847  1
  B  B34  1  0.500000  0.109172  0.469991  1
  B  B35  1  0.500000  0.890828  0.530009  1
