# generated using pymatgen
data_HoTmSi2NiRu
_symmetry_space_group_name_H-M   'P 1'
_cell_length_a   4.21074100
_cell_length_b   6.85733624
_cell_length_c   7.15796821
_cell_angle_alpha   91.45790234
_cell_angle_beta   90.00000000
_cell_angle_gamma   90.00000000
_symmetry_Int_Tables_number   1
_chemical_formula_structural   HoTmSi2NiRu
_chemical_formula_sum   'Ho2 Tm2 Si4 Ni2 Ru2'
_cell_volume   206.61561033
_cell_formula_units_Z   2
loop_
 _symmetry_equiv_pos_site_id
 _symmetry_equiv_pos_as_xyz
  1  'x, y, z'
loop_
 _atom_site_type_symbol
 _atom_site_label
 _atom_site_symmetry_multiplicity
 _atom_site_fract_x
 _atom_site_fract_y
 _atom_site_fract_z
 _atom_site_occupancy
  Ho  Ho0  1  0.250000  0.991653  0.799008  1
  Ho  Ho1  1  0.750000  0.008347  0.200992  1
  Tm  Tm2  1  0.250000  0.489717  0.684923  1
  Tm  Tm3  1  0.750000  0.510283  0.315077  1
  Si  Si4  1  0.250000  0.299637  0.100121  1
  Si  Si5  1  0.750000  0.700363  0.899879  1
  Si  Si6  1  0.250000  0.801763  0.399114  1
  Si  Si7  1  0.750000  0.198237  0.600886  1
  Ni  Ni8  1  0.750000  0.833970  0.574394  1
  Ni  Ni9  1  0.250000  0.166030  0.425606  1
  Ru  Ru10  1  0.750000  0.343996  0.930936  1
  Ru  Ru11  1  0.250000  0.656004  0.069064  1
