# generated using pymatgen
data_NdDy7Co3Si12Rh
_symmetry_space_group_name_H-M   'P 1'
_cell_length_a   8.04643600
_cell_length_b   8.04643748
_cell_length_c   7.99236600
_cell_angle_alpha   89.99994303
_cell_angle_beta   90.00000000
_cell_angle_gamma   119.99996104
_symmetry_Int_Tables_number   1
_chemical_formula_structural   NdDy7Co3Si12Rh
_chemical_formula_sum   'Nd1 Dy7 Co3 Si12 Rh1'
_cell_volume   448.13964743
_cell_formula_units_Z   1
loop_
 _symmetry_equiv_pos_site_id
 _symmetry_equiv_pos_as_xyz
  1  'x, y, z'
loop_
 _atom_site_type_symbol
 _atom_site_label
 _atom_site_symmetry_multiplicity
 _atom_site_fract_x
 _atom_site_fract_y
 _atom_site_fract_z
 _atom_site_occupancy
  Nd  Nd0  1  0.000000  0.000000  0.248734  1
  Dy  Dy1  1  0.000000  0.000000  0.751263  1
  Dy  Dy2  1  0.012108  0.506054  0.248442  1
  Dy  Dy3  1  0.493946  0.506053  0.248441  1
  Dy  Dy4  1  0.503851  0.007702  0.749964  1
  Dy  Dy5  1  0.493946  0.987892  0.248441  1
  Dy  Dy6  1  0.503851  0.496150  0.749963  1
  Dy  Dy7  1  0.992298  0.496149  0.749964  1
  Co  Co8  1  0.333333  0.666667  0.968126  1
  Co  Co9  1  0.333333  0.666667  0.531832  1
  Co  Co10  1  0.666667  0.333334  0.029560  1
  Si  Si11  1  0.171979  0.343960  0.998364  1
  Si  Si12  1  0.656040  0.828021  0.998363  1
  Si  Si13  1  0.172610  0.345219  0.500743  1
  Si  Si14  1  0.344986  0.172493  0.996732  1
  Si  Si15  1  0.171979  0.828020  0.998364  1
  Si  Si16  1  0.654781  0.827390  0.500742  1
  Si  Si17  1  0.827506  0.655014  0.996732  1
  Si  Si18  1  0.333337  0.166668  0.505424  1
  Si  Si19  1  0.172610  0.827390  0.500743  1
  Si  Si20  1  0.833332  0.666663  0.505425  1
  Si  Si21  1  0.827506  0.172493  0.996732  1
  Si  Si22  1  0.833332  0.166668  0.505425  1
  Rh  Rh23  1  0.666667  0.333333  0.471477  1
