# generated using pymatgen
data_Er3Tm13(In3Pt)2
_symmetry_space_group_name_H-M   'P 1'
_cell_length_a   10.38245600
_cell_length_b   10.38245357
_cell_length_c   6.93340700
_cell_angle_alpha   90.00000000
_cell_angle_beta   90.00000000
_cell_angle_gamma   119.99999499
_symmetry_Int_Tables_number   1
_chemical_formula_structural   Er3Tm13(In3Pt)2
_chemical_formula_sum   'Er3 Tm13 In6 Pt2'
_cell_volume   647.25802717
_cell_formula_units_Z   1
loop_
 _symmetry_equiv_pos_site_id
 _symmetry_equiv_pos_as_xyz
  1  'x, y, z'
loop_
 _atom_site_type_symbol
 _atom_site_label
 _atom_site_symmetry_multiplicity
 _atom_site_fract_x
 _atom_site_fract_y
 _atom_site_fract_z
 _atom_site_occupancy
  Er  Er0  1  0.333333  0.666667  0.670629  1
  Er  Er1  1  0.000000  0.000000  0.776273  1
  Er  Er2  1  0.000000  0.000000  0.276166  1
  Tm  Tm3  1  0.531778  0.063557  0.795582  1
  Tm  Tm4  1  0.936443  0.468222  0.795582  1
  Tm  Tm5  1  0.531778  0.468222  0.795582  1
  Tm  Tm6  1  0.468351  0.936700  0.295409  1
  Tm  Tm7  1  0.063300  0.531649  0.295409  1
  Tm  Tm8  1  0.468351  0.531649  0.295409  1
  Tm  Tm9  1  0.824404  0.648809  0.500572  1
  Tm  Tm10  1  0.351191  0.175596  0.500572  1
  Tm  Tm11  1  0.824404  0.175596  0.500572  1
  Tm  Tm12  1  0.175552  0.351104  0.000769  1
  Tm  Tm13  1  0.648896  0.824448  0.000769  1
  Tm  Tm14  1  0.175552  0.824448  0.000769  1
  Tm  Tm15  1  0.666667  0.333333  0.171404  1
  In  In16  1  0.837461  0.674923  0.037855  1
  In  In17  1  0.325077  0.162539  0.037855  1
  In  In18  1  0.837461  0.162539  0.037855  1
  In  In19  1  0.162416  0.324830  0.537720  1
  In  In20  1  0.675170  0.837584  0.537720  1
  In  In21  1  0.162416  0.837584  0.537720  1
  Pt  Pt22  1  0.666667  0.333333  0.568525  1
  Pt  Pt23  1  0.333333  0.666667  0.069183  1
