# generated using pymatgen
data_Tb3YFe4(WO6)4
_symmetry_space_group_name_H-M   'P 1'
_cell_length_a   5.25221801
_cell_length_b   7.45822306
_cell_length_c   11.10429306
_cell_angle_alpha   89.98832826
_cell_angle_beta   89.99859451
_cell_angle_gamma   89.99150810
_symmetry_Int_Tables_number   1
_chemical_formula_structural   Tb3YFe4(WO6)4
_chemical_formula_sum   'Tb3 Y1 Fe4 W4 O24'
_cell_volume   434.97972463
_cell_formula_units_Z   1
loop_
 _symmetry_equiv_pos_site_id
 _symmetry_equiv_pos_as_xyz
  1  'x, y, z'
loop_
 _atom_site_type_symbol
 _atom_site_label
 _atom_site_symmetry_multiplicity
 _atom_site_fract_x
 _atom_site_fract_y
 _atom_site_fract_z
 _atom_site_occupancy
  Tb  Tb0  1  0.454838  0.753221  0.454830  1
  Tb  Tb1  1  0.545168  0.253212  0.545136  1
  Tb  Tb2  1  0.044901  0.753308  0.954907  1
  Y  Y3  1  0.954393  0.253312  0.045017  1
  Fe  Fe4  1  0.456270  0.508367  0.139187  1
  Fe  Fe5  1  0.956247  0.008348  0.360703  1
  Fe  Fe6  1  0.043596  0.508294  0.639233  1
  Fe  Fe7  1  0.543537  0.008650  0.860896  1
  W  W8  1  0.447985  0.997806  0.142434  1
  W  W9  1  0.948056  0.497474  0.357492  1
  W  W10  1  0.051928  0.997444  0.642441  1
  W  W11  1  0.551945  0.497380  0.857634  1
  O  O12  1  0.742524  0.542897  0.020362  1
  O  O13  1  0.736049  0.959080  0.029103  1
  O  O14  1  0.324730  0.755877  0.117339  1
  O  O15  1  0.564296  0.245916  0.143675  1
  O  O16  1  0.125838  0.070283  0.207174  1
  O  O17  1  0.109610  0.437246  0.212518  1
  O  O18  1  0.609409  0.937375  0.287427  1
  O  O19  1  0.625830  0.569861  0.292717  1
  O  O20  1  0.063259  0.745890  0.356255  1
  O  O21  1  0.824605  0.255673  0.382599  1
  O  O22  1  0.236284  0.459066  0.470760  1
  O  O23  1  0.242389  0.043047  0.479653  1
  O  O24  1  0.757632  0.543062  0.520296  1
  O  O25  1  0.763760  0.959039  0.529196  1
  O  O26  1  0.175543  0.755593  0.617449  1
  O  O27  1  0.936786  0.245842  0.643631  1
  O  O28  1  0.374177  0.069783  0.707286  1
  O  O29  1  0.390474  0.437168  0.712703  1
  O  O30  1  0.890275  0.937226  0.787339  1
  O  O31  1  0.874028  0.569882  0.792707  1
  O  O32  1  0.436744  0.745786  0.856621  1
  O  O33  1  0.676199  0.255662  0.882632  1
  O  O34  1  0.263539  0.458641  0.970889  1
  O  O35  1  0.257161  0.043696  0.979760  1
