# generated using pymatgen
data_Tb2Nd5SBr12
_symmetry_space_group_name_H-M   'P 1'
_cell_length_a   9.27415644
_cell_length_b   9.27353400
_cell_length_c   9.28418900
_cell_angle_alpha   108.00249721
_cell_angle_beta   107.88995444
_cell_angle_gamma   107.97743159
_symmetry_Int_Tables_number   1
_chemical_formula_structural   Tb2Nd5SBr12
_chemical_formula_sum   'Tb2 Nd5 S1 Br12'
_cell_volume   646.84336867
_cell_formula_units_Z   1
loop_
 _symmetry_equiv_pos_site_id
 _symmetry_equiv_pos_as_xyz
  1  'x, y, z'
loop_
 _atom_site_type_symbol
 _atom_site_label
 _atom_site_symmetry_multiplicity
 _atom_site_fract_x
 _atom_site_fract_y
 _atom_site_fract_z
 _atom_site_occupancy
  Tb  Tb0  1  0.498980  0.498853  0.498686  1
  Tb  Tb1  1  0.683381  0.964225  0.891376  1
  Nd  Nd2  1  0.037529  0.110624  0.320090  1
  Nd  Nd3  1  0.110619  0.320025  0.037473  1
  Nd  Nd4  1  0.315828  0.035922  0.108223  1
  Nd  Nd5  1  0.965406  0.889348  0.680566  1
  Nd  Nd6  1  0.889418  0.678788  0.962767  1
  S  S7  1  0.993897  0.998530  0.997719  1
  Br  Br8  1  0.164210  0.478635  0.397219  1
  Br  Br9  1  0.478981  0.398243  0.165177  1
  Br  Br10  1  0.397505  0.164580  0.477939  1
  Br  Br11  1  0.835216  0.520637  0.602646  1
  Br  Br12  1  0.524122  0.613533  0.836594  1
  Br  Br13  1  0.604820  0.840739  0.533711  1
  Br  Br14  1  0.684676  0.072406  0.217243  1
  Br  Br15  1  0.076223  0.228915  0.686859  1
  Br  Br16  1  0.228876  0.686762  0.077039  1
  Br  Br17  1  0.320123  0.924760  0.773725  1
  Br  Br18  1  0.922855  0.770537  0.312741  1
  Br  Br19  1  0.767335  0.303940  0.922208  1
