# generated using pymatgen
data_Tb3Rh2Pb3Au
_symmetry_space_group_name_H-M   'P 1'
_cell_length_a   7.87273800
_cell_length_b   7.87273827
_cell_length_c   3.88444000
_cell_angle_alpha   90.00000000
_cell_angle_beta   90.00000000
_cell_angle_gamma   119.99999044
_symmetry_Int_Tables_number   1
_chemical_formula_structural   Tb3Rh2Pb3Au
_chemical_formula_sum   'Tb3 Rh2 Pb3 Au1'
_cell_volume   208.50222966
_cell_formula_units_Z   1
loop_
 _symmetry_equiv_pos_site_id
 _symmetry_equiv_pos_as_xyz
  1  'x, y, z'
loop_
 _atom_site_type_symbol
 _atom_site_label
 _atom_site_symmetry_multiplicity
 _atom_site_fract_x
 _atom_site_fract_y
 _atom_site_fract_z
 _atom_site_occupancy
  Tb  Tb0  1  0.587802  0.982086  0.500000  1
  Tb  Tb1  1  0.394284  0.412198  0.500000  1
  Tb  Tb2  1  0.017914  0.605716  0.500000  1
  Rh  Rh3  1  0.333333  0.666667  0.000000  1
  Rh  Rh4  1  0.000000  0.000000  0.500000  1
  Pb  Pb5  1  0.738964  0.741165  0.000000  1
  Pb  Pb6  1  0.002201  0.261036  0.000000  1
  Pb  Pb7  1  0.258835  0.997799  0.000000  1
  Au  Au8  1  0.666667  0.333333  0.000000  1
