# generated using pymatgen
data_LiNd2Y(Co4P3)2
_symmetry_space_group_name_H-M   'P 1'
_cell_length_a   3.75966600
_cell_length_b   10.65956100
_cell_length_c   12.32285100
_cell_angle_alpha   90.00000000
_cell_angle_beta   90.00000000
_cell_angle_gamma   90.00000000
_symmetry_Int_Tables_number   1
_chemical_formula_structural   LiNd2Y(Co4P3)2
_chemical_formula_sum   'Li2 Nd4 Y2 Co16 P12'
_cell_volume   493.85537109
_cell_formula_units_Z   2
loop_
 _symmetry_equiv_pos_site_id
 _symmetry_equiv_pos_as_xyz
  1  'x, y, z'
loop_
 _atom_site_type_symbol
 _atom_site_label
 _atom_site_symmetry_multiplicity
 _atom_site_fract_x
 _atom_site_fract_y
 _atom_site_fract_z
 _atom_site_occupancy
  Li  Li0  1  0.500000  0.500000  0.150938  1
  Li  Li1  1  0.000000  0.000000  0.849660  1
  Nd  Nd2  1  0.000000  0.500000  0.522007  1
  Nd  Nd3  1  0.500000  0.000000  0.475764  1
  Nd  Nd4  1  0.000000  0.681391  0.793918  1
  Nd  Nd5  1  0.000000  0.318609  0.793918  1
  Y  Y6  1  0.500000  0.819530  0.205727  1
  Y  Y7  1  0.500000  0.180470  0.205727  1
  Co  Co8  1  0.500000  0.500000  0.705894  1
  Co  Co9  1  0.000000  0.000000  0.293404  1
  Co  Co10  1  0.000000  0.500000  0.990499  1
  Co  Co11  1  0.500000  0.000000  0.015473  1
  Co  Co12  1  0.500000  0.331786  0.999607  1
  Co  Co13  1  0.500000  0.668214  0.999607  1
  Co  Co14  1  0.000000  0.165813  0.005340  1
  Co  Co15  1  0.000000  0.834187  0.005340  1
  Co  Co16  1  0.500000  0.296051  0.427811  1
  Co  Co17  1  0.500000  0.703949  0.427811  1
  Co  Co18  1  0.000000  0.202702  0.567237  1
  Co  Co19  1  0.000000  0.797298  0.567237  1
  Co  Co20  1  0.500000  0.880601  0.706645  1
  Co  Co21  1  0.500000  0.119399  0.706645  1
  Co  Co22  1  0.000000  0.620982  0.290926  1
  Co  Co23  1  0.000000  0.379018  0.290926  1
  P  P24  1  0.500000  0.500000  0.890081  1
  P  P25  1  0.000000  0.000000  0.115803  1
  P  P26  1  0.500000  0.500000  0.341209  1
  P  P27  1  0.000000  0.000000  0.657387  1
  P  P28  1  0.500000  0.304599  0.612451  1
  P  P29  1  0.500000  0.695401  0.612451  1
  P  P30  1  0.000000  0.193422  0.381923  1
  P  P31  1  0.000000  0.806578  0.381923  1
  P  P32  1  0.500000  0.845484  0.897876  1
  P  P33  1  0.500000  0.154516  0.897876  1
  P  P34  1  0.000000  0.657477  0.106479  1
  P  P35  1  0.000000  0.342523  0.106479  1
