# generated using pymatgen
data_Na4LuMoO6
_symmetry_space_group_name_H-M   'P 1'
_cell_length_a   5.65923682
_cell_length_b   5.65913562
_cell_length_c   5.79675682
_cell_angle_alpha   99.33462860
_cell_angle_beta   99.33065415
_cell_angle_gamma   120.27743689
_symmetry_Int_Tables_number   1
_chemical_formula_structural   Na4LuMoO6
_chemical_formula_sum   'Na4 Lu1 Mo1 O6'
_cell_volume   151.58357793
_cell_formula_units_Z   1
loop_
 _symmetry_equiv_pos_site_id
 _symmetry_equiv_pos_as_xyz
  1  'x, y, z'
loop_
 _atom_site_type_symbol
 _atom_site_label
 _atom_site_symmetry_multiplicity
 _atom_site_fract_x
 _atom_site_fract_y
 _atom_site_fract_z
 _atom_site_occupancy
  Na  Na0  1  0.502191  0.497809  0.000003  1
  Na  Na1  1  0.658911  0.341108  0.500002  1
  Na  Na2  1  0.341633  0.658382  0.499995  1
  Na  Na3  1  0.999466  0.000532  0.499998  1
  Lu  Lu4  1  0.162953  0.837035  0.999995  1
  Mo  Mo5  1  0.833402  0.166591  0.000006  1
  O  O6  1  0.602161  0.957824  0.201972  1
  O  O7  1  0.930721  0.553607  0.213727  1
  O  O8  1  0.195597  0.215659  0.215468  1
  O  O9  1  0.784375  0.804396  0.784548  1
  O  O10  1  0.446408  0.069225  0.786251  1
  O  O11  1  0.042179  0.397831  0.798034  1
