# generated using pymatgen
data_Y2Co9Si3As4Ru3
_symmetry_space_group_name_H-M   'P 1'
_cell_length_a   3.78251900
_cell_length_b   9.30870273
_cell_length_c   9.30373531
_cell_angle_alpha   120.09263024
_cell_angle_beta   90.00000000
_cell_angle_gamma   90.00000000
_symmetry_Int_Tables_number   1
_chemical_formula_structural   Y2Co9Si3As4Ru3
_chemical_formula_sum   'Y2 Co9 Si3 As4 Ru3'
_cell_volume   283.43411893
_cell_formula_units_Z   1
loop_
 _symmetry_equiv_pos_site_id
 _symmetry_equiv_pos_as_xyz
  1  'x, y, z'
loop_
 _atom_site_type_symbol
 _atom_site_label
 _atom_site_symmetry_multiplicity
 _atom_site_fract_x
 _atom_site_fract_y
 _atom_site_fract_z
 _atom_site_occupancy
  Y  Y0  1  0.000000  0.662537  0.328408  1
  Y  Y1  1  0.500000  0.335116  0.667254  1
  Co  Co2  1  0.000000  0.573532  0.947942  1
  Co  Co3  1  0.000000  0.374598  0.427342  1
  Co  Co4  1  0.000000  0.058893  0.626688  1
  Co  Co5  1  0.000000  0.872819  0.155485  1
  Co  Co6  1  0.000000  0.282651  0.127079  1
  Co  Co7  1  0.000000  0.844030  0.720376  1
  Co  Co8  1  0.500000  0.944909  0.378816  1
  Co  Co9  1  0.500000  0.437923  0.056510  1
  Co  Co10  1  0.500000  0.614697  0.562107  1
  Si  Si11  1  0.000000  0.000478  0.001648  1
  Si  Si12  1  0.500000  0.708754  0.113591  1
  Si  Si13  1  0.500000  0.403877  0.290509  1
  As  As14  1  0.500000  0.882131  0.590304  1
  As  As15  1  0.000000  0.590035  0.703453  1
  As  As16  1  0.000000  0.113342  0.408586  1
  As  As17  1  0.000000  0.299326  0.889223  1
  Ru  Ru18  1  0.500000  0.786618  0.905139  1
  Ru  Ru19  1  0.500000  0.116157  0.212595  1
  Ru  Ru20  1  0.500000  0.097578  0.886945  1
