# generated using pymatgen
data_Lu3RuPtRh
_symmetry_space_group_name_H-M   'P 1'
_cell_length_a   3.41133400
_cell_length_b   3.41133400
_cell_length_c   9.89797600
_cell_angle_alpha   90.00000000
_cell_angle_beta   90.00000000
_cell_angle_gamma   90.00000000
_symmetry_Int_Tables_number   1
_chemical_formula_structural   Lu3RuPtRh
_chemical_formula_sum   'Lu3 Ru1 Pt1 Rh1'
_cell_volume   115.18472294
_cell_formula_units_Z   1
loop_
 _symmetry_equiv_pos_site_id
 _symmetry_equiv_pos_as_xyz
  1  'x, y, z'
loop_
 _atom_site_type_symbol
 _atom_site_label
 _atom_site_symmetry_multiplicity
 _atom_site_fract_x
 _atom_site_fract_y
 _atom_site_fract_z
 _atom_site_occupancy
  Lu  Lu0  1  0.000000  0.000000  0.996343  1
  Lu  Lu1  1  0.000000  0.000000  0.329894  1
  Lu  Lu2  1  0.000000  0.000000  0.673275  1
  Ru  Ru3  1  0.500001  0.500001  0.832235  1
  Pt  Pt4  1  0.500001  0.500001  0.498167  1
  Rh  Rh5  1  0.500001  0.500001  0.170084  1
