# generated using pymatgen
data_Na3Mn3NiO8
_symmetry_space_group_name_H-M   'P 1'
_cell_length_a   5.87668804
_cell_length_b   6.40250890
_cell_length_c   6.45878518
_cell_angle_alpha   123.66631639
_cell_angle_beta   116.88080915
_cell_angle_gamma   90.20954357
_symmetry_Int_Tables_number   1
_chemical_formula_structural   Na3Mn3NiO8
_chemical_formula_sum   'Na3 Mn3 Ni1 O8'
_cell_volume   169.48757908
_cell_formula_units_Z   1
loop_
 _symmetry_equiv_pos_site_id
 _symmetry_equiv_pos_as_xyz
  1  'x, y, z'
loop_
 _atom_site_type_symbol
 _atom_site_label
 _atom_site_symmetry_multiplicity
 _atom_site_fract_x
 _atom_site_fract_y
 _atom_site_fract_z
 _atom_site_occupancy
  Na  Na0  1  0.000000  0.500000  0.000000  1
  Na  Na1  1  0.500000  0.500000  0.000000  1
  Na  Na2  1  0.000000  0.000000  0.500000  1
  Mn  Mn3  1  0.500000  0.500000  0.500000  1
  Mn  Mn4  1  0.500000  0.000000  0.000000  1
  Mn  Mn5  1  0.000000  0.500000  0.500000  1
  Ni  Ni6  1  0.000000  0.000000  0.000000  1
  O  O7  1  0.709369  0.752753  0.939588  1
  O  O8  1  0.226960  0.751980  0.931835  1
  O  O9  1  0.237499  0.286737  0.479398  1
  O  O10  1  0.750666  0.298107  0.499452  1
  O  O11  1  0.249334  0.701893  0.500548  1
  O  O12  1  0.762501  0.713263  0.520602  1
  O  O13  1  0.773040  0.248020  0.068165  1
  O  O14  1  0.290631  0.247247  0.060412  1
