# generated using pymatgen
data_Tb4Zn3Ga3Pt8
_symmetry_space_group_name_H-M   'P 1'
_cell_length_a   8.00858379
_cell_length_b   8.00858280
_cell_length_c   7.60063100
_cell_angle_alpha   89.93112557
_cell_angle_beta   89.93112558
_cell_angle_gamma   139.19192541
_symmetry_Int_Tables_number   1
_chemical_formula_structural   Tb4Zn3Ga3Pt8
_chemical_formula_sum   'Tb4 Zn3 Ga3 Pt8'
_cell_volume   318.58269463
_cell_formula_units_Z   1
loop_
 _symmetry_equiv_pos_site_id
 _symmetry_equiv_pos_as_xyz
  1  'x, y, z'
loop_
 _atom_site_type_symbol
 _atom_site_label
 _atom_site_symmetry_multiplicity
 _atom_site_fract_x
 _atom_site_fract_y
 _atom_site_fract_z
 _atom_site_occupancy
  Tb  Tb0  1  0.105835  0.883041  0.414393  1
  Tb  Tb1  1  0.890649  0.115174  0.589585  1
  Tb  Tb2  1  0.384826  0.609351  0.910415  1
  Tb  Tb3  1  0.616959  0.394165  0.085607  1
  Zn  Zn4  1  0.021441  0.478559  0.250000  1
  Zn  Zn5  1  0.478288  0.021712  0.750000  1
  Zn  Zn6  1  0.978109  0.521891  0.750000  1
  Ga  Ga7  1  0.000828  0.999974  0.000437  1
  Ga  Ga8  1  0.500026  0.499172  0.499563  1
  Ga  Ga9  1  0.522059  0.977941  0.250000  1
  Pt  Pt10  1  0.193389  0.306611  0.250000  1
  Pt  Pt11  1  0.306579  0.193421  0.750000  1
  Pt  Pt12  1  0.806688  0.693312  0.750000  1
  Pt  Pt13  1  0.692891  0.807109  0.250000  1
  Pt  Pt14  1  0.186304  0.829054  0.028266  1
  Pt  Pt15  1  0.818280  0.174099  0.975103  1
  Pt  Pt16  1  0.325901  0.681720  0.524897  1
  Pt  Pt17  1  0.670946  0.313696  0.471734  1
