# generated using pymatgen
data_Dy4Hg2RhAu3
_symmetry_space_group_name_H-M   'P 1'
_cell_length_a   7.87310759
_cell_length_b   7.87310754
_cell_length_c   3.73203500
_cell_angle_alpha   90.00000000
_cell_angle_beta   90.00000000
_cell_angle_gamma   90.19382071
_symmetry_Int_Tables_number   1
_chemical_formula_structural   Dy4Hg2RhAu3
_chemical_formula_sum   'Dy4 Hg2 Rh1 Au3'
_cell_volume   231.33193633
_cell_formula_units_Z   1
loop_
 _symmetry_equiv_pos_site_id
 _symmetry_equiv_pos_as_xyz
  1  'x, y, z'
loop_
 _atom_site_type_symbol
 _atom_site_label
 _atom_site_symmetry_multiplicity
 _atom_site_fract_x
 _atom_site_fract_y
 _atom_site_fract_z
 _atom_site_occupancy
  Dy  Dy0  1  0.151918  0.320329  0.500000  1
  Dy  Dy1  1  0.686078  0.186078  0.500000  1
  Dy  Dy2  1  0.820329  0.651918  0.500000  1
  Dy  Dy3  1  0.330216  0.830216  0.500000  1
  Hg  Hg4  1  0.998913  0.004622  0.000000  1
  Hg  Hg5  1  0.504622  0.498913  0.000000  1
  Rh  Rh6  1  0.873206  0.373206  0.000000  1
  Au  Au7  1  0.126644  0.626644  0.000000  1
  Au  Au8  1  0.632000  0.876071  0.000000  1
  Au  Au9  1  0.376071  0.132000  0.000000  1
