# generated using pymatgen
data_Tm3Mg(P3Rh4)2
_symmetry_space_group_name_H-M   'P 1'
_cell_length_a   3.91956800
_cell_length_b   11.22758000
_cell_length_c   12.79393200
_cell_angle_alpha   90.00000000
_cell_angle_beta   90.00000000
_cell_angle_gamma   90.00000000
_symmetry_Int_Tables_number   1
_chemical_formula_structural   Tm3Mg(P3Rh4)2
_chemical_formula_sum   'Tm6 Mg2 P12 Rh16'
_cell_volume   563.02593398
_cell_formula_units_Z   2
loop_
 _symmetry_equiv_pos_site_id
 _symmetry_equiv_pos_as_xyz
  1  'x, y, z'
loop_
 _atom_site_type_symbol
 _atom_site_label
 _atom_site_symmetry_multiplicity
 _atom_site_fract_x
 _atom_site_fract_y
 _atom_site_fract_z
 _atom_site_occupancy
  Tm  Tm0  1  0.000000  0.500000  0.521183  1
  Tm  Tm1  1  0.500000  0.000000  0.478817  1
  Tm  Tm2  1  0.500000  0.820945  0.205249  1
  Tm  Tm3  1  0.500000  0.179055  0.205249  1
  Tm  Tm4  1  0.000000  0.679055  0.794751  1
  Tm  Tm5  1  0.000000  0.320945  0.794751  1
  Mg  Mg6  1  0.500000  0.500000  0.161319  1
  Mg  Mg7  1  0.000000  0.000000  0.838681  1
  P  P8  1  0.500000  0.500000  0.880950  1
  P  P9  1  0.000000  0.000000  0.119050  1
  P  P10  1  0.500000  0.500000  0.358294  1
  P  P11  1  0.000000  0.000000  0.641706  1
  P  P12  1  0.500000  0.314521  0.617979  1
  P  P13  1  0.500000  0.685479  0.617979  1
  P  P14  1  0.000000  0.185479  0.382021  1
  P  P15  1  0.000000  0.814521  0.382021  1
  P  P16  1  0.500000  0.838421  0.889694  1
  P  P17  1  0.500000  0.161579  0.889694  1
  P  P18  1  0.000000  0.661579  0.110306  1
  P  P19  1  0.000000  0.338421  0.110306  1
  Rh  Rh20  1  0.500000  0.500000  0.702891  1
  Rh  Rh21  1  0.000000  0.000000  0.297109  1
  Rh  Rh22  1  0.000000  0.500000  0.984176  1
  Rh  Rh23  1  0.500000  0.000000  0.015824  1
  Rh  Rh24  1  0.500000  0.332880  0.998098  1
  Rh  Rh25  1  0.500000  0.667120  0.998098  1
  Rh  Rh26  1  0.000000  0.167120  0.001902  1
  Rh  Rh27  1  0.000000  0.832880  0.001902  1
  Rh  Rh28  1  0.500000  0.292499  0.431698  1
  Rh  Rh29  1  0.500000  0.707501  0.431698  1
  Rh  Rh30  1  0.000000  0.207501  0.568302  1
  Rh  Rh31  1  0.000000  0.792499  0.568302  1
  Rh  Rh32  1  0.500000  0.872983  0.709737  1
  Rh  Rh33  1  0.500000  0.127017  0.709737  1
  Rh  Rh34  1  0.000000  0.627017  0.290263  1
  Rh  Rh35  1  0.000000  0.372983  0.290263  1
