# generated using pymatgen
data_Er10Tl4In4PdAu3
_symmetry_space_group_name_H-M   'P 1'
_cell_length_a   3.63910400
_cell_length_b   8.18951665
_cell_length_c   18.35927108
_cell_angle_alpha   89.97801332
_cell_angle_beta   90.00000000
_cell_angle_gamma   90.00000000
_symmetry_Int_Tables_number   1
_chemical_formula_structural   Er10Tl4In4PdAu3
_chemical_formula_sum   'Er10 Tl4 In4 Pd1 Au3'
_cell_volume   547.15218744
_cell_formula_units_Z   1
loop_
 _symmetry_equiv_pos_site_id
 _symmetry_equiv_pos_as_xyz
  1  'x, y, z'
loop_
 _atom_site_type_symbol
 _atom_site_label
 _atom_site_symmetry_multiplicity
 _atom_site_fract_x
 _atom_site_fract_y
 _atom_site_fract_z
 _atom_site_occupancy
  Er  Er0  1  0.000000  0.500415  0.499066  1
  Er  Er1  1  0.000000  0.000224  0.000487  1
  Er  Er2  1  0.000000  0.747645  0.283396  1
  Er  Er3  1  0.000000  0.262505  0.716453  1
  Er  Er4  1  0.000000  0.762809  0.782675  1
  Er  Er5  1  0.000000  0.232360  0.219696  1
  Er  Er6  1  0.000000  0.619570  0.082786  1
  Er  Er7  1  0.000000  0.380026  0.918998  1
  Er  Er8  1  0.000000  0.879664  0.580393  1
  Er  Er9  1  0.000000  0.115450  0.415128  1
  Tl  Tl10  1  0.500000  0.712328  0.934794  1
  Tl  Tl11  1  0.500000  0.287539  0.066621  1
  Tl  Tl12  1  0.500000  0.789777  0.432622  1
  Tl  Tl13  1  0.500000  0.211181  0.564361  1
  In  In14  1  0.500000  0.582782  0.646620  1
  In  In15  1  0.500000  0.414697  0.352472  1
  In  In16  1  0.500000  0.919618  0.148958  1
  In  In17  1  0.500000  0.083603  0.852975  1
  Pd  Pd18  1  0.500000  0.028557  0.302853  1
  Au  Au19  1  0.500000  0.529291  0.198995  1
  Au  Au20  1  0.500000  0.469898  0.802466  1
  Au  Au21  1  0.500000  0.970059  0.697183  1
