# generated using pymatgen
data_LaHoEr(ZnPt)4
_symmetry_space_group_name_H-M   'P 1'
_cell_length_a   8.25845524
_cell_length_b   8.25845412
_cell_length_c   8.25845484
_cell_angle_alpha   151.73506084
_cell_angle_beta   125.15284293
_cell_angle_gamma   62.83678745
_symmetry_Int_Tables_number   1
_chemical_formula_structural   LaHoEr(ZnPt)4
_chemical_formula_sum   'La1 Ho1 Er1 Zn4 Pt4'
_cell_volume   216.20928137
_cell_formula_units_Z   1
loop_
 _symmetry_equiv_pos_site_id
 _symmetry_equiv_pos_as_xyz
  1  'x, y, z'
loop_
 _atom_site_type_symbol
 _atom_site_label
 _atom_site_symmetry_multiplicity
 _atom_site_fract_x
 _atom_site_fract_y
 _atom_site_fract_z
 _atom_site_occupancy
  La  La0  1  0.499994  0.999994  0.500000  1
  Ho  Ho1  1  0.875020  0.875020  0.000000  1
  Er  Er2  1  0.125055  0.125055  0.000000  1
  Zn  Zn3  1  0.477115  0.674743  0.802373  1
  Zn  Zn4  1  0.872369  0.674743  0.197627  1
  Zn  Zn5  1  0.127738  0.325216  0.802520  1
  Zn  Zn6  1  0.522696  0.325216  0.197480  1
  Pt  Pt7  1  0.274473  0.774473  0.500000  1
  Pt  Pt8  1  0.725324  0.225324  0.500000  1
  Pt  Pt9  1  0.812255  0.500108  0.312146  1
  Pt  Pt10  1  0.187962  0.500108  0.687854  1
