# generated using pymatgen
data_Lu8Ti11ReSi16
_symmetry_space_group_name_H-M   'P 1'
_cell_length_a   6.95695001
_cell_length_b   6.95695002
_cell_length_c   12.76087569
_cell_angle_alpha   89.98114246
_cell_angle_beta   89.98113994
_cell_angle_gamma   89.99721624
_symmetry_Int_Tables_number   1
_chemical_formula_structural   Lu8Ti11ReSi16
_chemical_formula_sum   'Lu8 Ti11 Re1 Si16'
_cell_volume   617.61551386
_cell_formula_units_Z   1
loop_
 _symmetry_equiv_pos_site_id
 _symmetry_equiv_pos_as_xyz
  1  'x, y, z'
loop_
 _atom_site_type_symbol
 _atom_site_label
 _atom_site_symmetry_multiplicity
 _atom_site_fract_x
 _atom_site_fract_y
 _atom_site_fract_z
 _atom_site_occupancy
  Lu  Lu0  1  0.998261  0.660057  0.031628  1
  Lu  Lu1  1  0.999299  0.340422  0.534616  1
  Lu  Lu2  1  0.339943  0.001739  0.468372  1
  Lu  Lu3  1  0.157762  0.500119  0.781843  1
  Lu  Lu4  1  0.841011  0.497435  0.282532  1
  Lu  Lu5  1  0.502565  0.158989  0.217468  1
  Lu  Lu6  1  0.499881  0.842238  0.718157  1
  Lu  Lu7  1  0.659578  0.000701  0.965384  1
  Ti  Ti8  1  0.672829  0.671731  0.501542  1
  Ti  Ti9  1  0.172636  0.827364  0.250000  1
  Ti  Ti10  1  0.328269  0.327171  0.998458  1
  Ti  Ti11  1  0.991882  0.848136  0.626816  1
  Ti  Ti12  1  0.006139  0.149261  0.123685  1
  Ti  Ti13  1  0.850739  0.993861  0.376315  1
  Ti  Ti14  1  0.349877  0.506868  0.375101  1
  Ti  Ti15  1  0.652010  0.494004  0.875008  1
  Ti  Ti16  1  0.505996  0.347990  0.624992  1
  Ti  Ti17  1  0.493132  0.650123  0.124899  1
  Ti  Ti18  1  0.151864  0.008118  0.873184  1
  Re  Re19  1  0.827106  0.172894  0.750000  1
  Si  Si20  1  0.045678  0.705977  0.435536  1
  Si  Si21  1  0.632969  0.295915  0.432571  1
  Si  Si22  1  0.366970  0.704667  0.931898  1
  Si  Si23  1  0.202462  0.131126  0.681609  1
  Si  Si24  1  0.295333  0.633030  0.568102  1
  Si  Si25  1  0.704085  0.367031  0.067429  1
  Si  Si26  1  0.795503  0.866466  0.182229  1
  Si  Si27  1  0.133534  0.204497  0.317771  1
  Si  Si28  1  0.952651  0.293377  0.933518  1
  Si  Si29  1  0.706623  0.047349  0.566482  1
  Si  Si30  1  0.206348  0.452664  0.184651  1
  Si  Si31  1  0.791052  0.544216  0.685869  1
  Si  Si32  1  0.455784  0.208948  0.814131  1
  Si  Si33  1  0.547336  0.793652  0.315349  1
  Si  Si34  1  0.294023  0.954322  0.064464  1
  Si  Si35  1  0.868874  0.797538  0.818391  1
