# generated using pymatgen
data_LiTb2Co6Tc(NiP3)2
_symmetry_space_group_name_H-M   'P 1'
_cell_length_a   3.70380100
_cell_length_b   10.36326000
_cell_length_c   11.82724000
_cell_angle_alpha   90.00000000
_cell_angle_beta   90.00000000
_cell_angle_gamma   90.00000000
_symmetry_Int_Tables_number   1
_chemical_formula_structural   LiTb2Co6Tc(NiP3)2
_chemical_formula_sum   'Li2 Tb4 Co12 Tc2 Ni4 P12'
_cell_volume   453.97030772
_cell_formula_units_Z   2
loop_
 _symmetry_equiv_pos_site_id
 _symmetry_equiv_pos_as_xyz
  1  'x, y, z'
loop_
 _atom_site_type_symbol
 _atom_site_label
 _atom_site_symmetry_multiplicity
 _atom_site_fract_x
 _atom_site_fract_y
 _atom_site_fract_z
 _atom_site_occupancy
  Li  Li0  1  0.750000  0.296690  0.009986  1
  Li  Li1  1  0.750000  0.203310  0.509986  1
  Tb  Tb2  1  0.250000  0.583276  0.704630  1
  Tb  Tb3  1  0.250000  0.916724  0.204630  1
  Tb  Tb4  1  0.750000  0.416532  0.295358  1
  Tb  Tb5  1  0.750000  0.083468  0.795358  1
  Co  Co6  1  0.750000  0.594123  0.508740  1
  Co  Co7  1  0.750000  0.905877  0.008740  1
  Co  Co8  1  0.750000  0.776140  0.822791  1
  Co  Co9  1  0.750000  0.723860  0.322791  1
  Co  Co10  1  0.250000  0.885308  0.702062  1
  Co  Co11  1  0.250000  0.614692  0.202062  1
  Co  Co12  1  0.750000  0.117771  0.301393  1
  Co  Co13  1  0.750000  0.382229  0.801393  1
  Co  Co14  1  0.250000  0.464844  0.933963  1
  Co  Co15  1  0.250000  0.035156  0.433963  1
  Co  Co16  1  0.750000  0.534413  0.070010  1
  Co  Co17  1  0.750000  0.965587  0.570010  1
  Tc  Tc18  1  0.250000  0.708096  0.991456  1
  Tc  Tc19  1  0.250000  0.791904  0.491456  1
  Ni  Ni20  1  0.250000  0.409450  0.488086  1
  Ni  Ni21  1  0.250000  0.090550  0.988086  1
  Ni  Ni22  1  0.250000  0.217770  0.173845  1
  Ni  Ni23  1  0.250000  0.282230  0.673845  1
  P  P24  1  0.250000  0.422361  0.114481  1
  P  P25  1  0.250000  0.077639  0.614481  1
  P  P26  1  0.750000  0.577438  0.887749  1
  P  P27  1  0.750000  0.922562  0.387749  1
  P  P28  1  0.250000  0.274003  0.862709  1
  P  P29  1  0.250000  0.225997  0.362709  1
  P  P30  1  0.750000  0.730463  0.133291  1
  P  P31  1  0.750000  0.769537  0.633291  1
  P  P32  1  0.250000  0.601579  0.390616  1
  P  P33  1  0.250000  0.898421  0.890616  1
  P  P34  1  0.750000  0.404659  0.608833  1
  P  P35  1  0.750000  0.095341  0.108833  1
