# generated using pymatgen
data_Gd3ScRe2(B8Mo)2
_symmetry_space_group_name_H-M   'P 1'
_cell_length_a   3.61174300
_cell_length_b   5.99650538
_cell_length_c   11.58712284
_cell_angle_alpha   90.26483931
_cell_angle_beta   90.00000000
_cell_angle_gamma   90.00000000
_symmetry_Int_Tables_number   1
_chemical_formula_structural   Gd3ScRe2(B8Mo)2
_chemical_formula_sum   'Gd3 Sc1 Re2 B16 Mo2'
_cell_volume   250.94932911
_cell_formula_units_Z   1
loop_
 _symmetry_equiv_pos_site_id
 _symmetry_equiv_pos_as_xyz
  1  'x, y, z'
loop_
 _atom_site_type_symbol
 _atom_site_label
 _atom_site_symmetry_multiplicity
 _atom_site_fract_x
 _atom_site_fract_y
 _atom_site_fract_z
 _atom_site_occupancy
  Gd  Gd0  1  0.000000  0.372334  0.648453  1
  Gd  Gd1  1  0.000000  0.126893  0.152191  1
  Gd  Gd2  1  0.000000  0.873029  0.848935  1
  Sc  Sc3  1  0.000000  0.626348  0.351804  1
  Re  Re4  1  0.000000  0.135966  0.412398  1
  Re  Re5  1  0.000000  0.863407  0.583288  1
  B  B6  1  0.500000  0.788328  0.189234  1
  B  B7  1  0.500000  0.211924  0.813445  1
  B  B8  1  0.500000  0.288532  0.315708  1
  B  B9  1  0.500000  0.715065  0.683035  1
  B  B10  1  0.500000  0.866498  0.033801  1
  B  B11  1  0.500000  0.133351  0.968376  1
  B  B12  1  0.500000  0.364180  0.467368  1
  B  B13  1  0.500000  0.634957  0.528407  1
  B  B14  1  0.500000  0.882852  0.450095  1
  B  B15  1  0.500000  0.111573  0.545299  1
  B  B16  1  0.500000  0.386230  0.048832  1
  B  B17  1  0.500000  0.615008  0.953856  1
  B  B18  1  0.500000  0.976166  0.308168  1
  B  B19  1  0.500000  0.023052  0.689666  1
  B  B20  1  0.500000  0.479086  0.197656  1
  B  B21  1  0.500000  0.524399  0.806326  1
  Mo  Mo22  1  0.000000  0.629383  0.087573  1
  Mo  Mo23  1  0.000000  0.371440  0.916087  1
