# generated using pymatgen
data_Tb4DyY3(ReB6)4
_symmetry_space_group_name_H-M   'P 1'
_cell_length_a   3.69088900
_cell_length_b   9.19364500
_cell_length_c   11.58669100
_cell_angle_alpha   90.00179246
_cell_angle_beta   90.00000000
_cell_angle_gamma   90.00000000
_symmetry_Int_Tables_number   1
_chemical_formula_structural   Tb4DyY3(ReB6)4
_chemical_formula_sum   'Tb4 Dy1 Y3 Re4 B24'
_cell_volume   393.16797842
_cell_formula_units_Z   1
loop_
 _symmetry_equiv_pos_site_id
 _symmetry_equiv_pos_as_xyz
  1  'x, y, z'
loop_
 _atom_site_type_symbol
 _atom_site_label
 _atom_site_symmetry_multiplicity
 _atom_site_fract_x
 _atom_site_fract_y
 _atom_site_fract_z
 _atom_site_occupancy
  Tb  Tb0  1  0.000000  0.823469  0.086011  1
  Tb  Tb1  1  0.000000  0.176486  0.914009  1
  Tb  Tb2  1  0.000000  0.323555  0.413945  1
  Tb  Tb3  1  0.000000  0.676478  0.586007  1
  Dy  Dy4  1  0.000000  0.442677  0.130060  1
  Y  Y5  1  0.000000  0.557258  0.870154  1
  Y  Y6  1  0.000000  0.942746  0.370084  1
  Y  Y7  1  0.000000  0.057248  0.629882  1
  Re  Re8  1  0.000000  0.138347  0.179151  1
  Re  Re9  1  0.000000  0.861831  0.820836  1
  Re  Re10  1  0.000000  0.638092  0.320709  1
  Re  Re11  1  0.000000  0.361816  0.679146  1
  B  B12  1  0.500000  0.053239  0.067410  1
  B  B13  1  0.500000  0.946755  0.932600  1
  B  B14  1  0.500000  0.553245  0.432590  1
  B  B15  1  0.500000  0.446765  0.567394  1
  B  B16  1  0.500000  0.248540  0.081926  1
  B  B17  1  0.500000  0.751541  0.918171  1
  B  B18  1  0.500000  0.748449  0.418147  1
  B  B19  1  0.500000  0.251525  0.581837  1
  B  B20  1  0.500000  0.291367  0.234348  1
  B  B21  1  0.500000  0.708683  0.765542  1
  B  B22  1  0.500000  0.791295  0.265527  1
  B  B23  1  0.500000  0.208678  0.734484  1
  B  B24  1  0.500000  0.130640  0.314076  1
  B  B25  1  0.500000  0.869361  0.685919  1
  B  B26  1  0.500000  0.630511  0.185944  1
  B  B27  1  0.500000  0.369355  0.814119  1
  B  B28  1  0.500000  0.482335  0.288025  1
  B  B29  1  0.500000  0.517748  0.711842  1
  B  B30  1  0.500000  0.982284  0.211836  1
  B  B31  1  0.500000  0.017725  0.788165  1
  B  B32  1  0.500000  0.100128  0.471916  1
  B  B33  1  0.500000  0.899857  0.528070  1
  B  B34  1  0.500000  0.600028  0.028120  1
  B  B35  1  0.500000  0.399943  0.971997  1
