# generated using pymatgen
data_Dy2Zr3Sn2Sb
_symmetry_space_group_name_H-M   'P 1'
_cell_length_a   8.68590392
_cell_length_b   8.81109628
_cell_length_c   5.96938500
_cell_angle_alpha   90.00000000
_cell_angle_beta   90.00000000
_cell_angle_gamma   120.47793720
_symmetry_Int_Tables_number   1
_chemical_formula_structural   Dy2Zr3Sn2Sb
_chemical_formula_sum   'Dy4 Zr6 Sn4 Sb2'
_cell_volume   393.72538023
_cell_formula_units_Z   2
loop_
 _symmetry_equiv_pos_site_id
 _symmetry_equiv_pos_as_xyz
  1  'x, y, z'
loop_
 _atom_site_type_symbol
 _atom_site_label
 _atom_site_symmetry_multiplicity
 _atom_site_fract_x
 _atom_site_fract_y
 _atom_site_fract_z
 _atom_site_occupancy
  Dy  Dy0  1  0.760976  0.760423  0.250000  1
  Dy  Dy1  1  0.760976  0.000553  0.750000  1
  Dy  Dy2  1  0.239853  0.240476  0.750000  1
  Dy  Dy3  1  0.239853  0.999378  0.250000  1
  Zr  Zr4  1  0.000562  0.744039  0.750000  1
  Zr  Zr5  1  0.000562  0.256523  0.250000  1
  Zr  Zr6  1  0.334218  0.667110  0.500000  1
  Zr  Zr7  1  0.664972  0.332485  0.000000  1
  Zr  Zr8  1  0.664972  0.332485  0.500000  1
  Zr  Zr9  1  0.334218  0.667110  0.000000  1
  Sn  Sn10  1  0.999457  0.600444  0.250000  1
  Sn  Sn11  1  0.999457  0.399013  0.750000  1
  Sn  Sn12  1  0.608504  0.604085  0.750000  1
  Sn  Sn13  1  0.608504  0.004420  0.250000  1
  Sb  Sb14  1  0.391458  0.995382  0.750000  1
  Sb  Sb15  1  0.391458  0.396075  0.250000  1
