# generated using pymatgen
data_Sc12Co4AsIr
_symmetry_space_group_name_H-M   'P 1'
_cell_length_a   7.65634203
_cell_length_b   7.65634127
_cell_length_c   7.65634148
_cell_angle_alpha   111.12099320
_cell_angle_beta   109.92617347
_cell_angle_gamma   107.38868893
_symmetry_Int_Tables_number   1
_chemical_formula_structural   Sc12Co4AsIr
_chemical_formula_sum   'Sc12 Co4 As1 Ir1'
_cell_volume   345.11537754
_cell_formula_units_Z   1
loop_
 _symmetry_equiv_pos_site_id
 _symmetry_equiv_pos_as_xyz
  1  'x, y, z'
loop_
 _atom_site_type_symbol
 _atom_site_label
 _atom_site_symmetry_multiplicity
 _atom_site_fract_x
 _atom_site_fract_y
 _atom_site_fract_z
 _atom_site_occupancy
  Sc  Sc0  1  0.429875  0.231235  0.198641  1
  Sc  Sc1  1  0.570125  0.768765  0.801359  1
  Sc  Sc2  1  0.032595  0.231235  0.801359  1
  Sc  Sc3  1  0.967405  0.768765  0.198641  1
  Sc  Sc4  1  0.322194  0.626171  0.303975  1
  Sc  Sc5  1  0.677806  0.373829  0.696025  1
  Sc  Sc6  1  0.322194  0.018218  0.696025  1
  Sc  Sc7  1  0.677806  0.981782  0.303975  1
  Sc  Sc8  1  0.181230  0.274567  0.455796  1
  Sc  Sc9  1  0.818770  0.725432  0.544204  1
  Sc  Sc10  1  0.181230  0.725432  0.906663  1
  Sc  Sc11  1  0.818770  0.274567  0.093337  1
  Co  Co12  1  0.348884  0.000000  0.348884  1
  Co  Co13  1  0.651116  0.000000  0.651116  1
  Co  Co14  1  0.120856  0.620856  0.500000  1
  Co  Co15  1  0.879144  0.379144  0.500000  1
  As  As16  1  0.500000  0.500000  0.000000  1
  Ir  Ir17  1  0.000000  0.000000  0.000000  1
