# generated using pymatgen
data_LiY3(Si4Tc3)2
_symmetry_space_group_name_H-M   'P 1'
_cell_length_a   6.75522994
_cell_length_b   6.60226755
_cell_length_c   6.75478652
_cell_angle_alpha   70.64444714
_cell_angle_beta   89.84854193
_cell_angle_gamma   89.86501159
_symmetry_Int_Tables_number   1
_chemical_formula_structural   LiY3(Si4Tc3)2
_chemical_formula_sum   'Li1 Y3 Si8 Tc6'
_cell_volume   284.23368976
_cell_formula_units_Z   1
loop_
 _symmetry_equiv_pos_site_id
 _symmetry_equiv_pos_as_xyz
  1  'x, y, z'
loop_
 _atom_site_type_symbol
 _atom_site_label
 _atom_site_symmetry_multiplicity
 _atom_site_fract_x
 _atom_site_fract_y
 _atom_site_fract_z
 _atom_site_occupancy
  Li  Li0  1  0.171342  0.957561  0.179318  1
  Y  Y1  1  0.331225  0.441229  0.194786  1
  Y  Y2  1  0.836485  0.054522  0.813827  1
  Y  Y3  1  0.666221  0.562252  0.805471  1
  Si  Si4  1  0.534910  0.115405  0.107006  1
  Si  Si5  1  0.348509  0.651188  0.495253  1
  Si  Si6  1  0.875785  0.865899  0.478259  1
  Si  Si7  1  0.048678  0.373254  0.906432  1
  Si  Si8  1  0.142118  0.120516  0.503049  1
  Si  Si9  1  0.639194  0.365147  0.491415  1
  Si  Si10  1  0.956847  0.625920  0.108958  1
  Si  Si11  1  0.445183  0.881276  0.904765  1
  Tc  Tc12  1  0.842875  0.239488  0.236798  1
  Tc  Tc13  1  0.342529  0.260000  0.760365  1
  Tc  Tc14  1  0.157854  0.748978  0.769578  1
  Tc  Tc15  1  0.657716  0.742313  0.239147  1
  Tc  Tc16  1  0.500932  0.998198  0.503619  1
  Tc  Tc17  1  0.001598  0.496853  0.501951  1
