# generated using pymatgen
data_La5Pr11Cd4(RuPt)2
_symmetry_space_group_name_H-M   'P 1'
_cell_length_a   10.02427176
_cell_length_b   10.06759454
_cell_length_c   10.13452566
_cell_angle_alpha   59.73333013
_cell_angle_beta   59.93161488
_cell_angle_gamma   59.99268976
_symmetry_Int_Tables_number   1
_chemical_formula_structural   La5Pr11Cd4(RuPt)2
_chemical_formula_sum   'La5 Pr11 Cd4 Ru2 Pt2'
_cell_volume   721.33355423
_cell_formula_units_Z   1
loop_
 _symmetry_equiv_pos_site_id
 _symmetry_equiv_pos_as_xyz
  1  'x, y, z'
loop_
 _atom_site_type_symbol
 _atom_site_label
 _atom_site_symmetry_multiplicity
 _atom_site_fract_x
 _atom_site_fract_y
 _atom_site_fract_z
 _atom_site_occupancy
  La  La0  1  0.345566  0.345486  0.355932  1
  La  La1  1  0.346728  0.346659  0.951362  1
  La  La2  1  0.342720  0.959210  0.348467  1
  La  La3  1  0.957638  0.343463  0.350332  1
  La  La4  1  0.821110  0.188395  0.187471  1
  Pr  Pr5  1  0.188795  0.815627  0.804965  1
  Pr  Pr6  1  0.191689  0.813407  0.189749  1
  Pr  Pr7  1  0.814659  0.189337  0.803732  1
  Pr  Pr8  1  0.190439  0.189076  0.808784  1
  Pr  Pr9  1  0.806928  0.805882  0.191958  1
  Pr  Pr10  1  0.935430  0.560685  0.566355  1
  Pr  Pr11  1  0.559038  0.935751  0.938962  1
  Pr  Pr12  1  0.560223  0.935134  0.566363  1
  Pr  Pr13  1  0.937002  0.559534  0.939066  1
  Pr  Pr14  1  0.561972  0.562277  0.938348  1
  Pr  Pr15  1  0.936789  0.935767  0.563861  1
  Cd  Cd16  1  0.579524  0.579850  0.580140  1
  Cd  Cd17  1  0.579453  0.581337  0.259732  1
  Cd  Cd18  1  0.580414  0.258137  0.581705  1
  Cd  Cd19  1  0.258117  0.581119  0.580403  1
  Ru  Ru20  1  0.136546  0.147177  0.140553  1
  Ru  Ru21  1  0.146490  0.145652  0.570784  1
  Pt  Pt22  1  0.147234  0.573704  0.139815  1
  Pt  Pt23  1  0.575495  0.147332  0.141158  1
