# generated using pymatgen
data_Nd6Dy10Cd4Ru3Pt
_symmetry_space_group_name_H-M   'P 1'
_cell_length_a   9.69792766
_cell_length_b   9.78274233
_cell_length_c   9.78274200
_cell_angle_alpha   60.00000113
_cell_angle_beta   59.71027322
_cell_angle_gamma   59.71027627
_symmetry_Int_Tables_number   1
_chemical_formula_structural   Nd6Dy10Cd4Ru3Pt
_chemical_formula_sum   'Nd6 Dy10 Cd4 Ru3 Pt1'
_cell_volume   653.38529186
_cell_formula_units_Z   1
loop_
 _symmetry_equiv_pos_site_id
 _symmetry_equiv_pos_as_xyz
  1  'x, y, z'
loop_
 _atom_site_type_symbol
 _atom_site_label
 _atom_site_symmetry_multiplicity
 _atom_site_fract_x
 _atom_site_fract_y
 _atom_site_fract_z
 _atom_site_occupancy
  Nd  Nd0  1  0.937331  0.561225  0.561225  1
  Nd  Nd1  1  0.556973  0.940055  0.940055  1
  Nd  Nd2  1  0.556973  0.940055  0.562917  1
  Nd  Nd3  1  0.937331  0.561225  0.940219  1
  Nd  Nd4  1  0.556973  0.562917  0.940055  1
  Nd  Nd5  1  0.937331  0.940219  0.561225  1
  Dy  Dy6  1  0.342906  0.348563  0.348563  1
  Dy  Dy7  1  0.342906  0.348563  0.959967  1
  Dy  Dy8  1  0.342906  0.959967  0.348563  1
  Dy  Dy9  1  0.968257  0.343915  0.343915  1
  Dy  Dy10  1  0.816783  0.187696  0.187696  1
  Dy  Dy11  1  0.186589  0.813474  0.813474  1
  Dy  Dy12  1  0.186589  0.813474  0.186464  1
  Dy  Dy13  1  0.816783  0.187696  0.807825  1
  Dy  Dy14  1  0.186589  0.186464  0.813474  1
  Dy  Dy15  1  0.816783  0.807825  0.187696  1
  Cd  Cd16  1  0.579765  0.578568  0.578568  1
  Cd  Cd17  1  0.579765  0.578568  0.263100  1
  Cd  Cd18  1  0.579765  0.263100  0.578568  1
  Cd  Cd19  1  0.261329  0.579557  0.579557  1
  Ru  Ru20  1  0.144355  0.137831  0.137831  1
  Ru  Ru21  1  0.144355  0.137831  0.579984  1
  Ru  Ru22  1  0.144355  0.579984  0.137831  1
  Pt  Pt23  1  0.576306  0.141231  0.141231  1
