# generated using pymatgen
data_Yb2Ho4Al17Si7Os8
_symmetry_space_group_name_H-M   'P 1'
_cell_length_a   8.70114081
_cell_length_b   8.68229349
_cell_length_c   9.53145000
_cell_angle_alpha   90.00000000
_cell_angle_beta   90.00000000
_cell_angle_gamma   120.25270181
_symmetry_Int_Tables_number   1
_chemical_formula_structural   Yb2Ho4Al17Si7Os8
_chemical_formula_sum   'Yb2 Ho4 Al17 Si7 Os8'
_cell_volume   621.99764402
_cell_formula_units_Z   1
loop_
 _symmetry_equiv_pos_site_id
 _symmetry_equiv_pos_as_xyz
  1  'x, y, z'
loop_
 _atom_site_type_symbol
 _atom_site_label
 _atom_site_symmetry_multiplicity
 _atom_site_fract_x
 _atom_site_fract_y
 _atom_site_fract_z
 _atom_site_occupancy
  Yb  Yb0  1  0.805879  0.612909  0.750000  1
  Yb  Yb1  1  0.388643  0.192188  0.750000  1
  Ho  Ho2  1  0.193887  0.390396  0.250000  1
  Ho  Ho3  1  0.608693  0.806222  0.250000  1
  Ho  Ho4  1  0.196453  0.804816  0.250000  1
  Ho  Ho5  1  0.801867  0.191630  0.750000  1
  Al  Al6  1  0.165188  0.331391  0.579153  1
  Al  Al7  1  0.833867  0.669322  0.422230  1
  Al  Al8  1  0.670178  0.834625  0.578922  1
  Al  Al9  1  0.833867  0.669322  0.077770  1
  Al  Al10  1  0.331497  0.165997  0.423474  1
  Al  Al11  1  0.165188  0.331391  0.920847  1
  Al  Al12  1  0.164476  0.834261  0.577040  1
  Al  Al13  1  0.331497  0.165997  0.076526  1
  Al  Al14  1  0.834562  0.164403  0.421525  1
  Al  Al15  1  0.670178  0.834625  0.921078  1
  Al  Al16  1  0.834562  0.164403  0.078475  1
  Al  Al17  1  0.164476  0.834261  0.922960  1
  Al  Al18  1  0.125613  0.566219  0.750000  1
  Al  Al19  1  0.564763  0.434631  0.250000  1
  Al  Al20  1  0.439558  0.565488  0.750000  1
  Al  Al21  1  0.999469  0.999054  0.250000  1
  Al  Al22  1  0.999618  0.999957  0.750000  1
  Si  Si23  1  0.333243  0.664852  0.039711  1
  Si  Si24  1  0.666252  0.336182  0.958913  1
  Si  Si25  1  0.666252  0.336182  0.541087  1
  Si  Si26  1  0.333243  0.664852  0.460289  1
  Si  Si27  1  0.564886  0.125167  0.250000  1
  Si  Si28  1  0.435019  0.872268  0.750000  1
  Si  Si29  1  0.873897  0.434561  0.250000  1
  Os  Os30  1  0.501318  0.999922  0.003069  1
  Os  Os31  1  0.999527  0.499137  0.008563  1
  Os  Os32  1  0.501318  0.999922  0.496931  1
  Os  Os33  1  0.500030  0.501087  0.002883  1
  Os  Os34  1  0.999527  0.499137  0.491437  1
  Os  Os35  1  0.500030  0.501087  0.497117  1
  Os  Os36  1  0.000739  0.001068  0.000041  1
  Os  Os37  1  0.000739  0.001068  0.499959  1
