# generated using pymatgen
data_Cs2Tb2CdHgSe6
_symmetry_space_group_name_H-M   'P 1'
_cell_length_a   4.31775600
_cell_length_b   8.48451801
_cell_length_c   11.21988500
_cell_angle_alpha   90.00000000
_cell_angle_beta   90.00000000
_cell_angle_gamma   75.25905560
_symmetry_Int_Tables_number   1
_chemical_formula_structural   Cs2Tb2CdHgSe6
_chemical_formula_sum   'Cs2 Tb2 Cd1 Hg1 Se6'
_cell_volume   397.50157064
_cell_formula_units_Z   1
loop_
 _symmetry_equiv_pos_site_id
 _symmetry_equiv_pos_as_xyz
  1  'x, y, z'
loop_
 _atom_site_type_symbol
 _atom_site_label
 _atom_site_symmetry_multiplicity
 _atom_site_fract_x
 _atom_site_fract_y
 _atom_site_fract_z
 _atom_site_occupancy
  Cs  Cs0  1  0.256340  0.487320  0.250000  1
  Cs  Cs1  1  0.743534  0.512931  0.750000  1
  Tb  Tb2  1  0.999453  0.001094  0.002213  1
  Tb  Tb3  1  0.999453  0.001094  0.497787  1
  Cd  Cd4  1  0.459492  0.081018  0.750000  1
  Hg  Hg5  1  0.543232  0.913535  0.250000  1
  Se  Se6  1  0.618143  0.763713  0.042487  1
  Se  Se7  1  0.937542  0.124916  0.250000  1
  Se  Se8  1  0.618143  0.763713  0.457514  1
  Se  Se9  1  0.382748  0.234503  0.545366  1
  Se  Se10  1  0.059170  0.881660  0.750000  1
  Se  Se11  1  0.382748  0.234503  0.954634  1
