# generated using pymatgen
data_Nd4Co3RuBr2
_symmetry_space_group_name_H-M   'P 1'
_cell_length_a   4.03593000
_cell_length_b   4.03592871
_cell_length_c   16.89324800
_cell_angle_alpha   90.00000000
_cell_angle_beta   90.00000000
_cell_angle_gamma   119.99999415
_symmetry_Int_Tables_number   1
_chemical_formula_structural   Nd4Co3RuBr2
_chemical_formula_sum   'Nd4 Co3 Ru1 Br2'
_cell_volume   238.30377762
_cell_formula_units_Z   1
loop_
 _symmetry_equiv_pos_site_id
 _symmetry_equiv_pos_as_xyz
  1  'x, y, z'
loop_
 _atom_site_type_symbol
 _atom_site_label
 _atom_site_symmetry_multiplicity
 _atom_site_fract_x
 _atom_site_fract_y
 _atom_site_fract_z
 _atom_site_occupancy
  Nd  Nd0  1  0.000000  0.000000  0.108422  1
  Nd  Nd1  1  0.000000  0.000000  0.891672  1
  Nd  Nd2  1  0.000000  0.000000  0.612932  1
  Nd  Nd3  1  0.000000  0.000000  0.386767  1
  Co  Co4  1  0.666667  0.333333  0.498956  1
  Co  Co5  1  0.666667  0.333333  0.001881  1
  Co  Co6  1  0.333333  0.666667  0.998183  1
  Ru  Ru7  1  0.333333  0.666667  0.501120  1
  Br  Br8  1  0.333333  0.666667  0.247413  1
  Br  Br9  1  0.666667  0.333333  0.752656  1
