# generated using pymatgen
data_Rb4(CoO2)3
_symmetry_space_group_name_H-M   'P 1'
_cell_length_a   5.79644320
_cell_length_b   5.79644345
_cell_length_c   7.95131235
_cell_angle_alpha   88.84648354
_cell_angle_beta   88.84648247
_cell_angle_gamma   67.04114977
_symmetry_Int_Tables_number   1
_chemical_formula_structural   Rb4(CoO2)3
_chemical_formula_sum   'Rb4 Co3 O6'
_cell_volume   245.91991303
_cell_formula_units_Z   1
loop_
 _symmetry_equiv_pos_site_id
 _symmetry_equiv_pos_as_xyz
  1  'x, y, z'
loop_
 _atom_site_type_symbol
 _atom_site_label
 _atom_site_symmetry_multiplicity
 _atom_site_fract_x
 _atom_site_fract_y
 _atom_site_fract_z
 _atom_site_occupancy
  Rb  Rb0  1  0.677863  0.677863  0.624288  1
  Rb  Rb1  1  0.322137  0.322137  0.375712  1
  Rb  Rb2  1  0.652606  0.652606  0.110440  1
  Rb  Rb3  1  0.347394  0.347394  0.889560  1
  Co  Co4  1  0.000000  0.000000  0.000000  1
  Co  Co5  1  0.966641  0.966641  0.331216  1
  Co  Co6  1  0.033359  0.033359  0.668784  1
  O  O7  1  0.129428  0.743856  0.157015  1
  O  O8  1  0.743856  0.129428  0.157015  1
  O  O9  1  0.870572  0.256144  0.842985  1
  O  O10  1  0.256144  0.870572  0.842985  1
  O  O11  1  0.191540  0.808460  0.500000  1
  O  O12  1  0.808460  0.191540  0.500000  1
