# generated using pymatgen
data_TmAlFe4Re7
_symmetry_space_group_name_H-M   'P 1'
_cell_length_a   4.81931799
_cell_length_b   6.72870905
_cell_length_c   6.72870770
_cell_angle_alpha   81.65171066
_cell_angle_beta   69.01543559
_cell_angle_gamma   69.01543380
_symmetry_Int_Tables_number   1
_chemical_formula_structural   TmAlFe4Re7
_chemical_formula_sum   'Tm1 Al1 Fe4 Re7'
_cell_volume   190.17797325
_cell_formula_units_Z   1
loop_
 _symmetry_equiv_pos_site_id
 _symmetry_equiv_pos_as_xyz
  1  'x, y, z'
loop_
 _atom_site_type_symbol
 _atom_site_label
 _atom_site_symmetry_multiplicity
 _atom_site_fract_x
 _atom_site_fract_y
 _atom_site_fract_z
 _atom_site_occupancy
  Tm  Tm0  1  0.993552  0.006448  0.006448  1
  Al  Al1  1  0.278076  0.221924  0.221924  1
  Fe  Fe2  1  0.003770  0.999556  0.489786  1
  Fe  Fe3  1  0.506888  0.999556  0.489786  1
  Fe  Fe4  1  0.506888  0.489786  0.999556  1
  Fe  Fe5  1  0.003770  0.489786  0.999556  1
  Re  Re6  1  0.999743  0.356328  0.644187  1
  Re  Re7  1  0.999743  0.644187  0.356328  1
  Re  Re8  1  0.633727  0.366273  0.366273  1
  Re  Re9  1  0.352784  0.647216  0.647216  1
  Re  Re10  1  0.504914  0.780287  0.209884  1
  Re  Re11  1  0.504914  0.209884  0.780287  1
  Re  Re12  1  0.711228  0.788772  0.788772  1
