# generated using pymatgen
data_Nd4(Al8Pt3)3
_symmetry_space_group_name_H-M   'P 1'
_cell_length_a   7.55472421
_cell_length_b   7.60065345
_cell_length_c   13.34207516
_cell_angle_alpha   84.62679308
_cell_angle_beta   79.37497944
_cell_angle_gamma   59.95907649
_symmetry_Int_Tables_number   1
_chemical_formula_structural   Nd4(Al8Pt3)3
_chemical_formula_sum   'Nd4 Al24 Pt9'
_cell_volume   651.82828626
_cell_formula_units_Z   1
loop_
 _symmetry_equiv_pos_site_id
 _symmetry_equiv_pos_as_xyz
  1  'x, y, z'
loop_
 _atom_site_type_symbol
 _atom_site_label
 _atom_site_symmetry_multiplicity
 _atom_site_fract_x
 _atom_site_fract_y
 _atom_site_fract_z
 _atom_site_occupancy
  Nd  Nd0  1  0.393421  0.168868  0.808369  1
  Nd  Nd1  1  0.606579  0.831132  0.191631  1
  Nd  Nd2  1  0.733460  0.498352  0.808518  1
  Nd  Nd3  1  0.266540  0.501648  0.191482  1
  Al  Al4  1  0.686484  0.834008  0.945781  1
  Al  Al5  1  0.313516  0.165992  0.054219  1
  Al  Al6  1  0.146592  0.832483  0.559836  1
  Al  Al7  1  0.853408  0.167517  0.440164  1
  Al  Al8  1  0.479499  0.166672  0.557533  1
  Al  Al9  1  0.520501  0.833328  0.442467  1
  Al  Al10  1  0.214923  0.165357  0.332019  1
  Al  Al11  1  0.785077  0.834643  0.667981  1
  Al  Al12  1  0.437509  0.506653  0.667874  1
  Al  Al13  1  0.562491  0.493347  0.332126  1
  Al  Al14  1  0.109540  0.159236  0.666799  1
  Al  Al15  1  0.890460  0.840764  0.333201  1
  Al  Al16  1  0.350307  0.501989  0.946261  1
  Al  Al17  1  0.649693  0.498011  0.053739  1
  Al  Al18  1  0.015101  0.165671  0.955393  1
  Al  Al19  1  0.984899  0.834329  0.044607  1
  Al  Al20  1  0.186500  0.499553  0.441904  1
  Al  Al21  1  0.813500  0.500447  0.558096  1
  Al  Al22  1  0.735559  0.163680  0.183843  1
  Al  Al23  1  0.264441  0.836320  0.816157  1
  Al  Al24  1  0.061885  0.632903  0.815021  1
  Al  Al25  1  0.938115  0.367097  0.184979  1
  Al  Al26  1  0.857815  0.039327  0.815481  1
  Al  Al27  1  0.142185  0.960673  0.184520  1
  Pt  Pt28  1  0.120297  0.494494  0.636714  1
  Pt  Pt29  1  0.879703  0.505506  0.363286  1
  Pt  Pt30  1  0.657934  0.170728  0.999817  1
  Pt  Pt31  1  0.342066  0.829272  0.000183  1
  Pt  Pt32  1  0.539939  0.166611  0.362897  1
  Pt  Pt33  1  0.460061  0.833389  0.637103  1
  Pt  Pt34  1  0.781034  0.172451  0.635151  1
  Pt  Pt35  1  0.218966  0.827549  0.364849  1
  Pt  Pt36  1  0.000000  0.500000  0.000000  1
