# generated using pymatgen
data_Sm8Tm12Ga7Si9
_symmetry_space_group_name_H-M   'P 1'
_cell_length_a   7.40729322
_cell_length_b   7.69377149
_cell_length_c   14.76895700
_cell_angle_alpha   89.99008055
_cell_angle_beta   89.91465143
_cell_angle_gamma   90.01794745
_symmetry_Int_Tables_number   1
_chemical_formula_structural   Sm8Tm12Ga7Si9
_chemical_formula_sum   'Sm8 Tm12 Ga7 Si9'
_cell_volume   841.68218776
_cell_formula_units_Z   1
loop_
 _symmetry_equiv_pos_site_id
 _symmetry_equiv_pos_as_xyz
  1  'x, y, z'
loop_
 _atom_site_type_symbol
 _atom_site_label
 _atom_site_symmetry_multiplicity
 _atom_site_fract_x
 _atom_site_fract_y
 _atom_site_fract_z
 _atom_site_occupancy
  Sm  Sm0  1  0.016676  0.174888  0.098902  1
  Sm  Sm1  1  0.984299  0.821289  0.901394  1
  Sm  Sm2  1  0.483889  0.678409  0.901291  1
  Sm  Sm3  1  0.984852  0.822028  0.600206  1
  Sm  Sm4  1  0.515083  0.321508  0.099167  1
  Sm  Sm5  1  0.014785  0.177618  0.399494  1
  Sm  Sm6  1  0.515206  0.321716  0.399045  1
  Sm  Sm7  1  0.485312  0.677994  0.600089  1
  Tm  Tm8  1  0.161724  0.506819  0.750342  1
  Tm  Tm9  1  0.839121  0.494167  0.249519  1
  Tm  Tm10  1  0.338584  0.006503  0.248962  1
  Tm  Tm11  1  0.660987  0.994104  0.749932  1
  Tm  Tm12  1  0.327616  0.174513  0.624094  1
  Tm  Tm13  1  0.671576  0.825824  0.375425  1
  Tm  Tm14  1  0.172036  0.674781  0.375533  1
  Tm  Tm15  1  0.671445  0.823656  0.124366  1
  Tm  Tm16  1  0.827944  0.325737  0.624202  1
  Tm  Tm17  1  0.327147  0.175125  0.877227  1
  Tm  Tm18  1  0.826248  0.325624  0.876599  1
  Tm  Tm19  1  0.174138  0.676636  0.123009  1
  Ga  Ga20  1  0.157586  0.465870  0.539204  1
  Ga  Ga21  1  0.842602  0.534353  0.460405  1
  Ga  Ga22  1  0.342195  0.966162  0.460462  1
  Ga  Ga23  1  0.842861  0.534782  0.040177  1
  Ga  Ga24  1  0.657756  0.034570  0.538950  1
  Ga  Ga25  1  0.156314  0.464842  0.960909  1
  Ga  Ga26  1  0.656108  0.035013  0.961686  1
  Si  Si27  1  0.031705  0.110046  0.751306  1
  Si  Si28  1  0.968092  0.888970  0.249185  1
  Si  Si29  1  0.467107  0.609758  0.248996  1
  Si  Si30  1  0.532261  0.389561  0.750523  1
  Si  Si31  1  0.277696  0.878043  0.751108  1
  Si  Si32  1  0.722563  0.122470  0.248681  1
  Si  Si33  1  0.221162  0.376859  0.248958  1
  Si  Si34  1  0.777942  0.623123  0.750838  1
  Si  Si35  1  0.347378  0.966643  0.039814  1
