# generated using pymatgen
data_Ho6Lu4Si5As
_symmetry_space_group_name_H-M   'P 1'
_cell_length_a   8.35124900
_cell_length_b   8.36074857
_cell_length_c   6.19364900
_cell_angle_alpha   90.00000000
_cell_angle_beta   90.00000000
_cell_angle_gamma   119.96243345
_symmetry_Int_Tables_number   1
_chemical_formula_structural   Ho6Lu4Si5As
_chemical_formula_sum   'Ho6 Lu4 Si5 As1'
_cell_volume   374.66065934
_cell_formula_units_Z   1
loop_
 _symmetry_equiv_pos_site_id
 _symmetry_equiv_pos_as_xyz
  1  'x, y, z'
loop_
 _atom_site_type_symbol
 _atom_site_label
 _atom_site_symmetry_multiplicity
 _atom_site_fract_x
 _atom_site_fract_y
 _atom_site_fract_z
 _atom_site_occupancy
  Ho  Ho0  1  0.757030  0.000000  0.750000  1
  Ho  Ho1  1  0.755475  0.754959  0.250000  1
  Ho  Ho2  1  0.000517  0.245041  0.250000  1
  Ho  Ho3  1  0.996355  0.752588  0.750000  1
  Ho  Ho4  1  0.243767  0.247412  0.750000  1
  Ho  Ho5  1  0.244420  0.000000  0.250000  1
  Lu  Lu6  1  0.668831  0.335777  0.001480  1
  Lu  Lu7  1  0.333053  0.664223  0.498520  1
  Lu  Lu8  1  0.333053  0.664223  0.001480  1
  Lu  Lu9  1  0.668831  0.335777  0.498520  1
  Si  Si10  1  0.395226  0.393928  0.250000  1
  Si  Si11  1  0.001298  0.606072  0.250000  1
  Si  Si12  1  0.999521  0.394959  0.750000  1
  Si  Si13  1  0.604562  0.605041  0.750000  1
  Si  Si14  1  0.606260  0.000000  0.250000  1
  As  As15  1  0.391800  0.000000  0.750000  1
