# generated using pymatgen
data_Nd16Dy3MgIr12
_symmetry_space_group_name_H-M   'P 1'
_cell_length_a   11.20352800
_cell_length_b   11.20352800
_cell_length_c   6.44896300
_cell_angle_alpha   90.00000000
_cell_angle_beta   90.00000000
_cell_angle_gamma   90.00000000
_symmetry_Int_Tables_number   1
_chemical_formula_structural   Nd16Dy3MgIr12
_chemical_formula_sum   'Nd16 Dy3 Mg1 Ir12'
_cell_volume   809.46764248
_cell_formula_units_Z   1
loop_
 _symmetry_equiv_pos_site_id
 _symmetry_equiv_pos_as_xyz
  1  'x, y, z'
loop_
 _atom_site_type_symbol
 _atom_site_label
 _atom_site_symmetry_multiplicity
 _atom_site_fract_x
 _atom_site_fract_y
 _atom_site_fract_z
 _atom_site_occupancy
  Nd  Nd0  1  0.281305  0.084802  0.382767  1
  Nd  Nd1  1  0.288906  0.912429  0.882561  1
  Nd  Nd2  1  0.711094  0.087571  0.882561  1
  Nd  Nd3  1  0.718695  0.915198  0.382767  1
  Nd  Nd4  1  0.588749  0.790124  0.883212  1
  Nd  Nd5  1  0.586862  0.209796  0.380950  1
  Nd  Nd6  1  0.413138  0.790204  0.380950  1
  Nd  Nd7  1  0.411251  0.209876  0.883212  1
  Nd  Nd8  1  0.209796  0.413138  0.619050  1
  Nd  Nd9  1  0.209876  0.588749  0.116788  1
  Nd  Nd10  1  0.790124  0.411251  0.116788  1
  Nd  Nd11  1  0.790204  0.586862  0.619050  1
  Nd  Nd12  1  0.912429  0.711094  0.117439  1
  Nd  Nd13  1  0.915198  0.281305  0.617233  1
  Nd  Nd14  1  0.084802  0.718695  0.617233  1
  Nd  Nd15  1  0.087571  0.288906  0.117439  1
  Dy  Dy16  1  0.000000  0.000000  0.000000  1
  Dy  Dy17  1  0.500000  0.500000  0.000000  1
  Dy  Dy18  1  0.500000  0.500000  0.500000  1
  Mg  Mg19  1  0.000000  0.000000  0.500000  1
  Ir  Ir20  1  0.850687  0.151097  0.245924  1
  Ir  Ir21  1  0.848903  0.850687  0.754076  1
  Ir  Ir22  1  0.151097  0.149313  0.754076  1
  Ir  Ir23  1  0.149313  0.848903  0.245924  1
  Ir  Ir24  1  0.649962  0.350467  0.748019  1
  Ir  Ir25  1  0.649533  0.649962  0.251981  1
  Ir  Ir26  1  0.350467  0.350038  0.251981  1
  Ir  Ir27  1  0.350038  0.649533  0.748019  1
  Ir  Ir28  1  0.500000  0.000000  0.121940  1
  Ir  Ir29  1  0.500000  0.000000  0.617245  1
  Ir  Ir30  1  0.000000  0.500000  0.878060  1
  Ir  Ir31  1  0.000000  0.500000  0.382755  1
