# generated using pymatgen
data_Ca9Tb(NbN5)2
_symmetry_space_group_name_H-M   'P 1'
_cell_length_a   6.96181727
_cell_length_b   6.92740855
_cell_length_c   8.93192278
_cell_angle_alpha   80.37971166
_cell_angle_beta   80.17851779
_cell_angle_gamma   59.83295576
_symmetry_Int_Tables_number   1
_chemical_formula_structural   Ca9Tb(NbN5)2
_chemical_formula_sum   'Ca9 Tb1 Nb2 N10'
_cell_volume   365.28496941
_cell_formula_units_Z   1
loop_
 _symmetry_equiv_pos_site_id
 _symmetry_equiv_pos_as_xyz
  1  'x, y, z'
loop_
 _atom_site_type_symbol
 _atom_site_label
 _atom_site_symmetry_multiplicity
 _atom_site_fract_x
 _atom_site_fract_y
 _atom_site_fract_z
 _atom_site_occupancy
  Ca  Ca0  1  0.869992  0.869206  0.827948  1
  Ca  Ca1  1  0.740659  0.742724  0.519652  1
  Ca  Ca2  1  0.754284  0.248750  0.503861  1
  Ca  Ca3  1  0.622672  0.141168  0.155665  1
  Ca  Ca4  1  0.363538  0.870804  0.837827  1
  Ca  Ca5  1  0.250809  0.756271  0.508353  1
  Ca  Ca6  1  0.244702  0.245705  0.489390  1
  Ca  Ca7  1  0.140004  0.142285  0.165719  1
  Ca  Ca8  1  0.135004  0.630249  0.153990  1
  Tb  Tb9  1  0.879444  0.348537  0.830758  1
  Nb  Nb10  1  0.631156  0.629423  0.220281  1
  Nb  Nb11  1  0.372693  0.365740  0.775070  1
  N  N12  1  0.915034  0.466200  0.321029  1
  N  N13  1  0.986574  0.016431  0.011626  1
  N  N14  1  0.685603  0.667081  0.997160  1
  N  N15  1  0.545962  0.530482  0.696717  1
  N  N16  1  0.464868  0.915726  0.322331  1
  N  N17  1  0.540499  0.082462  0.676129  1
  N  N18  1  0.461187  0.467074  0.303060  1
  N  N19  1  0.320034  0.318024  0.994777  1
  N  N20  1  0.054049  0.074572  0.653422  1
  N  N21  1  0.083519  0.533375  0.681039  1
