# generated using pymatgen
data_Dy8InNi8Hg3
_symmetry_space_group_name_H-M   'P 1'
_cell_length_a   7.33581900
_cell_length_b   7.33581900
_cell_length_c   7.37472500
_cell_angle_alpha   90.00000000
_cell_angle_beta   90.00000000
_cell_angle_gamma   90.00000000
_symmetry_Int_Tables_number   1
_chemical_formula_structural   Dy8InNi8Hg3
_chemical_formula_sum   'Dy8 In1 Ni8 Hg3'
_cell_volume   396.86522404
_cell_formula_units_Z   1
loop_
 _symmetry_equiv_pos_site_id
 _symmetry_equiv_pos_as_xyz
  1  'x, y, z'
loop_
 _atom_site_type_symbol
 _atom_site_label
 _atom_site_symmetry_multiplicity
 _atom_site_fract_x
 _atom_site_fract_y
 _atom_site_fract_z
 _atom_site_occupancy
  Dy  Dy0  1  0.675394  0.326933  0.999782  1
  Dy  Dy1  1  0.324606  0.673067  0.999782  1
  Dy  Dy2  1  0.826933  0.824606  0.500218  1
  Dy  Dy3  1  0.173067  0.175394  0.500218  1
  Dy  Dy4  1  0.178071  0.180703  0.999890  1
  Dy  Dy5  1  0.821929  0.819297  0.999890  1
  Dy  Dy6  1  0.319297  0.678071  0.500110  1
  Dy  Dy7  1  0.680703  0.321929  0.500110  1
  In  In8  1  0.500000  0.000000  0.750000  1
  Ni  Ni9  1  0.383029  0.384642  0.256885  1
  Ni  Ni10  1  0.616971  0.615358  0.256885  1
  Ni  Ni11  1  0.115358  0.883029  0.243115  1
  Ni  Ni12  1  0.884642  0.116971  0.243115  1
  Ni  Ni13  1  0.613940  0.622065  0.743132  1
  Ni  Ni14  1  0.386060  0.377935  0.743132  1
  Ni  Ni15  1  0.122065  0.886060  0.756868  1
  Ni  Ni16  1  0.877935  0.113940  0.756868  1
  Hg  Hg17  1  0.500000  0.000000  0.250000  1
  Hg  Hg18  1  0.000000  0.500000  0.250000  1
  Hg  Hg19  1  0.000000  0.500000  0.750000  1
