# generated using pymatgen
data_TbEr11Tc4
_symmetry_space_group_name_H-M   'P 1'
_cell_length_a   6.22698013
_cell_length_b   7.36053101
_cell_length_c   9.09313100
_cell_angle_alpha   90.00000000
_cell_angle_beta   90.00000000
_cell_angle_gamma   90.04971798
_symmetry_Int_Tables_number   1
_chemical_formula_structural   TbEr11Tc4
_chemical_formula_sum   'Tb1 Er11 Tc4'
_cell_volume   416.77332122
_cell_formula_units_Z   1
loop_
 _symmetry_equiv_pos_site_id
 _symmetry_equiv_pos_as_xyz
  1  'x, y, z'
loop_
 _atom_site_type_symbol
 _atom_site_label
 _atom_site_symmetry_multiplicity
 _atom_site_fract_x
 _atom_site_fract_y
 _atom_site_fract_z
 _atom_site_occupancy
  Tb  Tb0  1  0.372128  0.957554  0.750000  1
  Er  Er1  1  0.339730  0.675009  0.062239  1
  Er  Er2  1  0.159747  0.176790  0.437743  1
  Er  Er3  1  0.660789  0.323993  0.561910  1
  Er  Er4  1  0.840648  0.823869  0.938230  1
  Er  Er5  1  0.660789  0.323993  0.938090  1
  Er  Er6  1  0.840648  0.823869  0.561770  1
  Er  Er7  1  0.339730  0.675009  0.437761  1
  Er  Er8  1  0.159747  0.176790  0.062257  1
  Er  Er9  1  0.871250  0.542282  0.250000  1
  Er  Er10  1  0.627649  0.040992  0.250000  1
  Er  Er11  1  0.128349  0.458431  0.750000  1
  Tc  Tc12  1  0.040978  0.887531  0.250000  1
  Tc  Tc13  1  0.458826  0.386833  0.250000  1
  Tc  Tc14  1  0.958348  0.113959  0.750000  1
  Tc  Tc15  1  0.540641  0.613095  0.750000  1
