# generated using pymatgen
data_Yb2Al16Pt9
_symmetry_space_group_name_H-M   'P 1'
_cell_length_a   11.18714741
_cell_length_b   11.18714820
_cell_length_c   11.18714817
_cell_angle_alpha   158.49653037
_cell_angle_beta   115.78634627
_cell_angle_gamma   68.56706576
_symmetry_Int_Tables_number   1
_chemical_formula_structural   Yb2Al16Pt9
_chemical_formula_sum   'Yb2 Al16 Pt9'
_cell_volume   458.81954297
_cell_formula_units_Z   1
loop_
 _symmetry_equiv_pos_site_id
 _symmetry_equiv_pos_as_xyz
  1  'x, y, z'
loop_
 _atom_site_type_symbol
 _atom_site_label
 _atom_site_symmetry_multiplicity
 _atom_site_fract_x
 _atom_site_fract_y
 _atom_site_fract_z
 _atom_site_occupancy
  Yb  Yb0  1  0.227709  0.227709  0.000000  1
  Yb  Yb1  1  0.772291  0.772291  0.000000  1
  Al  Al2  1  0.272986  0.391673  0.881314  1
  Al  Al3  1  0.090306  0.919340  0.170965  1
  Al  Al4  1  0.511953  0.204661  0.307293  1
  Al  Al5  1  0.251625  0.080660  0.170965  1
  Al  Al6  1  0.913569  0.413569  0.500000  1
  Al  Al7  1  0.727014  0.608327  0.118686  1
  Al  Al8  1  0.897368  0.204661  0.692707  1
  Al  Al9  1  0.488047  0.795339  0.692707  1
  Al  Al10  1  0.383809  0.000000  0.383809  1
  Al  Al11  1  0.616191  0.000000  0.616191  1
  Al  Al12  1  0.489641  0.608327  0.881314  1
  Al  Al13  1  0.102632  0.795339  0.307293  1
  Al  Al14  1  0.909694  0.080660  0.829035  1
  Al  Al15  1  0.748375  0.919340  0.829035  1
  Al  Al16  1  0.510359  0.391673  0.118686  1
  Al  Al17  1  0.086431  0.586431  0.500000  1
  Pt  Pt18  1  0.750015  0.500000  0.250015  1
  Pt  Pt19  1  0.025940  0.339732  0.686208  1
  Pt  Pt20  1  0.623890  0.123890  0.500000  1
  Pt  Pt21  1  0.249985  0.500000  0.749985  1
  Pt  Pt22  1  0.376110  0.876110  0.500000  1
  Pt  Pt23  1  0.000000  0.000000  0.000000  1
  Pt  Pt24  1  0.653524  0.339732  0.313792  1
  Pt  Pt25  1  0.346476  0.660268  0.686208  1
  Pt  Pt26  1  0.974060  0.660268  0.313792  1
