# generated using pymatgen
data_NaY6BBr12
_symmetry_space_group_name_H-M   'P 1'
_cell_length_a   9.11237233
_cell_length_b   9.06976757
_cell_length_c   9.08011637
_cell_angle_alpha   106.28173878
_cell_angle_beta   107.01540585
_cell_angle_gamma   106.44972199
_symmetry_Int_Tables_number   1
_chemical_formula_structural   NaY6BBr12
_chemical_formula_sum   'Na1 Y6 B1 Br12'
_cell_volume   631.94206113
_cell_formula_units_Z   1
loop_
 _symmetry_equiv_pos_site_id
 _symmetry_equiv_pos_as_xyz
  1  'x, y, z'
loop_
 _atom_site_type_symbol
 _atom_site_label
 _atom_site_symmetry_multiplicity
 _atom_site_fract_x
 _atom_site_fract_y
 _atom_site_fract_z
 _atom_site_occupancy
  Na  Na0  1  0.500000  0.500000  0.500000  1
  Y  Y1  1  0.104123  0.306978  0.028719  1
  Y  Y2  1  0.306143  0.028141  0.099704  1
  Y  Y3  1  0.024285  0.104708  0.304991  1
  Y  Y4  1  0.975716  0.895292  0.695010  1
  Y  Y5  1  0.693857  0.971860  0.900296  1
  Y  Y6  1  0.895877  0.693022  0.971281  1
  B  B7  1  0.000000  0.000000  0.000000  1
  Br  Br8  1  0.221191  0.683123  0.077026  1
  Br  Br9  1  0.449186  0.368947  0.142423  1
  Br  Br10  1  0.680253  0.075404  0.223170  1
  Br  Br11  1  0.926851  0.779608  0.317770  1
  Br  Br12  1  0.142687  0.450200  0.368147  1
  Br  Br13  1  0.363712  0.138909  0.445077  1
  Br  Br14  1  0.636288  0.861091  0.554924  1
  Br  Br15  1  0.857314  0.549800  0.631853  1
  Br  Br16  1  0.073150  0.220392  0.682231  1
  Br  Br17  1  0.319748  0.924597  0.776830  1
  Br  Br18  1  0.550814  0.631053  0.857578  1
  Br  Br19  1  0.778809  0.316877  0.922974  1
