# generated using pymatgen
data_Ac2VN3
_symmetry_space_group_name_H-M   'P 1'
_cell_length_a   6.38082936
_cell_length_b   6.38083078
_cell_length_c   12.55506267
_cell_angle_alpha   88.53722390
_cell_angle_beta   88.53722105
_cell_angle_gamma   127.55189080
_symmetry_Int_Tables_number   1
_chemical_formula_structural   Ac2VN3
_chemical_formula_sum   'Ac8 V4 N12'
_cell_volume   404.58697217
_cell_formula_units_Z   4
loop_
 _symmetry_equiv_pos_site_id
 _symmetry_equiv_pos_as_xyz
  1  'x, y, z'
loop_
 _atom_site_type_symbol
 _atom_site_label
 _atom_site_symmetry_multiplicity
 _atom_site_fract_x
 _atom_site_fract_y
 _atom_site_fract_z
 _atom_site_occupancy
  Ac  Ac0  1  0.627070  0.845276  0.071296  1
  Ac  Ac1  1  0.471768  0.075166  0.350385  1
  Ac  Ac2  1  0.075166  0.471768  0.850385  1
  Ac  Ac3  1  0.528232  0.924834  0.649615  1
  Ac  Ac4  1  0.372930  0.154724  0.928704  1
  Ac  Ac5  1  0.845276  0.627070  0.571296  1
  Ac  Ac6  1  0.154724  0.372930  0.428704  1
  Ac  Ac7  1  0.924834  0.528232  0.149615  1
  V  V8  1  0.783697  0.776651  0.827111  1
  V  V9  1  0.223349  0.216303  0.672889  1
  V  V10  1  0.216303  0.223349  0.172889  1
  V  V11  1  0.776651  0.783697  0.327111  1
  N  N12  1  0.115315  0.884685  0.750000  1
  N  N13  1  0.884685  0.115315  0.250000  1
  N  N14  1  0.507136  0.492864  0.750000  1
  N  N15  1  0.492864  0.507136  0.250000  1
  N  N16  1  0.356453  0.038493  0.138410  1
  N  N17  1  0.961507  0.643547  0.361590  1
  N  N18  1  0.643547  0.961507  0.861590  1
  N  N19  1  0.038493  0.356453  0.638410  1
  N  N20  1  0.825576  0.648499  0.953150  1
  N  N21  1  0.648499  0.825576  0.453150  1
  N  N22  1  0.174424  0.351501  0.046850  1
  N  N23  1  0.351501  0.174424  0.546850  1
