# generated using pymatgen
data_ErBi3(AuO3)4
_symmetry_space_group_name_H-M   'P 1'
_cell_length_a   3.97547276
_cell_length_b   5.64390800
_cell_length_c   13.27822105
_cell_angle_alpha   90.00000000
_cell_angle_beta   91.30981808
_cell_angle_gamma   90.00000000
_symmetry_Int_Tables_number   1
_chemical_formula_structural   ErBi3(AuO3)4
_chemical_formula_sum   'Er1 Bi3 Au4 O12'
_cell_volume   297.84828900
_cell_formula_units_Z   1
loop_
 _symmetry_equiv_pos_site_id
 _symmetry_equiv_pos_as_xyz
  1  'x, y, z'
loop_
 _atom_site_type_symbol
 _atom_site_label
 _atom_site_symmetry_multiplicity
 _atom_site_fract_x
 _atom_site_fract_y
 _atom_site_fract_z
 _atom_site_occupancy
  Er  Er0  1  0.750123  0.750000  0.578070  1
  Bi  Bi1  1  0.266064  0.750000  0.075024  1
  Bi  Bi2  1  0.281978  0.250000  0.428836  1
  Bi  Bi3  1  0.719459  0.250000  0.925387  1
  Au  Au4  1  0.072044  0.750000  0.824373  1
  Au  Au5  1  0.084504  0.250000  0.666183  1
  Au  Au6  1  0.917896  0.250000  0.172356  1
  Au  Au7  1  0.918062  0.750000  0.334451  1
  O  O8  1  0.163937  0.499243  0.254498  1
  O  O9  1  0.826900  0.987875  0.735451  1
  O  O10  1  0.826900  0.512125  0.735451  1
  O  O11  1  0.163937  0.000757  0.254498  1
  O  O12  1  0.738414  0.489759  0.070581  1
  O  O13  1  0.745604  0.510205  0.433357  1
  O  O14  1  0.246900  0.990199  0.926738  1
  O  O15  1  0.273181  0.994974  0.577034  1
  O  O16  1  0.745604  0.989795  0.433357  1
  O  O17  1  0.738414  0.010241  0.070581  1
  O  O18  1  0.273181  0.505026  0.577034  1
  O  O19  1  0.246900  0.509801  0.926738  1
