# generated using pymatgen
data_Pr6Dy5Ho5(CdIr)4
_symmetry_space_group_name_H-M   'P 1'
_cell_length_a   9.77197423
_cell_length_b   9.76748484
_cell_length_c   9.76748545
_cell_angle_alpha   59.97417937
_cell_angle_beta   59.98479655
_cell_angle_gamma   59.98479340
_symmetry_Int_Tables_number   1
_chemical_formula_structural   Pr6Dy5Ho5(CdIr)4
_chemical_formula_sum   'Pr6 Dy5 Ho5 Cd4 Ir4'
_cell_volume   658.94353862
_cell_formula_units_Z   1
loop_
 _symmetry_equiv_pos_site_id
 _symmetry_equiv_pos_as_xyz
  1  'x, y, z'
loop_
 _atom_site_type_symbol
 _atom_site_label
 _atom_site_symmetry_multiplicity
 _atom_site_fract_x
 _atom_site_fract_y
 _atom_site_fract_z
 _atom_site_occupancy
  Pr  Pr0  1  0.941073  0.558927  0.558927  1
  Pr  Pr1  1  0.558393  0.941607  0.941607  1
  Pr  Pr2  1  0.558622  0.941218  0.558555  1
  Pr  Pr3  1  0.941605  0.558555  0.941218  1
  Pr  Pr4  1  0.558622  0.558555  0.941218  1
  Pr  Pr5  1  0.941605  0.941218  0.558555  1
  Dy  Dy6  1  0.346484  0.347480  0.347480  1
  Dy  Dy7  1  0.347223  0.347822  0.957731  1
  Dy  Dy8  1  0.347223  0.957731  0.347822  1
  Dy  Dy9  1  0.958555  0.347480  0.347480  1
  Dy  Dy10  1  0.812904  0.187096  0.187096  1
  Ho  Ho11  1  0.186961  0.813039  0.813039  1
  Ho  Ho12  1  0.187870  0.812347  0.186400  1
  Ho  Ho13  1  0.813382  0.186400  0.812347  1
  Ho  Ho14  1  0.187870  0.186400  0.812347  1
  Ho  Ho15  1  0.813382  0.812347  0.186400  1
  Cd  Cd16  1  0.579202  0.579223  0.579223  1
  Cd  Cd17  1  0.579289  0.579515  0.261905  1
  Cd  Cd18  1  0.579289  0.261905  0.579515  1
  Cd  Cd19  1  0.262350  0.579223  0.579223  1
  Ir  Ir20  1  0.140533  0.141405  0.141405  1
  Ir  Ir21  1  0.140451  0.141821  0.577278  1
  Ir  Ir22  1  0.140451  0.577278  0.141821  1
  Ir  Ir23  1  0.576658  0.141405  0.141405  1
