# generated using pymatgen
data_K3VSe16
_symmetry_space_group_name_H-M   'P 1'
_cell_length_a   11.90564200
_cell_length_b   11.90578525
_cell_length_c   11.90587300
_cell_angle_alpha   120.00106514
_cell_angle_beta   89.99984119
_cell_angle_gamma   119.99971011
_symmetry_Int_Tables_number   1
_chemical_formula_structural   K3VSe16
_chemical_formula_sum   'K6 V2 Se32'
_cell_volume   1193.30819848
_cell_formula_units_Z   2
loop_
 _symmetry_equiv_pos_site_id
 _symmetry_equiv_pos_as_xyz
  1  'x, y, z'
loop_
 _atom_site_type_symbol
 _atom_site_label
 _atom_site_symmetry_multiplicity
 _atom_site_fract_x
 _atom_site_fract_y
 _atom_site_fract_z
 _atom_site_occupancy
  K  K0  1  0.000046  0.000033  0.000020  1
  K  K1  1  0.499987  0.000035  0.000018  1
  K  K2  1  0.499985  0.499963  0.000010  1
  K  K3  1  0.125003  0.750000  0.374998  1
  K  K4  1  0.499982  0.499959  0.499949  1
  K  K5  1  0.874998  0.249999  0.625005  1
  V  V6  1  0.375021  0.250009  0.124995  1
  V  V7  1  0.625000  0.750008  0.874998  1
  Se  Se8  1  0.035392  0.726938  0.054251  1
  Se  Se9  1  0.191547  0.518858  0.054249  1
  Se  Se10  1  0.827311  0.362701  0.054252  1
  Se  Se11  1  0.703590  0.907173  0.110757  1
  Se  Se12  1  0.296336  0.092657  0.203659  1
  Se  Se13  1  0.296344  0.407342  0.203673  1
  Se  Se14  1  0.610948  0.407296  0.203647  1
  Se  Se15  1  0.827308  0.773057  0.308453  1
  Se  Se16  1  0.445751  0.981138  0.308453  1
  Se  Se17  1  0.035391  0.362702  0.308453  1
  Se  Se18  1  0.554250  0.862704  0.327312  1
  Se  Se19  1  0.964607  0.018857  0.327313  1
  Se  Se20  1  0.808455  0.273059  0.327311  1
  Se  Se21  1  0.191547  0.137297  0.464610  1
  Se  Se22  1  0.827311  0.518858  0.464608  1
  Se  Se23  1  0.445750  0.773060  0.464610  1
  Se  Se24  1  0.554251  0.226941  0.535395  1
  Se  Se25  1  0.172689  0.481142  0.535392  1
  Se  Se26  1  0.808458  0.862707  0.535395  1
  Se  Se27  1  0.191547  0.726938  0.672689  1
  Se  Se28  1  0.035392  0.981140  0.672689  1
  Se  Se29  1  0.445750  0.137296  0.672688  1
  Se  Se30  1  0.964605  0.637295  0.691547  1
  Se  Se31  1  0.554248  0.018857  0.691544  1
  Se  Se32  1  0.172689  0.226938  0.691545  1
  Se  Se33  1  0.389237  0.592827  0.796407  1
  Se  Se34  1  0.703575  0.592835  0.796419  1
  Se  Se35  1  0.703596  0.907200  0.796409  1
  Se  Se36  1  0.296348  0.092681  0.889021  1
  Se  Se37  1  0.172688  0.637293  0.945750  1
  Se  Se38  1  0.808455  0.481144  0.945752  1
  Se  Se39  1  0.964612  0.273062  0.945751  1
