# generated using pymatgen
data_Yb2ZnNi6
_symmetry_space_group_name_H-M   'P 1'
_cell_length_a   4.93802441
_cell_length_b   4.93802389
_cell_length_c   12.24725614
_cell_angle_alpha   78.36962691
_cell_angle_beta   78.36962645
_cell_angle_gamma   59.99999018
_symmetry_Int_Tables_number   1
_chemical_formula_structural   Yb2ZnNi6
_chemical_formula_sum   'Yb4 Zn2 Ni12'
_cell_volume   251.52322371
_cell_formula_units_Z   2
loop_
 _symmetry_equiv_pos_site_id
 _symmetry_equiv_pos_as_xyz
  1  'x, y, z'
loop_
 _atom_site_type_symbol
 _atom_site_label
 _atom_site_symmetry_multiplicity
 _atom_site_fract_x
 _atom_site_fract_y
 _atom_site_fract_z
 _atom_site_occupancy
  Yb  Yb0  1  0.949032  0.949032  0.152906  1
  Yb  Yb1  1  0.050968  0.050968  0.847094  1
  Yb  Yb2  1  0.852099  0.852099  0.443701  1
  Yb  Yb3  1  0.147901  0.147901  0.556299  1
  Zn  Zn4  1  0.722373  0.722373  0.832881  1
  Zn  Zn5  1  0.277627  0.277627  0.167119  1
  Ni  Ni6  1  0.500000  0.500000  0.500000  1
  Ni  Ni7  1  0.611402  0.611402  0.165795  1
  Ni  Ni8  1  0.388598  0.388598  0.834205  1
  Ni  Ni9  1  0.000000  0.500000  0.000000  1
  Ni  Ni10  1  0.500000  0.000000  0.000000  1
  Ni  Ni11  1  0.500000  0.500000  0.000000  1
  Ni  Ni12  1  0.389748  0.389748  0.333093  1
  Ni  Ni13  1  0.887411  0.389748  0.333093  1
  Ni  Ni14  1  0.389748  0.887411  0.333093  1
  Ni  Ni15  1  0.610252  0.610252  0.666907  1
  Ni  Ni16  1  0.112589  0.610252  0.666907  1
  Ni  Ni17  1  0.610252  0.112589  0.666907  1
