# generated using pymatgen
data_CeHoTh6(Si3Rh)4
_symmetry_space_group_name_H-M   'P 1'
_cell_length_a   8.21143159
_cell_length_b   8.17620054
_cell_length_c   8.33907700
_cell_angle_alpha   90.00000000
_cell_angle_beta   90.00000000
_cell_angle_gamma   119.85818693
_symmetry_Int_Tables_number   1
_chemical_formula_structural   CeHoTh6(Si3Rh)4
_chemical_formula_sum   'Ce1 Ho1 Th6 Si12 Rh4'
_cell_volume   485.55436869
_cell_formula_units_Z   1
loop_
 _symmetry_equiv_pos_site_id
 _symmetry_equiv_pos_as_xyz
  1  'x, y, z'
loop_
 _atom_site_type_symbol
 _atom_site_label
 _atom_site_symmetry_multiplicity
 _atom_site_fract_x
 _atom_site_fract_y
 _atom_site_fract_z
 _atom_site_occupancy
  Ce  Ce0  1  0.000015  0.000008  0.750000  1
  Ho  Ho1  1  0.000616  0.500308  0.750000  1
  Th  Th2  1  0.999995  0.999997  0.250000  1
  Th  Th3  1  0.500202  0.499755  0.250000  1
  Th  Th4  1  0.500202  0.000447  0.250000  1
  Th  Th5  1  0.999551  0.499776  0.250000  1
  Th  Th6  1  0.499665  0.500237  0.750000  1
  Th  Th7  1  0.499665  0.999427  0.750000  1
  Si  Si8  1  0.164874  0.831591  0.502362  1
  Si  Si9  1  0.164874  0.333282  0.502362  1
  Si  Si10  1  0.671051  0.835525  0.499184  1
  Si  Si11  1  0.835109  0.168418  0.503021  1
  Si  Si12  1  0.835109  0.666691  0.503021  1
  Si  Si13  1  0.328994  0.164498  0.499810  1
  Si  Si14  1  0.835109  0.168418  0.996979  1
  Si  Si15  1  0.835109  0.666691  0.996979  1
  Si  Si16  1  0.328994  0.164498  0.000190  1
  Si  Si17  1  0.164874  0.831591  0.997638  1
  Si  Si18  1  0.164874  0.333282  0.997638  1
  Si  Si19  1  0.671051  0.835525  0.000816  1
  Rh  Rh20  1  0.336426  0.668213  0.504833  1
  Rh  Rh21  1  0.663607  0.331803  0.506343  1
  Rh  Rh22  1  0.663607  0.331803  0.993657  1
  Rh  Rh23  1  0.336426  0.668213  0.995167  1
