# generated using pymatgen
data_KTmLuCu3Se5
_symmetry_space_group_name_H-M   'P 1'
_cell_length_a   4.11172000
_cell_length_b   7.48165783
_cell_length_c   16.78850500
_cell_angle_alpha   90.00000000
_cell_angle_beta   90.00000000
_cell_angle_gamma   74.05069723
_symmetry_Int_Tables_number   1
_chemical_formula_structural   KTmLuCu3Se5
_chemical_formula_sum   'K2 Tm2 Lu2 Cu6 Se10'
_cell_volume   496.57521773
_cell_formula_units_Z   2
loop_
 _symmetry_equiv_pos_site_id
 _symmetry_equiv_pos_as_xyz
  1  'x, y, z'
loop_
 _atom_site_type_symbol
 _atom_site_label
 _atom_site_symmetry_multiplicity
 _atom_site_fract_x
 _atom_site_fract_y
 _atom_site_fract_z
 _atom_site_occupancy
  K  K0  1  0.061272  0.877455  0.250000  1
  K  K1  1  0.938651  0.122701  0.750000  1
  Tm  Tm2  1  0.191725  0.616549  0.592728  1
  Tm  Tm3  1  0.191725  0.616549  0.907272  1
  Lu  Lu4  1  0.808364  0.383273  0.093004  1
  Lu  Lu5  1  0.808364  0.383273  0.406995  1
  Cu  Cu6  1  0.584921  0.830158  0.028781  1
  Cu  Cu7  1  0.340110  0.319780  0.250000  1
  Cu  Cu8  1  0.584921  0.830158  0.471219  1
  Cu  Cu9  1  0.415039  0.169922  0.528766  1
  Cu  Cu10  1  0.659883  0.680236  0.750000  1
  Cu  Cu11  1  0.415039  0.169922  0.971234  1
  Se  Se12  1  0.167629  0.664742  0.072989  1
  Se  Se13  1  0.439398  0.121205  0.119107  1
  Se  Se14  1  0.749637  0.500726  0.250000  1
  Se  Se15  1  0.439398  0.121205  0.380893  1
  Se  Se16  1  0.167629  0.664742  0.427011  1
  Se  Se17  1  0.832875  0.334250  0.571764  1
  Se  Se18  1  0.559763  0.880476  0.619352  1
  Se  Se19  1  0.251026  0.497951  0.750000  1
  Se  Se20  1  0.559763  0.880476  0.880648  1
  Se  Se21  1  0.832875  0.334250  0.928236  1
