# generated using pymatgen
data_CeNd15Cd4Ni3Pt
_symmetry_space_group_name_H-M   'P 1'
_cell_length_a   9.90547267
_cell_length_b   9.90547304
_cell_length_c   9.90547324
_cell_angle_alpha   59.64195918
_cell_angle_beta   59.64195756
_cell_angle_gamma   59.64196135
_symmetry_Int_Tables_number   1
_chemical_formula_structural   CeNd15Cd4Ni3Pt
_chemical_formula_sum   'Ce1 Nd15 Cd4 Ni3 Pt1'
_cell_volume   681.65227658
_cell_formula_units_Z   1
loop_
 _symmetry_equiv_pos_site_id
 _symmetry_equiv_pos_as_xyz
  1  'x, y, z'
loop_
 _atom_site_type_symbol
 _atom_site_label
 _atom_site_symmetry_multiplicity
 _atom_site_fract_x
 _atom_site_fract_y
 _atom_site_fract_z
 _atom_site_occupancy
  Ce  Ce0  1  0.594382  0.594382  0.594382  1
  Nd  Nd1  1  0.602355  0.602355  0.201929  1
  Nd  Nd2  1  0.602355  0.201929  0.602355  1
  Nd  Nd3  1  0.201929  0.602355  0.602355  1
  Nd  Nd4  1  0.052999  0.441887  0.441887  1
  Nd  Nd5  1  0.439602  0.058930  0.058930  1
  Nd  Nd6  1  0.441887  0.052999  0.441887  1
  Nd  Nd7  1  0.058930  0.439602  0.058930  1
  Nd  Nd8  1  0.441887  0.441887  0.052999  1
  Nd  Nd9  1  0.058930  0.058930  0.439602  1
  Nd  Nd10  1  0.191043  0.813690  0.813690  1
  Nd  Nd11  1  0.810057  0.186952  0.186952  1
  Nd  Nd12  1  0.813690  0.191043  0.813690  1
  Nd  Nd13  1  0.186952  0.810057  0.186952  1
  Nd  Nd14  1  0.813690  0.813690  0.191043  1
  Nd  Nd15  1  0.186952  0.186952  0.810057  1
  Cd  Cd16  1  0.830426  0.830426  0.830426  1
  Cd  Cd17  1  0.829237  0.829237  0.510570  1
  Cd  Cd18  1  0.829237  0.510570  0.829237  1
  Cd  Cd19  1  0.510570  0.829237  0.829237  1
  Ni  Ni20  1  0.395389  0.395389  0.819294  1
  Ni  Ni21  1  0.395389  0.819294  0.395389  1
  Ni  Ni22  1  0.819294  0.395389  0.395389  1
  Pt  Pt23  1  0.392816  0.392816  0.392816  1
