# generated using pymatgen
data_YbZrU5VSb10
_symmetry_space_group_name_H-M   'P 1'
_cell_length_a   9.19778678
_cell_length_b   9.17686376
_cell_length_c   6.18763251
_cell_angle_alpha   90.02354563
_cell_angle_beta   89.95301587
_cell_angle_gamma   120.07544968
_symmetry_Int_Tables_number   1
_chemical_formula_structural   YbZrU5VSb10
_chemical_formula_sum   'Yb1 Zr1 U5 V1 Sb10'
_cell_volume   451.96201106
_cell_formula_units_Z   1
loop_
 _symmetry_equiv_pos_site_id
 _symmetry_equiv_pos_as_xyz
  1  'x, y, z'
loop_
 _atom_site_type_symbol
 _atom_site_label
 _atom_site_symmetry_multiplicity
 _atom_site_fract_x
 _atom_site_fract_y
 _atom_site_fract_z
 _atom_site_occupancy
  Yb  Yb0  1  0.381615  0.000000  0.745655  1
  Zr  Zr1  1  0.000043  0.000000  0.503173  1
  U  U2  1  0.388233  0.384323  0.254472  1
  U  U3  1  0.003910  0.615677  0.254472  1
  U  U4  1  0.000227  0.390052  0.748049  1
  U  U5  1  0.610174  0.609948  0.748049  1
  U  U6  1  0.614687  0.000000  0.247585  1
  V  V7  1  0.000313  0.000000  0.995812  1
  Sb  Sb8  1  0.670044  0.334668  0.498844  1
  Sb  Sb9  1  0.334397  0.664131  0.001646  1
  Sb  Sb10  1  0.734345  0.000000  0.761142  1
  Sb  Sb11  1  0.736286  0.735188  0.239469  1
  Sb  Sb12  1  0.335375  0.665332  0.498844  1
  Sb  Sb13  1  0.670267  0.335869  0.001646  1
  Sb  Sb14  1  0.261679  0.000000  0.238742  1
  Sb  Sb15  1  0.262631  0.267955  0.761466  1
  Sb  Sb16  1  0.994676  0.732045  0.761466  1
  Sb  Sb17  1  0.001098  0.264812  0.239469  1
