# generated using pymatgen
data_Tb5Dy11Cd4OsPt3
_symmetry_space_group_name_H-M   'P 1'
_cell_length_a   9.70786127
_cell_length_b   9.70610794
_cell_length_c   9.70610834
_cell_angle_alpha   59.61938071
_cell_angle_beta   59.62388174
_cell_angle_gamma   59.62388263
_symmetry_Int_Tables_number   1
_chemical_formula_structural   Tb5Dy11Cd4OsPt3
_chemical_formula_sum   'Tb5 Dy11 Cd4 Os1 Pt3'
_cell_volume   641.14427139
_cell_formula_units_Z   1
loop_
 _symmetry_equiv_pos_site_id
 _symmetry_equiv_pos_as_xyz
  1  'x, y, z'
loop_
 _atom_site_type_symbol
 _atom_site_label
 _atom_site_symmetry_multiplicity
 _atom_site_fract_x
 _atom_site_fract_y
 _atom_site_fract_z
 _atom_site_occupancy
  Tb  Tb0  1  0.558229  0.937648  0.937648  1
  Tb  Tb1  1  0.565393  0.935438  0.565183  1
  Tb  Tb2  1  0.937662  0.558177  0.937434  1
  Tb  Tb3  1  0.565393  0.565183  0.935438  1
  Tb  Tb4  1  0.937662  0.937434  0.558177  1
  Dy  Dy5  1  0.351544  0.351731  0.351731  1
  Dy  Dy6  1  0.349374  0.349373  0.949481  1
  Dy  Dy7  1  0.349374  0.949481  0.349373  1
  Dy  Dy8  1  0.949382  0.349568  0.349568  1
  Dy  Dy9  1  0.814922  0.188869  0.188869  1
  Dy  Dy10  1  0.188240  0.809709  0.809709  1
  Dy  Dy11  1  0.188700  0.814887  0.189005  1
  Dy  Dy12  1  0.809785  0.188372  0.809640  1
  Dy  Dy13  1  0.188700  0.189005  0.814887  1
  Dy  Dy14  1  0.809785  0.809640  0.188372  1
  Dy  Dy15  1  0.935760  0.565105  0.565105  1
  Cd  Cd16  1  0.580483  0.580321  0.580321  1
  Cd  Cd17  1  0.580900  0.580900  0.254879  1
  Cd  Cd18  1  0.580900  0.254879  0.580900  1
  Cd  Cd19  1  0.254640  0.580943  0.580943  1
  Os  Os20  1  0.143015  0.143094  0.143094  1
  Pt  Pt21  1  0.143653  0.143814  0.572781  1
  Pt  Pt22  1  0.143653  0.572781  0.143814  1
  Pt  Pt23  1  0.572854  0.143652  0.143652  1
