# generated using pymatgen
data_MgAl2(CuPd2)3
_symmetry_space_group_name_H-M   'P 1'
_cell_length_a   4.15083500
_cell_length_b   6.64866300
_cell_length_c   12.39595600
_cell_angle_alpha   90.00001786
_cell_angle_beta   89.99967714
_cell_angle_gamma   90.00000000
_symmetry_Int_Tables_number   1
_chemical_formula_structural   MgAl2(CuPd2)3
_chemical_formula_sum   'Mg2 Al4 Cu6 Pd12'
_cell_volume   342.09743393
_cell_formula_units_Z   2
loop_
 _symmetry_equiv_pos_site_id
 _symmetry_equiv_pos_as_xyz
  1  'x, y, z'
loop_
 _atom_site_type_symbol
 _atom_site_label
 _atom_site_symmetry_multiplicity
 _atom_site_fract_x
 _atom_site_fract_y
 _atom_site_fract_z
 _atom_site_occupancy
  Mg  Mg0  1  0.999987  0.000000  0.997108  1
  Mg  Mg1  1  0.500017  0.500000  0.169570  1
  Al  Al2  1  0.000014  0.000000  0.336764  1
  Al  Al3  1  0.500005  0.500001  0.497737  1
  Al  Al4  1  0.999989  0.000000  0.668935  1
  Al  Al5  1  0.499985  0.500000  0.829899  1
  Cu  Cu6  1  0.999988  0.500001  0.005776  1
  Cu  Cu7  1  0.500015  0.000000  0.160898  1
  Cu  Cu8  1  0.000037  0.500008  0.334566  1
  Cu  Cu9  1  0.499989  0.999998  0.504223  1
  Cu  Cu10  1  0.999975  0.500002  0.662394  1
  Cu  Cu11  1  0.500001  0.999990  0.832103  1
  Pd  Pd12  1  0.499990  0.259964  0.994235  1
  Pd  Pd13  1  0.499990  0.740036  0.994236  1
  Pd  Pd14  1  0.000014  0.240079  0.172432  1
  Pd  Pd15  1  0.000014  0.759921  0.172431  1
  Pd  Pd16  1  0.500013  0.239894  0.337997  1
  Pd  Pd17  1  0.500013  0.760107  0.337997  1
  Pd  Pd18  1  0.000002  0.248722  0.501145  1
  Pd  Pd19  1  0.000003  0.751279  0.501145  1
  Pd  Pd20  1  0.499990  0.251275  0.665531  1
  Pd  Pd21  1  0.499991  0.748726  0.665531  1
  Pd  Pd22  1  0.999988  0.260128  0.828673  1
  Pd  Pd23  1  0.999988  0.739873  0.828673  1
