# generated using pymatgen
data_Li5PuO6
_symmetry_space_group_name_H-M   'P 1'
_cell_length_a   5.24211552
_cell_length_b   5.24211507
_cell_length_c   5.18686300
_cell_angle_alpha   80.42902809
_cell_angle_beta   80.42903234
_cell_angle_gamma   120.18843039
_symmetry_Int_Tables_number   1
_chemical_formula_structural   Li5PuO6
_chemical_formula_sum   'Li5 Pu1 O6'
_cell_volume   116.15000829
_cell_formula_units_Z   1
loop_
 _symmetry_equiv_pos_site_id
 _symmetry_equiv_pos_as_xyz
  1  'x, y, z'
loop_
 _atom_site_type_symbol
 _atom_site_label
 _atom_site_symmetry_multiplicity
 _atom_site_fract_x
 _atom_site_fract_y
 _atom_site_fract_z
 _atom_site_occupancy
  Li  Li0  1  0.831662  0.168338  0.000000  1
  Li  Li1  1  0.168338  0.831662  0.000000  1
  Li  Li2  1  0.680893  0.319107  0.500000  1
  Li  Li3  1  0.319107  0.680893  0.500000  1
  Li  Li4  1  0.000000  0.000000  0.500000  1
  Pu  Pu5  1  0.500000  0.500000  0.000000  1
  O  O6  1  0.420185  0.105635  0.241894  1
  O  O7  1  0.579815  0.894365  0.758106  1
  O  O8  1  0.894365  0.579815  0.758106  1
  O  O9  1  0.105635  0.420185  0.241894  1
  O  O10  1  0.735452  0.735452  0.230184  1
  O  O11  1  0.264548  0.264548  0.769816  1
