# generated using pymatgen
data_EuY3(Si5Pt3)2
_symmetry_space_group_name_H-M   'P 1'
_cell_length_a   8.20055982
_cell_length_b   8.20441236
_cell_length_c   8.20441184
_cell_angle_alpha   136.50782382
_cell_angle_beta   104.55503866
_cell_angle_gamma   91.33801345
_symmetry_Int_Tables_number   1
_chemical_formula_structural   EuY3(Si5Pt3)2
_chemical_formula_sum   'Eu1 Y3 Si10 Pt6'
_cell_volume   349.75989584
_cell_formula_units_Z   1
loop_
 _symmetry_equiv_pos_site_id
 _symmetry_equiv_pos_as_xyz
  1  'x, y, z'
loop_
 _atom_site_type_symbol
 _atom_site_label
 _atom_site_symmetry_multiplicity
 _atom_site_fract_x
 _atom_site_fract_y
 _atom_site_fract_z
 _atom_site_occupancy
  Eu  Eu0  1  0.361899  0.628911  0.732988  1
  Y  Y1  1  0.101413  0.871570  0.229843  1
  Y  Y2  1  0.898017  0.128308  0.769710  1
  Y  Y3  1  0.641106  0.371947  0.269159  1
  Si  Si4  1  0.001116  0.746073  0.746555  1
  Si  Si5  1  0.001116  0.254560  0.255042  1
  Si  Si6  1  0.270984  0.019132  0.748730  1
  Si  Si7  1  0.728198  0.479704  0.749118  1
  Si  Si8  1  0.728198  0.979081  0.248494  1
  Si  Si9  1  0.270984  0.522254  0.251852  1
  Si  Si10  1  0.760749  0.611709  0.149040  1
  Si  Si11  1  0.236818  0.386684  0.850134  1
  Si  Si12  1  0.460091  0.111988  0.348103  1
  Si  Si13  1  0.540327  0.888551  0.651777  1
  Pt  Pt14  1  0.500108  0.750716  0.252768  1
  Pt  Pt15  1  0.500108  0.247340  0.749392  1
  Pt  Pt16  1  0.021984  0.637652  0.384332  1
  Pt  Pt17  1  0.974064  0.360624  0.613440  1
  Pt  Pt18  1  0.247514  0.136644  0.110870  1
  Pt  Pt19  1  0.755206  0.866554  0.888653  1
