# generated using pymatgen
data_Y12Ho4MgCd(InPd2)2
_symmetry_space_group_name_H-M   'P 1'
_cell_length_a   9.77950761
_cell_length_b   9.75783155
_cell_length_c   9.75783100
_cell_angle_alpha   59.99999849
_cell_angle_beta   60.07329193
_cell_angle_gamma   60.07329170
_symmetry_Int_Tables_number   1
_chemical_formula_structural   Y12Ho4MgCd(InPd2)2
_chemical_formula_sum   'Y12 Ho4 Mg1 Cd1 In2 Pd4'
_cell_volume   659.15692893
_cell_formula_units_Z   1
loop_
 _symmetry_equiv_pos_site_id
 _symmetry_equiv_pos_as_xyz
  1  'x, y, z'
loop_
 _atom_site_type_symbol
 _atom_site_label
 _atom_site_symmetry_multiplicity
 _atom_site_fract_x
 _atom_site_fract_y
 _atom_site_fract_z
 _atom_site_occupancy
  Y  Y0  1  0.808580  0.191013  0.191013  1
  Y  Y1  1  0.187233  0.812180  0.812180  1
  Y  Y2  1  0.188022  0.811614  0.188899  1
  Y  Y3  1  0.808916  0.190642  0.809862  1
  Y  Y4  1  0.188022  0.188899  0.811614  1
  Y  Y5  1  0.808916  0.809862  0.190642  1
  Y  Y6  1  0.934594  0.564983  0.564983  1
  Y  Y7  1  0.564721  0.935504  0.935504  1
  Y  Y8  1  0.564731  0.934492  0.563894  1
  Y  Y9  1  0.935120  0.564628  0.935121  1
  Y  Y10  1  0.564731  0.563894  0.934492  1
  Y  Y11  1  0.935120  0.935121  0.564628  1
  Ho  Ho12  1  0.352065  0.351223  0.351223  1
  Ho  Ho13  1  0.352236  0.351463  0.945289  1
  Ho  Ho14  1  0.352236  0.945289  0.351463  1
  Ho  Ho15  1  0.942665  0.352595  0.352595  1
  Mg  Mg16  1  0.265861  0.578127  0.578127  1
  Cd  Cd17  1  0.582509  0.583693  0.583693  1
  In  In18  1  0.582635  0.583629  0.250706  1
  In  In19  1  0.582635  0.250706  0.583629  1
  Pd  Pd20  1  0.144400  0.145100  0.145100  1
  Pd  Pd21  1  0.144145  0.145092  0.565602  1
  Pd  Pd22  1  0.144145  0.565602  0.145092  1
  Pd  Pd23  1  0.565758  0.144652  0.144652  1
