# generated using pymatgen
data_Tb7Y3InSb5
_symmetry_space_group_name_H-M   'P 1'
_cell_length_a   6.40531700
_cell_length_b   9.03734825
_cell_length_c   9.01833298
_cell_angle_alpha   120.06978161
_cell_angle_beta   90.00003481
_cell_angle_gamma   89.99993728
_symmetry_Int_Tables_number   1
_chemical_formula_structural   Tb7Y3InSb5
_chemical_formula_sum   'Tb7 Y3 In1 Sb5'
_cell_volume   451.78596287
_cell_formula_units_Z   1
loop_
 _symmetry_equiv_pos_site_id
 _symmetry_equiv_pos_as_xyz
  1  'x, y, z'
loop_
 _atom_site_type_symbol
 _atom_site_label
 _atom_site_symmetry_multiplicity
 _atom_site_fract_x
 _atom_site_fract_y
 _atom_site_fract_z
 _atom_site_occupancy
  Tb  Tb0  1  0.498858  0.334494  0.668339  1
  Tb  Tb1  1  0.498858  0.666155  0.331661  1
  Tb  Tb2  1  0.001140  0.666157  0.331661  1
  Tb  Tb3  1  0.001140  0.334495  0.668339  1
  Tb  Tb4  1  0.250000  0.756888  0.000000  1
  Tb  Tb5  1  0.250000  0.246790  0.245037  1
  Tb  Tb6  1  0.250000  0.001752  0.754963  1
  Y  Y7  1  0.750002  0.244530  0.000000  1
  Y  Y8  1  0.750002  0.753953  0.757253  1
  Y  Y9  1  0.750002  0.996700  0.242747  1
  In  In10  1  0.750004  0.606790  0.000000  1
  Sb  Sb11  1  0.750001  0.388332  0.389118  1
  Sb  Sb12  1  0.750001  0.999213  0.610882  1
  Sb  Sb13  1  0.249999  0.390825  0.000000  1
  Sb  Sb14  1  0.250000  0.611859  0.610795  1
  Sb  Sb15  1  0.250000  0.001065  0.389205  1
