# generated using pymatgen
data_LaPrZn5Ge
_symmetry_space_group_name_H-M   'P 1'
_cell_length_a   8.46567379
_cell_length_b   8.46567447
_cell_length_c   8.93852800
_cell_angle_alpha   90.00000000
_cell_angle_beta   90.00000000
_cell_angle_gamma   149.29156170
_symmetry_Int_Tables_number   1
_chemical_formula_structural   LaPrZn5Ge
_chemical_formula_sum   'La2 Pr2 Zn10 Ge2'
_cell_volume   327.13654348
_cell_formula_units_Z   2
loop_
 _symmetry_equiv_pos_site_id
 _symmetry_equiv_pos_as_xyz
  1  'x, y, z'
loop_
 _atom_site_type_symbol
 _atom_site_label
 _atom_site_symmetry_multiplicity
 _atom_site_fract_x
 _atom_site_fract_y
 _atom_site_fract_z
 _atom_site_occupancy
  La  La0  1  0.000000  0.000000  0.500000  1
  La  La1  1  0.000000  0.000000  0.000000  1
  Pr  Pr2  1  0.203960  0.796040  0.250000  1
  Pr  Pr3  1  0.796040  0.203960  0.750000  1
  Zn  Zn4  1  0.813925  0.186075  0.391955  1
  Zn  Zn5  1  0.186075  0.813925  0.608045  1
  Zn  Zn6  1  0.813925  0.186075  0.108045  1
  Zn  Zn7  1  0.186075  0.813925  0.891955  1
  Zn  Zn8  1  0.652759  0.347241  0.479643  1
  Zn  Zn9  1  0.347241  0.652759  0.520357  1
  Zn  Zn10  1  0.652759  0.347241  0.020357  1
  Zn  Zn11  1  0.347241  0.652759  0.979643  1
  Zn  Zn12  1  0.403030  0.596970  0.250000  1
  Zn  Zn13  1  0.596970  0.403030  0.750000  1
  Ge  Ge14  1  0.558390  0.441610  0.250000  1
  Ge  Ge15  1  0.441610  0.558390  0.750000  1
