# generated using pymatgen
data_HfPa3Ir4
_symmetry_space_group_name_H-M   'P 1'
_cell_length_a   10.68309300
_cell_length_b   5.59432989
_cell_length_c   5.59534974
_cell_angle_alpha   82.18920601
_cell_angle_beta   90.00000000
_cell_angle_gamma   90.00000000
_symmetry_Int_Tables_number   1
_chemical_formula_structural   HfPa3Ir4
_chemical_formula_sum   'Hf2 Pa6 Ir8'
_cell_volume   331.30213774
_cell_formula_units_Z   2
loop_
 _symmetry_equiv_pos_site_id
 _symmetry_equiv_pos_as_xyz
  1  'x, y, z'
loop_
 _atom_site_type_symbol
 _atom_site_label
 _atom_site_symmetry_multiplicity
 _atom_site_fract_x
 _atom_site_fract_y
 _atom_site_fract_z
 _atom_site_occupancy
  Hf  Hf0  1  0.858757  0.352907  0.855684  1
  Hf  Hf1  1  0.358757  0.147093  0.144316  1
  Pa  Pa2  1  0.865045  0.915011  0.395290  1
  Pa  Pa3  1  0.365045  0.584989  0.604710  1
  Pa  Pa4  1  0.141634  0.642665  0.123480  1
  Pa  Pa5  1  0.641634  0.857335  0.876520  1
  Pa  Pa6  1  0.139106  0.097893  0.619469  1
  Pa  Pa7  1  0.639106  0.402107  0.380531  1
  Ir  Ir8  1  0.597166  0.355246  0.885291  1
  Ir  Ir9  1  0.097166  0.144754  0.114709  1
  Ir  Ir10  1  0.597311  0.903601  0.369211  1
  Ir  Ir11  1  0.097311  0.596399  0.630789  1
  Ir  Ir12  1  0.402842  0.652689  0.095178  1
  Ir  Ir13  1  0.902842  0.847311  0.904822  1
  Ir  Ir14  1  0.398138  0.080171  0.656054  1
  Ir  Ir15  1  0.898138  0.419829  0.343946  1
