# generated using pymatgen
data_CsK2LiPb4
_symmetry_space_group_name_H-M   'P 1'
_cell_length_a   8.98890618
_cell_length_b   8.98890569
_cell_length_c   10.77791500
_cell_angle_alpha   90.00000000
_cell_angle_beta   90.00000000
_cell_angle_gamma   133.94183462
_symmetry_Int_Tables_number   1
_chemical_formula_structural   CsK2LiPb4
_chemical_formula_sum   'Cs2 K4 Li2 Pb8'
_cell_volume   627.05818681
_cell_formula_units_Z   2
loop_
 _symmetry_equiv_pos_site_id
 _symmetry_equiv_pos_as_xyz
  1  'x, y, z'
loop_
 _atom_site_type_symbol
 _atom_site_label
 _atom_site_symmetry_multiplicity
 _atom_site_fract_x
 _atom_site_fract_y
 _atom_site_fract_z
 _atom_site_occupancy
  Cs  Cs0  1  0.226483  0.773517  0.250000  1
  Cs  Cs1  1  0.773517  0.226483  0.750000  1
  K  K2  1  0.612408  0.387592  0.046197  1
  K  K3  1  0.387592  0.612408  0.953803  1
  K  K4  1  0.387592  0.612408  0.546197  1
  K  K5  1  0.612408  0.387592  0.453803  1
  Li  Li6  1  0.000000  0.000000  0.000000  1
  Li  Li7  1  0.000000  0.000000  0.500000  1
  Pb  Pb8  1  0.200293  0.272160  0.250000  1
  Pb  Pb9  1  0.799707  0.727840  0.750000  1
  Pb  Pb10  1  0.727840  0.799707  0.250000  1
  Pb  Pb11  1  0.272160  0.200293  0.750000  1
  Pb  Pb12  1  0.831649  0.168351  0.106230  1
  Pb  Pb13  1  0.168351  0.831649  0.893770  1
  Pb  Pb14  1  0.168351  0.831649  0.606230  1
  Pb  Pb15  1  0.831649  0.168351  0.393770  1
