# generated using pymatgen
data_Ba2FeTcN6
_symmetry_space_group_name_H-M   'P 1'
_cell_length_a   6.80017575
_cell_length_b   6.80017614
_cell_length_c   5.80329500
_cell_angle_alpha   90.00000000
_cell_angle_beta   90.00000000
_cell_angle_gamma   143.66123357
_symmetry_Int_Tables_number   1
_chemical_formula_structural   Ba2FeTcN6
_chemical_formula_sum   'Ba2 Fe1 Tc1 N6'
_cell_volume   159.01791658
_cell_formula_units_Z   1
loop_
 _symmetry_equiv_pos_site_id
 _symmetry_equiv_pos_as_xyz
  1  'x, y, z'
loop_
 _atom_site_type_symbol
 _atom_site_label
 _atom_site_symmetry_multiplicity
 _atom_site_fract_x
 _atom_site_fract_y
 _atom_site_fract_z
 _atom_site_occupancy
  Ba  Ba0  1  0.133175  0.866824  0.249999  1
  Ba  Ba1  1  0.872607  0.127392  0.750000  1
  Fe  Fe2  1  0.587361  0.412638  0.750000  1
  Tc  Tc3  1  0.417053  0.582946  0.249999  1
  N  N4  1  0.503067  0.496933  0.993328  1
  N  N5  1  0.668636  0.031273  0.249999  1
  N  N6  1  0.968726  0.331363  0.249999  1
  N  N7  1  0.503067  0.496933  0.506673  1
  N  N8  1  0.026008  0.679704  0.750000  1
  N  N9  1  0.320295  0.973991  0.750000  1
