# generated using pymatgen
data_TeSeBr3
_symmetry_space_group_name_H-M   'P 1'
_cell_length_a   7.73604200
_cell_length_b   8.19895116
_cell_length_c   16.28826578
_cell_angle_alpha   84.55860367
_cell_angle_beta   90.00000000
_cell_angle_gamma   90.00000000
_symmetry_Int_Tables_number   1
_chemical_formula_structural   TeSeBr3
_chemical_formula_sum   'Te4 Se4 Br12'
_cell_volume   1028.46729630
_cell_formula_units_Z   4
loop_
 _symmetry_equiv_pos_site_id
 _symmetry_equiv_pos_as_xyz
  1  'x, y, z'
loop_
 _atom_site_type_symbol
 _atom_site_label
 _atom_site_symmetry_multiplicity
 _atom_site_fract_x
 _atom_site_fract_y
 _atom_site_fract_z
 _atom_site_occupancy
  Te  Te0  1  0.635329  0.064267  0.873737  1
  Te  Te1  1  0.635329  0.935733  0.626263  1
  Te  Te2  1  0.364671  0.935733  0.126263  1
  Te  Te3  1  0.364671  0.064267  0.373737  1
  Se  Se4  1  0.066123  0.045369  0.181666  1
  Se  Se5  1  0.933877  0.045369  0.681666  1
  Se  Se6  1  0.933877  0.954631  0.818334  1
  Se  Se7  1  0.066123  0.954631  0.318334  1
  Br  Br8  1  0.734395  0.330759  0.927219  1
  Br  Br9  1  0.734395  0.669241  0.572781  1
  Br  Br10  1  0.265605  0.669241  0.072781  1
  Br  Br11  1  0.265605  0.330759  0.427219  1
  Br  Br12  1  0.536782  0.227831  0.725017  1
  Br  Br13  1  0.536782  0.772169  0.774983  1
  Br  Br14  1  0.463218  0.772169  0.274983  1
  Br  Br15  1  0.463218  0.227831  0.225017  1
  Br  Br16  1  0.259991  0.124565  0.992711  1
  Br  Br17  1  0.740009  0.124565  0.492711  1
  Br  Br18  1  0.740009  0.875435  0.007289  1
  Br  Br19  1  0.259991  0.875435  0.507289  1
