# generated using pymatgen
data_Ba4NaNb5O15
_symmetry_space_group_name_H-M   'P 1'
_cell_length_a   9.26561356
_cell_length_b   9.26561370
_cell_length_c   7.16887538
_cell_angle_alpha   74.88945115
_cell_angle_beta   74.88944966
_cell_angle_gamma   36.75873768
_symmetry_Int_Tables_number   1
_chemical_formula_structural   Ba4NaNb5O15
_chemical_formula_sum   'Ba4 Na1 Nb5 O15'
_cell_volume   354.15100421
_cell_formula_units_Z   1
loop_
 _symmetry_equiv_pos_site_id
 _symmetry_equiv_pos_as_xyz
  1  'x, y, z'
loop_
 _atom_site_type_symbol
 _atom_site_label
 _atom_site_symmetry_multiplicity
 _atom_site_fract_x
 _atom_site_fract_y
 _atom_site_fract_z
 _atom_site_occupancy
  Ba  Ba0  1  0.598969  0.598969  0.604061  1
  Ba  Ba1  1  0.198693  0.198693  0.199144  1
  Ba  Ba2  1  0.801307  0.801307  0.800856  1
  Ba  Ba3  1  0.401031  0.401031  0.395939  1
  Na  Na4  1  0.000000  0.000000  0.000000  1
  Nb  Nb5  1  0.198669  0.198669  0.702349  1
  Nb  Nb6  1  0.801331  0.801331  0.297651  1
  Nb  Nb7  1  0.401551  0.401551  0.900530  1
  Nb  Nb8  1  0.000000  0.000000  0.500000  1
  Nb  Nb9  1  0.598449  0.598449  0.099470  1
  O  O10  1  0.401394  0.899411  0.899457  1
  O  O11  1  0.000000  0.500000  0.500000  1
  O  O12  1  0.598606  0.100589  0.100543  1
  O  O13  1  0.201085  0.698898  0.698669  1
  O  O14  1  0.798915  0.301102  0.301331  1
  O  O15  1  0.299876  0.299876  0.800158  1
  O  O16  1  0.899598  0.899598  0.401450  1
  O  O17  1  0.500000  0.500000  0.000000  1
  O  O18  1  0.100402  0.100402  0.598550  1
  O  O19  1  0.700124  0.700124  0.199842  1
  O  O20  1  0.500000  0.000000  0.500000  1
  O  O21  1  0.100589  0.598606  0.100543  1
  O  O22  1  0.698898  0.201085  0.698669  1
  O  O23  1  0.301102  0.798915  0.301331  1
  O  O24  1  0.899411  0.401394  0.899457  1
