# generated using pymatgen
data_Ca20Ga9Sn2Pb
_symmetry_space_group_name_H-M   'P 1'
_cell_length_a   8.11371800
_cell_length_b   8.11371800
_cell_length_c   14.66861900
_cell_angle_alpha   90.00000000
_cell_angle_beta   90.00000000
_cell_angle_gamma   90.00000000
_symmetry_Int_Tables_number   1
_chemical_formula_structural   Ca20Ga9Sn2Pb
_chemical_formula_sum   'Ca20 Ga9 Sn2 Pb1'
_cell_volume   965.67068365
_cell_formula_units_Z   1
loop_
 _symmetry_equiv_pos_site_id
 _symmetry_equiv_pos_as_xyz
  1  'x, y, z'
loop_
 _atom_site_type_symbol
 _atom_site_label
 _atom_site_symmetry_multiplicity
 _atom_site_fract_x
 _atom_site_fract_y
 _atom_site_fract_z
 _atom_site_occupancy
  Ca  Ca0  1  0.679778  0.175370  0.108754  1
  Ca  Ca1  1  0.179421  0.676719  0.611848  1
  Ca  Ca2  1  0.320222  0.824630  0.108754  1
  Ca  Ca3  1  0.820579  0.323281  0.611848  1
  Ca  Ca4  1  0.824630  0.679778  0.108754  1
  Ca  Ca5  1  0.323281  0.179421  0.611848  1
  Ca  Ca6  1  0.175370  0.320222  0.108754  1
  Ca  Ca7  1  0.676719  0.820579  0.611848  1
  Ca  Ca8  1  0.824630  0.320222  0.891246  1
  Ca  Ca9  1  0.323281  0.820579  0.388152  1
  Ca  Ca10  1  0.175370  0.679778  0.891246  1
  Ca  Ca11  1  0.676719  0.179421  0.388152  1
  Ca  Ca12  1  0.679778  0.824630  0.891246  1
  Ca  Ca13  1  0.179421  0.323281  0.388152  1
  Ca  Ca14  1  0.320222  0.175370  0.891246  1
  Ca  Ca15  1  0.820579  0.676719  0.388152  1
  Ca  Ca16  1  0.500000  0.500000  0.754369  1
  Ca  Ca17  1  0.000000  0.000000  0.250666  1
  Ca  Ca18  1  0.000000  0.000000  0.749334  1
  Ca  Ca19  1  0.500000  0.500000  0.245631  1
  Ga  Ga20  1  0.611406  0.110897  0.751394  1
  Ga  Ga21  1  0.110897  0.611406  0.248606  1
  Ga  Ga22  1  0.889103  0.388594  0.248606  1
  Ga  Ga23  1  0.388594  0.889103  0.751394  1
  Ga  Ga24  1  0.889103  0.611406  0.751394  1
  Ga  Ga25  1  0.388594  0.110897  0.248606  1
  Ga  Ga26  1  0.110897  0.388594  0.751394  1
  Ga  Ga27  1  0.611406  0.889103  0.248606  1
  Ga  Ga28  1  0.000000  0.000000  0.000000  1
  Sn  Sn29  1  0.500000  0.500000  0.500000  1
  Sn  Sn30  1  0.500000  0.500000  0.000000  1
  Pb  Pb31  1  0.000000  0.000000  0.500000  1
