# generated using pymatgen
data_Y12Tc3Ir
_symmetry_space_group_name_H-M   'P 1'
_cell_length_a   6.34530182
_cell_length_b   7.43355480
_cell_length_c   9.20112100
_cell_angle_alpha   90.00000000
_cell_angle_beta   90.00000000
_cell_angle_gamma   89.94433689
_symmetry_Int_Tables_number   1
_chemical_formula_structural   Y12Tc3Ir
_chemical_formula_sum   'Y12 Tc3 Ir1'
_cell_volume   433.99963947
_cell_formula_units_Z   1
loop_
 _symmetry_equiv_pos_site_id
 _symmetry_equiv_pos_as_xyz
  1  'x, y, z'
loop_
 _atom_site_type_symbol
 _atom_site_label
 _atom_site_symmetry_multiplicity
 _atom_site_fract_x
 _atom_site_fract_y
 _atom_site_fract_z
 _atom_site_occupancy
  Y  Y0  1  0.632062  0.043421  0.250000  1
  Y  Y1  1  0.373294  0.957296  0.750000  1
  Y  Y2  1  0.126239  0.459414  0.750000  1
  Y  Y3  1  0.869768  0.541497  0.250000  1
  Y  Y4  1  0.164736  0.176733  0.061730  1
  Y  Y5  1  0.834064  0.824260  0.935470  1
  Y  Y6  1  0.662725  0.324221  0.936321  1
  Y  Y7  1  0.834064  0.824260  0.564530  1
  Y  Y8  1  0.335634  0.675114  0.062260  1
  Y  Y9  1  0.164736  0.176733  0.438270  1
  Y  Y10  1  0.335634  0.675114  0.437740  1
  Y  Y11  1  0.662725  0.324221  0.563679  1
  Tc  Tc12  1  0.460937  0.383333  0.250000  1
  Tc  Tc13  1  0.538504  0.616460  0.750000  1
  Tc  Tc14  1  0.963420  0.114123  0.750000  1
  Ir  Ir15  1  0.041458  0.883799  0.250000  1
