# generated using pymatgen
data_Y13Th3(AlRh)4
_symmetry_space_group_name_H-M   'P 1'
_cell_length_a   9.63391710
_cell_length_b   9.67721029
_cell_length_c   9.67721000
_cell_angle_alpha   59.99999416
_cell_angle_beta   59.85122773
_cell_angle_gamma   59.85122757
_symmetry_Int_Tables_number   1
_chemical_formula_structural   Y13Th3(AlRh)4
_chemical_formula_sum   'Y13 Th3 Al4 Rh4'
_cell_volume   636.51401146
_cell_formula_units_Z   1
loop_
 _symmetry_equiv_pos_site_id
 _symmetry_equiv_pos_as_xyz
  1  'x, y, z'
loop_
 _atom_site_type_symbol
 _atom_site_label
 _atom_site_symmetry_multiplicity
 _atom_site_fract_x
 _atom_site_fract_y
 _atom_site_fract_z
 _atom_site_occupancy
  Y  Y0  1  0.187089  0.604304  0.604304  1
  Y  Y1  1  0.060489  0.440825  0.440825  1
  Y  Y2  1  0.442432  0.058670  0.058670  1
  Y  Y3  1  0.442432  0.058670  0.440226  1
  Y  Y4  1  0.060489  0.440825  0.057859  1
  Y  Y5  1  0.442432  0.440226  0.058670  1
  Y  Y6  1  0.060489  0.057859  0.440825  1
  Y  Y7  1  0.185388  0.813256  0.813256  1
  Y  Y8  1  0.813905  0.186869  0.186869  1
  Y  Y9  1  0.813905  0.186869  0.812357  1
  Y  Y10  1  0.185388  0.813256  0.188100  1
  Y  Y11  1  0.813905  0.812357  0.186869  1
  Y  Y12  1  0.185388  0.188100  0.813256  1
  Th  Th13  1  0.598377  0.600855  0.600855  1
  Th  Th14  1  0.598377  0.600855  0.199914  1
  Th  Th15  1  0.598377  0.199914  0.600855  1
  Al  Al16  1  0.828403  0.829213  0.829213  1
  Al  Al17  1  0.828403  0.829213  0.513169  1
  Al  Al18  1  0.828403  0.513169  0.829213  1
  Al  Al19  1  0.514748  0.828417  0.828417  1
  Rh  Rh20  1  0.397648  0.391962  0.391962  1
  Rh  Rh21  1  0.397648  0.391962  0.818430  1
  Rh  Rh22  1  0.397648  0.818430  0.391962  1
  Rh  Rh23  1  0.818235  0.393922  0.393922  1
