# generated using pymatgen
data_Ho5Er11(In3Co)2
_symmetry_space_group_name_H-M   'P 1'
_cell_length_a   10.29742901
_cell_length_b   10.29832122
_cell_length_c   6.95136900
_cell_angle_alpha   90.00145332
_cell_angle_beta   89.99657452
_cell_angle_gamma   119.99474530
_symmetry_Int_Tables_number   1
_chemical_formula_structural   Ho5Er11(In3Co)2
_chemical_formula_sum   'Ho5 Er11 In6 Co2'
_cell_volume   638.43870469
_cell_formula_units_Z   1
loop_
 _symmetry_equiv_pos_site_id
 _symmetry_equiv_pos_as_xyz
  1  'x, y, z'
loop_
 _atom_site_type_symbol
 _atom_site_label
 _atom_site_symmetry_multiplicity
 _atom_site_fract_x
 _atom_site_fract_y
 _atom_site_fract_z
 _atom_site_occupancy
  Ho  Ho0  1  0.534396  0.068781  0.791306  1
  Ho  Ho1  1  0.931216  0.465618  0.791324  1
  Ho  Ho2  1  0.534319  0.465689  0.791356  1
  Ho  Ho3  1  0.465599  0.931130  0.291257  1
  Ho  Ho4  1  0.068871  0.534405  0.291254  1
  Er  Er5  1  0.465487  0.534493  0.291504  1
  Er  Er6  1  0.821588  0.643538  0.499445  1
  Er  Er7  1  0.356486  0.178409  0.499418  1
  Er  Er8  1  0.821792  0.178216  0.499593  1
  Er  Er9  1  0.178348  0.356439  0.999760  1
  Er  Er10  1  0.643554  0.821673  0.999734  1
  Er  Er11  1  0.178188  0.821900  0.999634  1
  Er  Er12  1  0.666549  0.333413  0.182513  1
  Er  Er13  1  0.333451  0.666530  0.682342  1
  Er  Er14  1  0.000047  0.999959  0.779465  1
  Er  Er15  1  0.999979  0.000006  0.279496  1
  In  In16  1  0.837320  0.674745  0.038443  1
  In  In17  1  0.325231  0.162613  0.038370  1
  In  In18  1  0.837330  0.162607  0.038316  1
  In  In19  1  0.162892  0.325445  0.538138  1
  In  In20  1  0.674578  0.837115  0.538212  1
  In  In21  1  0.162585  0.837416  0.538311  1
  Co  Co22  1  0.666675  0.333354  0.568285  1
  Co  Co23  1  0.333517  0.666505  0.068430  1
