# generated using pymatgen
data_Tb3Dy7(Hg2Pd)4
_symmetry_space_group_name_H-M   'P 1'
_cell_length_a   3.61028700
_cell_length_b   7.97339383
_cell_length_c   18.17795100
_cell_angle_alpha   90.05615041
_cell_angle_beta   90.00000000
_cell_angle_gamma   90.00000000
_symmetry_Int_Tables_number   1
_chemical_formula_structural   Tb3Dy7(Hg2Pd)4
_chemical_formula_sum   'Tb3 Dy7 Hg8 Pd4'
_cell_volume   523.27461048
_cell_formula_units_Z   1
loop_
 _symmetry_equiv_pos_site_id
 _symmetry_equiv_pos_as_xyz
  1  'x, y, z'
loop_
 _atom_site_type_symbol
 _atom_site_label
 _atom_site_symmetry_multiplicity
 _atom_site_fract_x
 _atom_site_fract_y
 _atom_site_fract_z
 _atom_site_occupancy
  Tb  Tb0  1  0.000000  0.500660  0.500133  1
  Tb  Tb1  1  0.000000  0.999538  0.999805  1
  Tb  Tb2  1  0.000000  0.732717  0.285739  1
  Dy  Dy3  1  0.000000  0.267620  0.714326  1
  Dy  Dy4  1  0.000000  0.767285  0.785773  1
  Dy  Dy5  1  0.000000  0.231730  0.213907  1
  Dy  Dy6  1  0.000000  0.613080  0.084061  1
  Dy  Dy7  1  0.000000  0.385881  0.915278  1
  Dy  Dy8  1  0.000000  0.886591  0.584919  1
  Dy  Dy9  1  0.000000  0.114807  0.416044  1
  Hg  Hg10  1  0.500000  0.710281  0.935343  1
  Hg  Hg11  1  0.500000  0.288576  0.064016  1
  Hg  Hg12  1  0.500000  0.790898  0.436274  1
  Hg  Hg13  1  0.500000  0.211192  0.564851  1
  Hg  Hg14  1  0.500000  0.585700  0.648692  1
  Hg  Hg15  1  0.500000  0.413598  0.351149  1
  Hg  Hg16  1  0.500000  0.914371  0.148551  1
  Hg  Hg17  1  0.500000  0.085318  0.851388  1
  Pd  Pd18  1  0.500000  0.521048  0.195462  1
  Pd  Pd19  1  0.500000  0.476373  0.803610  1
  Pd  Pd20  1  0.500000  0.976847  0.696705  1
  Pd  Pd21  1  0.500000  0.025887  0.303974  1
