# generated using pymatgen
data_Y10GaBi3As2
_symmetry_space_group_name_H-M   'P 1'
_cell_length_a   12.10273600
_cell_length_b   9.10470183
_cell_length_c   8.03240312
_cell_angle_alpha   89.70201195
_cell_angle_beta   90.00000000
_cell_angle_gamma   90.00000000
_symmetry_Int_Tables_number   1
_chemical_formula_structural   Y10GaBi3As2
_chemical_formula_sum   'Y20 Ga2 Bi6 As4'
_cell_volume   885.09300826
_cell_formula_units_Z   2
loop_
 _symmetry_equiv_pos_site_id
 _symmetry_equiv_pos_as_xyz
  1  'x, y, z'
loop_
 _atom_site_type_symbol
 _atom_site_label
 _atom_site_symmetry_multiplicity
 _atom_site_fract_x
 _atom_site_fract_y
 _atom_site_fract_z
 _atom_site_occupancy
  Y  Y0  1  0.569240  0.048167  0.317419  1
  Y  Y1  1  0.069240  0.451833  0.182581  1
  Y  Y2  1  0.432260  0.547452  0.688948  1
  Y  Y3  1  0.932260  0.952548  0.811052  1
  Y  Y4  1  0.436142  0.948906  0.688380  1
  Y  Y5  1  0.936142  0.551094  0.811620  1
  Y  Y6  1  0.566911  0.449020  0.314910  1
  Y  Y7  1  0.066911  0.050980  0.185090  1
  Y  Y8  1  0.713263  0.237356  0.648544  1
  Y  Y9  1  0.213263  0.262644  0.851456  1
  Y  Y10  1  0.288499  0.738383  0.335442  1
  Y  Y11  1  0.788499  0.761617  0.164558  1
  Y  Y12  1  0.494644  0.265291  0.967767  1
  Y  Y13  1  0.994644  0.234709  0.532233  1
  Y  Y14  1  0.492864  0.731742  0.038649  1
  Y  Y15  1  0.992864  0.768258  0.461351  1
  Y  Y16  1  0.796905  0.235802  0.151621  1
  Y  Y17  1  0.296905  0.264198  0.348379  1
  Y  Y18  1  0.209835  0.739788  0.870937  1
  Y  Y19  1  0.709835  0.760212  0.629063  1
  Ga  Ga20  1  0.827104  0.006930  0.432568  1
  Ga  Ga21  1  0.327104  0.493070  0.067432  1
  Bi  Bi22  1  0.165646  0.508557  0.570246  1
  Bi  Bi23  1  0.665646  0.991443  0.929754  1
  Bi  Bi24  1  0.180121  0.992037  0.571253  1
  Bi  Bi25  1  0.680121  0.507963  0.928747  1
  Bi  Bi26  1  0.828951  0.492456  0.427332  1
  Bi  Bi27  1  0.328951  0.007544  0.072668  1
  As  As28  1  0.980785  0.251697  0.922971  1
  As  As29  1  0.480785  0.248303  0.577029  1
  As  As30  1  0.016830  0.750378  0.076899  1
  As  As31  1  0.516830  0.749622  0.423101  1
