# generated using pymatgen
data_Tb8Sn(Pd7Pt5)2
_symmetry_space_group_name_H-M   'P 1'
_cell_length_a   8.42033000
_cell_length_b   8.42471308
_cell_length_c   8.41474808
_cell_angle_alpha   90.01579427
_cell_angle_beta   90.00000000
_cell_angle_gamma   90.00000000
_symmetry_Int_Tables_number   1
_chemical_formula_structural   Tb8Sn(Pd7Pt5)2
_chemical_formula_sum   'Tb8 Sn1 Pd14 Pt10'
_cell_volume   596.93264939
_cell_formula_units_Z   1
loop_
 _symmetry_equiv_pos_site_id
 _symmetry_equiv_pos_as_xyz
  1  'x, y, z'
loop_
 _atom_site_type_symbol
 _atom_site_label
 _atom_site_symmetry_multiplicity
 _atom_site_fract_x
 _atom_site_fract_y
 _atom_site_fract_z
 _atom_site_occupancy
  Tb  Tb0  1  0.253514  0.253125  0.253281  1
  Tb  Tb1  1  0.747174  0.746125  0.747058  1
  Tb  Tb2  1  0.746730  0.746940  0.253006  1
  Tb  Tb3  1  0.746681  0.253871  0.746685  1
  Tb  Tb4  1  0.253319  0.253871  0.746685  1
  Tb  Tb5  1  0.253270  0.746940  0.253006  1
  Tb  Tb6  1  0.252826  0.746125  0.747058  1
  Tb  Tb7  1  0.746486  0.253125  0.253281  1
  Sn  Sn8  1  0.000000  0.000171  0.000331  1
  Pd  Pd9  1  0.265000  0.000040  0.500281  1
  Pd  Pd10  1  0.500000  0.000044  0.735217  1
  Pd  Pd11  1  0.735000  0.000040  0.500281  1
  Pd  Pd12  1  0.000000  0.500024  0.264391  1
  Pd  Pd13  1  0.000000  0.500054  0.735696  1
  Pd  Pd14  1  0.500000  0.745519  0.499852  1
  Pd  Pd15  1  0.500000  0.500100  0.254657  1
  Pd  Pd16  1  0.500000  0.500065  0.745213  1
  Pd  Pd17  1  0.308155  0.999948  0.999538  1
  Pd  Pd18  1  0.691845  0.999948  0.999538  1
  Pd  Pd19  1  0.000000  0.308304  0.999906  1
  Pd  Pd20  1  0.000000  0.691996  0.999967  1
  Pd  Pd21  1  0.000000  0.999898  0.308391  1
  Pd  Pd22  1  0.000000  0.999958  0.691980  1
  Pt  Pt23  1  0.264098  0.500061  0.999968  1
  Pt  Pt24  1  0.735902  0.500061  0.999968  1
  Pt  Pt25  1  0.000000  0.264218  0.500066  1
  Pt  Pt26  1  0.500000  0.264074  0.999945  1
  Pt  Pt27  1  0.000000  0.735437  0.500067  1
  Pt  Pt28  1  0.500000  0.735832  0.999972  1
  Pt  Pt29  1  0.500000  0.000144  0.264806  1
  Pt  Pt30  1  0.253796  0.499964  0.500065  1
  Pt  Pt31  1  0.746204  0.499964  0.500065  1
  Pt  Pt32  1  0.500000  0.254014  0.499778  1
