# generated using pymatgen
data_Y3Ho3TiAl23Os8
_symmetry_space_group_name_H-M   'P 1'
_cell_length_a   8.85501904
_cell_length_b   8.85639040
_cell_length_c   9.56144000
_cell_angle_alpha   90.00096864
_cell_angle_beta   90.00060380
_cell_angle_gamma   119.98387652
_symmetry_Int_Tables_number   1
_chemical_formula_structural   Y3Ho3TiAl23Os8
_chemical_formula_sum   'Y3 Ho3 Ti1 Al23 Os8'
_cell_volume   649.48739172
_cell_formula_units_Z   1
loop_
 _symmetry_equiv_pos_site_id
 _symmetry_equiv_pos_as_xyz
  1  'x, y, z'
loop_
 _atom_site_type_symbol
 _atom_site_label
 _atom_site_symmetry_multiplicity
 _atom_site_fract_x
 _atom_site_fract_y
 _atom_site_fract_z
 _atom_site_occupancy
  Y  Y0  1  0.385696  0.192901  0.748299  1
  Y  Y1  1  0.193651  0.806379  0.250685  1
  Y  Y2  1  0.807217  0.192906  0.748263  1
  Ho  Ho3  1  0.193979  0.387765  0.250533  1
  Ho  Ho4  1  0.806986  0.613942  0.748109  1
  Ho  Ho5  1  0.612212  0.806032  0.250544  1
  Ti  Ti6  1  0.333445  0.666609  0.991780  1
  Al  Al7  1  0.666750  0.333479  0.981613  1
  Al  Al8  1  0.666770  0.333413  0.516604  1
  Al  Al9  1  0.333438  0.666653  0.482127  1
  Al  Al10  1  0.162479  0.325032  0.574758  1
  Al  Al11  1  0.836996  0.674299  0.424810  1
  Al  Al12  1  0.675088  0.837444  0.574868  1
  Al  Al13  1  0.836732  0.673712  0.076395  1
  Al  Al14  1  0.325764  0.162998  0.424578  1
  Al  Al15  1  0.159659  0.319444  0.926475  1
  Al  Al16  1  0.162346  0.837383  0.575134  1
  Al  Al17  1  0.326335  0.163267  0.076635  1
  Al  Al18  1  0.837132  0.162786  0.424471  1
  Al  Al19  1  0.680655  0.840215  0.926329  1
  Al  Al20  1  0.836877  0.163073  0.076742  1
  Al  Al21  1  0.159545  0.840096  0.926083  1
  Al  Al22  1  0.561754  0.123046  0.253021  1
  Al  Al23  1  0.441016  0.882006  0.749977  1
  Al  Al24  1  0.876949  0.438256  0.253019  1
  Al  Al25  1  0.117734  0.559107  0.750025  1
  Al  Al26  1  0.561432  0.438595  0.253031  1
  Al  Al27  1  0.441378  0.559135  0.750012  1
  Al  Al28  1  0.999622  0.000368  0.250005  1
  Al  Al29  1  0.999643  0.999318  0.749356  1
  Os  Os30  1  0.499217  0.997955  0.002857  1
  Os  Os31  1  0.001904  0.500898  0.002679  1
  Os  Os32  1  0.499619  0.998886  0.502416  1
  Os  Os33  1  0.499139  0.501230  0.002933  1
  Os  Os34  1  0.000998  0.500559  0.502638  1
  Os  Os35  1  0.499711  0.500752  0.502488  1
  Os  Os36  1  0.000072  0.000028  0.000233  1
  Os  Os37  1  0.000062  0.000031  0.499477  1
