# generated using pymatgen
data_NdTa8AlS16
_symmetry_space_group_name_H-M   'P 1'
_cell_length_a   6.66015700
_cell_length_b   6.66015625
_cell_length_c   12.97226800
_cell_angle_alpha   90.00000000
_cell_angle_beta   90.00000000
_cell_angle_gamma   120.00000869
_symmetry_Int_Tables_number   1
_chemical_formula_structural   NdTa8AlS16
_chemical_formula_sum   'Nd1 Ta8 Al1 S16'
_cell_volume   498.32811588
_cell_formula_units_Z   1
loop_
 _symmetry_equiv_pos_site_id
 _symmetry_equiv_pos_as_xyz
  1  'x, y, z'
loop_
 _atom_site_type_symbol
 _atom_site_label
 _atom_site_symmetry_multiplicity
 _atom_site_fract_x
 _atom_site_fract_y
 _atom_site_fract_z
 _atom_site_occupancy
  Nd  Nd0  1  0.000000  0.000000  0.500000  1
  Ta  Ta1  1  0.505626  0.494374  0.770274  1
  Ta  Ta2  1  0.011250  0.505626  0.229726  1
  Ta  Ta3  1  0.494374  0.988750  0.229726  1
  Ta  Ta4  1  0.505626  0.011250  0.770274  1
  Ta  Ta5  1  0.988750  0.494374  0.770274  1
  Ta  Ta6  1  0.494374  0.505626  0.229726  1
  Ta  Ta7  1  0.000000  0.000000  0.766783  1
  Ta  Ta8  1  0.000000  0.000000  0.233217  1
  Al  Al9  1  0.000000  0.000000  0.000000  1
  S  S10  1  0.828519  0.171481  0.350345  1
  S  S11  1  0.828519  0.657037  0.350345  1
  S  S12  1  0.342963  0.171481  0.350345  1
  S  S13  1  0.664661  0.832330  0.889555  1
  S  S14  1  0.171481  0.342963  0.649655  1
  S  S15  1  0.167670  0.832330  0.889555  1
  S  S16  1  0.167670  0.335339  0.889555  1
  S  S17  1  0.832330  0.167670  0.110445  1
  S  S18  1  0.335339  0.167670  0.110445  1
  S  S19  1  0.657037  0.828519  0.649655  1
  S  S20  1  0.333333  0.666667  0.107465  1
  S  S21  1  0.666667  0.333333  0.644997  1
  S  S22  1  0.666667  0.333333  0.892535  1
  S  S23  1  0.333333  0.666667  0.355003  1
  S  S24  1  0.832330  0.664661  0.110445  1
  S  S25  1  0.171481  0.828519  0.649655  1
