# generated using pymatgen
data_Tb2EuY4RuI12
_symmetry_space_group_name_H-M   'P 1'
_cell_length_a   9.81320541
_cell_length_b   9.86787078
_cell_length_c   9.80737723
_cell_angle_alpha   106.54759746
_cell_angle_beta   106.51948461
_cell_angle_gamma   106.54724673
_symmetry_Int_Tables_number   1
_chemical_formula_structural   Tb2EuY4RuI12
_chemical_formula_sum   'Tb2 Eu1 Y4 Ru1 I12'
_cell_volume   800.67712909
_cell_formula_units_Z   1
loop_
 _symmetry_equiv_pos_site_id
 _symmetry_equiv_pos_as_xyz
  1  'x, y, z'
loop_
 _atom_site_type_symbol
 _atom_site_label
 _atom_site_symmetry_multiplicity
 _atom_site_fract_x
 _atom_site_fract_y
 _atom_site_fract_z
 _atom_site_occupancy
  Tb  Tb0  1  0.022454  0.093156  0.292106  1
  Tb  Tb1  1  0.291434  0.022217  0.093509  1
  Eu  Eu2  1  0.499996  0.500073  0.499907  1
  Y  Y3  1  0.902177  0.694822  0.977268  1
  Y  Y4  1  0.977662  0.906993  0.708177  1
  Y  Y5  1  0.708721  0.977486  0.906550  1
  Y  Y6  1  0.097439  0.304747  0.022529  1
  Ru  Ru7  1  0.000720  0.000066  0.000955  1
  I  I8  1  0.627733  0.858919  0.549140  1
  I  I9  1  0.548153  0.629461  0.860222  1
  I  I10  1  0.860698  0.550222  0.627900  1
  I  I11  1  0.372711  0.141701  0.451589  1
  I  I12  1  0.451505  0.370792  0.139503  1
  I  I13  1  0.139465  0.450474  0.371741  1
  I  I14  1  0.681171  0.074439  0.222940  1
  I  I15  1  0.224811  0.678957  0.074802  1
  I  I16  1  0.073918  0.222580  0.679151  1
  I  I17  1  0.318786  0.925424  0.775938  1
  I  I18  1  0.774576  0.320515  0.924674  1
  I  I19  1  0.925870  0.776956  0.321398  1
