# generated using pymatgen
data_Ho9Tm11Sn16
_symmetry_space_group_name_H-M   'P 1'
_cell_length_a   7.96507827
_cell_length_b   8.10045692
_cell_length_c   15.30956834
_cell_angle_alpha   90.01327170
_cell_angle_beta   90.04911133
_cell_angle_gamma   89.99637062
_symmetry_Int_Tables_number   1
_chemical_formula_structural   Ho9Tm11Sn16
_chemical_formula_sum   'Ho9 Tm11 Sn16'
_cell_volume   987.78479813
_cell_formula_units_Z   1
loop_
 _symmetry_equiv_pos_site_id
 _symmetry_equiv_pos_as_xyz
  1  'x, y, z'
loop_
 _atom_site_type_symbol
 _atom_site_label
 _atom_site_symmetry_multiplicity
 _atom_site_fract_x
 _atom_site_fract_y
 _atom_site_fract_z
 _atom_site_occupancy
  Ho  Ho0  1  0.864581  0.662811  0.877536  1
  Ho  Ho1  1  0.519523  0.320891  0.903683  1
  Ho  Ho2  1  0.018216  0.178755  0.595553  1
  Ho  Ho3  1  0.481114  0.678628  0.404064  1
  Ho  Ho4  1  0.981022  0.821641  0.096835  1
  Ho  Ho5  1  0.481430  0.678436  0.096439  1
  Ho  Ho6  1  0.981808  0.821139  0.404088  1
  Ho  Ho7  1  0.518287  0.321355  0.595777  1
  Ho  Ho8  1  0.018623  0.178918  0.903794  1
  Tm  Tm9  1  0.363723  0.837541  0.876284  1
  Tm  Tm10  1  0.863525  0.662070  0.622975  1
  Tm  Tm11  1  0.636256  0.162376  0.376725  1
  Tm  Tm12  1  0.136076  0.338011  0.123133  1
  Tm  Tm13  1  0.635198  0.162472  0.124275  1
  Tm  Tm14  1  0.136161  0.337370  0.376920  1
  Tm  Tm15  1  0.364226  0.837488  0.623118  1
  Tm  Tm16  1  0.194990  0.503832  0.749802  1
  Tm  Tm17  1  0.694622  0.996507  0.749766  1
  Tm  Tm18  1  0.804976  0.495907  0.250225  1
  Tm  Tm19  1  0.304933  0.003618  0.249966  1
  Sn  Sn20  1  0.296499  0.038649  0.041268  1
  Sn  Sn21  1  0.796661  0.461061  0.458567  1
  Sn  Sn22  1  0.703424  0.960796  0.541097  1
  Sn  Sn23  1  0.206223  0.537685  0.958478  1
  Sn  Sn24  1  0.702516  0.963172  0.959016  1
  Sn  Sn25  1  0.203397  0.539121  0.541136  1
  Sn  Sn26  1  0.296950  0.038733  0.458543  1
  Sn  Sn27  1  0.795713  0.460407  0.042274  1
  Sn  Sn28  1  0.560454  0.618839  0.749507  1
  Sn  Sn29  1  0.060433  0.881853  0.749343  1
  Sn  Sn30  1  0.438192  0.381596  0.250629  1
  Sn  Sn31  1  0.939818  0.118286  0.250045  1
  Sn  Sn32  1  0.328546  0.150228  0.749503  1
  Sn  Sn33  1  0.829050  0.349971  0.749117  1
  Sn  Sn34  1  0.671357  0.850336  0.250532  1
  Sn  Sn35  1  0.171477  0.649504  0.249982  1
