# generated using pymatgen
data_KGaSiSe4
_symmetry_space_group_name_H-M   'P 1'
_cell_length_a   16.92190500
_cell_length_b   7.24859804
_cell_length_c   7.63152950
_cell_angle_alpha   69.17594394
_cell_angle_beta   90.00000000
_cell_angle_gamma   90.00000000
_symmetry_Int_Tables_number   1
_chemical_formula_structural   KGaSiSe4
_chemical_formula_sum   'K4 Ga4 Si4 Se16'
_cell_volume   874.93578611
_cell_formula_units_Z   4
loop_
 _symmetry_equiv_pos_site_id
 _symmetry_equiv_pos_as_xyz
  1  'x, y, z'
loop_
 _atom_site_type_symbol
 _atom_site_label
 _atom_site_symmetry_multiplicity
 _atom_site_fract_x
 _atom_site_fract_y
 _atom_site_fract_z
 _atom_site_occupancy
  K  K0  1  0.394710  0.973998  0.184190  1
  K  K1  1  0.894710  0.026002  0.815810  1
  K  K2  1  0.603350  0.514844  0.816719  1
  K  K3  1  0.103350  0.485156  0.183281  1
  Ga  Ga4  1  0.584111  0.161074  0.478499  1
  Ga  Ga5  1  0.084111  0.838926  0.521501  1
  Ga  Ga6  1  0.273801  0.593684  0.708762  1
  Ga  Ga7  1  0.773801  0.406316  0.291238  1
  Si  Si8  1  0.421022  0.327014  0.534633  1
  Si  Si9  1  0.921022  0.672986  0.465367  1
  Si  Si10  1  0.725402  0.909869  0.268513  1
  Si  Si11  1  0.225402  0.090131  0.731487  1
  Se  Se12  1  0.597506  0.879500  0.376129  1
  Se  Se13  1  0.097506  0.120500  0.623871  1
  Se  Se14  1  0.412890  0.602322  0.616546  1
  Se  Se15  1  0.912890  0.397678  0.383454  1
  Se  Se16  1  0.800246  0.778015  0.541322  1
  Se  Se17  1  0.300246  0.221985  0.458678  1
  Se  Se18  1  0.201385  0.724432  0.422652  1
  Se  Se19  1  0.701385  0.275568  0.577348  1
  Se  Se20  1  0.762667  0.221832  0.078384  1
  Se  Se21  1  0.262667  0.778168  0.921616  1
  Se  Se22  1  0.237965  0.263592  0.929062  1
  Se  Se23  1  0.737965  0.736408  0.070938  1
  Se  Se24  1  0.993833  0.913949  0.248292  1
  Se  Se25  1  0.493833  0.086051  0.751708  1
  Se  Se26  1  0.991111  0.603157  0.739418  1
  Se  Se27  1  0.491111  0.396843  0.260582  1
