# generated using pymatgen
data_NaNdCuPt3
_symmetry_space_group_name_H-M   'P 1'
_cell_length_a   5.49169499
_cell_length_b   5.49169419
_cell_length_c   5.27727638
_cell_angle_alpha   58.64659688
_cell_angle_beta   58.64660336
_cell_angle_gamma   59.99999931
_symmetry_Int_Tables_number   1
_chemical_formula_structural   NaNdCuPt3
_chemical_formula_sum   'Na1 Nd1 Cu1 Pt3'
_cell_volume   110.18275837
_cell_formula_units_Z   1
loop_
 _symmetry_equiv_pos_site_id
 _symmetry_equiv_pos_as_xyz
  1  'x, y, z'
loop_
 _atom_site_type_symbol
 _atom_site_label
 _atom_site_symmetry_multiplicity
 _atom_site_fract_x
 _atom_site_fract_y
 _atom_site_fract_z
 _atom_site_occupancy
  Na  Na0  1  0.251796  0.251796  0.244612  1
  Nd  Nd1  1  0.001967  0.001967  0.994100  1
  Cu  Cu2  1  0.623597  0.623597  0.129209  1
  Pt  Pt3  1  0.623518  0.125605  0.627359  1
  Pt  Pt4  1  0.125605  0.623518  0.627359  1
  Pt  Pt5  1  0.623518  0.623518  0.627359  1
