# generated using pymatgen
data_Y2Er2Si4TcRh3
_symmetry_space_group_name_H-M   'P 1'
_cell_length_a   4.30776400
_cell_length_b   6.93350036
_cell_length_c   7.26100014
_cell_angle_alpha   89.95283652
_cell_angle_beta   90.00000000
_cell_angle_gamma   90.00000000
_symmetry_Int_Tables_number   1
_chemical_formula_structural   Y2Er2Si4TcRh3
_chemical_formula_sum   'Y2 Er2 Si4 Tc1 Rh3'
_cell_volume   216.87063092
_cell_formula_units_Z   1
loop_
 _symmetry_equiv_pos_site_id
 _symmetry_equiv_pos_as_xyz
  1  'x, y, z'
loop_
 _atom_site_type_symbol
 _atom_site_label
 _atom_site_symmetry_multiplicity
 _atom_site_fract_x
 _atom_site_fract_y
 _atom_site_fract_z
 _atom_site_occupancy
  Y  Y0  1  0.750000  0.510821  0.311883  1
  Y  Y1  1  0.750000  0.003561  0.184215  1
  Er  Er2  1  0.250000  0.491185  0.691780  1
  Er  Er3  1  0.250000  0.995283  0.812385  1
  Si  Si4  1  0.250000  0.298245  0.107490  1
  Si  Si5  1  0.750000  0.700193  0.884029  1
  Si  Si6  1  0.250000  0.799122  0.404124  1
  Si  Si7  1  0.750000  0.199542  0.605479  1
  Tc  Tc8  1  0.750000  0.846879  0.569573  1
  Rh  Rh9  1  0.250000  0.157221  0.433334  1
  Rh  Rh10  1  0.750000  0.344324  0.931567  1
  Rh  Rh11  1  0.250000  0.653624  0.064140  1
