# generated using pymatgen
data_Pr8Dy2Sn5Sb3
_symmetry_space_group_name_H-M   'P 1'
_cell_length_a   8.33470000
_cell_length_b   8.37520083
_cell_length_c   15.82735600
_cell_angle_alpha   90.28115076
_cell_angle_beta   90.00000000
_cell_angle_gamma   90.00000000
_symmetry_Int_Tables_number   1
_chemical_formula_structural   Pr8Dy2Sn5Sb3
_chemical_formula_sum   'Pr16 Dy4 Sn10 Sb6'
_cell_volume   1104.81190307
_cell_formula_units_Z   2
loop_
 _symmetry_equiv_pos_site_id
 _symmetry_equiv_pos_as_xyz
  1  'x, y, z'
loop_
 _atom_site_type_symbol
 _atom_site_label
 _atom_site_symmetry_multiplicity
 _atom_site_fract_x
 _atom_site_fract_y
 _atom_site_fract_z
 _atom_site_occupancy
  Pr  Pr0  1  0.405010  0.835960  0.885509  1
  Pr  Pr1  1  0.905010  0.664040  0.614491  1
  Pr  Pr2  1  0.596544  0.161888  0.384316  1
  Pr  Pr3  1  0.096544  0.338112  0.115684  1
  Pr  Pr4  1  0.598510  0.164016  0.114964  1
  Pr  Pr5  1  0.098510  0.335984  0.385036  1
  Pr  Pr6  1  0.400713  0.837093  0.615892  1
  Pr  Pr7  1  0.900713  0.662907  0.884108  1
  Pr  Pr8  1  0.563837  0.332749  0.890936  1
  Pr  Pr9  1  0.063837  0.167251  0.609064  1
  Pr  Pr10  1  0.438535  0.670260  0.391575  1
  Pr  Pr11  1  0.938535  0.829740  0.108425  1
  Pr  Pr12  1  0.437809  0.667195  0.108828  1
  Pr  Pr13  1  0.937809  0.832805  0.391172  1
  Pr  Pr14  1  0.559108  0.326293  0.607329  1
  Pr  Pr15  1  0.059108  0.173707  0.892671  1
  Dy  Dy16  1  0.233475  0.499012  0.749780  1
  Dy  Dy17  1  0.733475  0.000988  0.750220  1
  Dy  Dy18  1  0.766756  0.500861  0.249003  1
  Dy  Dy19  1  0.266756  0.999139  0.250997  1
  Sn  Sn20  1  0.261880  0.011720  0.451364  1
  Sn  Sn21  1  0.761880  0.488280  0.048636  1
  Sn  Sn22  1  0.600414  0.627215  0.748544  1
  Sn  Sn23  1  0.100414  0.872785  0.751456  1
  Sn  Sn24  1  0.399487  0.371311  0.250232  1
  Sn  Sn25  1  0.899487  0.128689  0.249768  1
  Sn  Sn26  1  0.364999  0.137473  0.751419  1
  Sn  Sn27  1  0.864999  0.362527  0.748581  1
  Sn  Sn28  1  0.634972  0.861762  0.249402  1
  Sn  Sn29  1  0.134972  0.638238  0.250598  1
  Sb  Sb30  1  0.261425  0.011893  0.050314  1
  Sb  Sb31  1  0.761425  0.488107  0.449686  1
  Sb  Sb32  1  0.737293  0.987278  0.550745  1
  Sb  Sb33  1  0.237293  0.512722  0.949255  1
  Sb  Sb34  1  0.739233  0.989955  0.948763  1
  Sb  Sb35  1  0.239233  0.510045  0.551237  1
