# generated using pymatgen
data_Tb6DySn23Os6
_symmetry_space_group_name_H-M   'P 1'
_cell_length_a   9.88996918
_cell_length_b   9.88033615
_cell_length_c   10.13423131
_cell_angle_alpha   90.12147006
_cell_angle_beta   89.97564969
_cell_angle_gamma   120.04737237
_symmetry_Int_Tables_number   1
_chemical_formula_structural   Tb6DySn23Os6
_chemical_formula_sum   'Tb6 Dy1 Sn23 Os6'
_cell_volume   857.19474227
_cell_formula_units_Z   1
loop_
 _symmetry_equiv_pos_site_id
 _symmetry_equiv_pos_as_xyz
  1  'x, y, z'
loop_
 _atom_site_type_symbol
 _atom_site_label
 _atom_site_symmetry_multiplicity
 _atom_site_fract_x
 _atom_site_fract_y
 _atom_site_fract_z
 _atom_site_occupancy
  Tb  Tb0  1  0.999916  0.000094  0.000087  1
  Tb  Tb1  1  0.515540  0.484707  0.698047  1
  Tb  Tb2  1  0.484534  0.969086  0.302032  1
  Tb  Tb3  1  0.515439  0.030953  0.697944  1
  Tb  Tb4  1  0.030835  0.515304  0.301986  1
  Tb  Tb5  1  0.969107  0.484719  0.697993  1
  Dy  Dy6  1  0.484902  0.514856  0.301634  1
  Sn  Sn7  1  0.349574  0.000109  0.000108  1
  Sn  Sn8  1  0.650386  0.999945  0.999949  1
  Sn  Sn9  1  0.000066  0.349671  0.999968  1
  Sn  Sn10  1  0.999866  0.650360  0.000085  1
  Sn  Sn11  1  0.650255  0.650289  0.999964  1
  Sn  Sn12  1  0.349722  0.349745  0.999996  1
  Sn  Sn13  1  0.333332  0.666766  0.823752  1
  Sn  Sn14  1  0.666657  0.333189  0.176290  1
  Sn  Sn15  1  0.999961  0.000041  0.499952  1
  Sn  Sn16  1  0.780363  0.219233  0.462699  1
  Sn  Sn17  1  0.219622  0.780818  0.537257  1
  Sn  Sn18  1  0.780145  0.560803  0.462618  1
  Sn  Sn19  1  0.219895  0.439321  0.537155  1
  Sn  Sn20  1  0.438926  0.219517  0.462611  1
  Sn  Sn21  1  0.560988  0.780459  0.537153  1
  Sn  Sn22  1  0.333715  0.666190  0.127611  1
  Sn  Sn23  1  0.666594  0.333458  0.872871  1
  Sn  Sn24  1  0.117441  0.882891  0.275291  1
  Sn  Sn25  1  0.882455  0.117219  0.724639  1
  Sn  Sn26  1  0.117372  0.234707  0.275167  1
  Sn  Sn27  1  0.882897  0.765686  0.724929  1
  Sn  Sn28  1  0.765108  0.882703  0.275270  1
  Sn  Sn29  1  0.234534  0.117039  0.724788  1
  Os  Os30  1  0.830225  0.170074  0.201845  1
  Os  Os31  1  0.169845  0.829852  0.798229  1
  Os  Os32  1  0.829703  0.660246  0.202299  1
  Os  Os33  1  0.169968  0.339623  0.797745  1
  Os  Os34  1  0.340029  0.170580  0.202046  1
  Os  Os35  1  0.660086  0.829748  0.797988  1
