# generated using pymatgen
data_Lu2Re3W
_symmetry_space_group_name_H-M   'P 1'
_cell_length_a   5.42397101
_cell_length_b   5.42397175
_cell_length_c   8.75878400
_cell_angle_alpha   90.00000000
_cell_angle_beta   90.00000000
_cell_angle_gamma   119.98707286
_symmetry_Int_Tables_number   1
_chemical_formula_structural   Lu2Re3W
_chemical_formula_sum   'Lu4 Re6 W2'
_cell_volume   223.18540184
_cell_formula_units_Z   2
loop_
 _symmetry_equiv_pos_site_id
 _symmetry_equiv_pos_as_xyz
  1  'x, y, z'
loop_
 _atom_site_type_symbol
 _atom_site_label
 _atom_site_symmetry_multiplicity
 _atom_site_fract_x
 _atom_site_fract_y
 _atom_site_fract_z
 _atom_site_occupancy
  Lu  Lu0  1  0.666684  0.333316  0.562833  1
  Lu  Lu1  1  0.333316  0.666684  0.437167  1
  Lu  Lu2  1  0.333316  0.666684  0.062833  1
  Lu  Lu3  1  0.666684  0.333316  0.937167  1
  Re  Re4  1  0.171281  0.342493  0.750000  1
  Re  Re5  1  0.171369  0.828631  0.750000  1
  Re  Re6  1  0.657507  0.828719  0.750000  1
  Re  Re7  1  0.828719  0.657507  0.250000  1
  Re  Re8  1  0.828631  0.171369  0.250000  1
  Re  Re9  1  0.342493  0.171281  0.250000  1
  W  W10  1  0.000000  0.000000  0.500000  1
  W  W11  1  0.000000  0.000000  0.000000  1
