# generated using pymatgen
data_Ba4CdIn(ReN4)2
_symmetry_space_group_name_H-M   'P 1'
_cell_length_a   5.97402100
_cell_length_b   7.18178794
_cell_length_c   8.75258535
_cell_angle_alpha   58.15128047
_cell_angle_beta   90.00000000
_cell_angle_gamma   90.00000000
_symmetry_Int_Tables_number   1
_chemical_formula_structural   Ba4CdIn(ReN4)2
_chemical_formula_sum   'Ba4 Cd1 In1 Re2 N8'
_cell_volume   318.98523913
_cell_formula_units_Z   1
loop_
 _symmetry_equiv_pos_site_id
 _symmetry_equiv_pos_as_xyz
  1  'x, y, z'
loop_
 _atom_site_type_symbol
 _atom_site_label
 _atom_site_symmetry_multiplicity
 _atom_site_fract_x
 _atom_site_fract_y
 _atom_site_fract_z
 _atom_site_occupancy
  Ba  Ba0  1  0.250000  0.227136  0.094792  1
  Ba  Ba1  1  0.750000  0.772628  0.903377  1
  Ba  Ba2  1  0.750000  0.730678  0.371297  1
  Ba  Ba3  1  0.250000  0.278608  0.629818  1
  Cd  Cd4  1  0.250000  0.791218  0.604544  1
  In  In5  1  0.750000  0.214716  0.398395  1
  Re  Re6  1  0.250000  0.667741  0.180344  1
  Re  Re7  1  0.750000  0.329725  0.818473  1
  N  N8  1  0.500693  0.498058  0.779044  1
  N  N9  1  0.997552  0.497111  0.228577  1
  N  N10  1  0.502448  0.497111  0.228577  1
  N  N11  1  0.999307  0.498058  0.779044  1
  N  N12  1  0.750000  0.235066  0.656669  1
  N  N13  1  0.250000  0.773111  0.331982  1
  N  N14  1  0.750000  0.098562  0.048250  1
  N  N15  1  0.250000  0.890474  0.946817  1
