# generated using pymatgen
data_Li2CaPr7Ni2
_symmetry_space_group_name_H-M   'P 1'
_cell_length_a   7.42546830
_cell_length_b   12.90910500
_cell_length_c   15.86011331
_cell_angle_alpha   98.45085614
_cell_angle_beta   87.11829214
_cell_angle_gamma   115.46254026
_symmetry_Int_Tables_number   1
_chemical_formula_structural   Li2CaPr7Ni2
_chemical_formula_sum   'Li2 Ca1 Pr7 Ni2'
_cell_volume   1357.57313291
_cell_formula_units_Z   1
loop_
 _symmetry_equiv_pos_site_id
 _symmetry_equiv_pos_as_xyz
  1  'x, y, z'
loop_
 _atom_site_type_symbol
 _atom_site_label
 _atom_site_symmetry_multiplicity
 _atom_site_fract_x
 _atom_site_fract_y
 _atom_site_fract_z
 _atom_site_occupancy
  Li  Li0  1  0.206485  0.691685  0.773178  1
  Li  Li1  1  0.388362  0.714873  0.830607  1
  Ca  Ca2  1  0.127904  0.900545  0.639368  1
  Pr  Pr3  1  0.119036  0.263774  0.595251  1
  Pr  Pr4  1  0.017301  0.981130  0.563016  1
  Pr  Pr5  1  0.510152  0.031743  0.409865  1
  Pr  Pr6  1  0.532753  0.004969  0.482706  1
  Pr  Pr7  1  0.647826  0.707240  0.295105  1
  Pr  Pr8  1  0.351579  0.950442  0.417687  1
  Pr  Pr9  1  0.981058  0.715315  0.632223  1
  Ni  Ni10  1  0.465614  0.259622  0.790680  1
  Ni  Ni11  1  0.601721  0.106240  0.111575  1
