# generated using pymatgen
data_Dy11HoTc3Pt
_symmetry_space_group_name_H-M   'P 1'
_cell_length_a   6.31038726
_cell_length_b   7.41093137
_cell_length_c   9.17571103
_cell_angle_alpha   90.00602174
_cell_angle_beta   90.00763693
_cell_angle_gamma   89.97027039
_symmetry_Int_Tables_number   1
_chemical_formula_structural   Dy11HoTc3Pt
_chemical_formula_sum   'Dy11 Ho1 Tc3 Pt1'
_cell_volume   429.10983362
_cell_formula_units_Z   1
loop_
 _symmetry_equiv_pos_site_id
 _symmetry_equiv_pos_as_xyz
  1  'x, y, z'
loop_
 _atom_site_type_symbol
 _atom_site_label
 _atom_site_symmetry_multiplicity
 _atom_site_fract_x
 _atom_site_fract_y
 _atom_site_fract_z
 _atom_site_occupancy
  Dy  Dy0  1  0.329377  0.676312  0.066824  1
  Dy  Dy1  1  0.164961  0.177643  0.436209  1
  Dy  Dy2  1  0.667803  0.318178  0.558846  1
  Dy  Dy3  1  0.837262  0.827007  0.940197  1
  Dy  Dy4  1  0.667810  0.318157  0.941194  1
  Dy  Dy5  1  0.837172  0.826949  0.559816  1
  Dy  Dy6  1  0.329421  0.676314  0.433174  1
  Dy  Dy7  1  0.873085  0.542851  0.249969  1
  Dy  Dy8  1  0.623080  0.038833  0.249967  1
  Dy  Dy9  1  0.128392  0.455500  0.750035  1
  Dy  Dy10  1  0.371402  0.964745  0.750035  1
  Ho  Ho11  1  0.164962  0.177592  0.063752  1
  Tc  Tc12  1  0.037944  0.886059  0.249987  1
  Tc  Tc13  1  0.464190  0.387269  0.249949  1
  Tc  Tc14  1  0.957237  0.113562  0.750059  1
  Pt  Pt15  1  0.545903  0.613026  0.749989  1
