# generated using pymatgen
data_KSb12Ru3Au
_symmetry_space_group_name_H-M   'P 1'
_cell_length_a   8.22405496
_cell_length_b   8.20598056
_cell_length_c   8.22405506
_cell_angle_alpha   109.42670211
_cell_angle_beta   109.51570348
_cell_angle_gamma   109.42670310
_symmetry_Int_Tables_number   1
_chemical_formula_structural   KSb12Ru3Au
_chemical_formula_sum   'K1 Sb12 Ru3 Au1'
_cell_volume   427.48306048
_cell_formula_units_Z   1
loop_
 _symmetry_equiv_pos_site_id
 _symmetry_equiv_pos_as_xyz
  1  'x, y, z'
loop_
 _atom_site_type_symbol
 _atom_site_label
 _atom_site_symmetry_multiplicity
 _atom_site_fract_x
 _atom_site_fract_y
 _atom_site_fract_z
 _atom_site_occupancy
  K  K0  1  0.000000  0.000000  0.000000  1
  Sb  Sb1  1  0.162414  0.500409  0.358026  1
  Sb  Sb2  1  0.502682  0.662216  0.841445  1
  Sb  Sb3  1  0.358026  0.857617  0.195613  1
  Sb  Sb4  1  0.804387  0.662005  0.162414  1
  Sb  Sb5  1  0.661237  0.840466  0.502682  1
  Sb  Sb6  1  0.195613  0.337995  0.837586  1
  Sb  Sb7  1  0.641974  0.142383  0.804387  1
  Sb  Sb8  1  0.338763  0.159534  0.497318  1
  Sb  Sb9  1  0.497318  0.337784  0.158555  1
  Sb  Sb10  1  0.837586  0.499591  0.641974  1
  Sb  Sb11  1  0.841445  0.179229  0.338763  1
  Sb  Sb12  1  0.158555  0.820771  0.661237  1
  Ru  Ru13  1  0.500000  0.500000  0.500000  1
  Ru  Ru14  1  0.500000  0.000000  0.000000  1
  Ru  Ru15  1  0.000000  0.000000  0.500000  1
  Au  Au16  1  0.000000  0.500000  0.000000  1
