# generated using pymatgen
data_TmLu4(In2Rh)2
_symmetry_space_group_name_H-M   'P 1'
_cell_length_a   3.52094900
_cell_length_b   7.95179100
_cell_length_c   18.10303500
_cell_angle_alpha   90.00000000
_cell_angle_beta   90.00000000
_cell_angle_gamma   90.00000000
_symmetry_Int_Tables_number   1
_chemical_formula_structural   TmLu4(In2Rh)2
_chemical_formula_sum   'Tm2 Lu8 In8 Rh4'
_cell_volume   506.84606879
_cell_formula_units_Z   2
loop_
 _symmetry_equiv_pos_site_id
 _symmetry_equiv_pos_as_xyz
  1  'x, y, z'
loop_
 _atom_site_type_symbol
 _atom_site_label
 _atom_site_symmetry_multiplicity
 _atom_site_fract_x
 _atom_site_fract_y
 _atom_site_fract_z
 _atom_site_occupancy
  Tm  Tm0  1  0.000000  0.000000  0.000000  1
  Tm  Tm1  1  0.000000  0.500000  0.500000  1
  Lu  Lu2  1  0.000000  0.748267  0.777934  1
  Lu  Lu3  1  0.000000  0.251733  0.222066  1
  Lu  Lu4  1  0.000000  0.248267  0.722066  1
  Lu  Lu5  1  0.000000  0.751733  0.277934  1
  Lu  Lu6  1  0.000000  0.881294  0.587160  1
  Lu  Lu7  1  0.000000  0.118706  0.412840  1
  Lu  Lu8  1  0.000000  0.381294  0.912840  1
  Lu  Lu9  1  0.000000  0.618706  0.087160  1
  In  In10  1  0.500000  0.794774  0.433420  1
  In  In11  1  0.500000  0.205226  0.566580  1
  In  In12  1  0.500000  0.294774  0.066580  1
  In  In13  1  0.500000  0.705226  0.933420  1
  In  In14  1  0.500000  0.933003  0.148520  1
  In  In15  1  0.500000  0.066997  0.851480  1
  In  In16  1  0.500000  0.433003  0.351480  1
  In  In17  1  0.500000  0.566997  0.648520  1
  Rh  Rh18  1  0.500000  0.970087  0.695931  1
  Rh  Rh19  1  0.500000  0.029913  0.304069  1
  Rh  Rh20  1  0.500000  0.470087  0.804069  1
  Rh  Rh21  1  0.500000  0.529913  0.195931  1
