# generated using pymatgen
data_K(NpS3)2
_symmetry_space_group_name_H-M   'P 1'
_cell_length_a   11.01507565
_cell_length_b   11.01507566
_cell_length_c   11.01507580
_cell_angle_alpha   159.31425568
_cell_angle_beta   153.15960435
_cell_angle_gamma   34.12663406
_symmetry_Int_Tables_number   1
_chemical_formula_structural   K(NpS3)2
_chemical_formula_sum   'K1 Np2 S6'
_cell_volume   212.95456835
_cell_formula_units_Z   1
loop_
 _symmetry_equiv_pos_site_id
 _symmetry_equiv_pos_as_xyz
  1  'x, y, z'
loop_
 _atom_site_type_symbol
 _atom_site_label
 _atom_site_symmetry_multiplicity
 _atom_site_fract_x
 _atom_site_fract_y
 _atom_site_fract_z
 _atom_site_occupancy
  K  K0  1  0.000000  0.000000  0.000000  1
  Np  Np1  1  0.681211  0.181211  0.500000  1
  Np  Np2  1  0.318789  0.818789  0.500000  1
  S  S3  1  0.771109  0.771109  0.000000  1
  S  S4  1  0.228891  0.228891  0.000000  1
  S  S5  1  0.848775  0.608597  0.240178  1
  S  S6  1  0.151225  0.391403  0.759822  1
  S  S7  1  0.631581  0.391403  0.240178  1
  S  S8  1  0.368419  0.608597  0.759822  1
