# generated using pymatgen
data_Yb4Lu(AlSb3)2
_symmetry_space_group_name_H-M   'P 1'
_cell_length_a   4.37914800
_cell_length_b   7.52468000
_cell_length_c   22.72808700
_cell_angle_alpha   90.00000000
_cell_angle_beta   90.00000000
_cell_angle_gamma   90.00000000
_symmetry_Int_Tables_number   1
_chemical_formula_structural   Yb4Lu(AlSb3)2
_chemical_formula_sum   'Yb8 Lu2 Al4 Sb12'
_cell_volume   748.92881740
_cell_formula_units_Z   2
loop_
 _symmetry_equiv_pos_site_id
 _symmetry_equiv_pos_as_xyz
  1  'x, y, z'
loop_
 _atom_site_type_symbol
 _atom_site_label
 _atom_site_symmetry_multiplicity
 _atom_site_fract_x
 _atom_site_fract_y
 _atom_site_fract_z
 _atom_site_occupancy
  Yb  Yb0  1  0.000000  0.458010  0.915170  1
  Yb  Yb1  1  0.000000  0.274955  0.747389  1
  Yb  Yb2  1  0.000000  0.774955  0.752611  1
  Yb  Yb3  1  0.000000  0.541990  0.084830  1
  Yb  Yb4  1  0.000000  0.958010  0.584830  1
  Yb  Yb5  1  0.000000  0.725045  0.252611  1
  Yb  Yb6  1  0.000000  0.041990  0.415170  1
  Yb  Yb7  1  0.000000  0.225045  0.247389  1
  Lu  Lu8  1  0.000000  0.000000  0.000000  1
  Lu  Lu9  1  0.000000  0.500000  0.500000  1
  Al  Al10  1  0.500000  0.823126  0.880730  1
  Al  Al11  1  0.500000  0.176874  0.119270  1
  Al  Al12  1  0.500000  0.676874  0.380730  1
  Al  Al13  1  0.500000  0.323126  0.619270  1
  Sb  Sb14  1  0.500000  0.778449  0.496667  1
  Sb  Sb15  1  0.000000  0.464916  0.364905  1
  Sb  Sb16  1  0.000000  0.964916  0.135095  1
  Sb  Sb17  1  0.500000  0.521701  0.813719  1
  Sb  Sb18  1  0.500000  0.478299  0.186281  1
  Sb  Sb19  1  0.000000  0.035084  0.864905  1
  Sb  Sb20  1  0.000000  0.535084  0.635095  1
  Sb  Sb21  1  0.500000  0.978299  0.313719  1
  Sb  Sb22  1  0.500000  0.221551  0.503333  1
  Sb  Sb23  1  0.500000  0.021701  0.686281  1
  Sb  Sb24  1  0.500000  0.278449  0.003333  1
  Sb  Sb25  1  0.500000  0.721551  0.996667  1
