# generated using pymatgen
data_TbNd16Er3Pb16
_symmetry_space_group_name_H-M   'P 1'
_cell_length_a   8.38857403
_cell_length_b   8.49105103
_cell_length_c   16.15560400
_cell_angle_alpha   90.00000000
_cell_angle_beta   90.00000000
_cell_angle_gamma   90.00959932
_symmetry_Int_Tables_number   1
_chemical_formula_structural   TbNd16Er3Pb16
_chemical_formula_sum   'Tb1 Nd16 Er3 Pb16'
_cell_volume   1150.72827844
_cell_formula_units_Z   1
loop_
 _symmetry_equiv_pos_site_id
 _symmetry_equiv_pos_as_xyz
  1  'x, y, z'
loop_
 _atom_site_type_symbol
 _atom_site_label
 _atom_site_symmetry_multiplicity
 _atom_site_fract_x
 _atom_site_fract_y
 _atom_site_fract_z
 _atom_site_occupancy
  Tb  Tb0  1  0.207782  0.503811  0.750000  1
  Nd  Nd1  1  0.376639  0.842293  0.880575  1
  Nd  Nd2  1  0.875944  0.658199  0.619420  1
  Nd  Nd3  1  0.623607  0.157903  0.380507  1
  Nd  Nd4  1  0.123642  0.342088  0.119579  1
  Nd  Nd5  1  0.623607  0.157903  0.119493  1
  Nd  Nd6  1  0.123642  0.342088  0.380421  1
  Nd  Nd7  1  0.376639  0.842293  0.619425  1
  Nd  Nd8  1  0.875944  0.658199  0.880580  1
  Nd  Nd9  1  0.533882  0.322296  0.899806  1
  Nd  Nd10  1  0.033522  0.177281  0.600258  1
  Nd  Nd11  1  0.466317  0.677553  0.399679  1
  Nd  Nd12  1  0.966369  0.822430  0.100249  1
  Nd  Nd13  1  0.466317  0.677553  0.100321  1
  Nd  Nd14  1  0.966369  0.822430  0.399751  1
  Nd  Nd15  1  0.533882  0.322296  0.600194  1
  Nd  Nd16  1  0.033522  0.177281  0.899742  1
  Er  Er17  1  0.708482  0.995984  0.750000  1
  Er  Er18  1  0.791642  0.495946  0.250000  1
  Er  Er19  1  0.291641  0.003912  0.250000  1
  Pb  Pb20  1  0.281166  0.031132  0.045986  1
  Pb  Pb21  1  0.781173  0.468937  0.454029  1
  Pb  Pb22  1  0.718904  0.968917  0.545940  1
  Pb  Pb23  1  0.218846  0.531208  0.954421  1
  Pb  Pb24  1  0.718904  0.968917  0.954060  1
  Pb  Pb25  1  0.218846  0.531208  0.545579  1
  Pb  Pb26  1  0.281166  0.031132  0.454014  1
  Pb  Pb27  1  0.781173  0.468937  0.045971  1
  Pb  Pb28  1  0.571651  0.625708  0.750000  1
  Pb  Pb29  1  0.070656  0.875165  0.750000  1
  Pb  Pb30  1  0.429255  0.374509  0.250000  1
  Pb  Pb31  1  0.929251  0.125390  0.250000  1
  Pb  Pb32  1  0.343246  0.152374  0.750000  1
  Pb  Pb33  1  0.842927  0.346582  0.750000  1
  Pb  Pb34  1  0.656688  0.846678  0.250000  1
  Pb  Pb35  1  0.156754  0.653470  0.250000  1
