# generated using pymatgen
data_SmTm2Th3Si4
_symmetry_space_group_name_H-M   'P 1'
_cell_length_a   7.59259359
_cell_length_b   7.59259359
_cell_length_c   4.26884500
_cell_angle_alpha   90.00000000
_cell_angle_beta   90.00000000
_cell_angle_gamma   89.92595597
_symmetry_Int_Tables_number   1
_chemical_formula_structural   SmTm2Th3Si4
_chemical_formula_sum   'Sm1 Tm2 Th3 Si4'
_cell_volume   246.08793994
_cell_formula_units_Z   1
loop_
 _symmetry_equiv_pos_site_id
 _symmetry_equiv_pos_as_xyz
  1  'x, y, z'
loop_
 _atom_site_type_symbol
 _atom_site_label
 _atom_site_symmetry_multiplicity
 _atom_site_fract_x
 _atom_site_fract_y
 _atom_site_fract_z
 _atom_site_occupancy
  Sm  Sm0  1  0.823169  0.676831  0.500000  1
  Tm  Tm1  1  0.999462  0.000837  0.000000  1
  Tm  Tm2  1  0.499163  0.500538  0.000000  1
  Th  Th3  1  0.678656  0.178303  0.500000  1
  Th  Th4  1  0.321697  0.821344  0.500000  1
  Th  Th5  1  0.177731  0.322269  0.500000  1
  Si  Si6  1  0.117486  0.617394  0.000000  1
  Si  Si7  1  0.882606  0.382514  0.000000  1
  Si  Si8  1  0.617913  0.882087  0.000000  1
  Si  Si9  1  0.382115  0.117885  0.000000  1
