# generated using pymatgen
data_TbYEr(Ga2Co3)3
_symmetry_space_group_name_H-M   'P 1'
_cell_length_a   4.05633500
_cell_length_b   8.74770844
_cell_length_c   8.74797911
_cell_angle_alpha   59.85493644
_cell_angle_beta   90.00000000
_cell_angle_gamma   90.00000000
_symmetry_Int_Tables_number   1
_chemical_formula_structural   TbYEr(Ga2Co3)3
_chemical_formula_sum   'Tb1 Y1 Er1 Ga6 Co9'
_cell_volume   268.42922208
_cell_formula_units_Z   1
loop_
 _symmetry_equiv_pos_site_id
 _symmetry_equiv_pos_as_xyz
  1  'x, y, z'
loop_
 _atom_site_type_symbol
 _atom_site_label
 _atom_site_symmetry_multiplicity
 _atom_site_fract_x
 _atom_site_fract_y
 _atom_site_fract_z
 _atom_site_occupancy
  Tb  Tb0  1  0.500000  0.666679  0.666713  1
  Y  Y1  1  0.500000  0.333334  0.333365  1
  Er  Er2  1  0.000000  0.999866  0.000208  1
  Ga  Ga3  1  0.000000  0.496588  0.503179  1
  Ga  Ga4  1  0.000000  0.503306  0.000176  1
  Ga  Ga5  1  0.000000  0.000168  0.496620  1
  Ga  Ga6  1  0.500000  0.728762  0.270974  1
  Ga  Ga7  1  0.500000  0.270961  0.000203  1
  Ga  Ga8  1  0.500000  0.000123  0.728907  1
  Co  Co9  1  0.000000  0.179202  0.180519  1
  Co  Co10  1  0.000000  0.180479  0.640446  1
  Co  Co11  1  0.000000  0.640443  0.179253  1
  Co  Co12  1  0.000000  0.819474  0.821025  1
  Co  Co13  1  0.000000  0.359332  0.819441  1
  Co  Co14  1  0.000000  0.820958  0.359354  1
  Co  Co15  1  0.500000  0.297020  0.703129  1
  Co  Co16  1  0.500000  0.703271  0.999685  1
  Co  Co17  1  0.500000  0.999933  0.296901  1
