# generated using pymatgen
data_YbEr3(Ga3Ir)6
_symmetry_space_group_name_H-M   'P 1'
_cell_length_a   7.57191625
_cell_length_b   7.57398518
_cell_length_c   9.52058000
_cell_angle_alpha   90.00000000
_cell_angle_beta   90.00000000
_cell_angle_gamma   119.78537455
_symmetry_Int_Tables_number   1
_chemical_formula_structural   YbEr3(Ga3Ir)6
_chemical_formula_sum   'Yb1 Er3 Ga18 Ir6'
_cell_volume   473.87029603
_cell_formula_units_Z   1
loop_
 _symmetry_equiv_pos_site_id
 _symmetry_equiv_pos_as_xyz
  1  'x, y, z'
loop_
 _atom_site_type_symbol
 _atom_site_label
 _atom_site_symmetry_multiplicity
 _atom_site_fract_x
 _atom_site_fract_y
 _atom_site_fract_z
 _atom_site_occupancy
  Yb  Yb0  1  0.996389  0.668602  0.750000  1
  Er  Er1  1  0.001133  0.330932  0.250000  1
  Er  Er2  1  0.669081  0.998561  0.750000  1
  Er  Er3  1  0.330202  0.000414  0.250000  1
  Ga  Ga4  1  0.126409  0.127710  0.750000  1
  Ga  Ga5  1  0.872404  0.872173  0.250000  1
  Ga  Ga6  1  0.000633  0.336509  0.580664  1
  Ga  Ga7  1  0.000170  0.664443  0.420476  1
  Ga  Ga8  1  0.000170  0.664443  0.079524  1
  Ga  Ga9  1  0.333267  0.998828  0.919790  1
  Ga  Ga10  1  0.000633  0.336509  0.919336  1
  Ga  Ga11  1  0.665148  0.000736  0.080936  1
  Ga  Ga12  1  0.665148  0.000736  0.419064  1
  Ga  Ga13  1  0.333267  0.998828  0.580210  1
  Ga  Ga14  1  0.332468  0.331988  0.066455  1
  Ga  Ga15  1  0.668751  0.667747  0.937979  1
  Ga  Ga16  1  0.668751  0.667747  0.562021  1
  Ga  Ga17  1  0.332468  0.331988  0.433545  1
  Ga  Ga18  1  0.339852  0.547922  0.750000  1
  Ga  Ga19  1  0.661589  0.453044  0.250000  1
  Ga  Ga20  1  0.545911  0.337263  0.750000  1
  Ga  Ga21  1  0.453355  0.661186  0.250000  1
  Ir  Ir22  1  0.670659  0.327846  0.499685  1
  Ir  Ir23  1  0.329577  0.671370  0.499143  1
  Ir  Ir24  1  0.329577  0.671370  0.000857  1
  Ir  Ir25  1  0.670659  0.327846  0.000315  1
  Ir  Ir26  1  0.001165  0.001629  0.498638  1
  Ir  Ir27  1  0.001165  0.001629  0.001362  1
