# generated using pymatgen
data_Yb6Al24Ru3Pt3Rh2
_symmetry_space_group_name_H-M   'P 1'
_cell_length_a   8.87787731
_cell_length_b   8.87787927
_cell_length_c   9.55194996
_cell_angle_alpha   89.59346985
_cell_angle_beta   90.40652514
_cell_angle_gamma   120.15661130
_symmetry_Int_Tables_number   1
_chemical_formula_structural   Yb6Al24Ru3Pt3Rh2
_chemical_formula_sum   'Yb6 Al24 Ru3 Pt3 Rh2'
_cell_volume   650.93699880
_cell_formula_units_Z   1
loop_
 _symmetry_equiv_pos_site_id
 _symmetry_equiv_pos_as_xyz
  1  'x, y, z'
loop_
 _atom_site_type_symbol
 _atom_site_label
 _atom_site_symmetry_multiplicity
 _atom_site_fract_x
 _atom_site_fract_y
 _atom_site_fract_z
 _atom_site_occupancy
  Yb  Yb0  1  0.193092  0.383331  0.250039  1
  Yb  Yb1  1  0.806908  0.616669  0.749961  1
  Yb  Yb2  1  0.616669  0.806908  0.250039  1
  Yb  Yb3  1  0.383331  0.193092  0.749961  1
  Yb  Yb4  1  0.191385  0.808615  0.250715  1
  Yb  Yb5  1  0.808615  0.191385  0.749285  1
  Al  Al6  1  0.331231  0.668769  0.003721  1
  Al  Al7  1  0.668769  0.331231  0.996279  1
  Al  Al8  1  0.663540  0.336460  0.504799  1
  Al  Al9  1  0.336460  0.663540  0.495201  1
  Al  Al10  1  0.164045  0.321232  0.579420  1
  Al  Al11  1  0.835955  0.678768  0.420580  1
  Al  Al12  1  0.678768  0.835955  0.579420  1
  Al  Al13  1  0.841472  0.678973  0.080066  1
  Al  Al14  1  0.321232  0.164045  0.420580  1
  Al  Al15  1  0.158528  0.321027  0.919934  1
  Al  Al16  1  0.159887  0.840113  0.580643  1
  Al  Al17  1  0.321027  0.158528  0.080066  1
  Al  Al18  1  0.840113  0.159887  0.419357  1
  Al  Al19  1  0.678973  0.841472  0.919934  1
  Al  Al20  1  0.839685  0.160315  0.080261  1
  Al  Al21  1  0.160315  0.839685  0.919739  1
  Al  Al22  1  0.562936  0.125722  0.247583  1
  Al  Al23  1  0.437064  0.874278  0.752417  1
  Al  Al24  1  0.874278  0.437064  0.247583  1
  Al  Al25  1  0.125722  0.562936  0.752417  1
  Al  Al26  1  0.562790  0.437210  0.253835  1
  Al  Al27  1  0.437210  0.562790  0.746165  1
  Al  Al28  1  0.000309  0.999691  0.250032  1
  Al  Al29  1  0.999691  0.000309  0.749968  1
  Ru  Ru30  1  0.500000  0.500000  0.500000  1
  Ru  Ru31  1  0.000000  0.000000  0.000000  1
  Ru  Ru32  1  0.000000  0.000000  0.500000  1
  Pt  Pt33  1  0.500000  0.000000  0.500000  1
  Pt  Pt34  1  0.500000  0.500000  0.000000  1
  Pt  Pt35  1  0.000000  0.500000  0.500000  1
  Rh  Rh36  1  0.500000  0.000000  0.000000  1
  Rh  Rh37  1  0.000000  0.500000  0.000000  1
