# generated using pymatgen
data_Mn9AlCr11(WC3)2
_symmetry_space_group_name_H-M   'P 1'
_cell_length_a   7.47872790
_cell_length_b   7.47872743
_cell_length_c   7.48480500
_cell_angle_alpha   59.97311863
_cell_angle_beta   59.97312071
_cell_angle_gamma   59.94991175
_symmetry_Int_Tables_number   1
_chemical_formula_structural   Mn9AlCr11(WC3)2
_chemical_formula_sum   'Mn9 Al1 Cr11 W2 C6'
_cell_volume   295.78750495
_cell_formula_units_Z   1
loop_
 _symmetry_equiv_pos_site_id
 _symmetry_equiv_pos_as_xyz
  1  'x, y, z'
loop_
 _atom_site_type_symbol
 _atom_site_label
 _atom_site_symmetry_multiplicity
 _atom_site_fract_x
 _atom_site_fract_y
 _atom_site_fract_z
 _atom_site_occupancy
  Mn  Mn0  1  0.615857  0.615857  0.151456  1
  Mn  Mn1  1  0.616495  0.151672  0.615689  1
  Mn  Mn2  1  0.151673  0.616495  0.615689  1
  Mn  Mn3  1  0.616124  0.616124  0.616350  1
  Mn  Mn4  1  0.383876  0.383876  0.848597  1
  Mn  Mn5  1  0.383505  0.848327  0.383856  1
  Mn  Mn6  1  0.848327  0.383505  0.383856  1
  Mn  Mn7  1  0.384143  0.384143  0.383169  1
  Mn  Mn8  1  0.000000  0.000000  0.343080  1
  Al  Al9  1  0.000000  0.000000  0.001387  1
  Cr  Cr10  1  0.656939  0.999329  0.343839  1
  Cr  Cr11  1  0.999329  0.656939  0.343839  1
  Cr  Cr12  1  0.656620  0.343380  0.000686  1
  Cr  Cr13  1  0.000671  0.343061  0.000106  1
  Cr  Cr14  1  0.000102  0.343211  0.656234  1
  Cr  Cr15  1  0.343380  0.656620  0.000686  1
  Cr  Cr16  1  0.343211  0.000102  0.656234  1
  Cr  Cr17  1  0.343061  0.000671  0.000106  1
  Cr  Cr18  1  0.000000  0.000000  0.656221  1
  Cr  Cr19  1  0.999898  0.656789  0.999547  1
  Cr  Cr20  1  0.656789  0.999898  0.999547  1
  W  W21  1  0.750309  0.750309  0.749485  1
  W  W22  1  0.249691  0.249691  0.250103  1
  C  C23  1  0.719583  0.719583  0.280150  1
  C  C24  1  0.277187  0.722813  0.279609  1
  C  C25  1  0.722813  0.277187  0.279609  1
  C  C26  1  0.280417  0.280417  0.719317  1
  C  C27  1  0.719733  0.280267  0.720777  1
  C  C28  1  0.280267  0.719733  0.720777  1
