# generated using pymatgen
data_Zr6Ta3Al13FeCo6
_symmetry_space_group_name_H-M   'P 1'
_cell_length_a   8.62439663
_cell_length_b   8.62439642
_cell_length_c   8.62439681
_cell_angle_alpha   59.77184347
_cell_angle_beta   59.77184510
_cell_angle_gamma   59.77184512
_symmetry_Int_Tables_number   1
_chemical_formula_structural   Zr6Ta3Al13FeCo6
_chemical_formula_sum   'Zr6 Ta3 Al13 Fe1 Co6'
_cell_volume   451.24829328
_cell_formula_units_Z   1
loop_
 _symmetry_equiv_pos_site_id
 _symmetry_equiv_pos_as_xyz
  1  'x, y, z'
loop_
 _atom_site_type_symbol
 _atom_site_label
 _atom_site_symmetry_multiplicity
 _atom_site_fract_x
 _atom_site_fract_y
 _atom_site_fract_z
 _atom_site_occupancy
  Zr  Zr0  1  0.696663  0.305903  0.305903  1
  Zr  Zr1  1  0.692425  0.307786  0.692425  1
  Zr  Zr2  1  0.692425  0.692425  0.307786  1
  Zr  Zr3  1  0.307786  0.692425  0.692425  1
  Zr  Zr4  1  0.305903  0.696663  0.305903  1
  Zr  Zr5  1  0.305903  0.305903  0.696663  1
  Ta  Ta6  1  0.643051  0.119132  0.119132  1
  Ta  Ta7  1  0.119132  0.643051  0.119132  1
  Ta  Ta8  1  0.119132  0.119132  0.643051  1
  Al  Al9  1  0.117634  0.117634  0.117634  1
  Al  Al10  1  0.358324  0.881690  0.881690  1
  Al  Al11  1  0.881690  0.358324  0.881690  1
  Al  Al12  1  0.881690  0.881690  0.358324  1
  Al  Al13  1  0.879548  0.879548  0.879548  1
  Al  Al14  1  0.995293  0.332349  0.332349  1
  Al  Al15  1  0.332349  0.995293  0.332349  1
  Al  Al16  1  0.332349  0.332349  0.995293  1
  Al  Al17  1  0.337436  0.337436  0.337436  1
  Al  Al18  1  0.003150  0.665236  0.665236  1
  Al  Al19  1  0.665236  0.003150  0.665236  1
  Al  Al20  1  0.665236  0.665236  0.003150  1
  Al  Al21  1  0.665539  0.665539  0.665539  1
  Fe  Fe22  1  0.997901  0.997901  0.997901  1
  Co  Co23  1  0.505293  0.001912  0.001912  1
  Co  Co24  1  0.495784  0.003521  0.495784  1
  Co  Co25  1  0.495784  0.495784  0.003521  1
  Co  Co26  1  0.003521  0.495784  0.495784  1
  Co  Co27  1  0.001912  0.505293  0.001912  1
  Co  Co28  1  0.001912  0.001912  0.505293  1
