# generated using pymatgen
data_Ti9Nb3ZnSn9
_symmetry_space_group_name_H-M   'P 1'
_cell_length_a   9.33361400
_cell_length_b   9.33361414
_cell_length_c   5.65642100
_cell_angle_alpha   90.00000000
_cell_angle_beta   90.00000000
_cell_angle_gamma   119.99999949
_symmetry_Int_Tables_number   1
_chemical_formula_structural   Ti9Nb3ZnSn9
_chemical_formula_sum   'Ti9 Nb3 Zn1 Sn9'
_cell_volume   426.74853530
_cell_formula_units_Z   1
loop_
 _symmetry_equiv_pos_site_id
 _symmetry_equiv_pos_as_xyz
  1  'x, y, z'
loop_
 _atom_site_type_symbol
 _atom_site_label
 _atom_site_symmetry_multiplicity
 _atom_site_fract_x
 _atom_site_fract_y
 _atom_site_fract_z
 _atom_site_occupancy
  Ti  Ti0  1  0.843773  0.687545  0.758710  1
  Ti  Ti1  1  0.156227  0.843773  0.241290  1
  Ti  Ti2  1  0.687545  0.843773  0.241290  1
  Ti  Ti3  1  0.312455  0.156227  0.758710  1
  Ti  Ti4  1  0.843773  0.156227  0.758710  1
  Ti  Ti5  1  0.156227  0.312455  0.241290  1
  Ti  Ti6  1  0.500000  0.000000  0.500000  1
  Ti  Ti7  1  0.000000  0.500000  0.500000  1
  Ti  Ti8  1  0.500000  0.500000  0.500000  1
  Nb  Nb9  1  0.500000  0.500000  0.000000  1
  Nb  Nb10  1  0.000000  0.500000  0.000000  1
  Nb  Nb11  1  0.500000  0.000000  0.000000  1
  Zn  Zn12  1  0.000000  0.000000  0.500000  1
  Sn  Sn13  1  0.199708  0.399416  0.739626  1
  Sn  Sn14  1  0.800292  0.199708  0.260374  1
  Sn  Sn15  1  0.399416  0.199708  0.260374  1
  Sn  Sn16  1  0.600584  0.800292  0.739626  1
  Sn  Sn17  1  0.199708  0.800292  0.739626  1
  Sn  Sn18  1  0.800292  0.600584  0.260374  1
  Sn  Sn19  1  0.666667  0.333333  0.753167  1
  Sn  Sn20  1  0.333333  0.666667  0.246833  1
  Sn  Sn21  1  0.000000  0.000000  0.000000  1
