# generated using pymatgen
data_Tb3PaPt4
_symmetry_space_group_name_H-M   'P 1'
_cell_length_a   4.56487200
_cell_length_b   5.63523770
_cell_length_c   7.02725619
_cell_angle_alpha   91.25577284
_cell_angle_beta   90.00000000
_cell_angle_gamma   90.00000000
_symmetry_Int_Tables_number   1
_chemical_formula_structural   Tb3PaPt4
_chemical_formula_sum   'Tb3 Pa1 Pt4'
_cell_volume   180.72669700
_cell_formula_units_Z   1
loop_
 _symmetry_equiv_pos_site_id
 _symmetry_equiv_pos_as_xyz
  1  'x, y, z'
loop_
 _atom_site_type_symbol
 _atom_site_label
 _atom_site_symmetry_multiplicity
 _atom_site_fract_x
 _atom_site_fract_y
 _atom_site_fract_z
 _atom_site_occupancy
  Tb  Tb0  1  0.250000  0.142162  0.185256  1
  Tb  Tb1  1  0.750000  0.644567  0.315541  1
  Tb  Tb2  1  0.750000  0.854919  0.819446  1
  Pa  Pa3  1  0.250000  0.356321  0.682795  1
  Pt  Pt4  1  0.250000  0.838242  0.550716  1
  Pt  Pt5  1  0.250000  0.650937  0.036557  1
  Pt  Pt6  1  0.750000  0.170067  0.466327  1
  Pt  Pt7  1  0.750000  0.342784  0.943361  1
