# generated using pymatgen
data_Zr4Co3SiNiAs3
_symmetry_space_group_name_H-M   'P 1'
_cell_length_a   3.84391200
_cell_length_b   6.54203492
_cell_length_c   7.33052561
_cell_angle_alpha   90.04179749
_cell_angle_beta   90.00000000
_cell_angle_gamma   90.00000000
_symmetry_Int_Tables_number   1
_chemical_formula_structural   Zr4Co3SiNiAs3
_chemical_formula_sum   'Zr4 Co3 Si1 Ni1 As3'
_cell_volume   184.34072641
_cell_formula_units_Z   1
loop_
 _symmetry_equiv_pos_site_id
 _symmetry_equiv_pos_as_xyz
  1  'x, y, z'
loop_
 _atom_site_type_symbol
 _atom_site_label
 _atom_site_symmetry_multiplicity
 _atom_site_fract_x
 _atom_site_fract_y
 _atom_site_fract_z
 _atom_site_occupancy
  Zr  Zr0  1  0.250000  0.023230  0.313974  1
  Zr  Zr1  1  0.250000  0.512449  0.186167  1
  Zr  Zr2  1  0.750000  0.983705  0.686842  1
  Zr  Zr3  1  0.750000  0.479815  0.813405  1
  Co  Co4  1  0.250000  0.139589  0.946202  1
  Co  Co5  1  0.250000  0.637810  0.562319  1
  Co  Co6  1  0.750000  0.356492  0.430420  1
  Si  Si7  1  0.750000  0.228514  0.110566  1
  Ni  Ni8  1  0.750000  0.867029  0.063333  1
  As  As9  1  0.250000  0.271788  0.615641  1
  As  As10  1  0.250000  0.771698  0.882660  1
  As  As11  1  0.750000  0.727883  0.388471  1
