# generated using pymatgen
data_Y4Tm2Al17Si7Os8
_symmetry_space_group_name_H-M   'P 1'
_cell_length_a   8.69699001
_cell_length_b   8.68583287
_cell_length_c   9.48176700
_cell_angle_alpha   90.00000000
_cell_angle_beta   90.00000000
_cell_angle_gamma   120.09263210
_symmetry_Int_Tables_number   1
_chemical_formula_structural   Y4Tm2Al17Si7Os8
_chemical_formula_sum   'Y4 Tm2 Al17 Si7 Os8'
_cell_volume   619.71814572
_cell_formula_units_Z   1
loop_
 _symmetry_equiv_pos_site_id
 _symmetry_equiv_pos_as_xyz
  1  'x, y, z'
loop_
 _atom_site_type_symbol
 _atom_site_label
 _atom_site_symmetry_multiplicity
 _atom_site_fract_x
 _atom_site_fract_y
 _atom_site_fract_z
 _atom_site_occupancy
  Y  Y0  1  0.192693  0.387329  0.250000  1
  Y  Y1  1  0.807804  0.615593  0.750000  1
  Y  Y2  1  0.386895  0.190829  0.750000  1
  Y  Y3  1  0.803447  0.191248  0.750000  1
  Tm  Tm4  1  0.608698  0.806266  0.250000  1
  Tm  Tm5  1  0.197118  0.804227  0.250000  1
  Al  Al6  1  0.164638  0.330151  0.577810  1
  Al  Al7  1  0.834315  0.671419  0.420423  1
  Al  Al8  1  0.670859  0.834701  0.576687  1
  Al  Al9  1  0.834315  0.671419  0.079577  1
  Al  Al10  1  0.329966  0.165712  0.421911  1
  Al  Al11  1  0.164638  0.330151  0.922190  1
  Al  Al12  1  0.163819  0.834090  0.575694  1
  Al  Al13  1  0.329966  0.165712  0.078089  1
  Al  Al14  1  0.835023  0.163917  0.421124  1
  Al  Al15  1  0.670859  0.834701  0.923313  1
  Al  Al16  1  0.835023  0.163917  0.078876  1
  Al  Al17  1  0.163819  0.834090  0.924306  1
  Al  Al18  1  0.126100  0.565961  0.750000  1
  Al  Al19  1  0.565206  0.435497  0.250000  1
  Al  Al20  1  0.438812  0.566781  0.750000  1
  Al  Al21  1  0.998487  0.997110  0.250000  1
  Al  Al22  1  0.000099  0.000933  0.750000  1
  Si  Si23  1  0.333755  0.665416  0.039851  1
  Si  Si24  1  0.666611  0.336033  0.961303  1
  Si  Si25  1  0.666611  0.336033  0.538697  1
  Si  Si26  1  0.333755  0.665416  0.460149  1
  Si  Si27  1  0.564352  0.123412  0.250000  1
  Si  Si28  1  0.436164  0.872664  0.750000  1
  Si  Si29  1  0.874638  0.435512  0.250000  1
  Os  Os30  1  0.500443  0.000238  0.002313  1
  Os  Os31  1  0.999008  0.500153  0.007431  1
  Os  Os32  1  0.500443  0.000238  0.497687  1
  Os  Os33  1  0.500745  0.500946  0.001134  1
  Os  Os34  1  0.999008  0.500153  0.492569  1
  Os  Os35  1  0.500745  0.500946  0.498866  1
  Os  Os36  1  0.000563  0.000542  0.000164  1
  Os  Os37  1  0.000563  0.000542  0.499836  1
