# generated using pymatgen
data_LaNi2SnRh2
_symmetry_space_group_name_H-M   'P 1'
_cell_length_a   5.30849601
_cell_length_b   5.30849535
_cell_length_c   4.17966700
_cell_angle_alpha   90.00000000
_cell_angle_beta   90.00000000
_cell_angle_gamma   116.69404673
_symmetry_Int_Tables_number   1
_chemical_formula_structural   LaNi2SnRh2
_chemical_formula_sum   'La1 Ni2 Sn1 Rh2'
_cell_volume   105.22994682
_cell_formula_units_Z   1
loop_
 _symmetry_equiv_pos_site_id
 _symmetry_equiv_pos_as_xyz
  1  'x, y, z'
loop_
 _atom_site_type_symbol
 _atom_site_label
 _atom_site_symmetry_multiplicity
 _atom_site_fract_x
 _atom_site_fract_y
 _atom_site_fract_z
 _atom_site_occupancy
  La  La0  1  0.000000  0.000000  0.000000  1
  Ni  Ni1  1  0.677795  0.322205  0.000000  1
  Ni  Ni2  1  0.322205  0.677795  0.000000  1
  Sn  Sn3  1  0.500000  0.500000  0.500000  1
  Rh  Rh4  1  0.500000  0.000000  0.500000  1
  Rh  Rh5  1  0.000000  0.500000  0.500000  1
