# generated using pymatgen
data_SmSn5SbRu4
_symmetry_space_group_name_H-M   'P 1'
_cell_length_a   6.97504306
_cell_length_b   6.97504413
_cell_length_c   6.97504386
_cell_angle_alpha   120.18700030
_cell_angle_beta   121.01908885
_cell_angle_gamma   88.96016768
_symmetry_Int_Tables_number   1
_chemical_formula_structural   SmSn5SbRu4
_chemical_formula_sum   'Sm1 Sn5 Sb1 Ru4'
_cell_volume   237.70713473
_cell_formula_units_Z   1
loop_
 _symmetry_equiv_pos_site_id
 _symmetry_equiv_pos_as_xyz
  1  'x, y, z'
loop_
 _atom_site_type_symbol
 _atom_site_label
 _atom_site_symmetry_multiplicity
 _atom_site_fract_x
 _atom_site_fract_y
 _atom_site_fract_z
 _atom_site_occupancy
  Sm  Sm0  1  0.000000  0.000000  0.000000  1
  Sn  Sn1  1  0.469027  0.469726  0.351364  1
  Sn  Sn2  1  0.530973  0.882337  0.000699  1
  Sn  Sn3  1  0.881638  0.530274  0.999301  1
  Sn  Sn4  1  0.118362  0.117663  0.648636  1
  Sn  Sn5  1  0.500000  0.000000  0.500000  1
  Sb  Sb6  1  0.000000  0.500000  0.500000  1
  Ru  Ru7  1  0.402230  0.405994  0.653387  1
  Ru  Ru8  1  0.752607  0.748844  0.346613  1
  Ru  Ru9  1  0.247393  0.594006  0.996237  1
  Ru  Ru10  1  0.597770  0.251156  0.003763  1
