# generated using pymatgen
data_Tm4Sn6Ir5Rh2
_symmetry_space_group_name_H-M   'P 1'
_cell_length_a   7.56114875
_cell_length_b   7.56114886
_cell_length_c   7.56114908
_cell_angle_alpha   109.50189634
_cell_angle_beta   109.50188967
_cell_angle_gamma   109.40989763
_symmetry_Int_Tables_number   1
_chemical_formula_structural   Tm4Sn6Ir5Rh2
_chemical_formula_sum   'Tm4 Sn6 Ir5 Rh2'
_cell_volume   332.76763807
_cell_formula_units_Z   1
loop_
 _symmetry_equiv_pos_site_id
 _symmetry_equiv_pos_as_xyz
  1  'x, y, z'
loop_
 _atom_site_type_symbol
 _atom_site_label
 _atom_site_symmetry_multiplicity
 _atom_site_fract_x
 _atom_site_fract_y
 _atom_site_fract_z
 _atom_site_occupancy
  Tm  Tm0  1  0.000337  0.999663  0.500000  1
  Tm  Tm1  1  0.000337  0.500337  0.000674  1
  Tm  Tm2  1  0.499663  0.999663  0.999326  1
  Tm  Tm3  1  0.499663  0.500337  0.500000  1
  Sn  Sn4  1  0.687931  0.687931  0.000000  1
  Sn  Sn5  1  0.313271  0.000364  0.312907  1
  Sn  Sn6  1  0.999636  0.312543  0.312907  1
  Sn  Sn7  1  0.312069  0.312069  0.000000  1
  Sn  Sn8  1  0.687457  0.000364  0.687093  1
  Sn  Sn9  1  0.999636  0.686729  0.687093  1
  Ir  Ir10  1  0.750028  0.500098  0.249930  1
  Ir  Ir11  1  0.499902  0.249972  0.750070  1
  Ir  Ir12  1  0.250167  0.500098  0.750070  1
  Ir  Ir13  1  0.250000  0.750000  0.500000  1
  Ir  Ir14  1  0.499902  0.749833  0.249930  1
  Rh  Rh15  1  0.750000  0.250000  0.500000  1
  Rh  Rh16  1  0.000000  0.000000  0.000000  1
