# generated using pymatgen
data_Ho2ZnInPd
_symmetry_space_group_name_H-M   'P 1'
_cell_length_a   7.79976100
_cell_length_b   7.77502400
_cell_length_c   3.67840000
_cell_angle_alpha   90.00000000
_cell_angle_beta   90.00000000
_cell_angle_gamma   90.00000000
_symmetry_Int_Tables_number   1
_chemical_formula_structural   Ho2ZnInPd
_chemical_formula_sum   'Ho4 Zn2 In2 Pd2'
_cell_volume   223.07042128
_cell_formula_units_Z   2
loop_
 _symmetry_equiv_pos_site_id
 _symmetry_equiv_pos_as_xyz
  1  'x, y, z'
loop_
 _atom_site_type_symbol
 _atom_site_label
 _atom_site_symmetry_multiplicity
 _atom_site_fract_x
 _atom_site_fract_y
 _atom_site_fract_z
 _atom_site_occupancy
  Ho  Ho0  1  0.330175  0.817305  0.500000  1
  Ho  Ho1  1  0.830175  0.682695  0.500000  1
  Ho  Ho2  1  0.173496  0.339392  0.500000  1
  Ho  Ho3  1  0.673496  0.160608  0.500000  1
  Zn  Zn4  1  0.374374  0.121559  0.000000  1
  Zn  Zn5  1  0.874374  0.378441  0.000000  1
  In  In6  1  0.004097  0.002415  0.000000  1
  In  In7  1  0.504097  0.497585  0.000000  1
  Pd  Pd8  1  0.117858  0.622094  0.000000  1
  Pd  Pd9  1  0.617858  0.877906  0.000000  1
