# generated using pymatgen
data_SrSc2MnH12Ir
_symmetry_space_group_name_H-M   'P 1'
_cell_length_a   4.68553400
_cell_length_b   4.68553582
_cell_length_c   8.05663000
_cell_angle_alpha   90.00000000
_cell_angle_beta   90.00000000
_cell_angle_gamma   120.00000126
_symmetry_Int_Tables_number   1
_chemical_formula_structural   SrSc2MnH12Ir
_chemical_formula_sum   'Sr1 Sc2 Mn1 H12 Ir1'
_cell_volume   153.18011859
_cell_formula_units_Z   1
loop_
 _symmetry_equiv_pos_site_id
 _symmetry_equiv_pos_as_xyz
  1  'x, y, z'
loop_
 _atom_site_type_symbol
 _atom_site_label
 _atom_site_symmetry_multiplicity
 _atom_site_fract_x
 _atom_site_fract_y
 _atom_site_fract_z
 _atom_site_occupancy
  Sr  Sr0  1  0.000000  0.000000  0.970569  1
  Sc  Sc1  1  0.666667  0.333333  0.398223  1
  Sc  Sc2  1  0.333333  0.666667  0.648020  1
  Mn  Mn3  1  0.666667  0.333333  0.715174  1
  H  H4  1  0.159679  0.840321  0.392593  1
  H  H5  1  0.680642  0.840321  0.392593  1
  H  H6  1  0.159679  0.319358  0.392593  1
  H  H7  1  0.836169  0.163831  0.607713  1
  H  H8  1  0.327662  0.163831  0.607713  1
  H  H9  1  0.836169  0.672338  0.607713  1
  H  H10  1  0.503032  0.006064  0.838445  1
  H  H11  1  0.503032  0.496968  0.838445  1
  H  H12  1  0.993936  0.496968  0.838445  1
  H  H13  1  0.499810  0.999622  0.157253  1
  H  H14  1  0.499810  0.500190  0.157253  1
  H  H15  1  0.000378  0.500190  0.157253  1
  Ir  Ir16  1  0.333333  0.666667  0.280006  1
