# generated using pymatgen
data_EuScNiAs2
_symmetry_space_group_name_H-M   'P 1'
_cell_length_a   4.13720500
_cell_length_b   4.13720457
_cell_length_c   13.82092400
_cell_angle_alpha   90.00000000
_cell_angle_beta   90.00000000
_cell_angle_gamma   119.99997945
_symmetry_Int_Tables_number   1
_chemical_formula_structural   EuScNiAs2
_chemical_formula_sum   'Eu2 Sc2 Ni2 As4'
_cell_volume   204.87163673
_cell_formula_units_Z   2
loop_
 _symmetry_equiv_pos_site_id
 _symmetry_equiv_pos_as_xyz
  1  'x, y, z'
loop_
 _atom_site_type_symbol
 _atom_site_label
 _atom_site_symmetry_multiplicity
 _atom_site_fract_x
 _atom_site_fract_y
 _atom_site_fract_z
 _atom_site_occupancy
  Eu  Eu0  1  0.666667  0.333333  0.389770  1
  Eu  Eu1  1  0.333333  0.666667  0.889770  1
  Sc  Sc2  1  0.333333  0.666667  0.620686  1
  Sc  Sc3  1  0.666667  0.333333  0.120686  1
  Ni  Ni4  1  0.000000  0.000000  0.711141  1
  Ni  Ni5  1  0.000000  0.000000  0.211141  1
  As  As6  1  0.333333  0.666667  0.251016  1
  As  As7  1  0.000000  0.000000  0.027388  1
  As  As8  1  0.000000  0.000000  0.527388  1
  As  As9  1  0.666667  0.333333  0.751016  1
