# generated using pymatgen
data_U4Re7(Si2Ge)2
_symmetry_space_group_name_H-M   'P 1'
_cell_length_a   7.18302335
_cell_length_b   7.18523959
_cell_length_c   7.18302223
_cell_angle_alpha   109.34714056
_cell_angle_beta   109.70721507
_cell_angle_gamma   109.34714287
_symmetry_Int_Tables_number   1
_chemical_formula_structural   U4Re7(Si2Ge)2
_chemical_formula_sum   'U4 Re7 Si4 Ge2'
_cell_volume   285.42679138
_cell_formula_units_Z   1
loop_
 _symmetry_equiv_pos_site_id
 _symmetry_equiv_pos_as_xyz
  1  'x, y, z'
loop_
 _atom_site_type_symbol
 _atom_site_label
 _atom_site_symmetry_multiplicity
 _atom_site_fract_x
 _atom_site_fract_y
 _atom_site_fract_z
 _atom_site_occupancy
  U  U0  1  0.511702  0.510005  0.511702  1
  U  U1  1  0.998286  0.996572  0.498286  1
  U  U2  1  0.498286  0.996572  0.998286  1
  U  U3  1  0.998303  0.510005  0.998303  1
  Re  Re4  1  0.750658  0.251874  0.501216  1
  Re  Re5  1  0.501216  0.251874  0.750658  1
  Re  Re6  1  0.501692  0.754723  0.253031  1
  Re  Re7  1  0.251555  0.503110  0.751555  1
  Re  Re8  1  0.751555  0.503110  0.251555  1
  Re  Re9  1  0.253031  0.754723  0.501692  1
  Re  Re10  1  0.989128  0.978256  0.989128  1
  Si  Si11  1  0.002109  0.687170  0.685061  1
  Si  Si12  1  0.691369  0.003826  0.691369  1
  Si  Si13  1  0.312457  0.003826  0.312457  1
  Si  Si14  1  0.685061  0.687170  0.002109  1
  Ge  Ge15  1  0.301224  0.303593  0.002369  1
  Ge  Ge16  1  0.002369  0.303593  0.301224  1
