# generated using pymatgen
data_Ho16Lu4Si15As
_symmetry_space_group_name_H-M   'P 1'
_cell_length_a   7.44820186
_cell_length_b   7.60535173
_cell_length_c   14.53777400
_cell_angle_alpha   89.87679519
_cell_angle_beta   85.99356329
_cell_angle_gamma   89.98016415
_symmetry_Int_Tables_number   1
_chemical_formula_structural   Ho16Lu4Si15As
_chemical_formula_sum   'Ho16 Lu4 Si15 As1'
_cell_volume   821.49517777
_cell_formula_units_Z   1
loop_
 _symmetry_equiv_pos_site_id
 _symmetry_equiv_pos_as_xyz
  1  'x, y, z'
loop_
 _atom_site_type_symbol
 _atom_site_label
 _atom_site_symmetry_multiplicity
 _atom_site_fract_x
 _atom_site_fract_y
 _atom_site_fract_z
 _atom_site_occupancy
  Ho  Ho0  1  0.011176  0.825202  0.102371  1
  Ho  Ho1  1  0.476651  0.683886  0.398451  1
  Ho  Ho2  1  0.487455  0.318240  0.898374  1
  Ho  Ho3  1  0.023326  0.182999  0.601801  1
  Ho  Ho4  1  0.992334  0.176466  0.898785  1
  Ho  Ho5  1  0.522616  0.315818  0.601384  1
  Ho  Ho6  1  0.506623  0.682922  0.102047  1
  Ho  Ho7  1  0.976333  0.815577  0.398635  1
  Ho  Ho8  1  0.640362  0.836910  0.880010  1
  Ho  Ho9  1  0.173599  0.676072  0.623082  1
  Ho  Ho10  1  0.859803  0.335961  0.118429  1
  Ho  Ho11  1  0.327298  0.177414  0.377419  1
  Ho  Ho12  1  0.358826  0.165268  0.119823  1
  Ho  Ho13  1  0.826725  0.323721  0.377423  1
  Ho  Ho14  1  0.142469  0.664584  0.881431  1
  Ho  Ho15  1  0.673210  0.822868  0.623097  1
  Lu  Lu16  1  0.673601  0.995466  0.246310  1
  Lu  Lu17  1  0.172638  0.505451  0.245920  1
  Lu  Lu18  1  0.827451  0.494041  0.750813  1
  Lu  Lu19  1  0.326091  0.004476  0.753339  1
  Si  Si20  1  0.789780  0.631626  0.251401  1
  Si  Si21  1  0.289371  0.869171  0.252157  1
  Si  Si22  1  0.709299  0.131935  0.748467  1
  Si  Si23  1  0.208736  0.367784  0.748865  1
  Si  Si24  1  0.044740  0.110203  0.251548  1
  Si  Si25  1  0.545454  0.391711  0.250537  1
  Si  Si26  1  0.455622  0.608459  0.749840  1
  Si  Si27  1  0.955403  0.889596  0.749532  1
  Si  Si28  1  0.353900  0.971401  0.542238  1
  Si  Si29  1  0.708417  0.032034  0.043657  1
  Si  Si30  1  0.146757  0.471439  0.458410  1
  Si  Si31  1  0.212049  0.469711  0.044818  1
  Si  Si32  1  0.646562  0.027733  0.457789  1
  Si  Si33  1  0.293401  0.967481  0.955904  1
  Si  Si34  1  0.853782  0.527212  0.542401  1
  As  As35  1  0.788136  0.529154  0.953492  1
