# generated using pymatgen
data_CaTh3(WN3)4
_symmetry_space_group_name_H-M   'P 1'
_cell_length_a   5.53013200
_cell_length_b   5.63005428
_cell_length_c   7.89288500
_cell_angle_alpha   90.00000000
_cell_angle_beta   90.00000000
_cell_angle_gamma   89.81839520
_symmetry_Int_Tables_number   1
_chemical_formula_structural   CaTh3(WN3)4
_chemical_formula_sum   'Ca1 Th3 W4 N12'
_cell_volume   245.74329284
_cell_formula_units_Z   1
loop_
 _symmetry_equiv_pos_site_id
 _symmetry_equiv_pos_as_xyz
  1  'x, y, z'
loop_
 _atom_site_type_symbol
 _atom_site_label
 _atom_site_symmetry_multiplicity
 _atom_site_fract_x
 _atom_site_fract_y
 _atom_site_fract_z
 _atom_site_occupancy
  Ca  Ca0  1  0.994128  0.040879  0.750000  1
  Th  Th1  1  0.495572  0.456952  0.250000  1
  Th  Th2  1  0.006160  0.958890  0.250000  1
  Th  Th3  1  0.503497  0.541606  0.750000  1
  W  W4  1  0.503225  0.000247  0.504484  1
  W  W5  1  0.999137  0.497965  0.996768  1
  W  W6  1  0.999137  0.497965  0.503232  1
  W  W7  1  0.503225  0.000247  0.995516  1
  N  N8  1  0.700241  0.299004  0.531992  1
  N  N9  1  0.297260  0.702961  0.035453  1
  N  N10  1  0.206708  0.207500  0.044854  1
  N  N11  1  0.430025  0.993072  0.750000  1
  N  N12  1  0.928339  0.516924  0.250000  1
  N  N13  1  0.297260  0.702961  0.464547  1
  N  N14  1  0.792790  0.791674  0.962903  1
  N  N15  1  0.700241  0.299004  0.968008  1
  N  N16  1  0.792790  0.791674  0.537097  1
  N  N17  1  0.069620  0.480278  0.750000  1
  N  N18  1  0.206708  0.207500  0.455146  1
  N  N19  1  0.573941  0.012696  0.250000  1
