# generated using pymatgen
data_Lu4Cu3Ni
_symmetry_space_group_name_H-M   'P 1'
_cell_length_a   4.37264100
_cell_length_b   5.25889102
_cell_length_c   6.88945435
_cell_angle_alpha   89.94742025
_cell_angle_beta   90.00000000
_cell_angle_gamma   90.00000000
_symmetry_Int_Tables_number   1
_chemical_formula_structural   Lu4Cu3Ni
_chemical_formula_sum   'Lu4 Cu3 Ni1'
_cell_volume   158.42460657
_cell_formula_units_Z   1
loop_
 _symmetry_equiv_pos_site_id
 _symmetry_equiv_pos_as_xyz
  1  'x, y, z'
loop_
 _atom_site_type_symbol
 _atom_site_label
 _atom_site_symmetry_multiplicity
 _atom_site_fract_x
 _atom_site_fract_y
 _atom_site_fract_z
 _atom_site_occupancy
  Lu  Lu0  1  0.000000  0.636203  0.322272  1
  Lu  Lu1  1  0.000000  0.866775  0.812828  1
  Lu  Lu2  1  0.500000  0.356798  0.675952  1
  Lu  Lu3  1  0.500000  0.140123  0.191440  1
  Cu  Cu4  1  0.000000  0.371320  0.963215  1
  Cu  Cu5  1  0.500000  0.867028  0.537436  1
  Cu  Cu6  1  0.500000  0.629821  0.032315  1
  Ni  Ni7  1  0.000000  0.131931  0.464542  1
