# generated using pymatgen
data_Yb6Sm2MgInRu2
_symmetry_space_group_name_H-M   'P 1'
_cell_length_a   9.90944126
_cell_length_b   9.90944166
_cell_length_c   9.91944600
_cell_angle_alpha   59.96659784
_cell_angle_beta   59.96659652
_cell_angle_gamma   60.01827552
_symmetry_Int_Tables_number   1
_chemical_formula_structural   Yb6Sm2MgInRu2
_chemical_formula_sum   'Yb12 Sm4 Mg2 In2 Ru4'
_cell_volume   688.51151292
_cell_formula_units_Z   2
loop_
 _symmetry_equiv_pos_site_id
 _symmetry_equiv_pos_as_xyz
  1  'x, y, z'
loop_
 _atom_site_type_symbol
 _atom_site_label
 _atom_site_symmetry_multiplicity
 _atom_site_fract_x
 _atom_site_fract_y
 _atom_site_fract_z
 _atom_site_occupancy
  Yb  Yb0  1  0.948572  0.548409  0.547583  1
  Yb  Yb1  1  0.548409  0.948572  0.955436  1
  Yb  Yb2  1  0.548409  0.948572  0.547583  1
  Yb  Yb3  1  0.948572  0.548409  0.955436  1
  Yb  Yb4  1  0.548841  0.548841  0.951159  1
  Yb  Yb5  1  0.951473  0.951473  0.548527  1
  Yb  Yb6  1  0.808364  0.193464  0.190562  1
  Yb  Yb7  1  0.193464  0.808364  0.807610  1
  Yb  Yb8  1  0.193464  0.808364  0.190562  1
  Yb  Yb9  1  0.808364  0.193464  0.807610  1
  Yb  Yb10  1  0.190374  0.190374  0.809626  1
  Yb  Yb11  1  0.804228  0.804228  0.195772  1
  Sm  Sm12  1  0.341537  0.341537  0.342371  1
  Sm  Sm13  1  0.341537  0.341537  0.974554  1
  Sm  Sm14  1  0.341462  0.976170  0.341183  1
  Sm  Sm15  1  0.976170  0.341462  0.341183  1
  Mg  Mg16  1  0.577472  0.272432  0.575048  1
  Mg  Mg17  1  0.272432  0.577472  0.575048  1
  In  In18  1  0.580031  0.580031  0.577471  1
  In  In19  1  0.580031  0.580031  0.262467  1
  Ru  Ru20  1  0.136743  0.136743  0.138856  1
  Ru  Ru21  1  0.136743  0.136743  0.587657  1
  Ru  Ru22  1  0.138370  0.584935  0.138347  1
  Ru  Ru23  1  0.584935  0.138370  0.138347  1
