# generated using pymatgen
data_SmPaPd6
_symmetry_space_group_name_H-M   'P 1'
_cell_length_a   5.82155800
_cell_length_b   5.82155740
_cell_length_c   4.90683800
_cell_angle_alpha   90.00000000
_cell_angle_beta   90.00000000
_cell_angle_gamma   119.99999206
_symmetry_Int_Tables_number   1
_chemical_formula_structural   SmPaPd6
_chemical_formula_sum   'Sm1 Pa1 Pd6'
_cell_volume   144.01601807
_cell_formula_units_Z   1
loop_
 _symmetry_equiv_pos_site_id
 _symmetry_equiv_pos_as_xyz
  1  'x, y, z'
loop_
 _atom_site_type_symbol
 _atom_site_label
 _atom_site_symmetry_multiplicity
 _atom_site_fract_x
 _atom_site_fract_y
 _atom_site_fract_z
 _atom_site_occupancy
  Sm  Sm0  1  0.666667  0.333333  0.250000  1
  Pa  Pa1  1  0.333333  0.666667  0.750000  1
  Pd  Pd2  1  0.839180  0.160820  0.750000  1
  Pd  Pd3  1  0.321641  0.160820  0.750000  1
  Pd  Pd4  1  0.839180  0.678359  0.750000  1
  Pd  Pd5  1  0.164205  0.835795  0.250000  1
  Pd  Pd6  1  0.671591  0.835795  0.250000  1
  Pd  Pd7  1  0.164205  0.328409  0.250000  1
