# generated using pymatgen
data_Nd2Si5AsPd21
_symmetry_space_group_name_H-M   'P 1'
_cell_length_a   8.74545710
_cell_length_b   8.74545640
_cell_length_c   8.70693900
_cell_angle_alpha   60.14558939
_cell_angle_beta   60.14559203
_cell_angle_gamma   59.70881792
_symmetry_Int_Tables_number   1
_chemical_formula_structural   Nd2Si5AsPd21
_chemical_formula_sum   'Nd2 Si5 As1 Pd21'
_cell_volume   470.86750226
_cell_formula_units_Z   1
loop_
 _symmetry_equiv_pos_site_id
 _symmetry_equiv_pos_as_xyz
  1  'x, y, z'
loop_
 _atom_site_type_symbol
 _atom_site_label
 _atom_site_symmetry_multiplicity
 _atom_site_fract_x
 _atom_site_fract_y
 _atom_site_fract_z
 _atom_site_occupancy
  Nd  Nd0  1  0.750305  0.750305  0.749695  1
  Nd  Nd1  1  0.250305  0.250305  0.249695  1
  Si  Si2  1  0.264116  0.736141  0.263859  1
  Si  Si3  1  0.736141  0.264116  0.263859  1
  Si  Si4  1  0.264209  0.264209  0.735791  1
  Si  Si5  1  0.736141  0.264116  0.735884  1
  Si  Si6  1  0.264116  0.736141  0.735884  1
  As  As7  1  0.736511  0.736511  0.263489  1
  Pd  Pd8  1  0.000897  0.000897  0.999103  1
  Pd  Pd9  1  0.612333  0.612333  0.155066  1
  Pd  Pd10  1  0.614045  0.155949  0.615004  1
  Pd  Pd11  1  0.155949  0.614045  0.615004  1
  Pd  Pd12  1  0.612333  0.612333  0.620268  1
  Pd  Pd13  1  0.384996  0.384996  0.844051  1
  Pd  Pd14  1  0.379732  0.844934  0.387667  1
  Pd  Pd15  1  0.844934  0.379732  0.387667  1
  Pd  Pd16  1  0.384996  0.384996  0.385955  1
  Pd  Pd17  1  0.000456  0.000456  0.344159  1
  Pd  Pd18  1  0.653904  0.005906  0.346096  1
  Pd  Pd19  1  0.005906  0.653904  0.346096  1
  Pd  Pd20  1  0.655841  0.345071  0.999544  1
  Pd  Pd21  1  0.999576  0.343672  0.000424  1
  Pd  Pd22  1  0.999576  0.343672  0.656328  1
  Pd  Pd23  1  0.345071  0.655841  0.999544  1
  Pd  Pd24  1  0.343672  0.999576  0.656328  1
  Pd  Pd25  1  0.343672  0.999576  0.000424  1
  Pd  Pd26  1  0.000456  0.000456  0.654929  1
  Pd  Pd27  1  0.005906  0.653904  0.994094  1
  Pd  Pd28  1  0.653904  0.005906  0.994094  1
