# generated using pymatgen
data_Ta4Mn5Co3
_symmetry_space_group_name_H-M   'P 1'
_cell_length_a   4.72149000
_cell_length_b   4.76301993
_cell_length_c   7.95400300
_cell_angle_alpha   90.00000000
_cell_angle_beta   90.00000000
_cell_angle_gamma   119.71197263
_symmetry_Int_Tables_number   1
_chemical_formula_structural   Ta4Mn5Co3
_chemical_formula_sum   'Ta4 Mn5 Co3'
_cell_volume   155.35707258
_cell_formula_units_Z   1
loop_
 _symmetry_equiv_pos_site_id
 _symmetry_equiv_pos_as_xyz
  1  'x, y, z'
loop_
 _atom_site_type_symbol
 _atom_site_label
 _atom_site_symmetry_multiplicity
 _atom_site_fract_x
 _atom_site_fract_y
 _atom_site_fract_z
 _atom_site_occupancy
  Ta  Ta0  1  0.334127  0.668256  0.068181  1
  Ta  Ta1  1  0.668285  0.336569  0.565367  1
  Ta  Ta2  1  0.668285  0.336569  0.934633  1
  Ta  Ta3  1  0.334127  0.668256  0.431819  1
  Mn  Mn4  1  0.173783  0.829566  0.750000  1
  Mn  Mn5  1  0.655783  0.829566  0.750000  1
  Mn  Mn6  1  0.343366  0.165109  0.250000  1
  Mn  Mn7  1  0.821744  0.165109  0.250000  1
  Mn  Mn8  1  0.171769  0.343538  0.750000  1
  Co  Co9  1  0.999464  0.998928  0.002162  1
  Co  Co10  1  0.999464  0.998928  0.497838  1
  Co  Co11  1  0.829804  0.659607  0.250000  1
