# generated using pymatgen
data_CeTh2(GaIr)3
_symmetry_space_group_name_H-M   'P 1'
_cell_length_a   7.21435701
_cell_length_b   7.21435711
_cell_length_c   4.09390400
_cell_angle_alpha   90.00000000
_cell_angle_beta   90.00000000
_cell_angle_gamma   119.99508440
_symmetry_Int_Tables_number   1
_chemical_formula_structural   CeTh2(GaIr)3
_chemical_formula_sum   'Ce1 Th2 Ga3 Ir3'
_cell_volume   184.53768241
_cell_formula_units_Z   1
loop_
 _symmetry_equiv_pos_site_id
 _symmetry_equiv_pos_as_xyz
  1  'x, y, z'
loop_
 _atom_site_type_symbol
 _atom_site_label
 _atom_site_symmetry_multiplicity
 _atom_site_fract_x
 _atom_site_fract_y
 _atom_site_fract_z
 _atom_site_occupancy
  Ce  Ce0  1  0.413917  0.413917  0.500000  1
  Th  Th1  1  0.584234  0.999530  0.500000  1
  Th  Th2  1  0.999530  0.584234  0.500000  1
  Ga  Ga3  1  0.760966  0.760966  0.000000  1
  Ga  Ga4  1  0.237003  0.003535  0.000000  1
  Ga  Ga5  1  0.003535  0.237003  0.000000  1
  Ir  Ir6  1  0.666882  0.334379  0.000000  1
  Ir  Ir7  1  0.334379  0.666882  0.000000  1
  Ir  Ir8  1  0.999555  0.999555  0.500000  1
