# generated using pymatgen
data_Lu4Ga4Ir3Pt
_symmetry_space_group_name_H-M   'P 1'
_cell_length_a   4.29093000
_cell_length_b   6.68279675
_cell_length_c   7.78989049
_cell_angle_alpha   89.79462481
_cell_angle_beta   90.00000000
_cell_angle_gamma   90.00000000
_symmetry_Int_Tables_number   1
_chemical_formula_structural   Lu4Ga4Ir3Pt
_chemical_formula_sum   'Lu4 Ga4 Ir3 Pt1'
_cell_volume   223.37689248
_cell_formula_units_Z   1
loop_
 _symmetry_equiv_pos_site_id
 _symmetry_equiv_pos_as_xyz
  1  'x, y, z'
loop_
 _atom_site_type_symbol
 _atom_site_label
 _atom_site_symmetry_multiplicity
 _atom_site_fract_x
 _atom_site_fract_y
 _atom_site_fract_z
 _atom_site_occupancy
  Lu  Lu0  1  0.250000  0.966339  0.317217  1
  Lu  Lu1  1  0.250000  0.472617  0.179403  1
  Lu  Lu2  1  0.750000  0.027553  0.684985  1
  Lu  Lu3  1  0.750000  0.529539  0.819505  1
  Ga  Ga4  1  0.250000  0.353311  0.562706  1
  Ga  Ga5  1  0.250000  0.851768  0.938301  1
  Ga  Ga6  1  0.750000  0.651103  0.439489  1
  Ga  Ga7  1  0.750000  0.147091  0.058550  1
  Ir  Ir8  1  0.250000  0.237553  0.877712  1
  Ir  Ir9  1  0.250000  0.738064  0.621665  1
  Ir  Ir10  1  0.750000  0.762506  0.123337  1
  Pt  Pt11  1  0.750000  0.262555  0.377131  1
