# generated using pymatgen
data_Sr2Er3BiS8
_symmetry_space_group_name_H-M   'P 1'
_cell_length_a   3.98356100
_cell_length_b   12.07243200
_cell_length_c   14.33284200
_cell_angle_alpha   90.00000000
_cell_angle_beta   90.00000000
_cell_angle_gamma   90.00000000
_symmetry_Int_Tables_number   1
_chemical_formula_structural   Sr2Er3BiS8
_chemical_formula_sum   'Sr4 Er6 Bi2 S16'
_cell_volume   689.28456432
_cell_formula_units_Z   2
loop_
 _symmetry_equiv_pos_site_id
 _symmetry_equiv_pos_as_xyz
  1  'x, y, z'
loop_
 _atom_site_type_symbol
 _atom_site_label
 _atom_site_symmetry_multiplicity
 _atom_site_fract_x
 _atom_site_fract_y
 _atom_site_fract_z
 _atom_site_occupancy
  Sr  Sr0  1  0.250000  0.760581  0.338213  1
  Sr  Sr1  1  0.250000  0.260581  0.161787  1
  Sr  Sr2  1  0.750000  0.241231  0.662598  1
  Sr  Sr3  1  0.750000  0.741231  0.837402  1
  Er  Er4  1  0.750000  0.567097  0.612886  1
  Er  Er5  1  0.750000  0.067097  0.887114  1
  Er  Er6  1  0.250000  0.419495  0.898759  1
  Er  Er7  1  0.250000  0.919495  0.601241  1
  Er  Er8  1  0.750000  0.578367  0.098177  1
  Er  Er9  1  0.750000  0.078367  0.401823  1
  Bi  Bi10  1  0.250000  0.433162  0.389730  1
  Bi  Bi11  1  0.250000  0.933162  0.110270  1
  S  S12  1  0.250000  0.207939  0.827661  1
  S  S13  1  0.250000  0.707939  0.672339  1
  S  S14  1  0.750000  0.784556  0.176379  1
  S  S15  1  0.750000  0.284556  0.323621  1
  S  S16  1  0.250000  0.128157  0.527461  1
  S  S17  1  0.250000  0.628157  0.972539  1
  S  S18  1  0.750000  0.870936  0.475070  1
  S  S19  1  0.750000  0.370936  0.024930  1
  S  S20  1  0.250000  0.022035  0.287938  1
  S  S21  1  0.250000  0.522035  0.212062  1
  S  S22  1  0.750000  0.978200  0.714605  1
  S  S23  1  0.750000  0.478200  0.785395  1
  S  S24  1  0.250000  0.415234  0.585040  1
  S  S25  1  0.250000  0.915234  0.914960  1
  S  S26  1  0.750000  0.593009  0.425734  1
  S  S27  1  0.750000  0.093009  0.074266  1
