# generated using pymatgen
data_Ho3Lu7In8(IrPt)2
_symmetry_space_group_name_H-M   'P 1'
_cell_length_a   3.57744300
_cell_length_b   8.05367756
_cell_length_c   18.03935350
_cell_angle_alpha   89.85497860
_cell_angle_beta   90.00000000
_cell_angle_gamma   90.00000000
_symmetry_Int_Tables_number   1
_chemical_formula_structural   Ho3Lu7In8(IrPt)2
_chemical_formula_sum   'Ho3 Lu7 In8 Ir2 Pt2'
_cell_volume   519.74047464
_cell_formula_units_Z   1
loop_
 _symmetry_equiv_pos_site_id
 _symmetry_equiv_pos_as_xyz
  1  'x, y, z'
loop_
 _atom_site_type_symbol
 _atom_site_label
 _atom_site_symmetry_multiplicity
 _atom_site_fract_x
 _atom_site_fract_y
 _atom_site_fract_z
 _atom_site_occupancy
  Ho  Ho0  1  0.000000  0.749126  0.279784  1
  Ho  Ho1  1  0.000000  0.999963  0.999960  1
  Ho  Ho2  1  0.000000  0.500057  0.500008  1
  Lu  Lu3  1  0.000000  0.116019  0.412570  1
  Lu  Lu4  1  0.000000  0.884363  0.587657  1
  Lu  Lu5  1  0.000000  0.383063  0.913482  1
  Lu  Lu6  1  0.000000  0.616811  0.086254  1
  Lu  Lu7  1  0.000000  0.237002  0.221788  1
  Lu  Lu8  1  0.000000  0.762912  0.778220  1
  Lu  Lu9  1  0.000000  0.250118  0.720438  1
  In  In10  1  0.500000  0.422510  0.351244  1
  In  In11  1  0.500000  0.576754  0.648887  1
  In  In12  1  0.500000  0.074831  0.850958  1
  In  In13  1  0.500000  0.925782  0.148705  1
  In  In14  1  0.500000  0.293521  0.066384  1
  In  In15  1  0.500000  0.706307  0.933495  1
  In  In16  1  0.500000  0.205702  0.567076  1
  In  In17  1  0.500000  0.794618  0.433519  1
  Ir  Ir18  1  0.500000  0.024678  0.304095  1
  Ir  Ir19  1  0.500000  0.977753  0.696116  1
  Pt  Pt20  1  0.500000  0.477008  0.803818  1
  Pt  Pt21  1  0.500000  0.521101  0.195541  1
