# generated using pymatgen
data_La3(Ga2Si)2
_symmetry_space_group_name_H-M   'P 1'
_cell_length_a   4.30099706
_cell_length_b   4.37990398
_cell_length_c   22.21531006
_cell_angle_alpha   84.34267157
_cell_angle_beta   84.44491877
_cell_angle_gamma   89.99999427
_symmetry_Int_Tables_number   1
_chemical_formula_structural   La3(Ga2Si)2
_chemical_formula_sum   'La6 Ga8 Si4'
_cell_volume   414.47756534
_cell_formula_units_Z   2
loop_
 _symmetry_equiv_pos_site_id
 _symmetry_equiv_pos_as_xyz
  1  'x, y, z'
loop_
 _atom_site_type_symbol
 _atom_site_label
 _atom_site_symmetry_multiplicity
 _atom_site_fract_x
 _atom_site_fract_y
 _atom_site_fract_z
 _atom_site_occupancy
  La  La0  1  0.958146  0.708146  0.083707  1
  La  La1  1  0.290778  0.040778  0.418445  1
  La  La2  1  0.624099  0.374099  0.751800  1
  La  La3  1  0.376364  0.626364  0.247273  1
  La  La4  1  0.709153  0.959153  0.581694  1
  La  La5  1  0.041171  0.291171  0.917657  1
  Ga  Ga6  1  0.820072  0.570072  0.359855  1
  Ga  Ga7  1  0.153129  0.903129  0.693743  1
  Ga  Ga8  1  0.431075  0.181075  0.137849  1
  Ga  Ga9  1  0.764106  0.514106  0.471789  1
  Ga  Ga10  1  0.097022  0.847022  0.805957  1
  Ga  Ga11  1  0.847517  0.097517  0.304967  1
  Ga  Ga12  1  0.180553  0.430553  0.638894  1
  Ga  Ga13  1  0.513572  0.763572  0.972855  1
  Si  Si14  1  0.902730  0.152730  0.194540  1
  Si  Si15  1  0.235536  0.485536  0.528928  1
  Si  Si16  1  0.568752  0.818752  0.862496  1
  Si  Si17  1  0.486225  0.236225  0.027548  1
