# generated using pymatgen
data_Er4AlZnRu6
_symmetry_space_group_name_H-M   'P 1'
_cell_length_a   5.39602600
_cell_length_b   5.34574789
_cell_length_c   8.58580822
_cell_angle_alpha   90.73029479
_cell_angle_beta   90.00000000
_cell_angle_gamma   120.31161400
_symmetry_Int_Tables_number   1
_chemical_formula_structural   Er4AlZnRu6
_chemical_formula_sum   'Er4 Al1 Zn1 Ru6'
_cell_volume   213.78375679
_cell_formula_units_Z   1
loop_
 _symmetry_equiv_pos_site_id
 _symmetry_equiv_pos_as_xyz
  1  'x, y, z'
loop_
 _atom_site_type_symbol
 _atom_site_label
 _atom_site_symmetry_multiplicity
 _atom_site_fract_x
 _atom_site_fract_y
 _atom_site_fract_z
 _atom_site_occupancy
  Er  Er0  1  0.331861  0.663722  0.436375  1
  Er  Er1  1  0.667394  0.334786  0.562324  1
  Er  Er2  1  0.666412  0.332822  0.933697  1
  Er  Er3  1  0.336952  0.673905  0.072718  1
  Al  Al4  1  0.992250  0.984501  0.004372  1
  Zn  Zn5  1  0.168754  0.337507  0.748383  1
  Ru  Ru6  1  0.180166  0.838898  0.752655  1
  Ru  Ru7  1  0.345774  0.173079  0.246183  1
  Ru  Ru8  1  0.829338  0.658676  0.252653  1
  Ru  Ru9  1  0.658733  0.838898  0.752655  1
  Ru  Ru10  1  0.827304  0.173079  0.246183  1
  Ru  Ru11  1  0.995063  0.990125  0.491803  1
