# generated using pymatgen
data_Nd8Ho11ScSi15Os
_symmetry_space_group_name_H-M   'P 1'
_cell_length_a   7.41815133
_cell_length_b   7.83778821
_cell_length_c   14.70349300
_cell_angle_alpha   90.00000000
_cell_angle_beta   90.00000000
_cell_angle_gamma   90.15946356
_symmetry_Int_Tables_number   1
_chemical_formula_structural   Nd8Ho11ScSi15Os
_chemical_formula_sum   'Nd8 Ho11 Sc1 Si15 Os1'
_cell_volume   854.88569471
_cell_formula_units_Z   1
loop_
 _symmetry_equiv_pos_site_id
 _symmetry_equiv_pos_as_xyz
  1  'x, y, z'
loop_
 _atom_site_type_symbol
 _atom_site_label
 _atom_site_symmetry_multiplicity
 _atom_site_fract_x
 _atom_site_fract_y
 _atom_site_fract_z
 _atom_site_occupancy
  Nd  Nd0  1  0.020594  0.182331  0.098701  1
  Nd  Nd1  1  0.984069  0.827092  0.904595  1
  Nd  Nd2  1  0.481960  0.678529  0.904852  1
  Nd  Nd3  1  0.984069  0.827092  0.595405  1
  Nd  Nd4  1  0.517136  0.318783  0.097695  1
  Nd  Nd5  1  0.020594  0.182331  0.401299  1
  Nd  Nd6  1  0.517136  0.318783  0.402305  1
  Nd  Nd7  1  0.481960  0.678529  0.595148  1
  Ho  Ho8  1  0.150753  0.507029  0.750000  1
  Ho  Ho9  1  0.843918  0.488094  0.250000  1
  Ho  Ho10  1  0.665310  0.990280  0.750000  1
  Ho  Ho11  1  0.312007  0.174081  0.626585  1
  Ho  Ho12  1  0.676920  0.825834  0.373622  1
  Ho  Ho13  1  0.178762  0.680948  0.374189  1
  Ho  Ho14  1  0.676920  0.825834  0.126378  1
  Ho  Ho15  1  0.832815  0.314085  0.625933  1
  Ho  Ho16  1  0.312007  0.174081  0.873415  1
  Ho  Ho17  1  0.832815  0.314085  0.874067  1
  Ho  Ho18  1  0.178762  0.680948  0.125811  1
  Sc  Sc19  1  0.342769  0.015345  0.250000  1
  Si  Si20  1  0.977705  0.894902  0.250000  1
  Si  Si21  1  0.473984  0.608002  0.250000  1
  Si  Si22  1  0.526563  0.393258  0.750000  1
  Si  Si23  1  0.273631  0.870720  0.750000  1
  Si  Si24  1  0.716560  0.125560  0.250000  1
  Si  Si25  1  0.225644  0.369564  0.250000  1
  Si  Si26  1  0.766933  0.619043  0.750000  1
  Si  Si27  1  0.151777  0.472825  0.536476  1
  Si  Si28  1  0.851734  0.533459  0.461248  1
  Si  Si29  1  0.351158  0.968588  0.459064  1
  Si  Si30  1  0.851734  0.533459  0.038752  1
  Si  Si31  1  0.645714  0.030990  0.537007  1
  Si  Si32  1  0.151777  0.472825  0.963524  1
  Si  Si33  1  0.645714  0.030990  0.962993  1
  Si  Si34  1  0.351158  0.968588  0.040936  1
  Os  Os35  1  0.026945  0.103114  0.750000  1
