# generated using pymatgen
data_Zr2In4GaNi
_symmetry_space_group_name_H-M   'P 1'
_cell_length_a   10.08656600
_cell_length_b   10.08656600
_cell_length_c   6.58406800
_cell_angle_alpha   90.00000000
_cell_angle_beta   90.00000000
_cell_angle_gamma   90.00000000
_symmetry_Int_Tables_number   1
_chemical_formula_structural   Zr2In4GaNi
_chemical_formula_sum   'Zr8 In16 Ga4 Ni4'
_cell_volume   669.85526746
_cell_formula_units_Z   4
loop_
 _symmetry_equiv_pos_site_id
 _symmetry_equiv_pos_as_xyz
  1  'x, y, z'
loop_
 _atom_site_type_symbol
 _atom_site_label
 _atom_site_symmetry_multiplicity
 _atom_site_fract_x
 _atom_site_fract_y
 _atom_site_fract_z
 _atom_site_occupancy
  Zr  Zr0  1  0.808191  0.191808  0.000000  1
  Zr  Zr1  1  0.338565  0.338565  0.000000  1
  Zr  Zr2  1  0.661435  0.661435  0.000000  1
  Zr  Zr3  1  0.191808  0.808191  0.000000  1
  Zr  Zr4  1  0.838564  0.161434  0.499999  1
  Zr  Zr5  1  0.308191  0.308191  0.499999  1
  Zr  Zr6  1  0.691809  0.691809  0.499999  1
  Zr  Zr7  1  0.161434  0.838564  0.499999  1
  In  In8  1  0.296336  0.059146  0.228030  1
  In  In9  1  0.059146  0.296336  0.228030  1
  In  In10  1  0.940854  0.703664  0.228030  1
  In  In11  1  0.703664  0.940854  0.228030  1
  In  In12  1  0.559147  0.203664  0.271968  1
  In  In13  1  0.796335  0.440853  0.271968  1
  In  In14  1  0.203664  0.559147  0.271968  1
  In  In15  1  0.440853  0.796335  0.271968  1
  In  In16  1  0.559147  0.203664  0.728031  1
  In  In17  1  0.796335  0.440853  0.728031  1
  In  In18  1  0.203664  0.559147  0.728031  1
  In  In19  1  0.440853  0.796335  0.728031  1
  In  In20  1  0.296336  0.059146  0.771969  1
  In  In21  1  0.059146  0.296336  0.771969  1
  In  In22  1  0.940854  0.703664  0.771969  1
  In  In23  1  0.703664  0.940854  0.771969  1
  Ga  Ga24  1  0.000000  0.000000  0.193605  1
  Ga  Ga25  1  0.499999  0.499999  0.306394  1
  Ga  Ga26  1  0.499999  0.499999  0.693607  1
  Ga  Ga27  1  0.000000  0.000000  0.806394  1
  Ni  Ni28  1  0.600150  0.399851  0.000000  1
  Ni  Ni29  1  0.399851  0.600150  0.000000  1
  Ni  Ni30  1  0.100150  0.100150  0.499999  1
  Ni  Ni31  1  0.899850  0.899850  0.499999  1
