# generated using pymatgen
data_TbNd2In4Hg
_symmetry_space_group_name_H-M   'P 1'
_cell_length_a   6.49821794
_cell_length_b   6.49821823
_cell_length_c   10.63058400
_cell_angle_alpha   90.00000000
_cell_angle_beta   90.00000000
_cell_angle_gamma   103.46595971
_symmetry_Int_Tables_number   1
_chemical_formula_structural   TbNd2In4Hg
_chemical_formula_sum   'Tb2 Nd4 In8 Hg2'
_cell_volume   436.55510254
_cell_formula_units_Z   2
loop_
 _symmetry_equiv_pos_site_id
 _symmetry_equiv_pos_as_xyz
  1  'x, y, z'
loop_
 _atom_site_type_symbol
 _atom_site_label
 _atom_site_symmetry_multiplicity
 _atom_site_fract_x
 _atom_site_fract_y
 _atom_site_fract_z
 _atom_site_occupancy
  Tb  Tb0  1  0.627500  0.627500  0.250000  1
  Tb  Tb1  1  0.372500  0.372500  0.750000  1
  Nd  Nd2  1  0.202946  0.797054  0.500000  1
  Nd  Nd3  1  0.202946  0.797054  0.000000  1
  Nd  Nd4  1  0.797054  0.202946  0.500000  1
  Nd  Nd5  1  0.797054  0.202946  0.000000  1
  In  In6  1  0.315620  0.315620  0.045724  1
  In  In7  1  0.684380  0.684380  0.954276  1
  In  In8  1  0.315620  0.315620  0.454276  1
  In  In9  1  0.684380  0.684380  0.545724  1
  In  In10  1  0.503439  0.072990  0.250000  1
  In  In11  1  0.927010  0.496561  0.750000  1
  In  In12  1  0.496561  0.927010  0.750000  1
  In  In13  1  0.072990  0.503439  0.250000  1
  Hg  Hg14  1  0.005651  0.005651  0.250000  1
  Hg  Hg15  1  0.994349  0.994349  0.750000  1
