# generated using pymatgen
data_Sc5Al7GaSi9Ir7
_symmetry_space_group_name_H-M   'P 1'
_cell_length_a   8.61010179
_cell_length_b   8.60616704
_cell_length_c   8.60617704
_cell_angle_alpha   59.65029656
_cell_angle_beta   59.76198917
_cell_angle_gamma   59.76205797
_symmetry_Int_Tables_number   1
_chemical_formula_structural   Sc5Al7GaSi9Ir7
_chemical_formula_sum   'Sc5 Al7 Ga1 Si9 Ir7'
_cell_volume   448.11460684
_cell_formula_units_Z   1
loop_
 _symmetry_equiv_pos_site_id
 _symmetry_equiv_pos_as_xyz
  1  'x, y, z'
loop_
 _atom_site_type_symbol
 _atom_site_label
 _atom_site_symmetry_multiplicity
 _atom_site_fract_x
 _atom_site_fract_y
 _atom_site_fract_z
 _atom_site_occupancy
  Sc  Sc0  1  0.813954  0.184840  0.184841  1
  Sc  Sc1  1  0.791717  0.211153  0.787421  1
  Sc  Sc2  1  0.791715  0.787420  0.211155  1
  Sc  Sc3  1  0.210091  0.788466  0.207104  1
  Sc  Sc4  1  0.210092  0.207102  0.788465  1
  Al  Al5  1  0.629124  0.618872  0.122418  1
  Al  Al6  1  0.142827  0.621960  0.621959  1
  Al  Al7  1  0.629124  0.122419  0.618872  1
  Al  Al8  1  0.382959  0.370078  0.370077  1
  Al  Al9  1  0.376573  0.383337  0.860327  1
  Al  Al10  1  0.376571  0.860328  0.383337  1
  Al  Al11  1  0.882303  0.367691  0.367691  1
  Ga  Ga12  1  0.054423  0.944106  0.944109  1
  Si  Si13  1  0.869763  0.843938  0.843938  1
  Si  Si14  1  0.854969  0.838586  0.456388  1
  Si  Si15  1  0.445235  0.843959  0.843960  1
  Si  Si16  1  0.854970  0.456388  0.838586  1
  Si  Si17  1  0.161278  0.145805  0.145802  1
  Si  Si18  1  0.157605  0.127112  0.557382  1
  Si  Si19  1  0.157606  0.557383  0.127112  1
  Si  Si20  1  0.545852  0.146092  0.146092  1
  Si  Si21  1  0.613700  0.618575  0.618576  1
  Ir  Ir22  1  0.513552  0.491676  0.491676  1
  Ir  Ir23  1  0.000951  0.495375  0.495375  1
  Ir  Ir24  1  0.505805  0.994599  0.994599  1
  Ir  Ir25  1  0.509187  0.986695  0.496796  1
  Ir  Ir26  1  0.509187  0.496797  0.986695  1
  Ir  Ir27  1  0.004432  0.493577  0.995673  1
  Ir  Ir28  1  0.004432  0.995673  0.493577  1
