# generated using pymatgen
data_Mg2ScP6IN12
_symmetry_space_group_name_H-M   'P 1'
_cell_length_a   7.37215706
_cell_length_b   7.33526012
_cell_length_c   7.37215685
_cell_angle_alpha   109.42396567
_cell_angle_beta   110.25180135
_cell_angle_gamma   109.42393379
_symmetry_Int_Tables_number   1
_chemical_formula_structural   Mg2ScP6IN12
_chemical_formula_sum   'Mg2 Sc1 P6 I1 N12'
_cell_volume   304.24809790
_cell_formula_units_Z   1
loop_
 _symmetry_equiv_pos_site_id
 _symmetry_equiv_pos_as_xyz
  1  'x, y, z'
loop_
 _atom_site_type_symbol
 _atom_site_label
 _atom_site_symmetry_multiplicity
 _atom_site_fract_x
 _atom_site_fract_y
 _atom_site_fract_z
 _atom_site_occupancy
  Mg  Mg0  1  0.004843  0.002230  0.389586  1
  Mg  Mg1  1  0.389586  0.002230  0.004843  1
  Sc  Sc2  1  0.029612  0.396572  0.029612  1
  P  P3  1  0.505574  0.258551  0.751769  1
  P  P4  1  0.251711  0.750192  0.498480  1
  P  P5  1  0.740761  0.499600  0.256991  1
  P  P6  1  0.751769  0.258551  0.505574  1
  P  P7  1  0.498480  0.750192  0.251711  1
  P  P8  1  0.256991  0.499600  0.740761  1
  I  I9  1  0.973576  0.965900  0.973576  1
  N  N10  1  0.378301  0.667321  0.378301  1
  N  N11  1  0.706186  0.424318  0.426749  1
  N  N12  1  0.426749  0.424318  0.706186  1
  N  N13  1  0.732856  0.296516  0.732856  1
  N  N14  1  0.991068  0.576813  0.285205  1
  N  N15  1  0.285205  0.576813  0.991068  1
  N  N16  1  0.291495  0.001823  0.565978  1
  N  N17  1  0.999794  0.280664  0.570286  1
  N  N18  1  0.717388  0.722654  0.291790  1
  N  N19  1  0.565978  0.001823  0.291495  1
  N  N20  1  0.291790  0.722654  0.717388  1
  N  N21  1  0.570286  0.280664  0.999794  1
