# generated using pymatgen
data_Tc2W(SeS)2
_symmetry_space_group_name_H-M   'P 1'
_cell_length_a   6.54145864
_cell_length_b   6.60658015
_cell_length_c   6.66056153
_cell_angle_alpha   93.73650227
_cell_angle_beta   92.37206386
_cell_angle_gamma   94.15048156
_symmetry_Int_Tables_number   1
_chemical_formula_structural   Tc2W(SeS)2
_chemical_formula_sum   'Tc4 W2 Se4 S4'
_cell_volume   286.17455710
_cell_formula_units_Z   2
loop_
 _symmetry_equiv_pos_site_id
 _symmetry_equiv_pos_as_xyz
  1  'x, y, z'
loop_
 _atom_site_type_symbol
 _atom_site_label
 _atom_site_symmetry_multiplicity
 _atom_site_fract_x
 _atom_site_fract_y
 _atom_site_fract_z
 _atom_site_occupancy
  Tc  Tc0  1  0.589525  0.453913  0.764577  1
  Tc  Tc1  1  0.450846  0.766832  0.588143  1
  Tc  Tc2  1  0.771057  0.592714  0.447532  1
  Tc  Tc3  1  0.411322  0.552160  0.232646  1
  W  W4  1  0.547519  0.230716  0.409749  1
  W  W5  1  0.228263  0.412381  0.551287  1
  Se  Se6  1  0.739289  0.371677  0.119217  1
  Se  Se7  1  0.362202  0.122006  0.742983  1
  Se  Se8  1  0.789710  0.792371  0.782793  1
  Se  Se9  1  0.205127  0.209054  0.210319  1
  S  S10  1  0.865467  0.289635  0.613116  1
  S  S11  1  0.285283  0.616523  0.871051  1
  S  S12  1  0.619504  0.868123  0.288073  1
  S  S13  1  0.134886  0.721892  0.378513  1
