# generated using pymatgen
data_Li22HgRh3
_symmetry_space_group_name_H-M   'P 1'
_cell_length_a   8.29207936
_cell_length_b   8.17874697
_cell_length_c   8.29208042
_cell_angle_alpha   109.19459852
_cell_angle_beta   109.74642350
_cell_angle_gamma   109.19458580
_symmetry_Int_Tables_number   1
_chemical_formula_structural   Li22HgRh3
_chemical_formula_sum   'Li22 Hg1 Rh3'
_cell_volume   434.37332335
_cell_formula_units_Z   1
loop_
 _symmetry_equiv_pos_site_id
 _symmetry_equiv_pos_as_xyz
  1  'x, y, z'
loop_
 _atom_site_type_symbol
 _atom_site_label
 _atom_site_symmetry_multiplicity
 _atom_site_fract_x
 _atom_site_fract_y
 _atom_site_fract_z
 _atom_site_occupancy
  Li  Li0  1  0.000000  0.795840  0.000000  1
  Li  Li1  1  0.796799  0.989526  0.000000  1
  Li  Li2  1  0.000000  0.989526  0.796799  1
  Li  Li3  1  0.203201  0.192727  0.203201  1
  Li  Li4  1  0.362232  0.605023  0.362232  1
  Li  Li5  1  0.250522  0.004737  0.648702  1
  Li  Li6  1  0.648702  0.004737  0.250522  1
  Li  Li7  1  0.268049  0.661956  0.000000  1
  Li  Li8  1  0.749478  0.754216  0.398180  1
  Li  Li9  1  0.398180  0.754216  0.749478  1
  Li  Li10  1  0.000000  0.661956  0.268049  1
  Li  Li11  1  0.000000  0.242792  0.637768  1
  Li  Li12  1  0.637768  0.242792  0.000000  1
  Li  Li13  1  0.351298  0.356035  0.601820  1
  Li  Li14  1  0.601820  0.356035  0.351298  1
  Li  Li15  1  0.731951  0.393905  0.731951  1
  Li  Li16  1  0.350436  0.339286  0.000000  1
  Li  Li17  1  0.000000  0.656678  0.658886  1
  Li  Li18  1  0.000000  0.339286  0.350436  1
  Li  Li19  1  0.341114  0.997793  0.341114  1
  Li  Li20  1  0.649564  0.988849  0.649564  1
  Li  Li21  1  0.658886  0.656678  0.000000  1
  Hg  Hg22  1  0.000000  0.347556  0.000000  1
  Rh  Rh23  1  0.337157  0.001670  0.000000  1
  Rh  Rh24  1  0.000000  0.001670  0.337157  1
  Rh  Rh25  1  0.662843  0.664513  0.662843  1
