# generated using pymatgen
data_CeDy4Ru6W
_symmetry_space_group_name_H-M   'P 1'
_cell_length_a   5.71661785
_cell_length_b   5.21491010
_cell_length_c   9.23705900
_cell_angle_alpha   90.00000000
_cell_angle_beta   90.00000000
_cell_angle_gamma   123.25079947
_symmetry_Int_Tables_number   1
_chemical_formula_structural   CeDy4Ru6W
_chemical_formula_sum   'Ce1 Dy4 Ru6 W1'
_cell_volume   230.28764518
_cell_formula_units_Z   1
loop_
 _symmetry_equiv_pos_site_id
 _symmetry_equiv_pos_as_xyz
  1  'x, y, z'
loop_
 _atom_site_type_symbol
 _atom_site_label
 _atom_site_symmetry_multiplicity
 _atom_site_fract_x
 _atom_site_fract_y
 _atom_site_fract_z
 _atom_site_occupancy
  Ce  Ce0  1  0.836686  0.672933  0.250000  1
  Dy  Dy1  1  0.667100  0.334475  0.574198  1
  Dy  Dy2  1  0.333184  0.665871  0.441524  1
  Dy  Dy3  1  0.333184  0.665871  0.058476  1
  Dy  Dy4  1  0.667100  0.334475  0.925802  1
  Ru  Ru5  1  0.009635  0.019232  0.507301  1
  Ru  Ru6  1  0.009635  0.019232  0.992699  1
  Ru  Ru7  1  0.165830  0.805989  0.750000  1
  Ru  Ru8  1  0.639983  0.806032  0.750000  1
  Ru  Ru9  1  0.838601  0.188009  0.250000  1
  Ru  Ru10  1  0.348885  0.188084  0.250000  1
  W  W11  1  0.150176  0.299798  0.750000  1
