# generated using pymatgen
data_Eu2Zn14Co3
_symmetry_space_group_name_H-M   'P 1'
_cell_length_a   6.74278197
_cell_length_b   6.74278203
_cell_length_c   6.74278174
_cell_angle_alpha   83.12627581
_cell_angle_beta   83.12627923
_cell_angle_gamma   83.12628392
_symmetry_Int_Tables_number   1
_chemical_formula_structural   Eu2Zn14Co3
_chemical_formula_sum   'Eu2 Zn14 Co3'
_cell_volume   300.43908743
_cell_formula_units_Z   1
loop_
 _symmetry_equiv_pos_site_id
 _symmetry_equiv_pos_as_xyz
  1  'x, y, z'
loop_
 _atom_site_type_symbol
 _atom_site_label
 _atom_site_symmetry_multiplicity
 _atom_site_fract_x
 _atom_site_fract_y
 _atom_site_fract_z
 _atom_site_occupancy
  Eu  Eu0  1  0.344367  0.344367  0.344367  1
  Eu  Eu1  1  0.655633  0.655633  0.655633  1
  Zn  Zn2  1  0.711084  0.288916  0.000000  1
  Zn  Zn3  1  0.288916  0.711084  0.000000  1
  Zn  Zn4  1  0.107640  0.107640  0.107640  1
  Zn  Zn5  1  0.656186  0.656186  0.137632  1
  Zn  Zn6  1  0.711084  0.000000  0.288916  1
  Zn  Zn7  1  0.000000  0.711084  0.288916  1
  Zn  Zn8  1  0.862368  0.343815  0.343814  1
  Zn  Zn9  1  0.343815  0.862368  0.343814  1
  Zn  Zn10  1  0.656185  0.137632  0.656186  1
  Zn  Zn11  1  0.137632  0.656185  0.656186  1
  Zn  Zn12  1  0.288916  0.000000  0.711083  1
  Zn  Zn13  1  0.000000  0.288916  0.711083  1
  Zn  Zn14  1  0.343814  0.343814  0.862368  1
  Zn  Zn15  1  0.892360  0.892360  0.892360  1
  Co  Co16  1  0.500000  0.000000  0.000000  1
  Co  Co17  1  0.000000  0.500000  0.000000  1
  Co  Co18  1  0.000000  0.000000  0.500000  1
