# generated using pymatgen
data_Ca5Sm3(OsC2)4
_symmetry_space_group_name_H-M   'P 1'
_cell_length_a   5.21195600
_cell_length_b   6.49442135
_cell_length_c   10.35708946
_cell_angle_alpha   90.03576633
_cell_angle_beta   90.00000000
_cell_angle_gamma   90.00000000
_symmetry_Int_Tables_number   1
_chemical_formula_structural   Ca5Sm3(OsC2)4
_chemical_formula_sum   'Ca5 Sm3 Os4 C8'
_cell_volume   350.57330665
_cell_formula_units_Z   1
loop_
 _symmetry_equiv_pos_site_id
 _symmetry_equiv_pos_as_xyz
  1  'x, y, z'
loop_
 _atom_site_type_symbol
 _atom_site_label
 _atom_site_symmetry_multiplicity
 _atom_site_fract_x
 _atom_site_fract_y
 _atom_site_fract_z
 _atom_site_occupancy
  Ca  Ca0  1  0.250000  0.194981  0.947279  1
  Ca  Ca1  1  0.250000  0.532756  0.220869  1
  Ca  Ca2  1  0.750000  0.464773  0.780129  1
  Ca  Ca3  1  0.750000  0.967493  0.724799  1
  Ca  Ca4  1  0.250000  0.033742  0.275975  1
  Sm  Sm5  1  0.250000  0.691678  0.551939  1
  Sm  Sm6  1  0.750000  0.308385  0.444061  1
  Sm  Sm7  1  0.750000  0.809978  0.055690  1
  Os  Os8  1  0.250000  0.729564  0.853264  1
  Os  Os9  1  0.750000  0.272103  0.144198  1
  Os  Os10  1  0.750000  0.772698  0.355477  1
  Os  Os11  1  0.250000  0.229452  0.647763  1
  C  C12  1  0.250000  0.469968  0.755642  1
  C  C13  1  0.750000  0.533989  0.243396  1
  C  C14  1  0.750000  0.033750  0.257037  1
  C  C15  1  0.250000  0.965114  0.739299  1
  C  C16  1  0.250000  0.794486  0.029752  1
  C  C17  1  0.750000  0.193889  0.971327  1
  C  C18  1  0.750000  0.694010  0.530996  1
  C  C19  1  0.250000  0.307193  0.471109  1
