# generated using pymatgen
data_CaNdCo17Si8Ni
_symmetry_space_group_name_H-M   'P 1'
_cell_length_a   7.95842214
_cell_length_b   7.92647872
_cell_length_c   7.93942073
_cell_angle_alpha   121.57971992
_cell_angle_beta   121.66523957
_cell_angle_gamma   87.30321619
_symmetry_Int_Tables_number   1
_chemical_formula_structural   CaNdCo17Si8Ni
_chemical_formula_sum   'Ca1 Nd1 Co17 Si8 Ni1'
_cell_volume   344.75321100
_cell_formula_units_Z   1
loop_
 _symmetry_equiv_pos_site_id
 _symmetry_equiv_pos_as_xyz
  1  'x, y, z'
loop_
 _atom_site_type_symbol
 _atom_site_label
 _atom_site_symmetry_multiplicity
 _atom_site_fract_x
 _atom_site_fract_y
 _atom_site_fract_z
 _atom_site_occupancy
  Ca  Ca0  1  0.750199  0.749968  0.000736  1
  Nd  Nd1  1  0.249150  0.249002  0.999016  1
  Co  Co2  1  0.449886  0.950589  0.760174  1
  Co  Co3  1  0.189721  0.690030  0.239483  1
  Co  Co4  1  0.550559  0.051230  0.240499  1
  Co  Co5  1  0.951862  0.189420  0.500124  1
  Co  Co6  1  0.198661  0.930648  0.128297  1
  Co  Co7  1  0.801541  0.069079  0.870044  1
  Co  Co8  1  0.431690  0.699123  0.129878  1
  Co  Co9  1  0.570197  0.302551  0.871853  1
  Co  Co10  1  0.697601  0.569136  0.268036  1
  Co  Co11  1  0.302543  0.431140  0.732986  1
  Co  Co12  1  0.930087  0.801586  0.732494  1
  Co  Co13  1  0.307139  0.550087  0.499483  1
  Co  Co14  1  0.810396  0.310325  0.759880  1
  Co  Co15  1  0.999605  0.499650  0.499913  1
  Co  Co16  1  0.500344  0.000942  0.499957  1
  Co  Co17  1  0.069371  0.197808  0.266766  1
  Co  Co18  1  0.049530  0.809703  0.500389  1
  Si  Si19  1  0.291501  0.790164  0.836907  1
  Si  Si20  1  0.048638  0.545907  0.837825  1
  Si  Si21  1  0.544573  0.711625  0.501352  1
  Si  Si22  1  0.789710  0.953739  0.498194  1
  Si  Si23  1  0.452983  0.291144  0.501649  1
  Si  Si24  1  0.952772  0.455077  0.163083  1
  Si  Si25  1  0.712304  0.206285  0.162016  1
  Si  Si26  1  0.208841  0.044445  0.498277  1
  Ni  Ni27  1  0.688592  0.449596  0.500689  1
