# generated using pymatgen
data_Pa3Si5
_symmetry_space_group_name_H-M   'P 1'
_cell_length_a   6.42625800
_cell_length_b   6.42625878
_cell_length_c   4.30834600
_cell_angle_alpha   90.00000000
_cell_angle_beta   90.00000000
_cell_angle_gamma   120.00000629
_symmetry_Int_Tables_number   1
_chemical_formula_structural   Pa3Si5
_chemical_formula_sum   'Pa3 Si5'
_cell_volume   154.08400054
_cell_formula_units_Z   1
loop_
 _symmetry_equiv_pos_site_id
 _symmetry_equiv_pos_as_xyz
  1  'x, y, z'
loop_
 _atom_site_type_symbol
 _atom_site_label
 _atom_site_symmetry_multiplicity
 _atom_site_fract_x
 _atom_site_fract_y
 _atom_site_fract_z
 _atom_site_occupancy
  Pa  Pa0  1  0.000000  0.651593  0.000000  1
  Pa  Pa1  1  0.348407  0.348407  0.000000  1
  Pa  Pa2  1  0.651593  0.000000  0.000000  1
  Si  Si3  1  0.666667  0.333333  0.500000  1
  Si  Si4  1  0.333333  0.666667  0.500000  1
  Si  Si5  1  0.000000  0.251927  0.500000  1
  Si  Si6  1  0.251927  0.000000  0.500000  1
  Si  Si7  1  0.748073  0.748073  0.500000  1
