# generated using pymatgen
data_YbTm(AlPd)2
_symmetry_space_group_name_H-M   'P 1'
_cell_length_a   4.33999000
_cell_length_b   6.94907100
_cell_length_c   7.86306600
_cell_angle_alpha   90.00000000
_cell_angle_beta   90.00000000
_cell_angle_gamma   90.00000000
_symmetry_Int_Tables_number   1
_chemical_formula_structural   YbTm(AlPd)2
_chemical_formula_sum   'Yb2 Tm2 Al4 Pd4'
_cell_volume   237.14141057
_cell_formula_units_Z   2
loop_
 _symmetry_equiv_pos_site_id
 _symmetry_equiv_pos_as_xyz
  1  'x, y, z'
loop_
 _atom_site_type_symbol
 _atom_site_label
 _atom_site_symmetry_multiplicity
 _atom_site_fract_x
 _atom_site_fract_y
 _atom_site_fract_z
 _atom_site_occupancy
  Yb  Yb0  1  0.750000  0.968531  0.676972  1
  Yb  Yb1  1  0.750000  0.468531  0.823028  1
  Tm  Tm2  1  0.250000  0.032007  0.320319  1
  Tm  Tm3  1  0.250000  0.532007  0.179681  1
  Al  Al4  1  0.250000  0.139360  0.941678  1
  Al  Al5  1  0.250000  0.639360  0.558322  1
  Al  Al6  1  0.750000  0.861605  0.064062  1
  Al  Al7  1  0.750000  0.361605  0.435938  1
  Pd  Pd8  1  0.250000  0.271862  0.619052  1
  Pd  Pd9  1  0.250000  0.771862  0.880948  1
  Pd  Pd10  1  0.750000  0.726636  0.374227  1
  Pd  Pd11  1  0.750000  0.226636  0.125773  1
