# generated using pymatgen
data_Yb2Fe2NiN3
_symmetry_space_group_name_H-M   'P 1'
_cell_length_a   6.14660836
_cell_length_b   6.14660883
_cell_length_c   5.99877491
_cell_angle_alpha   88.24965423
_cell_angle_beta   88.24965637
_cell_angle_gamma   117.39944920
_symmetry_Int_Tables_number   1
_chemical_formula_structural   Yb2Fe2NiN3
_chemical_formula_sum   'Yb4 Fe4 Ni2 N6'
_cell_volume   200.86608265
_cell_formula_units_Z   2
loop_
 _symmetry_equiv_pos_site_id
 _symmetry_equiv_pos_as_xyz
  1  'x, y, z'
loop_
 _atom_site_type_symbol
 _atom_site_label
 _atom_site_symmetry_multiplicity
 _atom_site_fract_x
 _atom_site_fract_y
 _atom_site_fract_z
 _atom_site_occupancy
  Yb  Yb0  1  0.830435  0.678456  0.899962  1
  Yb  Yb1  1  0.321544  0.169565  0.600038  1
  Yb  Yb2  1  0.169565  0.321544  0.100038  1
  Yb  Yb3  1  0.678456  0.830435  0.399962  1
  Fe  Fe4  1  0.567309  0.172794  0.101902  1
  Fe  Fe5  1  0.432691  0.827206  0.898098  1
  Fe  Fe6  1  0.827206  0.432691  0.398098  1
  Fe  Fe7  1  0.172794  0.567309  0.601902  1
  Ni  Ni8  1  0.814229  0.185771  0.750000  1
  Ni  Ni9  1  0.185771  0.814229  0.250000  1
  N  N10  1  0.427525  0.572475  0.750000  1
  N  N11  1  0.572475  0.427525  0.250000  1
  N  N12  1  0.002511  0.737527  0.517777  1
  N  N13  1  0.737527  0.002511  0.017777  1
  N  N14  1  0.997489  0.262473  0.482223  1
  N  N15  1  0.262473  0.997489  0.982223  1
