# generated using pymatgen
data_RbSrPS4
_symmetry_space_group_name_H-M   'P 1'
_cell_length_a   6.59655200
_cell_length_b   6.85236100
_cell_length_c   17.66758700
_cell_angle_alpha   90.00000000
_cell_angle_beta   90.00000000
_cell_angle_gamma   90.00000000
_symmetry_Int_Tables_number   1
_chemical_formula_structural   RbSrPS4
_chemical_formula_sum   'Rb4 Sr4 P4 S16'
_cell_volume   798.60948418
_cell_formula_units_Z   4
loop_
 _symmetry_equiv_pos_site_id
 _symmetry_equiv_pos_as_xyz
  1  'x, y, z'
loop_
 _atom_site_type_symbol
 _atom_site_label
 _atom_site_symmetry_multiplicity
 _atom_site_fract_x
 _atom_site_fract_y
 _atom_site_fract_z
 _atom_site_occupancy
  Rb  Rb0  1  0.014981  0.002902  0.042564  1
  Rb  Rb1  1  0.514981  0.497098  0.957436  1
  Rb  Rb2  1  0.985019  0.502902  0.457436  1
  Rb  Rb3  1  0.485019  0.997098  0.542564  1
  Sr  Sr4  1  0.295502  0.483783  0.230543  1
  Sr  Sr5  1  0.795502  0.016217  0.769457  1
  Sr  Sr6  1  0.704498  0.983783  0.269457  1
  Sr  Sr7  1  0.204498  0.516217  0.730543  1
  P  P8  1  0.217904  0.009378  0.345950  1
  P  P9  1  0.282096  0.990622  0.845950  1
  P  P10  1  0.717904  0.490622  0.654050  1
  P  P11  1  0.782096  0.509378  0.154050  1
  S  S12  1  0.344788  0.967863  0.731786  1
  S  S13  1  0.155212  0.032137  0.231786  1
  S  S14  1  0.401499  0.242035  0.372510  1
  S  S15  1  0.901499  0.257965  0.627490  1
  S  S16  1  0.885266  0.740121  0.635713  1
  S  S17  1  0.961477  0.005725  0.410609  1
  S  S18  1  0.038523  0.505725  0.089391  1
  S  S19  1  0.114734  0.240121  0.864287  1
  S  S20  1  0.655212  0.467863  0.768214  1
  S  S21  1  0.098501  0.757965  0.872510  1
  S  S22  1  0.598501  0.742035  0.127490  1
  S  S23  1  0.844788  0.532137  0.268214  1
  S  S24  1  0.385266  0.759879  0.364287  1
  S  S25  1  0.461477  0.494275  0.589391  1
  S  S26  1  0.538523  0.994275  0.910609  1
  S  S27  1  0.614734  0.259879  0.135713  1
