# generated using pymatgen
data_Th2BeSi4Rh
_symmetry_space_group_name_H-M   'P 1'
_cell_length_a   8.52850201
_cell_length_b   8.52850222
_cell_length_c   4.17057100
_cell_angle_alpha   90.00000000
_cell_angle_beta   90.00000000
_cell_angle_gamma   151.46847940
_symmetry_Int_Tables_number   1
_chemical_formula_structural   Th2BeSi4Rh
_chemical_formula_sum   'Th2 Be1 Si4 Rh1'
_cell_volume   144.89176222
_cell_formula_units_Z   1
loop_
 _symmetry_equiv_pos_site_id
 _symmetry_equiv_pos_as_xyz
  1  'x, y, z'
loop_
 _atom_site_type_symbol
 _atom_site_label
 _atom_site_symmetry_multiplicity
 _atom_site_fract_x
 _atom_site_fract_y
 _atom_site_fract_z
 _atom_site_occupancy
  Th  Th0  1  0.600639  0.399361  0.250000  1
  Th  Th1  1  0.391012  0.608988  0.750000  1
  Be  Be2  1  0.826166  0.173834  0.250000  1
  Si  Si3  1  0.961227  0.038773  0.250000  1
  Si  Si4  1  0.034230  0.965770  0.750000  1
  Si  Si5  1  0.254462  0.745538  0.250000  1
  Si  Si6  1  0.751563  0.248437  0.750000  1
  Rh  Rh7  1  0.180703  0.819297  0.750000  1
