# generated using pymatgen
data_Ac2Zn23Ni3
_symmetry_space_group_name_H-M   'P 1'
_cell_length_a   8.59466130
_cell_length_b   8.59100500
_cell_length_c   8.59346053
_cell_angle_alpha   60.01868386
_cell_angle_beta   59.99346452
_cell_angle_gamma   60.00482358
_symmetry_Int_Tables_number   1
_chemical_formula_structural   Ac2Zn23Ni3
_chemical_formula_sum   'Ac2 Zn23 Ni3'
_cell_volume   448.72625871
_cell_formula_units_Z   1
loop_
 _symmetry_equiv_pos_site_id
 _symmetry_equiv_pos_as_xyz
  1  'x, y, z'
loop_
 _atom_site_type_symbol
 _atom_site_label
 _atom_site_symmetry_multiplicity
 _atom_site_fract_x
 _atom_site_fract_y
 _atom_site_fract_z
 _atom_site_occupancy
  Ac  Ac0  1  0.246357  0.253574  0.250250  1
  Ac  Ac1  1  0.749750  0.750181  0.753643  1
  Zn  Zn2  1  0.204580  0.444223  0.795420  1
  Zn  Zn3  1  0.560332  0.789224  0.439668  1
  Zn  Zn4  1  0.443795  0.204865  0.556205  1
  Zn  Zn5  1  0.295694  0.941378  0.704306  1
  Zn  Zn6  1  0.704187  0.056470  0.295813  1
  Zn  Zn7  1  0.940854  0.305416  0.059146  1
  Zn  Zn8  1  0.051210  0.699402  0.948790  1
  Zn  Zn9  1  0.204416  0.796061  0.554898  1
  Zn  Zn10  1  0.796405  0.215175  0.436053  1
  Zn  Zn11  1  0.445102  0.555375  0.795584  1
  Zn  Zn12  1  0.563947  0.447633  0.203595  1
  Zn  Zn13  1  0.704630  0.293621  0.943757  1
  Zn  Zn14  1  0.294788  0.703825  0.056947  1
  Zn  Zn15  1  0.056243  0.942008  0.295370  1
  Zn  Zn16  1  0.943053  0.055559  0.705212  1
  Zn  Zn17  1  0.556108  0.202463  0.797293  1
  Zn  Zn18  1  0.450017  0.791171  0.202701  1
  Zn  Zn19  1  0.797299  0.443889  0.549983  1
  Zn  Zn20  1  0.202707  0.555864  0.443892  1
  Zn  Zn21  1  0.942949  0.702697  0.290668  1
  Zn  Zn22  1  0.054555  0.295138  0.706214  1
  Zn  Zn23  1  0.293786  0.055906  0.945445  1
  Zn  Zn24  1  0.709332  0.936314  0.057051  1
  Ni  Ni25  1  0.496833  0.498740  0.503167  1
  Ni  Ni26  1  0.999386  0.002471  0.000614  1
  Ni  Ni27  1  0.791684  0.561354  0.208316  1
