# generated using pymatgen
data_NpScReB6
_symmetry_space_group_name_H-M   'P 1'
_cell_length_a   3.59121300
_cell_length_b   8.98620700
_cell_length_c   11.33938000
_cell_angle_alpha   90.00000000
_cell_angle_beta   90.00000000
_cell_angle_gamma   90.00000000
_symmetry_Int_Tables_number   1
_chemical_formula_structural   NpScReB6
_chemical_formula_sum   'Np4 Sc4 Re4 B24'
_cell_volume   365.93747949
_cell_formula_units_Z   4
loop_
 _symmetry_equiv_pos_site_id
 _symmetry_equiv_pos_as_xyz
  1  'x, y, z'
loop_
 _atom_site_type_symbol
 _atom_site_label
 _atom_site_symmetry_multiplicity
 _atom_site_fract_x
 _atom_site_fract_y
 _atom_site_fract_z
 _atom_site_occupancy
  Np  Np0  1  0.000000  0.321191  0.414337  1
  Np  Np1  1  0.000000  0.678809  0.585663  1
  Np  Np2  1  0.000000  0.821191  0.085663  1
  Np  Np3  1  0.000000  0.178809  0.914337  1
  Sc  Sc4  1  0.000000  0.945543  0.373895  1
  Sc  Sc5  1  0.000000  0.054457  0.626105  1
  Sc  Sc6  1  0.000000  0.445543  0.126105  1
  Sc  Sc7  1  0.000000  0.554457  0.873895  1
  Re  Re8  1  0.000000  0.639741  0.320468  1
  Re  Re9  1  0.000000  0.360259  0.679532  1
  Re  Re10  1  0.000000  0.139741  0.179532  1
  Re  Re11  1  0.000000  0.860259  0.820468  1
  B  B12  1  0.500000  0.553586  0.433686  1
  B  B13  1  0.500000  0.446414  0.566314  1
  B  B14  1  0.500000  0.053586  0.066314  1
  B  B15  1  0.500000  0.946414  0.933686  1
  B  B16  1  0.500000  0.753571  0.420444  1
  B  B17  1  0.500000  0.246429  0.579556  1
  B  B18  1  0.500000  0.253571  0.079556  1
  B  B19  1  0.500000  0.746429  0.920444  1
  B  B20  1  0.500000  0.795232  0.264982  1
  B  B21  1  0.500000  0.204768  0.735018  1
  B  B22  1  0.500000  0.295232  0.235018  1
  B  B23  1  0.500000  0.704768  0.764982  1
  B  B24  1  0.500000  0.630575  0.182683  1
  B  B25  1  0.500000  0.369425  0.817317  1
  B  B26  1  0.500000  0.130575  0.317317  1
  B  B27  1  0.500000  0.869425  0.682683  1
  B  B28  1  0.500000  0.980823  0.213908  1
  B  B29  1  0.500000  0.019177  0.786092  1
  B  B30  1  0.500000  0.480823  0.286092  1
  B  B31  1  0.500000  0.519177  0.713908  1
  B  B32  1  0.500000  0.599992  0.027672  1
  B  B33  1  0.500000  0.400008  0.972328  1
  B  B34  1  0.500000  0.099992  0.472328  1
  B  B35  1  0.500000  0.900008  0.527672  1
