# generated using pymatgen
data_Dy2Lu8In8Pt3Au
_symmetry_space_group_name_H-M   'P 1'
_cell_length_a   3.55773300
_cell_length_b   8.12994441
_cell_length_c   18.15230464
_cell_angle_alpha   90.00296412
_cell_angle_beta   90.00000000
_cell_angle_gamma   90.00000000
_symmetry_Int_Tables_number   1
_chemical_formula_structural   Dy2Lu8In8Pt3Au
_chemical_formula_sum   'Dy2 Lu8 In8 Pt3 Au1'
_cell_volume   525.04037200
_cell_formula_units_Z   1
loop_
 _symmetry_equiv_pos_site_id
 _symmetry_equiv_pos_as_xyz
  1  'x, y, z'
loop_
 _atom_site_type_symbol
 _atom_site_label
 _atom_site_symmetry_multiplicity
 _atom_site_fract_x
 _atom_site_fract_y
 _atom_site_fract_z
 _atom_site_occupancy
  Dy  Dy0  1  0.000000  0.999199  0.998932  1
  Dy  Dy1  1  0.000000  0.499071  0.500564  1
  Lu  Lu2  1  0.000000  0.121398  0.419923  1
  Lu  Lu3  1  0.000000  0.883299  0.586416  1
  Lu  Lu4  1  0.000000  0.383262  0.914266  1
  Lu  Lu5  1  0.000000  0.617308  0.083676  1
  Lu  Lu6  1  0.000000  0.252447  0.216443  1
  Lu  Lu7  1  0.000000  0.756094  0.779647  1
  Lu  Lu8  1  0.000000  0.256589  0.721538  1
  Lu  Lu9  1  0.000000  0.730843  0.279287  1
  In  In10  1  0.500000  0.419488  0.351883  1
  In  In11  1  0.500000  0.577399  0.649725  1
  In  In12  1  0.500000  0.077194  0.850965  1
  In  In13  1  0.500000  0.919864  0.148430  1
  In  In14  1  0.500000  0.295470  0.064402  1
  In  In15  1  0.500000  0.704466  0.932544  1
  In  In16  1  0.500000  0.206175  0.568353  1
  In  In17  1  0.500000  0.794870  0.434067  1
  Pt  Pt18  1  0.500000  0.973955  0.696944  1
  Pt  Pt19  1  0.500000  0.474655  0.803648  1
  Pt  Pt20  1  0.500000  0.527217  0.196029  1
  Au  Au21  1  0.500000  0.029738  0.302319  1
