# generated using pymatgen
data_Ta12Al8FeCo3N4
_symmetry_space_group_name_H-M   'P 1'
_cell_length_a   8.15630000
_cell_length_b   8.17106642
_cell_length_c   8.15630100
_cell_angle_alpha   60.05976238
_cell_angle_beta   60.00000000
_cell_angle_gamma   60.05976238
_symmetry_Int_Tables_number   1
_chemical_formula_structural   Ta12Al8FeCo3N4
_chemical_formula_sum   'Ta12 Al8 Fe1 Co3 N4'
_cell_volume   384.71745456
_cell_formula_units_Z   1
loop_
 _symmetry_equiv_pos_site_id
 _symmetry_equiv_pos_as_xyz
  1  'x, y, z'
loop_
 _atom_site_type_symbol
 _atom_site_label
 _atom_site_symmetry_multiplicity
 _atom_site_fract_x
 _atom_site_fract_y
 _atom_site_fract_z
 _atom_site_occupancy
  Ta  Ta0  1  0.561134  0.938329  0.561134  1
  Ta  Ta1  1  0.309423  0.688496  0.692658  1
  Ta  Ta2  1  0.688866  0.311671  0.310597  1
  Ta  Ta3  1  0.309423  0.688496  0.309423  1
  Ta  Ta4  1  0.692658  0.688496  0.309423  1
  Ta  Ta5  1  0.310597  0.311671  0.688866  1
  Ta  Ta6  1  0.557342  0.561504  0.940577  1
  Ta  Ta7  1  0.940577  0.561504  0.557342  1
  Ta  Ta8  1  0.561134  0.938329  0.939403  1
  Ta  Ta9  1  0.939403  0.938329  0.561134  1
  Ta  Ta10  1  0.688866  0.311671  0.688866  1
  Ta  Ta11  1  0.940577  0.561504  0.940577  1
  Al  Al12  1  0.917388  0.919497  0.917388  1
  Al  Al13  1  0.004271  0.330503  0.332612  1
  Al  Al14  1  0.332544  0.002365  0.332544  1
  Al  Al15  1  0.332612  0.330503  0.004271  1
  Al  Al16  1  0.917456  0.247635  0.917456  1
  Al  Al17  1  0.917388  0.919497  0.245729  1
  Al  Al18  1  0.245729  0.919497  0.917388  1
  Al  Al19  1  0.332612  0.330503  0.332612  1
  Fe  Fe20  1  0.125000  0.625000  0.125000  1
  Co  Co21  1  0.125000  0.125000  0.125000  1
  Co  Co22  1  0.625000  0.125000  0.125000  1
  Co  Co23  1  0.125000  0.125000  0.625000  1
  N  N24  1  0.625000  0.625000  0.625000  1
  N  N25  1  0.125000  0.625000  0.625000  1
  N  N26  1  0.625000  0.125000  0.625000  1
  N  N27  1  0.625000  0.625000  0.125000  1
