# generated using pymatgen
data_La2Be25Ni
_symmetry_space_group_name_H-M   'P 1'
_cell_length_a   7.37963631
_cell_length_b   7.39862918
_cell_length_c   7.36201619
_cell_angle_alpha   59.99323741
_cell_angle_beta   59.94181176
_cell_angle_gamma   59.75718492
_symmetry_Int_Tables_number   1
_chemical_formula_structural   La2Be25Ni
_chemical_formula_sum   'La2 Be25 Ni1'
_cell_volume   283.56454892
_cell_formula_units_Z   1
loop_
 _symmetry_equiv_pos_site_id
 _symmetry_equiv_pos_as_xyz
  1  'x, y, z'
loop_
 _atom_site_type_symbol
 _atom_site_label
 _atom_site_symmetry_multiplicity
 _atom_site_fract_x
 _atom_site_fract_y
 _atom_site_fract_z
 _atom_site_occupancy
  La  La0  1  0.249080  0.252114  0.250246  1
  La  La1  1  0.749754  0.751440  0.750920  1
  Be  Be2  1  0.501943  0.500407  0.498057  1
  Be  Be3  1  0.000111  0.002038  0.999889  1
  Be  Be4  1  0.209076  0.438330  0.790924  1
  Be  Be5  1  0.565781  0.787169  0.434219  1
  Be  Be6  1  0.434165  0.210079  0.565835  1
  Be  Be7  1  0.286312  0.934539  0.713688  1
  Be  Be8  1  0.712663  0.065258  0.287337  1
  Be  Be9  1  0.934182  0.286399  0.065818  1
  Be  Be10  1  0.066388  0.716660  0.933612  1
  Be  Be11  1  0.211031  0.790193  0.562796  1
  Be  Be12  1  0.787636  0.210784  0.437095  1
  Be  Be13  1  0.437204  0.564020  0.788969  1
  Be  Be14  1  0.562905  0.435515  0.212364  1
  Be  Be15  1  0.714135  0.283587  0.935313  1
  Be  Be16  1  0.285521  0.714413  0.064276  1
  Be  Be17  1  0.064687  0.933035  0.285865  1
  Be  Be18  1  0.935724  0.064210  0.714479  1
  Be  Be19  1  0.562547  0.212344  0.788084  1
  Be  Be20  1  0.434465  0.787571  0.212484  1
  Be  Be21  1  0.787516  0.434521  0.565535  1
  Be  Be22  1  0.211916  0.562974  0.437453  1
  Be  Be23  1  0.936011  0.714115  0.285502  1
  Be  Be24  1  0.065128  0.285986  0.713504  1
  Be  Be25  1  0.286496  0.064618  0.934872  1
  Be  Be26  1  0.714498  0.935628  0.063989  1
  Ni  Ni27  1  0.793126  0.562052  0.206874  1
