# generated using pymatgen
data_VRe5Se8
_symmetry_space_group_name_H-M   'P 1'
_cell_length_a   6.71092675
_cell_length_b   6.70348842
_cell_length_c   13.43677133
_cell_angle_alpha   93.49998498
_cell_angle_beta   93.95244514
_cell_angle_gamma   93.05411107
_symmetry_Int_Tables_number   1
_chemical_formula_structural   VRe5Se8
_chemical_formula_sum   'V2 Re10 Se16'
_cell_volume   600.90855527
_cell_formula_units_Z   2
loop_
 _symmetry_equiv_pos_site_id
 _symmetry_equiv_pos_as_xyz
  1  'x, y, z'
loop_
 _atom_site_type_symbol
 _atom_site_label
 _atom_site_symmetry_multiplicity
 _atom_site_fract_x
 _atom_site_fract_y
 _atom_site_fract_z
 _atom_site_occupancy
  V  V0  1  0.242327  0.545350  0.706966  1
  V  V1  1  0.242481  0.545740  0.207028  1
  Re  Re2  1  0.413778  0.238947  0.274415  1
  Re  Re3  1  0.543938  0.414243  0.618561  1
  Re  Re4  1  0.544101  0.414495  0.118541  1
  Re  Re5  1  0.763073  0.453046  0.793195  1
  Re  Re6  1  0.763299  0.453452  0.293206  1
  Re  Re7  1  0.584253  0.764040  0.725291  1
  Re  Re8  1  0.584533  0.764488  0.225306  1
  Re  Re9  1  0.452793  0.589437  0.881833  1
  Re  Re10  1  0.453039  0.589809  0.381885  1
  Re  Re11  1  0.413529  0.238578  0.774314  1
  Se  Se12  1  0.213240  0.216650  0.607843  1
  Se  Se13  1  0.213291  0.216943  0.107965  1
  Se  Se14  1  0.786660  0.786854  0.892934  1
  Se  Se15  1  0.786867  0.787230  0.392929  1
  Se  Se16  1  0.127412  0.371873  0.867367  1
  Se  Se17  1  0.127610  0.372219  0.367440  1
  Se  Se18  1  0.733079  0.124393  0.685074  1
  Se  Se19  1  0.733265  0.124712  0.185111  1
  Se  Se20  1  0.365859  0.727204  0.561939  1
  Se  Se21  1  0.366004  0.727515  0.061892  1
  Se  Se22  1  0.873479  0.624914  0.636443  1
  Se  Se23  1  0.873562  0.625213  0.136420  1
  Se  Se24  1  0.268254  0.873808  0.809555  1
  Se  Se25  1  0.268523  0.874289  0.309661  1
  Se  Se26  1  0.630712  0.267124  0.938437  1
  Se  Se27  1  0.631037  0.267431  0.438448  1
