# generated using pymatgen
data_Nb12Al15Ga(Ni3Ir)2
_symmetry_space_group_name_H-M   'P 1'
_cell_length_a   8.76775164
_cell_length_b   8.81513864
_cell_length_c   8.17170500
_cell_angle_alpha   90.00000000
_cell_angle_beta   90.00000000
_cell_angle_gamma   121.01866766
_symmetry_Int_Tables_number   1
_chemical_formula_structural   Nb12Al15Ga(Ni3Ir)2
_chemical_formula_sum   'Nb12 Al15 Ga1 Ni6 Ir2'
_cell_volume   541.26582773
_cell_formula_units_Z   1
loop_
 _symmetry_equiv_pos_site_id
 _symmetry_equiv_pos_as_xyz
  1  'x, y, z'
loop_
 _atom_site_type_symbol
 _atom_site_label
 _atom_site_symmetry_multiplicity
 _atom_site_fract_x
 _atom_site_fract_y
 _atom_site_fract_z
 _atom_site_occupancy
  Nb  Nb0  1  0.330486  0.994694  0.066714  1
  Nb  Nb1  1  0.669558  0.006104  0.933893  1
  Nb  Nb2  1  0.997542  0.330774  0.068167  1
  Nb  Nb3  1  0.669558  0.006104  0.566107  1
  Nb  Nb4  1  0.997542  0.330774  0.431833  1
  Nb  Nb5  1  0.001799  0.668557  0.931890  1
  Nb  Nb6  1  0.330486  0.994694  0.433286  1
  Nb  Nb7  1  0.001799  0.668557  0.568110  1
  Nb  Nb8  1  0.666987  0.663312  0.067754  1
  Nb  Nb9  1  0.332856  0.336510  0.932054  1
  Nb  Nb10  1  0.332856  0.336510  0.567946  1
  Nb  Nb11  1  0.666987  0.663312  0.432246  1
  Al  Al12  1  0.651688  0.504075  0.750000  1
  Al  Al13  1  0.655071  0.153369  0.250000  1
  Al  Al14  1  0.348973  0.496258  0.250000  1
  Al  Al15  1  0.843715  0.341323  0.750000  1
  Al  Al16  1  0.156509  0.658717  0.250000  1
  Al  Al17  1  0.341600  0.664919  0.508331  1
  Al  Al18  1  0.658581  0.335411  0.492771  1
  Al  Al19  1  0.658581  0.335411  0.007229  1
  Al  Al20  1  0.341600  0.664919  0.991669  1
  Al  Al21  1  0.183837  0.012529  0.750000  1
  Al  Al22  1  0.817047  0.988035  0.250000  1
  Al  Al23  1  0.010522  0.183287  0.750000  1
  Al  Al24  1  0.989193  0.816238  0.250000  1
  Al  Al25  1  0.822449  0.833908  0.750000  1
  Al  Al26  1  0.177717  0.166279  0.250000  1
  Ga  Ga27  1  0.343200  0.847101  0.750000  1
  Ni  Ni28  1  0.165890  0.498899  0.750000  1
  Ni  Ni29  1  0.832869  0.498759  0.250000  1
  Ni  Ni30  1  0.507778  0.673691  0.750000  1
  Ni  Ni31  1  0.506548  0.175355  0.750000  1
  Ni  Ni32  1  0.493167  0.324856  0.250000  1
  Ni  Ni33  1  0.494354  0.826659  0.250000  1
  Ir  Ir34  1  0.000328  0.000048  0.500180  1
  Ir  Ir35  1  0.000328  0.000048  0.999820  1
