# generated using pymatgen
data_Tb8Zr12Si15P
_symmetry_space_group_name_H-M   'P 1'
_cell_length_a   7.33935294
_cell_length_b   7.33884327
_cell_length_c   13.51666287
_cell_angle_alpha   89.85171201
_cell_angle_beta   89.94002386
_cell_angle_gamma   90.00178454
_symmetry_Int_Tables_number   1
_chemical_formula_structural   Tb8Zr12Si15P
_chemical_formula_sum   'Tb8 Zr12 Si15 P1'
_cell_volume   728.03653740
_cell_formula_units_Z   1
loop_
 _symmetry_equiv_pos_site_id
 _symmetry_equiv_pos_as_xyz
  1  'x, y, z'
loop_
 _atom_site_type_symbol
 _atom_site_label
 _atom_site_symmetry_multiplicity
 _atom_site_fract_x
 _atom_site_fract_y
 _atom_site_fract_z
 _atom_site_occupancy
  Tb  Tb0  1  0.998850  0.346397  0.214756  1
  Tb  Tb1  1  0.004854  0.654470  0.713281  1
  Tb  Tb2  1  0.153849  0.495881  0.462937  1
  Tb  Tb3  1  0.506224  0.844440  0.035888  1
  Tb  Tb4  1  0.846165  0.503421  0.964137  1
  Tb  Tb5  1  0.495777  0.153901  0.535959  1
  Tb  Tb6  1  0.347163  0.996192  0.786698  1
  Tb  Tb7  1  0.649622  0.006784  0.286249  1
  Zr  Zr8  1  0.175775  0.175792  0.000470  1
  Zr  Zr9  1  0.824629  0.825467  0.499704  1
  Zr  Zr10  1  0.323647  0.675743  0.250570  1
  Zr  Zr11  1  0.676181  0.324674  0.749983  1
  Zr  Zr12  1  0.149556  0.999183  0.373347  1
  Zr  Zr13  1  0.852898  0.003795  0.875352  1
  Zr  Zr14  1  0.503544  0.647697  0.624857  1
  Zr  Zr15  1  0.353650  0.496595  0.875137  1
  Zr  Zr16  1  0.494190  0.349903  0.128280  1
  Zr  Zr17  1  0.645660  0.502121  0.374657  1
  Zr  Zr18  1  0.997221  0.147986  0.624842  1
  Zr  Zr19  1  0.001043  0.850647  0.124451  1
  Si  Si20  1  0.639797  0.706266  0.816059  1
  Si  Si21  1  0.204956  0.861034  0.564854  1
  Si  Si22  1  0.139246  0.793369  0.933269  1
  Si  Si23  1  0.793622  0.140193  0.067403  1
  Si  Si24  1  0.860717  0.205944  0.433220  1
  Si  Si25  1  0.294570  0.360467  0.683434  1
  Si  Si26  1  0.705434  0.637982  0.184390  1
  Si  Si27  1  0.293797  0.042991  0.182792  1
  Si  Si28  1  0.705433  0.948959  0.686873  1
  Si  Si29  1  0.449152  0.795593  0.437154  1
  Si  Si30  1  0.205156  0.550073  0.063152  1
  Si  Si31  1  0.551897  0.205084  0.938262  1
  Si  Si32  1  0.795222  0.449174  0.562627  1
  Si  Si33  1  0.052050  0.295338  0.812716  1
  Si  Si34  1  0.948027  0.706247  0.313564  1
  P  P35  1  0.360426  0.300196  0.318674  1
