# generated using pymatgen
data_Tb9Dy11CoBi8Ru3
_symmetry_space_group_name_H-M   'P 1'
_cell_length_a   8.01586533
_cell_length_b   9.01029400
_cell_length_c   12.50280873
_cell_angle_alpha   90.00000000
_cell_angle_beta   90.21180736
_cell_angle_gamma   90.00000000
_symmetry_Int_Tables_number   1
_chemical_formula_structural   Tb9Dy11CoBi8Ru3
_chemical_formula_sum   'Tb9 Dy11 Co1 Bi8 Ru3'
_cell_volume   903.01298199
_cell_formula_units_Z   1
loop_
 _symmetry_equiv_pos_site_id
 _symmetry_equiv_pos_as_xyz
  1  'x, y, z'
loop_
 _atom_site_type_symbol
 _atom_site_label
 _atom_site_symmetry_multiplicity
 _atom_site_fract_x
 _atom_site_fract_y
 _atom_site_fract_z
 _atom_site_occupancy
  Tb  Tb0  1  0.344396  0.250000  0.706580  1
  Tb  Tb1  1  0.377453  0.750000  0.694112  1
  Tb  Tb2  1  0.621269  0.250000  0.306642  1
  Tb  Tb3  1  0.877534  0.250000  0.807649  1
  Tb  Tb4  1  0.119665  0.750000  0.188875  1
  Tb  Tb5  1  0.945451  0.750000  0.504638  1
  Tb  Tb6  1  0.053659  0.250000  0.495748  1
  Tb  Tb7  1  0.448728  0.250000  0.996617  1
  Tb  Tb8  1  0.551668  0.750000  0.003597  1
  Dy  Dy9  1  0.845976  0.750000  0.799812  1
  Dy  Dy10  1  0.155274  0.250000  0.205187  1
  Dy  Dy11  1  0.654340  0.750000  0.295071  1
  Dy  Dy12  1  0.675511  0.041218  0.564000  1
  Dy  Dy13  1  0.324099  0.957705  0.435710  1
  Dy  Dy14  1  0.175827  0.957510  0.935815  1
  Dy  Dy15  1  0.324099  0.542295  0.435710  1
  Dy  Dy16  1  0.825499  0.036402  0.062789  1
  Dy  Dy17  1  0.675511  0.458782  0.564000  1
  Dy  Dy18  1  0.825499  0.463598  0.062789  1
  Dy  Dy19  1  0.175827  0.542490  0.935815  1
  Co  Co20  1  0.932323  0.750000  0.009170  1
  Bi  Bi21  1  0.572287  0.492711  0.827526  1
  Bi  Bi22  1  0.428989  0.507882  0.172586  1
  Bi  Bi23  1  0.069833  0.508095  0.673560  1
  Bi  Bi24  1  0.428989  0.992118  0.172586  1
  Bi  Bi25  1  0.929137  0.492783  0.326242  1
  Bi  Bi26  1  0.572287  0.007289  0.827526  1
  Bi  Bi27  1  0.929137  0.007217  0.326242  1
  Bi  Bi28  1  0.069833  0.991905  0.673560  1
  Ru  Ru29  1  0.572471  0.750000  0.511177  1
  Ru  Ru30  1  0.426250  0.250000  0.488832  1
  Ru  Ru31  1  0.071178  0.250000  0.989833  1
