# generated using pymatgen
data_Pr3Dy3Al24Ru5Pt3
_symmetry_space_group_name_H-M   'P 1'
_cell_length_a   8.87735405
_cell_length_b   8.85613093
_cell_length_c   9.62159403
_cell_angle_alpha   89.87810365
_cell_angle_beta   90.06227407
_cell_angle_gamma   119.50475145
_symmetry_Int_Tables_number   1
_chemical_formula_structural   Pr3Dy3Al24Ru5Pt3
_chemical_formula_sum   'Pr3 Dy3 Al24 Ru5 Pt3'
_cell_volume   658.33965017
_cell_formula_units_Z   1
loop_
 _symmetry_equiv_pos_site_id
 _symmetry_equiv_pos_as_xyz
  1  'x, y, z'
loop_
 _atom_site_type_symbol
 _atom_site_label
 _atom_site_symmetry_multiplicity
 _atom_site_fract_x
 _atom_site_fract_y
 _atom_site_fract_z
 _atom_site_occupancy
  Pr  Pr0  1  0.189446  0.809792  0.250288  1
  Pr  Pr1  1  0.189161  0.381712  0.248791  1
  Pr  Pr2  1  0.618883  0.810128  0.250725  1
  Dy  Dy3  1  0.808252  0.193850  0.750289  1
  Dy  Dy4  1  0.810855  0.613504  0.751729  1
  Dy  Dy5  1  0.384825  0.190330  0.749717  1
  Al  Al6  1  0.565916  0.434901  0.250377  1
  Al  Al7  1  0.564098  0.128774  0.245424  1
  Al  Al8  1  0.873629  0.437878  0.250204  1
  Al  Al9  1  0.436628  0.562945  0.749573  1
  Al  Al10  1  0.438887  0.875878  0.752793  1
  Al  Al11  1  0.121529  0.559222  0.749777  1
  Al  Al12  1  0.325299  0.163710  0.427424  1
  Al  Al13  1  0.840325  0.168920  0.425733  1
  Al  Al14  1  0.840714  0.672867  0.428394  1
  Al  Al15  1  0.677735  0.837432  0.580175  1
  Al  Al16  1  0.157304  0.832386  0.582194  1
  Al  Al17  1  0.157267  0.323507  0.579752  1
  Al  Al18  1  0.676159  0.842800  0.922453  1
  Al  Al19  1  0.163875  0.837538  0.919236  1
  Al  Al20  1  0.158103  0.324724  0.921316  1
  Al  Al21  1  0.326923  0.159339  0.069417  1
  Al  Al22  1  0.834936  0.164727  0.072395  1
  Al  Al23  1  0.840234  0.672466  0.070974  1
  Al  Al24  1  0.672562  0.335799  0.533740  1
  Al  Al25  1  0.326921  0.664084  0.480820  1
  Al  Al26  1  0.330315  0.670135  0.018711  1
  Al  Al27  1  0.669400  0.330166  0.968055  1
  Al  Al28  1  0.995562  0.001428  0.249948  1
  Al  Al29  1  0.003355  0.998994  0.750256  1
  Ru  Ru30  1  0.999833  0.999969  0.501543  1
  Ru  Ru31  1  0.000000  0.000124  0.999039  1
  Ru  Ru32  1  0.997677  0.498647  0.503550  1
  Ru  Ru33  1  0.501312  0.002355  0.996121  1
  Ru  Ru34  1  0.997881  0.499102  0.996301  1
  Pt  Pt35  1  0.501165  0.498306  0.503422  1
  Pt  Pt36  1  0.501380  0.002725  0.503062  1
  Pt  Pt37  1  0.501653  0.498839  0.996281  1
