# generated using pymatgen
data_DyLu9Si16Ge
_symmetry_space_group_name_H-M   'P 1'
_cell_length_a   10.87329393
_cell_length_b   10.87612968
_cell_length_c   10.88109864
_cell_angle_alpha   144.87163921
_cell_angle_beta   136.02006171
_cell_angle_gamma   57.50122181
_symmetry_Int_Tables_number   1
_chemical_formula_structural   DyLu9Si16Ge
_chemical_formula_sum   'Dy1 Lu9 Si16 Ge1'
_cell_volume   509.91621291
_cell_formula_units_Z   1
loop_
 _symmetry_equiv_pos_site_id
 _symmetry_equiv_pos_as_xyz
  1  'x, y, z'
loop_
 _atom_site_type_symbol
 _atom_site_label
 _atom_site_symmetry_multiplicity
 _atom_site_fract_x
 _atom_site_fract_y
 _atom_site_fract_z
 _atom_site_occupancy
  Dy  Dy0  1  0.647876  0.166781  0.015922  1
  Lu  Lu1  1  0.756176  0.757902  0.514818  1
  Lu  Lu2  1  0.448424  0.963852  0.012943  1
  Lu  Lu3  1  0.848856  0.368928  0.018086  1
  Lu  Lu4  1  0.950946  0.963076  0.515677  1
  Lu  Lu5  1  0.150657  0.166657  0.518673  1
  Lu  Lu6  1  0.351205  0.369083  0.519487  1
  Lu  Lu7  1  0.243187  0.758074  0.001272  1
  Lu  Lu8  1  0.549606  0.561162  0.508948  1
  Lu  Lu9  1  0.051817  0.560022  0.011111  1
  Si  Si10  1  0.199616  0.569058  0.368817  1
  Si  Si11  1  0.002089  0.077676  0.077486  1
  Si  Si12  1  0.697352  0.288631  0.592145  1
  Si  Si13  1  0.801143  0.174606  0.377951  1
  Si  Si14  1  0.896415  0.502867  0.609111  1
  Si  Si15  1  0.418932  0.878749  0.455472  1
  Si  Si16  1  0.105599  0.715734  0.610837  1
  Si  Si17  1  0.299477  0.894877  0.592449  1
  Si  Si18  1  0.575698  0.039631  0.463661  1
  Si  Si19  1  0.001477  0.430347  0.430990  1
  Si  Si20  1  0.881283  0.842489  0.965830  1
  Si  Si21  1  0.397767  0.500614  0.098724  1
  Si  Si22  1  0.124866  0.095995  0.971751  1
  Si  Si23  1  0.282631  0.242500  0.959063  1
  Si  Si24  1  0.498106  0.382209  0.879592  1
  Si  Si25  1  0.598700  0.704423  0.105305  1
  Ge  Ge26  1  0.720099  0.685555  0.965378  1
