# generated using pymatgen
data_Tb4Sc3AlPt4
_symmetry_space_group_name_H-M   'P 1'
_cell_length_a   4.53275400
_cell_length_b   7.03999293
_cell_length_c   8.30674047
_cell_angle_alpha   86.91199670
_cell_angle_beta   90.00000000
_cell_angle_gamma   90.00000000
_symmetry_Int_Tables_number   1
_chemical_formula_structural   Tb4Sc3AlPt4
_chemical_formula_sum   'Tb4 Sc3 Al1 Pt4'
_cell_volume   264.68781481
_cell_formula_units_Z   1
loop_
 _symmetry_equiv_pos_site_id
 _symmetry_equiv_pos_as_xyz
  1  'x, y, z'
loop_
 _atom_site_type_symbol
 _atom_site_label
 _atom_site_symmetry_multiplicity
 _atom_site_fract_x
 _atom_site_fract_y
 _atom_site_fract_z
 _atom_site_occupancy
  Tb  Tb0  1  0.250000  0.039601  0.672794  1
  Tb  Tb1  1  0.250000  0.522623  0.815125  1
  Tb  Tb2  1  0.750000  0.986416  0.339878  1
  Tb  Tb3  1  0.750000  0.468563  0.183710  1
  Sc  Sc4  1  0.250000  0.133150  0.069990  1
  Sc  Sc5  1  0.250000  0.636466  0.435104  1
  Sc  Sc6  1  0.750000  0.865865  0.928569  1
  Al  Al7  1  0.750000  0.359926  0.568612  1
  Pt  Pt8  1  0.250000  0.262906  0.384489  1
  Pt  Pt9  1  0.250000  0.749850  0.099380  1
  Pt  Pt10  1  0.750000  0.728721  0.613416  1
  Pt  Pt11  1  0.750000  0.245911  0.888931  1
