# generated using pymatgen
data_Er3TmBe4(BOs)4
_symmetry_space_group_name_H-M   'P 1'
_cell_length_a   6.06304540
_cell_length_b   5.42810210
_cell_length_c   6.39465231
_cell_angle_alpha   89.99732785
_cell_angle_beta   89.96472735
_cell_angle_gamma   90.02215816
_symmetry_Int_Tables_number   1
_chemical_formula_structural   Er3TmBe4(BOs)4
_chemical_formula_sum   'Er3 Tm1 Be4 B4 Os4'
_cell_volume   210.45325579
_cell_formula_units_Z   1
loop_
 _symmetry_equiv_pos_site_id
 _symmetry_equiv_pos_as_xyz
  1  'x, y, z'
loop_
 _atom_site_type_symbol
 _atom_site_label
 _atom_site_symmetry_multiplicity
 _atom_site_fract_x
 _atom_site_fract_y
 _atom_site_fract_z
 _atom_site_occupancy
  Er  Er0  1  0.002165  0.256971  0.347803  1
  Er  Er1  1  0.502294  0.242911  0.152062  1
  Er  Er2  1  0.997501  0.757021  0.652186  1
  Tm  Tm3  1  0.498037  0.742692  0.847742  1
  Be  Be4  1  0.363053  0.063588  0.542182  1
  Be  Be5  1  0.862712  0.436273  0.958042  1
  Be  Be6  1  0.636910  0.564207  0.458509  1
  Be  Be7  1  0.137361  0.935873  0.041494  1
  B  B8  1  0.643341  0.932362  0.448216  1
  B  B9  1  0.143855  0.567521  0.051690  1
  B  B10  1  0.356706  0.432959  0.552459  1
  B  B11  1  0.856443  0.067307  0.947882  1
  Os  Os12  1  0.175512  0.265965  0.812999  1
  Os  Os13  1  0.675328  0.234220  0.687125  1
  Os  Os14  1  0.824263  0.765970  0.186765  1
  Os  Os15  1  0.324519  0.734160  0.312843  1
