# generated using pymatgen
data_Zr2CoAs2Pd
_symmetry_space_group_name_H-M   'P 1'
_cell_length_a   3.91984000
_cell_length_b   6.63888221
_cell_length_c   7.57183050
_cell_angle_alpha   91.86018797
_cell_angle_beta   90.00000000
_cell_angle_gamma   90.00000000
_symmetry_Int_Tables_number   1
_chemical_formula_structural   Zr2CoAs2Pd
_chemical_formula_sum   'Zr4 Co2 As4 Pd2'
_cell_volume   196.94060098
_cell_formula_units_Z   2
loop_
 _symmetry_equiv_pos_site_id
 _symmetry_equiv_pos_as_xyz
  1  'x, y, z'
loop_
 _atom_site_type_symbol
 _atom_site_label
 _atom_site_symmetry_multiplicity
 _atom_site_fract_x
 _atom_site_fract_y
 _atom_site_fract_z
 _atom_site_occupancy
  Zr  Zr0  1  0.250000  0.471800  0.193401  1
  Zr  Zr1  1  0.750000  0.528200  0.806599  1
  Zr  Zr2  1  0.750000  0.024837  0.676362  1
  Zr  Zr3  1  0.250000  0.975163  0.323638  1
  Co  Co4  1  0.750000  0.634478  0.444370  1
  Co  Co5  1  0.250000  0.365522  0.555630  1
  As  As6  1  0.250000  0.726325  0.601485  1
  As  As7  1  0.750000  0.273675  0.398515  1
  As  As8  1  0.750000  0.752485  0.139753  1
  As  As9  1  0.250000  0.247515  0.860247  1
  Pd  Pd10  1  0.250000  0.847089  0.933955  1
  Pd  Pd11  1  0.750000  0.152911  0.066045  1
