# generated using pymatgen
data_PaTi2(GaPt)2
_symmetry_space_group_name_H-M   'P 1'
_cell_length_a   5.53092831
_cell_length_b   5.53092837
_cell_length_c   5.53092922
_cell_angle_alpha   100.68511538
_cell_angle_beta   102.95101968
_cell_angle_gamma   126.19041034
_symmetry_Int_Tables_number   1
_chemical_formula_structural   PaTi2(GaPt)2
_chemical_formula_sum   'Pa1 Ti2 Ga2 Pt2'
_cell_volume   121.73591375
_cell_formula_units_Z   1
loop_
 _symmetry_equiv_pos_site_id
 _symmetry_equiv_pos_as_xyz
  1  'x, y, z'
loop_
 _atom_site_type_symbol
 _atom_site_label
 _atom_site_symmetry_multiplicity
 _atom_site_fract_x
 _atom_site_fract_y
 _atom_site_fract_z
 _atom_site_occupancy
  Pa  Pa0  1  0.003013  0.000000  0.003013  1
  Ti  Ti1  1  0.250315  0.752092  0.498222  1
  Ti  Ti2  1  0.746130  0.247908  0.498222  1
  Ga  Ga3  1  0.307161  0.300940  0.608098  1
  Ga  Ga4  1  0.307161  0.699060  0.006221  1
  Pt  Pt5  1  0.693112  0.298134  0.991246  1
  Pt  Pt6  1  0.693112  0.701866  0.394977  1
