# generated using pymatgen
data_Th3Be4(PPd10)2
_symmetry_space_group_name_H-M   'P 1'
_cell_length_a   8.64721452
_cell_length_b   8.64721396
_cell_length_c   8.59058200
_cell_angle_alpha   60.21640891
_cell_angle_beta   60.21641103
_cell_angle_gamma   59.56718072
_symmetry_Int_Tables_number   1
_chemical_formula_structural   Th3Be4(PPd10)2
_chemical_formula_sum   'Th3 Be4 P2 Pd20'
_cell_volume   454.17478039
_cell_formula_units_Z   1
loop_
 _symmetry_equiv_pos_site_id
 _symmetry_equiv_pos_as_xyz
  1  'x, y, z'
loop_
 _atom_site_type_symbol
 _atom_site_label
 _atom_site_symmetry_multiplicity
 _atom_site_fract_x
 _atom_site_fract_y
 _atom_site_fract_z
 _atom_site_occupancy
  Th  Th0  1  0.250000  0.250000  0.250000  1
  Th  Th1  1  0.750000  0.750000  0.750000  1
  Th  Th2  1  0.000000  0.000000  0.000000  1
  Be  Be3  1  0.729089  0.270911  0.270911  1
  Be  Be4  1  0.270911  0.729089  0.729089  1
  Be  Be5  1  0.270911  0.729089  0.270911  1
  Be  Be6  1  0.729089  0.270911  0.729089  1
  P  P7  1  0.270689  0.270689  0.729311  1
  P  P8  1  0.729311  0.729311  0.270689  1
  Pd  Pd9  1  0.385487  0.385487  0.380997  1
  Pd  Pd10  1  0.614513  0.614513  0.619003  1
  Pd  Pd11  1  0.385487  0.385487  0.848028  1
  Pd  Pd12  1  0.380997  0.848028  0.385487  1
  Pd  Pd13  1  0.614513  0.614513  0.151972  1
  Pd  Pd14  1  0.619003  0.151972  0.614513  1
  Pd  Pd15  1  0.848028  0.380997  0.385487  1
  Pd  Pd16  1  0.151972  0.619003  0.614513  1
  Pd  Pd17  1  0.343104  0.996011  0.003989  1
  Pd  Pd18  1  0.656896  0.003989  0.996011  1
  Pd  Pd19  1  0.996011  0.343104  0.656896  1
  Pd  Pd20  1  0.003989  0.656896  0.343104  1
  Pd  Pd21  1  0.996011  0.343104  0.003989  1
  Pd  Pd22  1  0.656896  0.003989  0.343104  1
  Pd  Pd23  1  0.003989  0.656896  0.996011  1
  Pd  Pd24  1  0.343104  0.996011  0.656896  1
  Pd  Pd25  1  0.000000  0.000000  0.341897  1
  Pd  Pd26  1  0.000000  0.000000  0.658103  1
  Pd  Pd27  1  0.658103  0.341897  0.000000  1
  Pd  Pd28  1  0.341897  0.658103  0.000000  1
