# generated using pymatgen
data_CsKHfS3
_symmetry_space_group_name_H-M   'P 1'
_cell_length_a   7.58425600
_cell_length_b   7.77693277
_cell_length_c   6.82813600
_cell_angle_alpha   90.00000000
_cell_angle_beta   90.00000000
_cell_angle_gamma   109.15661622
_symmetry_Int_Tables_number   1
_chemical_formula_structural   CsKHfS3
_chemical_formula_sum   'Cs2 K2 Hf2 S6'
_cell_volume   380.43720155
_cell_formula_units_Z   2
loop_
 _symmetry_equiv_pos_site_id
 _symmetry_equiv_pos_as_xyz
  1  'x, y, z'
loop_
 _atom_site_type_symbol
 _atom_site_label
 _atom_site_symmetry_multiplicity
 _atom_site_fract_x
 _atom_site_fract_y
 _atom_site_fract_z
 _atom_site_occupancy
  Cs  Cs0  1  0.180130  0.492125  0.750000  1
  Cs  Cs1  1  0.819870  0.507875  0.250000  1
  K  K2  1  0.490936  0.821603  0.250000  1
  K  K3  1  0.509064  0.178397  0.750000  1
  Hf  Hf4  1  0.076064  0.089948  0.250000  1
  Hf  Hf5  1  0.923936  0.910052  0.750000  1
  S  S6  1  0.694771  0.620832  0.750000  1
  S  S7  1  0.305229  0.379168  0.250000  1
  S  S8  1  0.835547  0.104752  0.499143  1
  S  S9  1  0.835547  0.104752  0.000857  1
  S  S10  1  0.164453  0.895248  0.500857  1
  S  S11  1  0.164453  0.895248  0.999143  1
