# generated using pymatgen
data_TcPbCl6
_symmetry_space_group_name_H-M   'P 1'
_cell_length_a   7.31952138
_cell_length_b   7.31952159
_cell_length_c   7.31952336
_cell_angle_alpha   56.92951135
_cell_angle_beta   56.92949839
_cell_angle_gamma   56.92949501
_symmetry_Int_Tables_number   1
_chemical_formula_structural   TcPbCl6
_chemical_formula_sum   'Tc1 Pb1 Cl6'
_cell_volume   257.65080769
_cell_formula_units_Z   1
loop_
 _symmetry_equiv_pos_site_id
 _symmetry_equiv_pos_as_xyz
  1  'x, y, z'
loop_
 _atom_site_type_symbol
 _atom_site_label
 _atom_site_symmetry_multiplicity
 _atom_site_fract_x
 _atom_site_fract_y
 _atom_site_fract_z
 _atom_site_occupancy
  Tc  Tc0  1  0.666777  0.666777  0.666777  1
  Pb  Pb1  1  0.333809  0.333809  0.333809  1
  Cl  Cl2  1  0.017191  0.464125  0.747261  1
  Cl  Cl3  1  0.313769  0.866496  0.590571  1
  Cl  Cl4  1  0.464125  0.747261  0.017191  1
  Cl  Cl5  1  0.590571  0.313769  0.866496  1
  Cl  Cl6  1  0.747261  0.017191  0.464125  1
  Cl  Cl7  1  0.866496  0.590571  0.313769  1
