# generated using pymatgen
data_TbEr3Al18(PtRh)3
_symmetry_space_group_name_H-M   'P 1'
_cell_length_a   7.58636286
_cell_length_b   7.58961205
_cell_length_c   9.40604207
_cell_angle_alpha   89.99716730
_cell_angle_beta   89.98926876
_cell_angle_gamma   119.60544910
_symmetry_Int_Tables_number   1
_chemical_formula_structural   TbEr3Al18(PtRh)3
_chemical_formula_sum   'Tb1 Er3 Al18 Pt3 Rh3'
_cell_volume   470.87288168
_cell_formula_units_Z   1
loop_
 _symmetry_equiv_pos_site_id
 _symmetry_equiv_pos_as_xyz
  1  'x, y, z'
loop_
 _atom_site_type_symbol
 _atom_site_label
 _atom_site_symmetry_multiplicity
 _atom_site_fract_x
 _atom_site_fract_y
 _atom_site_fract_z
 _atom_site_occupancy
  Tb  Tb0  1  0.996117  0.670157  0.750242  1
  Er  Er1  1  0.005863  0.331326  0.249934  1
  Er  Er2  1  0.668617  0.993818  0.750110  1
  Er  Er3  1  0.329546  0.004128  0.249619  1
  Al  Al4  1  0.124366  0.125616  0.750761  1
  Al  Al5  1  0.875045  0.876397  0.249355  1
  Al  Al6  1  0.999478  0.330344  0.576149  1
  Al  Al7  1  0.999584  0.669387  0.421675  1
  Al  Al8  1  0.996966  0.664833  0.076757  1
  Al  Al9  1  0.335570  0.003638  0.925113  1
  Al  Al10  1  0.995465  0.330248  0.925140  1
  Al  Al11  1  0.668856  0.004576  0.076002  1
  Al  Al12  1  0.668900  0.000866  0.422754  1
  Al  Al13  1  0.331279  0.001240  0.576391  1
  Al  Al14  1  0.331613  0.328348  0.053644  1
  Al  Al15  1  0.671214  0.668207  0.948553  1
  Al  Al16  1  0.670086  0.670641  0.554820  1
  Al  Al17  1  0.329428  0.329608  0.443107  1
  Al  Al18  1  0.340868  0.544504  0.750547  1
  Al  Al19  1  0.658956  0.450489  0.246587  1
  Al  Al20  1  0.548662  0.340109  0.753529  1
  Al  Al21  1  0.455241  0.660038  0.249437  1
  Pt  Pt22  1  0.672070  0.327828  0.499652  1
  Pt  Pt23  1  0.327216  0.672761  0.499700  1
  Pt  Pt24  1  0.327230  0.672621  0.000200  1
  Rh  Rh25  1  0.671801  0.327645  0.000441  1
  Rh  Rh26  1  0.999667  0.000496  0.499395  1
  Rh  Rh27  1  0.000302  0.000130  0.000385  1
