# generated using pymatgen
data_Zr3Tc(Ni4P3)2
_symmetry_space_group_name_H-M   'P 1'
_cell_length_a   3.66958600
_cell_length_b   10.37741900
_cell_length_c   12.18220900
_cell_angle_alpha   90.00000000
_cell_angle_beta   90.00000000
_cell_angle_gamma   90.00000000
_symmetry_Int_Tables_number   1
_chemical_formula_structural   Zr3Tc(Ni4P3)2
_chemical_formula_sum   'Zr6 Tc2 Ni16 P12'
_cell_volume   463.90864797
_cell_formula_units_Z   2
loop_
 _symmetry_equiv_pos_site_id
 _symmetry_equiv_pos_as_xyz
  1  'x, y, z'
loop_
 _atom_site_type_symbol
 _atom_site_label
 _atom_site_symmetry_multiplicity
 _atom_site_fract_x
 _atom_site_fract_y
 _atom_site_fract_z
 _atom_site_occupancy
  Zr  Zr0  1  0.751970  0.000000  0.471528  1
  Zr  Zr1  1  0.251970  0.500000  0.528472  1
  Zr  Zr2  1  0.251849  0.681312  0.792263  1
  Zr  Zr3  1  0.251849  0.318688  0.792263  1
  Zr  Zr4  1  0.751849  0.818688  0.207737  1
  Zr  Zr5  1  0.751849  0.181312  0.207737  1
  Tc  Tc6  1  0.251828  0.000000  0.839494  1
  Tc  Tc7  1  0.751828  0.500000  0.160506  1
  Ni  Ni8  1  0.751551  0.000000  0.017814  1
  Ni  Ni9  1  0.251551  0.500000  0.982186  1
  Ni  Ni10  1  0.251757  0.197797  0.568318  1
  Ni  Ni11  1  0.251757  0.802203  0.568318  1
  Ni  Ni12  1  0.751757  0.302203  0.431682  1
  Ni  Ni13  1  0.751757  0.697797  0.431682  1
  Ni  Ni14  1  0.251974  0.624402  0.294717  1
  Ni  Ni15  1  0.251974  0.375598  0.294717  1
  Ni  Ni16  1  0.751974  0.875598  0.705283  1
  Ni  Ni17  1  0.751974  0.124402  0.705283  1
  Ni  Ni18  1  0.251665  0.169767  0.012143  1
  Ni  Ni19  1  0.251665  0.830233  0.012143  1
  Ni  Ni20  1  0.751665  0.330233  0.987857  1
  Ni  Ni21  1  0.751665  0.669767  0.987857  1
  Ni  Ni22  1  0.251861  0.000000  0.299814  1
  Ni  Ni23  1  0.751861  0.500000  0.700186  1
  P  P24  1  0.251959  0.183455  0.383722  1
  P  P25  1  0.251959  0.816545  0.383722  1
  P  P26  1  0.751959  0.316545  0.616278  1
  P  P27  1  0.751959  0.683455  0.616278  1
  P  P28  1  0.251746  0.000000  0.124312  1
  P  P29  1  0.751746  0.500000  0.875688  1
  P  P30  1  0.251742  0.653134  0.111372  1
  P  P31  1  0.251742  0.346866  0.111372  1
  P  P32  1  0.751742  0.846866  0.888628  1
  P  P33  1  0.751742  0.153134  0.888628  1
  P  P34  1  0.251956  0.000000  0.646128  1
  P  P35  1  0.751956  0.500000  0.353872  1
