# generated using pymatgen
data_Zr4Mn3Fe(SiAs)2
_symmetry_space_group_name_H-M   'P 1'
_cell_length_a   3.72476800
_cell_length_b   6.64274917
_cell_length_c   7.75993351
_cell_angle_alpha   89.90763590
_cell_angle_beta   90.00000000
_cell_angle_gamma   90.00000000
_symmetry_Int_Tables_number   1
_chemical_formula_structural   Zr4Mn3Fe(SiAs)2
_chemical_formula_sum   'Zr4 Mn3 Fe1 Si2 As2'
_cell_volume   192.00145373
_cell_formula_units_Z   1
loop_
 _symmetry_equiv_pos_site_id
 _symmetry_equiv_pos_as_xyz
  1  'x, y, z'
loop_
 _atom_site_type_symbol
 _atom_site_label
 _atom_site_symmetry_multiplicity
 _atom_site_fract_x
 _atom_site_fract_y
 _atom_site_fract_z
 _atom_site_occupancy
  Zr  Zr0  1  0.250000  0.530522  0.678343  1
  Zr  Zr1  1  0.250000  0.030748  0.822867  1
  Zr  Zr2  1  0.750000  0.966296  0.175050  1
  Zr  Zr3  1  0.750000  0.464595  0.324929  1
  Mn  Mn4  1  0.750000  0.367096  0.932575  1
  Mn  Mn5  1  0.750000  0.870058  0.564947  1
  Mn  Mn6  1  0.250000  0.636644  0.057636  1
  Fe  Fe7  1  0.250000  0.136136  0.444426  1
  Si  Si8  1  0.750000  0.733272  0.876094  1
  Si  Si9  1  0.750000  0.233383  0.624177  1
  As  As10  1  0.250000  0.266080  0.126348  1
  As  As11  1  0.250000  0.765167  0.372608  1
