# generated using pymatgen
data_Hf4CoNi3Pt8
_symmetry_space_group_name_H-M   'P 1'
_cell_length_a   5.59633100
_cell_length_b   5.58070176
_cell_length_c   9.09692500
_cell_angle_alpha   90.00000000
_cell_angle_beta   90.00000000
_cell_angle_gamma   120.09269193
_symmetry_Int_Tables_number   1
_chemical_formula_structural   Hf4CoNi3Pt8
_chemical_formula_sum   'Hf4 Co1 Ni3 Pt8'
_cell_volume   245.81651242
_cell_formula_units_Z   1
loop_
 _symmetry_equiv_pos_site_id
 _symmetry_equiv_pos_as_xyz
  1  'x, y, z'
loop_
 _atom_site_type_symbol
 _atom_site_label
 _atom_site_symmetry_multiplicity
 _atom_site_fract_x
 _atom_site_fract_y
 _atom_site_fract_z
 _atom_site_occupancy
  Hf  Hf0  1  0.999037  0.998074  0.497994  1
  Hf  Hf1  1  0.667204  0.334406  0.750000  1
  Hf  Hf2  1  0.334064  0.668131  0.250000  1
  Hf  Hf3  1  0.999037  0.998074  0.002006  1
  Co  Co4  1  0.822258  0.644516  0.250000  1
  Ni  Ni5  1  0.176334  0.352667  0.750000  1
  Ni  Ni6  1  0.499811  0.999621  0.500503  1
  Ni  Ni7  1  0.499811  0.999621  0.999497  1
  Pt  Pt8  1  0.000204  0.500220  0.999786  1
  Pt  Pt9  1  0.338600  0.160682  0.250000  1
  Pt  Pt10  1  0.500015  0.500220  0.999786  1
  Pt  Pt11  1  0.822081  0.160682  0.250000  1
  Pt  Pt12  1  0.500015  0.500220  0.500214  1
  Pt  Pt13  1  0.178983  0.841324  0.750000  1
  Pt  Pt14  1  0.662342  0.841324  0.750000  1
  Pt  Pt15  1  0.000204  0.500220  0.500214  1
