# generated using pymatgen
data_LiSmEr2(Co4P3)2
_symmetry_space_group_name_H-M   'P 1'
_cell_length_a   3.71880900
_cell_length_b   10.57915900
_cell_length_c   12.19486700
_cell_angle_alpha   90.00000000
_cell_angle_beta   90.00000000
_cell_angle_gamma   90.00000000
_symmetry_Int_Tables_number   1
_chemical_formula_structural   LiSmEr2(Co4P3)2
_chemical_formula_sum   'Li2 Sm2 Er4 Co16 P12'
_cell_volume   479.76889293
_cell_formula_units_Z   2
loop_
 _symmetry_equiv_pos_site_id
 _symmetry_equiv_pos_as_xyz
  1  'x, y, z'
loop_
 _atom_site_type_symbol
 _atom_site_label
 _atom_site_symmetry_multiplicity
 _atom_site_fract_x
 _atom_site_fract_y
 _atom_site_fract_z
 _atom_site_occupancy
  Li  Li0  1  0.250000  0.250000  0.847467  1
  Li  Li1  1  0.750000  0.750000  0.152533  1
  Sm  Sm2  1  0.750000  0.250000  0.476074  1
  Sm  Sm3  1  0.250000  0.750000  0.523926  1
  Er  Er4  1  0.250000  0.930083  0.794418  1
  Er  Er5  1  0.250000  0.569917  0.794418  1
  Er  Er6  1  0.750000  0.069917  0.205582  1
  Er  Er7  1  0.750000  0.430083  0.205582  1
  Co  Co8  1  0.250000  0.250000  0.293423  1
  Co  Co9  1  0.750000  0.750000  0.706577  1
  Co  Co10  1  0.750000  0.250000  0.012594  1
  Co  Co11  1  0.250000  0.750000  0.987406  1
  Co  Co12  1  0.250000  0.417230  0.002932  1
  Co  Co13  1  0.250000  0.082770  0.002932  1
  Co  Co14  1  0.750000  0.582770  0.997068  1
  Co  Co15  1  0.750000  0.917230  0.997068  1
  Co  Co16  1  0.250000  0.453931  0.569763  1
  Co  Co17  1  0.250000  0.046069  0.569763  1
  Co  Co18  1  0.750000  0.546069  0.430237  1
  Co  Co19  1  0.750000  0.953931  0.430237  1
  Co  Co20  1  0.250000  0.871638  0.292050  1
  Co  Co21  1  0.250000  0.628362  0.292050  1
  Co  Co22  1  0.750000  0.128362  0.707950  1
  Co  Co23  1  0.750000  0.371638  0.707950  1
  P  P24  1  0.250000  0.250000  0.114609  1
  P  P25  1  0.750000  0.750000  0.885391  1
  P  P26  1  0.250000  0.250000  0.655800  1
  P  P27  1  0.750000  0.750000  0.344200  1
  P  P28  1  0.250000  0.441702  0.382884  1
  P  P29  1  0.250000  0.058298  0.382884  1
  P  P30  1  0.750000  0.558298  0.617116  1
  P  P31  1  0.750000  0.941702  0.617116  1
  P  P32  1  0.250000  0.907328  0.106693  1
  P  P33  1  0.250000  0.592672  0.106693  1
  P  P34  1  0.750000  0.092672  0.893307  1
  P  P35  1  0.750000  0.407328  0.893307  1
