# generated using pymatgen
data_Sr2Al16Ir2Pt7
_symmetry_space_group_name_H-M   'P 1'
_cell_length_a   11.23983011
_cell_length_b   11.23983097
_cell_length_c   11.23983081
_cell_angle_alpha   158.53216331
_cell_angle_beta   116.07196118
_cell_angle_gamma   68.27681092
_symmetry_Int_Tables_number   1
_chemical_formula_structural   Sr2Al16Ir2Pt7
_chemical_formula_sum   'Sr2 Al16 Ir2 Pt7'
_cell_volume   463.52081971
_cell_formula_units_Z   1
loop_
 _symmetry_equiv_pos_site_id
 _symmetry_equiv_pos_as_xyz
  1  'x, y, z'
loop_
 _atom_site_type_symbol
 _atom_site_label
 _atom_site_symmetry_multiplicity
 _atom_site_fract_x
 _atom_site_fract_y
 _atom_site_fract_z
 _atom_site_occupancy
  Sr  Sr0  1  0.229710  0.229069  0.000641  1
  Sr  Sr1  1  0.771573  0.770931  0.000641  1
  Al  Al2  1  0.277814  0.393616  0.884197  1
  Al  Al3  1  0.087382  0.924669  0.162715  1
  Al  Al4  1  0.504255  0.201513  0.302743  1
  Al  Al5  1  0.238046  0.075331  0.162715  1
  Al  Al6  1  0.914252  0.418346  0.495905  1
  Al  Al7  1  0.724168  0.600745  0.123422  1
  Al  Al8  1  0.902503  0.207236  0.695266  1
  Al  Al9  1  0.488031  0.792764  0.695266  1
  Al  Al10  1  0.383370  0.000000  0.383370  1
  Al  Al11  1  0.625472  0.000000  0.625472  1
  Al  Al12  1  0.490581  0.606384  0.884197  1
  Al  Al13  1  0.101229  0.798487  0.302743  1
  Al  Al14  1  0.909703  0.083952  0.825751  1
  Al  Al15  1  0.741799  0.916048  0.825751  1
  Al  Al16  1  0.522677  0.399255  0.123422  1
  Al  Al17  1  0.077559  0.581654  0.495905  1
  Ir  Ir18  1  0.771181  0.500000  0.271181  1
  Ir  Ir19  1  0.985647  0.000000  0.985647  1
  Pt  Pt20  1  0.032862  0.343718  0.689146  1
  Pt  Pt21  1  0.622517  0.119468  0.503049  1
  Pt  Pt22  1  0.250742  0.500000  0.750742  1
  Pt  Pt23  1  0.383580  0.880532  0.503049  1
  Pt  Pt24  1  0.646464  0.337506  0.308958  1
  Pt  Pt25  1  0.345428  0.656282  0.689146  1
  Pt  Pt26  1  0.971454  0.662494  0.308958  1
