# generated using pymatgen
data_Tb4Y2ScCo17P12
_symmetry_space_group_name_H-M   'P 1'
_cell_length_a   3.71423700
_cell_length_b   10.58640000
_cell_length_c   12.28239400
_cell_angle_alpha   90.00000000
_cell_angle_beta   90.00000000
_cell_angle_gamma   90.00000000
_symmetry_Int_Tables_number   1
_chemical_formula_structural   Tb4Y2ScCo17P12
_chemical_formula_sum   'Tb4 Y2 Sc1 Co17 P12'
_cell_volume   482.94862756
_cell_formula_units_Z   1
loop_
 _symmetry_equiv_pos_site_id
 _symmetry_equiv_pos_as_xyz
  1  'x, y, z'
loop_
 _atom_site_type_symbol
 _atom_site_label
 _atom_site_symmetry_multiplicity
 _atom_site_fract_x
 _atom_site_fract_y
 _atom_site_fract_z
 _atom_site_occupancy
  Tb  Tb0  1  0.000000  0.500000  0.527828  1
  Tb  Tb1  1  0.500000  0.000000  0.477484  1
  Tb  Tb2  1  0.000000  0.682721  0.795653  1
  Tb  Tb3  1  0.000000  0.317279  0.795653  1
  Y  Y4  1  0.500000  0.821169  0.207224  1
  Y  Y5  1  0.500000  0.178831  0.207224  1
  Sc  Sc6  1  0.500000  0.500000  0.152430  1
  Co  Co7  1  0.000000  0.000000  0.837666  1
  Co  Co8  1  0.500000  0.500000  0.703533  1
  Co  Co9  1  0.000000  0.000000  0.296166  1
  Co  Co10  1  0.000000  0.500000  0.984855  1
  Co  Co11  1  0.500000  0.000000  0.013075  1
  Co  Co12  1  0.500000  0.326825  0.990031  1
  Co  Co13  1  0.500000  0.673175  0.990031  1
  Co  Co14  1  0.000000  0.162056  0.001416  1
  Co  Co15  1  0.000000  0.837944  0.001416  1
  Co  Co16  1  0.500000  0.294552  0.433908  1
  Co  Co17  1  0.500000  0.705448  0.433908  1
  Co  Co18  1  0.000000  0.202033  0.570556  1
  Co  Co19  1  0.000000  0.797967  0.570556  1
  Co  Co20  1  0.500000  0.880634  0.707785  1
  Co  Co21  1  0.500000  0.119366  0.707785  1
  Co  Co22  1  0.000000  0.622409  0.296447  1
  Co  Co23  1  0.000000  0.377591  0.296447  1
  P  P24  1  0.500000  0.500000  0.883559  1
  P  P25  1  0.000000  0.000000  0.116103  1
  P  P26  1  0.500000  0.500000  0.357666  1
  P  P27  1  0.000000  0.000000  0.655690  1
  P  P28  1  0.500000  0.308469  0.617370  1
  P  P29  1  0.500000  0.691531  0.617370  1
  P  P30  1  0.000000  0.189431  0.386305  1
  P  P31  1  0.000000  0.810569  0.386305  1
  P  P32  1  0.500000  0.851923  0.889254  1
  P  P33  1  0.500000  0.148077  0.889254  1
  P  P34  1  0.000000  0.663238  0.101022  1
  P  P35  1  0.000000  0.336762  0.101022  1
