# generated using pymatgen
data_Sr3RuCl2O5
_symmetry_space_group_name_H-M   'P 1'
_cell_length_a   7.34188590
_cell_length_b   7.34188675
_cell_length_c   11.06622800
_cell_angle_alpha   90.00000000
_cell_angle_beta   90.00000000
_cell_angle_gamma   134.71426622
_symmetry_Int_Tables_number   1
_chemical_formula_structural   Sr3RuCl2O5
_chemical_formula_sum   'Sr6 Ru2 Cl4 O10'
_cell_volume   423.89177214
_cell_formula_units_Z   2
loop_
 _symmetry_equiv_pos_site_id
 _symmetry_equiv_pos_as_xyz
  1  'x, y, z'
loop_
 _atom_site_type_symbol
 _atom_site_label
 _atom_site_symmetry_multiplicity
 _atom_site_fract_x
 _atom_site_fract_y
 _atom_site_fract_z
 _atom_site_occupancy
  Sr  Sr0  1  0.341050  0.658950  0.955504  1
  Sr  Sr1  1  0.658950  0.341050  0.455504  1
  Sr  Sr2  1  0.341050  0.658950  0.544496  1
  Sr  Sr3  1  0.100800  0.899200  0.750000  1
  Sr  Sr4  1  0.658950  0.341050  0.044496  1
  Sr  Sr5  1  0.899200  0.100800  0.250000  1
  Ru  Ru6  1  0.237328  0.762672  0.250000  1
  Ru  Ru7  1  0.762672  0.237328  0.750000  1
  Cl  Cl8  1  0.493916  0.506084  0.750000  1
  Cl  Cl9  1  0.000000  0.000000  0.000000  1
  Cl  Cl10  1  0.000000  0.000000  0.500000  1
  Cl  Cl11  1  0.506084  0.493916  0.250000  1
  O  O12  1  0.511917  0.944241  0.133411  1
  O  O13  1  0.887881  0.112119  0.750000  1
  O  O14  1  0.944241  0.511917  0.633411  1
  O  O15  1  0.488083  0.055759  0.866589  1
  O  O16  1  0.112119  0.887881  0.250000  1
  O  O17  1  0.488083  0.055759  0.633411  1
  O  O18  1  0.944241  0.511917  0.866589  1
  O  O19  1  0.055759  0.488083  0.133411  1
  O  O20  1  0.511917  0.944241  0.366589  1
  O  O21  1  0.055759  0.488083  0.366589  1
