# generated using pymatgen
data_Lu2V2Co3P6Rh5
_symmetry_space_group_name_H-M   'P 1'
_cell_length_a   3.74528900
_cell_length_b   10.67566500
_cell_length_c   12.28692600
_cell_angle_alpha   90.00000000
_cell_angle_beta   90.00000000
_cell_angle_gamma   90.00000000
_symmetry_Int_Tables_number   1
_chemical_formula_structural   Lu2V2Co3P6Rh5
_chemical_formula_sum   'Lu4 V4 Co6 P12 Rh10'
_cell_volume   491.27369988
_cell_formula_units_Z   2
loop_
 _symmetry_equiv_pos_site_id
 _symmetry_equiv_pos_as_xyz
  1  'x, y, z'
loop_
 _atom_site_type_symbol
 _atom_site_label
 _atom_site_symmetry_multiplicity
 _atom_site_fract_x
 _atom_site_fract_y
 _atom_site_fract_z
 _atom_site_occupancy
  Lu  Lu0  1  0.250000  0.580380  0.710285  1
  Lu  Lu1  1  0.250000  0.919620  0.210285  1
  Lu  Lu2  1  0.750000  0.415317  0.291693  1
  Lu  Lu3  1  0.750000  0.084683  0.791693  1
  V  V4  1  0.250000  0.704002  0.986473  1
  V  V5  1  0.250000  0.795998  0.486473  1
  V  V6  1  0.750000  0.295327  0.011034  1
  V  V7  1  0.750000  0.204673  0.511034  1
  Co  Co8  1  0.750000  0.113239  0.305452  1
  Co  Co9  1  0.750000  0.386761  0.805452  1
  Co  Co10  1  0.250000  0.463988  0.933555  1
  Co  Co11  1  0.250000  0.036012  0.433555  1
  Co  Co12  1  0.750000  0.532563  0.061340  1
  Co  Co13  1  0.750000  0.967437  0.561340  1
  P  P14  1  0.250000  0.419112  0.107447  1
  P  P15  1  0.250000  0.080888  0.607447  1
  P  P16  1  0.750000  0.571682  0.887110  1
  P  P17  1  0.750000  0.928318  0.387110  1
  P  P18  1  0.250000  0.271903  0.870201  1
  P  P19  1  0.250000  0.228097  0.370201  1
  P  P20  1  0.750000  0.729625  0.126718  1
  P  P21  1  0.750000  0.770375  0.626718  1
  P  P22  1  0.250000  0.599202  0.391011  1
  P  P23  1  0.250000  0.900798  0.891011  1
  P  P24  1  0.750000  0.401527  0.616775  1
  P  P25  1  0.750000  0.098473  0.116775  1
  Rh  Rh26  1  0.250000  0.402875  0.483980  1
  Rh  Rh27  1  0.250000  0.097125  0.983980  1
  Rh  Rh28  1  0.750000  0.594572  0.517149  1
  Rh  Rh29  1  0.750000  0.905428  0.017149  1
  Rh  Rh30  1  0.250000  0.223503  0.181734  1
  Rh  Rh31  1  0.250000  0.276497  0.681734  1
  Rh  Rh32  1  0.750000  0.769243  0.820045  1
  Rh  Rh33  1  0.750000  0.730757  0.320045  1
  Rh  Rh34  1  0.250000  0.892627  0.697999  1
  Rh  Rh35  1  0.250000  0.607373  0.197999  1
