# generated using pymatgen
data_Th10Si16Ir
_symmetry_space_group_name_H-M   'P 1'
_cell_length_a   11.38201688
_cell_length_b   11.41412230
_cell_length_c   11.38201814
_cell_angle_alpha   143.24796306
_cell_angle_beta   137.18935086
_cell_angle_gamma   57.61637974
_symmetry_Int_Tables_number   1
_chemical_formula_structural   Th10Si16Ir
_chemical_formula_sum   'Th10 Si16 Ir1'
_cell_volume   596.30588981
_cell_formula_units_Z   1
loop_
 _symmetry_equiv_pos_site_id
 _symmetry_equiv_pos_as_xyz
  1  'x, y, z'
loop_
 _atom_site_type_symbol
 _atom_site_label
 _atom_site_symmetry_multiplicity
 _atom_site_fract_x
 _atom_site_fract_y
 _atom_site_fract_z
 _atom_site_occupancy
  Th  Th0  1  0.053598  0.565455  0.016452  1
  Th  Th1  1  0.351042  0.369608  0.520351  1
  Th  Th2  1  0.150182  0.162170  0.515337  1
  Th  Th3  1  0.457302  0.965394  0.022290  1
  Th  Th4  1  0.646834  0.162170  0.011989  1
  Th  Th5  1  0.943103  0.965394  0.508091  1
  Th  Th6  1  0.849257  0.369608  0.018565  1
  Th  Th7  1  0.549002  0.565455  0.511857  1
  Th  Th8  1  0.243819  0.762839  0.006562  1
  Th  Th9  1  0.756277  0.762839  0.519021  1
  Si  Si10  1  0.109682  0.055537  0.945854  1
  Si  Si11  1  0.799862  0.215691  0.415828  1
  Si  Si12  1  0.300047  0.895918  0.595871  1
  Si  Si13  1  0.400224  0.500526  0.100302  1
  Si  Si14  1  0.892168  0.840625  0.948456  1
  Si  Si15  1  0.102590  0.706311  0.603721  1
  Si  Si16  1  0.199731  0.607106  0.407374  1
  Si  Si17  1  0.698686  0.295066  0.596381  1
  Si  Si18  1  0.001342  0.434006  0.432664  1
  Si  Si19  1  0.704064  0.649467  0.945403  1
  Si  Si20  1  0.598180  0.700030  0.101848  1
  Si  Si21  1  0.001018  0.091316  0.090298  1
  Si  Si22  1  0.499246  0.406079  0.906833  1
  Si  Si23  1  0.294179  0.243103  0.948924  1
  Si  Si24  1  0.592224  0.039013  0.446786  1
  Si  Si25  1  0.406973  0.853298  0.446325  1
  Ir  Ir26  1  0.899365  0.504895  0.605532  1
