# generated using pymatgen
data_HoInGaNi3
_symmetry_space_group_name_H-M   'P 1'
_cell_length_a   4.96463234
_cell_length_b   4.96463106
_cell_length_c   4.96463255
_cell_angle_alpha   62.63851764
_cell_angle_beta   62.63853455
_cell_angle_gamma   62.63852514
_symmetry_Int_Tables_number   1
_chemical_formula_structural   HoInGaNi3
_chemical_formula_sum   'Ho1 In1 Ga1 Ni3'
_cell_volume   91.60835262
_cell_formula_units_Z   1
loop_
 _symmetry_equiv_pos_site_id
 _symmetry_equiv_pos_as_xyz
  1  'x, y, z'
loop_
 _atom_site_type_symbol
 _atom_site_label
 _atom_site_symmetry_multiplicity
 _atom_site_fract_x
 _atom_site_fract_y
 _atom_site_fract_z
 _atom_site_occupancy
  Ho  Ho0  1  0.250649  0.250649  0.250649  1
  In  In1  1  0.998306  0.998306  0.998306  1
  Ga  Ga2  1  0.623848  0.623848  0.623848  1
  Ni  Ni3  1  0.627433  0.627433  0.122331  1
  Ni  Ni4  1  0.627433  0.122331  0.627433  1
  Ni  Ni5  1  0.122331  0.627433  0.627433  1
