# generated using pymatgen
data_Lu23Sc(CoTc)4
_symmetry_space_group_name_H-M   'P 1'
_cell_length_a   6.20218628
_cell_length_b   8.98028425
_cell_length_c   13.85147291
_cell_angle_alpha   90.02053480
_cell_angle_beta   89.92834845
_cell_angle_gamma   90.01670957
_symmetry_Int_Tables_number   1
_chemical_formula_structural   Lu23Sc(CoTc)4
_chemical_formula_sum   'Lu23 Sc1 Co4 Tc4'
_cell_volume   771.49028310
_cell_formula_units_Z   1
loop_
 _symmetry_equiv_pos_site_id
 _symmetry_equiv_pos_as_xyz
  1  'x, y, z'
loop_
 _atom_site_type_symbol
 _atom_site_label
 _atom_site_symmetry_multiplicity
 _atom_site_fract_x
 _atom_site_fract_y
 _atom_site_fract_z
 _atom_site_occupancy
  Lu  Lu0  1  0.533164  0.749700  0.351577  1
  Lu  Lu1  1  0.033408  0.250812  0.147372  1
  Lu  Lu2  1  0.467121  0.250173  0.648943  1
  Lu  Lu3  1  0.966393  0.748408  0.852108  1
  Lu  Lu4  1  0.782134  0.748591  0.110817  1
  Lu  Lu5  1  0.282181  0.249988  0.388283  1
  Lu  Lu6  1  0.216243  0.250677  0.888930  1
  Lu  Lu7  1  0.717934  0.749966  0.611533  1
  Lu  Lu8  1  0.409928  0.934117  0.785247  1
  Lu  Lu9  1  0.910361  0.065200  0.714926  1
  Lu  Lu10  1  0.590588  0.434871  0.213709  1
  Lu  Lu11  1  0.090024  0.565165  0.285417  1
  Lu  Lu12  1  0.590297  0.065190  0.214613  1
  Lu  Lu13  1  0.089368  0.934836  0.284983  1
  Lu  Lu14  1  0.412609  0.564459  0.786055  1
  Lu  Lu15  1  0.910393  0.434731  0.715601  1
  Lu  Lu16  1  0.240744  0.938544  0.537394  1
  Lu  Lu17  1  0.741597  0.062780  0.963019  1
  Lu  Lu18  1  0.759059  0.438455  0.462699  1
  Lu  Lu19  1  0.259624  0.560564  0.036690  1
  Lu  Lu20  1  0.759142  0.061654  0.462815  1
  Lu  Lu21  1  0.259418  0.938113  0.037332  1
  Lu  Lu22  1  0.240638  0.561380  0.537422  1
  Sc  Sc23  1  0.732327  0.437351  0.961722  1
  Co  Co24  1  0.371016  0.750066  0.181220  1
  Co  Co25  1  0.871504  0.250502  0.318348  1
  Co  Co26  1  0.629686  0.253313  0.820801  1
  Co  Co27  1  0.128609  0.749937  0.681632  1
  Tc  Tc28  1  0.932495  0.750137  0.437807  1
  Tc  Tc29  1  0.436205  0.251908  0.060742  1
  Tc  Tc30  1  0.067412  0.250159  0.562301  1
  Tc  Tc31  1  0.568379  0.748254  0.937940  1
