# generated using pymatgen
data_Ba3Co3P2WO14
_symmetry_space_group_name_H-M   'P 1'
_cell_length_a   8.64229700
_cell_length_b   10.16250114
_cell_length_c   10.16288395
_cell_angle_alpha   85.12091692
_cell_angle_beta   115.16808072
_cell_angle_gamma   64.83564471
_symmetry_Int_Tables_number   1
_chemical_formula_structural   Ba3Co3P2WO14
_chemical_formula_sum   'Ba6 Co6 P4 W2 O28'
_cell_volume   691.58306806
_cell_formula_units_Z   2
loop_
 _symmetry_equiv_pos_site_id
 _symmetry_equiv_pos_as_xyz
  1  'x, y, z'
loop_
 _atom_site_type_symbol
 _atom_site_label
 _atom_site_symmetry_multiplicity
 _atom_site_fract_x
 _atom_site_fract_y
 _atom_site_fract_z
 _atom_site_occupancy
  Ba  Ba0  1  0.426424  0.999993  0.000005  1
  Ba  Ba1  1  0.926436  0.499979  0.500018  1
  Ba  Ba2  1  0.786829  0.213167  0.213177  1
  Ba  Ba3  1  0.286819  0.713179  0.713192  1
  Ba  Ba4  1  0.286815  0.286825  0.286815  1
  Ba  Ba5  1  0.786806  0.786812  0.786806  1
  Co  Co6  1  0.505876  0.249996  0.749992  1
  Co  Co7  1  0.872101  0.127933  0.628001  1
  Co  Co8  1  0.872039  0.372033  0.872027  1
  Co  Co9  1  0.005867  0.750002  0.249994  1
  Co  Co10  1  0.372104  0.627927  0.127995  1
  Co  Co11  1  0.372045  0.872035  0.372036  1
  P  P12  1  0.270637  0.062710  0.603945  1
  P  P13  1  0.770639  0.562710  0.103944  1
  P  P14  1  0.729413  0.937279  0.396066  1
  P  P15  1  0.229414  0.437275  0.896061  1
  W  W16  1  0.999959  0.000002  0.999986  1
  W  W17  1  0.499966  0.500013  0.500005  1
  O  O18  1  0.126600  0.206729  0.459968  1
  O  O19  1  0.626599  0.706735  0.959971  1
  O  O20  1  0.873447  0.793267  0.540052  1
  O  O21  1  0.373442  0.293267  0.040048  1
  O  O22  1  0.559445  0.654101  0.443368  1
  O  O23  1  0.059430  0.154098  0.943356  1
  O  O24  1  0.239052  0.663427  0.452663  1
  O  O25  1  0.739052  0.163408  0.952661  1
  O  O26  1  0.885329  0.998564  0.787846  1
  O  O27  1  0.385344  0.498566  0.287856  1
  O  O28  1  0.096071  0.001442  0.212131  1
  O  O29  1  0.596067  0.501458  0.712138  1
  O  O30  1  0.449621  0.336714  0.547300  1
  O  O31  1  0.949639  0.836693  0.047298  1
  O  O32  1  0.770170  0.345881  0.556623  1
  O  O33  1  0.270173  0.845877  0.056613  1
  O  O34  1  0.509427  0.973815  0.321011  1
  O  O35  1  0.009435  0.473792  0.820990  1
  O  O36  1  0.784571  0.920632  0.267808  1
  O  O37  1  0.284589  0.420629  0.767814  1
  O  O38  1  0.726835  0.084778  0.431994  1
  O  O39  1  0.226804  0.584780  0.931989  1
  O  O40  1  0.379602  0.915218  0.567998  1
  O  O41  1  0.879616  0.415229  0.067992  1
  O  O42  1  0.437447  0.079346  0.732192  1
  O  O43  1  0.937433  0.579350  0.232200  1
  O  O44  1  0.162286  0.026178  0.679036  1
  O  O45  1  0.662283  0.526159  0.179018  1
