# generated using pymatgen
data_YHoSi3(AsRh3)4
_symmetry_space_group_name_H-M   'P 1'
_cell_length_a   9.90755000
_cell_length_b   9.90755001
_cell_length_c   3.88678800
_cell_angle_alpha   90.00000000
_cell_angle_beta   90.00000000
_cell_angle_gamma   119.99999997
_symmetry_Int_Tables_number   1
_chemical_formula_structural   YHoSi3(AsRh3)4
_chemical_formula_sum   'Y1 Ho1 Si3 As4 Rh12'
_cell_volume   330.41064516
_cell_formula_units_Z   1
loop_
 _symmetry_equiv_pos_site_id
 _symmetry_equiv_pos_as_xyz
  1  'x, y, z'
loop_
 _atom_site_type_symbol
 _atom_site_label
 _atom_site_symmetry_multiplicity
 _atom_site_fract_x
 _atom_site_fract_y
 _atom_site_fract_z
 _atom_site_occupancy
  Y  Y0  1  0.333333  0.666667  0.244476  1
  Ho  Ho1  1  0.666667  0.333333  0.743986  1
  Si  Si2  1  0.404072  0.112785  0.243065  1
  Si  Si3  1  0.708714  0.595928  0.243065  1
  Si  Si4  1  0.887215  0.291286  0.243065  1
  As  As5  1  0.000000  0.000000  0.624507  1
  As  As6  1  0.595541  0.882795  0.745634  1
  As  As7  1  0.287255  0.404459  0.745634  1
  As  As8  1  0.117205  0.712745  0.745634  1
  Rh  Rh9  1  0.450283  0.378651  0.242596  1
  Rh  Rh10  1  0.928369  0.549717  0.242596  1
  Rh  Rh11  1  0.621349  0.071631  0.242596  1
  Rh  Rh12  1  0.558115  0.615228  0.744692  1
  Rh  Rh13  1  0.057114  0.441885  0.744692  1
  Rh  Rh14  1  0.384772  0.942886  0.744692  1
  Rh  Rh15  1  0.146530  0.887449  0.244740  1
  Rh  Rh16  1  0.740919  0.853470  0.244740  1
  Rh  Rh17  1  0.112551  0.259081  0.244740  1
  Rh  Rh18  1  0.848708  0.124837  0.741618  1
  Rh  Rh19  1  0.276129  0.151292  0.741618  1
  Rh  Rh20  1  0.875163  0.723871  0.741618  1
