# generated using pymatgen
data_TbHo4P12Ru16Pt3
_symmetry_space_group_name_H-M   'P 1'
_cell_length_a   3.98313100
_cell_length_b   12.58423045
_cell_length_c   12.58482001
_cell_angle_alpha   119.99373283
_cell_angle_beta   90.00000000
_cell_angle_gamma   90.00000000
_symmetry_Int_Tables_number   1
_chemical_formula_structural   TbHo4P12Ru16Pt3
_chemical_formula_sum   'Tb1 Ho4 P12 Ru16 Pt3'
_cell_volume   546.33159429
_cell_formula_units_Z   1
loop_
 _symmetry_equiv_pos_site_id
 _symmetry_equiv_pos_as_xyz
  1  'x, y, z'
loop_
 _atom_site_type_symbol
 _atom_site_label
 _atom_site_symmetry_multiplicity
 _atom_site_fract_x
 _atom_site_fract_y
 _atom_site_fract_z
 _atom_site_occupancy
  Tb  Tb0  1  0.500000  0.817989  0.817961  1
  Ho  Ho1  1  0.500000  0.000065  0.181996  1
  Ho  Ho2  1  0.500000  0.181983  0.000031  1
  Ho  Ho3  1  0.000000  0.333341  0.666651  1
  Ho  Ho4  1  0.000000  0.666650  0.333331  1
  P  P5  1  0.000000  0.000130  0.814976  1
  P  P6  1  0.000000  0.814992  0.000167  1
  P  P7  1  0.000000  0.184982  0.185019  1
  P  P8  1  0.500000  0.300160  0.480659  1
  P  P9  1  0.500000  0.180557  0.699849  1
  P  P10  1  0.500000  0.519331  0.819461  1
  P  P11  1  0.500000  0.819466  0.519330  1
  P  P12  1  0.500000  0.480648  0.300149  1
  P  P13  1  0.500000  0.699845  0.180565  1
  P  P14  1  0.000000  0.999994  0.365289  1
  P  P15  1  0.000000  0.365273  0.000000  1
  P  P16  1  0.000000  0.634479  0.634485  1
  Ru  Ru17  1  0.500000  0.000159  0.710979  1
  Ru  Ru18  1  0.500000  0.710983  0.000171  1
  Ru  Ru19  1  0.500000  0.288934  0.288947  1
  Ru  Ru20  1  0.000000  0.193419  0.378520  1
  Ru  Ru21  1  0.000000  0.185092  0.806569  1
  Ru  Ru22  1  0.000000  0.621113  0.814971  1
  Ru  Ru23  1  0.000000  0.814953  0.621114  1
  Ru  Ru24  1  0.000000  0.378503  0.193425  1
  Ru  Ru25  1  0.000000  0.806562  0.185097  1
  Ru  Ru26  1  0.500000  0.124814  0.494307  1
  Ru  Ru27  1  0.500000  0.369491  0.875199  1
  Ru  Ru28  1  0.500000  0.505667  0.630477  1
  Ru  Ru29  1  0.500000  0.630453  0.505637  1
  Ru  Ru30  1  0.500000  0.494299  0.124809  1
  Ru  Ru31  1  0.500000  0.875194  0.369473  1
  Ru  Ru32  1  0.000000  0.000436  0.000436  1
  Pt  Pt33  1  0.000000  0.999982  0.551520  1
  Pt  Pt34  1  0.000000  0.551515  0.999984  1
  Pt  Pt35  1  0.000000  0.448444  0.448446  1
