# generated using pymatgen
data_Cs3Ho(PSe3)3
_symmetry_space_group_name_H-M   'P 1'
_cell_length_a   8.33011900
_cell_length_b   13.69555761
_cell_length_c   20.22363200
_cell_angle_alpha   78.36303948
_cell_angle_beta   90.00000000
_cell_angle_gamma   90.00000000
_symmetry_Int_Tables_number   1
_chemical_formula_structural   Cs3Ho(PSe3)3
_chemical_formula_sum   'Cs12 Ho4 P12 Se36'
_cell_volume   2259.80143663
_cell_formula_units_Z   4
loop_
 _symmetry_equiv_pos_site_id
 _symmetry_equiv_pos_as_xyz
  1  'x, y, z'
loop_
 _atom_site_type_symbol
 _atom_site_label
 _atom_site_symmetry_multiplicity
 _atom_site_fract_x
 _atom_site_fract_y
 _atom_site_fract_z
 _atom_site_occupancy
  Cs  Cs0  1  0.030756  0.302086  0.081480  1
  Cs  Cs1  1  0.530756  0.197914  0.918520  1
  Cs  Cs2  1  0.969244  0.697914  0.918520  1
  Cs  Cs3  1  0.469244  0.802086  0.081480  1
  Cs  Cs4  1  0.531081  0.079407  0.269422  1
  Cs  Cs5  1  0.031081  0.420593  0.730578  1
  Cs  Cs6  1  0.468919  0.920593  0.730578  1
  Cs  Cs7  1  0.968919  0.579407  0.269422  1
  Cs  Cs8  1  0.521613  0.311276  0.567643  1
  Cs  Cs9  1  0.021613  0.188724  0.432357  1
  Cs  Cs10  1  0.478387  0.688724  0.432357  1
  Cs  Cs11  1  0.978387  0.811276  0.567643  1
  Ho  Ho12  1  0.487380  0.441040  0.175033  1
  Ho  Ho13  1  0.987380  0.058960  0.824967  1
  Ho  Ho14  1  0.512620  0.558960  0.824967  1
  Ho  Ho15  1  0.012620  0.941040  0.175033  1
  P  P16  1  0.613768  0.344876  0.357651  1
  P  P17  1  0.113768  0.155124  0.642349  1
  P  P18  1  0.386232  0.655124  0.642349  1
  P  P19  1  0.886232  0.844876  0.357651  1
  P  P20  1  0.880966  0.067959  0.674979  1
  P  P21  1  0.380966  0.432041  0.325021  1
  P  P22  1  0.119034  0.932041  0.325021  1
  P  P23  1  0.619034  0.567959  0.674979  1
  P  P24  1  0.614717  0.458272  0.017256  1
  P  P25  1  0.114717  0.041728  0.982744  1
  P  P26  1  0.385283  0.541728  0.982744  1
  P  P27  1  0.885283  0.958272  0.017256  1
  Se  Se28  1  0.751369  0.436969  0.411359  1
  Se  Se29  1  0.251369  0.063031  0.588641  1
  Se  Se30  1  0.248631  0.563031  0.588641  1
  Se  Se31  1  0.748631  0.936969  0.411359  1
  Se  Se32  1  0.538799  0.200370  0.412179  1
  Se  Se33  1  0.038799  0.299630  0.587821  1
  Se  Se34  1  0.461201  0.799630  0.587821  1
  Se  Se35  1  0.961201  0.700370  0.412179  1
  Se  Se36  1  0.728071  0.337478  0.255582  1
  Se  Se37  1  0.228071  0.162522  0.744418  1
  Se  Se38  1  0.271929  0.662522  0.744418  1
  Se  Se39  1  0.771929  0.837478  0.255582  1
  Se  Se40  1  0.739654  0.047490  0.590637  1
  Se  Se41  1  0.239654  0.452510  0.409363  1
  Se  Se42  1  0.260346  0.952510  0.409363  1
  Se  Se43  1  0.760346  0.547490  0.590637  1
  Se  Se44  1  0.038232  0.078623  0.258308  1
  Se  Se45  1  0.538232  0.421377  0.741692  1
  Se  Se46  1  0.961768  0.921377  0.741692  1
  Se  Se47  1  0.461768  0.578623  0.258308  1
  Se  Se48  1  0.248747  0.341774  0.258611  1
  Se  Se49  1  0.748747  0.158226  0.741389  1
  Se  Se50  1  0.751253  0.658226  0.741389  1
  Se  Se51  1  0.251253  0.841774  0.258611  1
  Se  Se52  1  0.766952  0.047786  0.081967  1
  Se  Se53  1  0.266952  0.452214  0.918033  1
  Se  Se54  1  0.233048  0.952214  0.918033  1
  Se  Se55  1  0.733048  0.547786  0.081967  1
  Se  Se56  1  0.530965  0.313217  0.075598  1
  Se  Se57  1  0.030965  0.186783  0.924402  1
  Se  Se58  1  0.469035  0.686783  0.924402  1
  Se  Se59  1  0.969035  0.813217  0.075598  1
  Se  Se60  1  0.250208  0.052239  0.074617  1
  Se  Se61  1  0.750208  0.447761  0.925383  1
  Se  Se62  1  0.749792  0.947761  0.925383  1
  Se  Se63  1  0.249792  0.552239  0.074617  1
