# generated using pymatgen
data_Hf2SiNi2As
_symmetry_space_group_name_H-M   'P 1'
_cell_length_a   3.83690100
_cell_length_b   6.43860705
_cell_length_c   7.25820703
_cell_angle_alpha   90.01229184
_cell_angle_beta   90.00000000
_cell_angle_gamma   90.00000000
_symmetry_Int_Tables_number   1
_chemical_formula_structural   Hf2SiNi2As
_chemical_formula_sum   'Hf4 Si2 Ni4 As2'
_cell_volume   179.30890400
_cell_formula_units_Z   2
loop_
 _symmetry_equiv_pos_site_id
 _symmetry_equiv_pos_as_xyz
  1  'x, y, z'
loop_
 _atom_site_type_symbol
 _atom_site_label
 _atom_site_symmetry_multiplicity
 _atom_site_fract_x
 _atom_site_fract_y
 _atom_site_fract_z
 _atom_site_occupancy
  Hf  Hf0  1  0.250000  0.480338  0.190120  1
  Hf  Hf1  1  0.750000  0.519662  0.809880  1
  Hf  Hf2  1  0.750000  0.014482  0.684079  1
  Hf  Hf3  1  0.250000  0.985518  0.315921  1
  Si  Si4  1  0.250000  0.726434  0.608081  1
  Si  Si5  1  0.750000  0.273566  0.391919  1
  Ni  Ni6  1  0.250000  0.835058  0.922213  1
  Ni  Ni7  1  0.750000  0.164942  0.077787  1
  Ni  Ni8  1  0.750000  0.639878  0.444790  1
  Ni  Ni9  1  0.250000  0.360122  0.555210  1
  As  As10  1  0.750000  0.775023  0.115091  1
  As  As11  1  0.250000  0.224977  0.884909  1
