# generated using pymatgen
data_Dy3Y5Co17Si10Ir
_symmetry_space_group_name_H-M   'P 1'
_cell_length_a   5.23523991
_cell_length_b   5.23523958
_cell_length_c   21.99734100
_cell_angle_alpha   89.89394093
_cell_angle_beta   90.10605819
_cell_angle_gamma   120.37949284
_symmetry_Int_Tables_number   1
_chemical_formula_structural   Dy3Y5Co17Si10Ir
_chemical_formula_sum   'Dy3 Y5 Co17 Si10 Ir1'
_cell_volume   520.11513859
_cell_formula_units_Z   1
loop_
 _symmetry_equiv_pos_site_id
 _symmetry_equiv_pos_as_xyz
  1  'x, y, z'
loop_
 _atom_site_type_symbol
 _atom_site_label
 _atom_site_symmetry_multiplicity
 _atom_site_fract_x
 _atom_site_fract_y
 _atom_site_fract_z
 _atom_site_occupancy
  Dy  Dy0  1  0.333145  0.666855  0.529889  1
  Dy  Dy1  1  0.665565  0.334435  0.474236  1
  Dy  Dy2  1  0.666727  0.333273  0.027702  1
  Y  Y3  1  0.333400  0.666600  0.971999  1
  Y  Y4  1  0.333091  0.666909  0.675239  1
  Y  Y5  1  0.667273  0.332727  0.325728  1
  Y  Y6  1  0.666756  0.333244  0.173891  1
  Y  Y7  1  0.333369  0.666631  0.825864  1
  Co  Co8  1  0.166339  0.332475  0.087705  1
  Co  Co9  1  0.833390  0.667324  0.911699  1
  Co  Co10  1  0.667525  0.833661  0.087705  1
  Co  Co11  1  0.833288  0.667747  0.589390  1
  Co  Co12  1  0.332676  0.166610  0.911699  1
  Co  Co13  1  0.165231  0.331157  0.412246  1
  Co  Co14  1  0.165963  0.834037  0.087959  1
  Co  Co15  1  0.332253  0.166712  0.589390  1
  Co  Co16  1  0.834100  0.165900  0.911190  1
  Co  Co17  1  0.668843  0.834769  0.412246  1
  Co  Co18  1  0.832848  0.167152  0.589859  1
  Co  Co19  1  0.167758  0.334754  0.247917  1
  Co  Co20  1  0.832675  0.664977  0.750329  1
  Co  Co21  1  0.665246  0.832242  0.247917  1
  Co  Co22  1  0.335023  0.167325  0.750329  1
  Co  Co23  1  0.167526  0.832474  0.249671  1
  Co  Co24  1  0.832694  0.167306  0.750467  1
  Si  Si25  1  0.999833  0.000167  0.999783  1
  Si  Si26  1  0.996945  0.003055  0.502686  1
  Si  Si27  1  0.332621  0.667379  0.167062  1
  Si  Si28  1  0.666048  0.333952  0.831991  1
  Si  Si29  1  0.666171  0.333829  0.668929  1
  Si  Si30  1  0.343123  0.656877  0.329059  1
  Si  Si31  1  0.000731  0.999269  0.168052  1
  Si  Si32  1  0.000892  0.999108  0.831037  1
  Si  Si33  1  0.000081  0.999919  0.669712  1
  Si  Si34  1  0.992079  0.007921  0.328431  1
  Ir  Ir35  1  0.168774  0.831226  0.410988  1
