# generated using pymatgen
data_GaAg(SeO4)2
_symmetry_space_group_name_H-M   'P 1'
_cell_length_a   4.98268688
_cell_length_b   4.98268634
_cell_length_c   7.47843027
_cell_angle_alpha   89.25819113
_cell_angle_beta   89.25819578
_cell_angle_gamma   66.72111085
_symmetry_Int_Tables_number   1
_chemical_formula_structural   GaAg(SeO4)2
_chemical_formula_sum   'Ga1 Ag1 Se2 O8'
_cell_volume   170.53286927
_cell_formula_units_Z   1
loop_
 _symmetry_equiv_pos_site_id
 _symmetry_equiv_pos_as_xyz
  1  'x, y, z'
loop_
 _atom_site_type_symbol
 _atom_site_label
 _atom_site_symmetry_multiplicity
 _atom_site_fract_x
 _atom_site_fract_y
 _atom_site_fract_z
 _atom_site_occupancy
  Ga  Ga0  1  0.000000  0.000000  0.000000  1
  Ag  Ag1  1  0.000000  0.000000  0.500000  1
  Se  Se2  1  0.357769  0.357769  0.786044  1
  Se  Se3  1  0.642231  0.642231  0.213956  1
  O  O4  1  0.276843  0.276843  0.587425  1
  O  O5  1  0.723157  0.723157  0.412575  1
  O  O6  1  0.727810  0.230579  0.802660  1
  O  O7  1  0.272190  0.769421  0.197340  1
  O  O8  1  0.769421  0.272190  0.197340  1
  O  O9  1  0.230579  0.727810  0.802660  1
  O  O10  1  0.233714  0.233714  0.965684  1
  O  O11  1  0.766286  0.766286  0.034316  1
