# generated using pymatgen
data_SrPrTaMnO6
_symmetry_space_group_name_H-M   'P 1'
_cell_length_a   8.17151974
_cell_length_b   8.17152818
_cell_length_c   9.89158996
_cell_angle_alpha   66.48920991
_cell_angle_beta   66.48909314
_cell_angle_gamma   91.75371454
_symmetry_Int_Tables_number   1
_chemical_formula_structural   SrPrTaMnO6
_chemical_formula_sum   'Sr4 Pr4 Ta4 Mn4 O24'
_cell_volume   541.06302329
_cell_formula_units_Z   4
loop_
 _symmetry_equiv_pos_site_id
 _symmetry_equiv_pos_as_xyz
  1  'x, y, z'
loop_
 _atom_site_type_symbol
 _atom_site_label
 _atom_site_symmetry_multiplicity
 _atom_site_fract_x
 _atom_site_fract_y
 _atom_site_fract_z
 _atom_site_occupancy
  Sr  Sr0  1  0.391275  0.352361  0.248744  1
  Sr  Sr1  1  0.891280  0.852363  0.248739  1
  Sr  Sr2  1  0.102364  0.641279  0.748739  1
  Sr  Sr3  1  0.602361  0.141278  0.748744  1
  Pr  Pr4  1  0.413132  0.854959  0.245726  1
  Pr  Pr5  1  0.913134  0.354956  0.245730  1
  Pr  Pr6  1  0.104957  0.163131  0.745728  1
  Pr  Pr7  1  0.604958  0.663136  0.745728  1
  Ta  Ta8  1  0.748003  0.252996  0.999654  1
  Ta  Ta9  1  0.248014  0.753006  0.999648  1
  Ta  Ta10  1  0.003009  0.998016  0.499645  1
  Ta  Ta11  1  0.503004  0.498010  0.499648  1
  Mn  Mn12  1  0.998323  0.504587  0.498379  1
  Mn  Mn13  1  0.254604  0.248328  0.998343  1
  Mn  Mn14  1  0.498305  0.004581  0.498368  1
  Mn  Mn15  1  0.754581  0.748313  0.998375  1
  O  O16  1  0.348493  0.813861  0.761534  1
  O  O17  1  0.848494  0.313864  0.761535  1
  O  O18  1  0.563865  0.598493  0.261535  1
  O  O19  1  0.063859  0.098494  0.261537  1
  O  O20  1  0.759444  0.989491  0.049489  1
  O  O21  1  0.259443  0.489489  0.049492  1
  O  O22  1  0.239491  0.509446  0.549488  1
  O  O23  1  0.739489  0.009442  0.549494  1
  O  O24  1  0.558877  0.757629  0.461286  1
  O  O25  1  0.058875  0.257627  0.461287  1
  O  O26  1  0.007629  0.308878  0.961286  1
  O  O27  1  0.507629  0.808875  0.961284  1
  O  O28  1  0.486204  0.173346  0.050075  1
  O  O29  1  0.986201  0.673343  0.050077  1
  O  O30  1  0.923344  0.736200  0.550078  1
  O  O31  1  0.423343  0.236203  0.550077  1
  O  O32  1  0.261533  0.968323  0.447071  1
  O  O33  1  0.761534  0.468323  0.447072  1
  O  O34  1  0.718324  0.511535  0.947072  1
  O  O35  1  0.218324  0.011537  0.947070  1
  O  O36  1  0.948162  0.918989  0.738054  1
  O  O37  1  0.448161  0.418993  0.738053  1
  O  O38  1  0.168988  0.698161  0.238054  1
  O  O39  1  0.668990  0.198160  0.238055  1
