# generated using pymatgen
data_TmTa2Fe9
_symmetry_space_group_name_H-M   'P 1'
_cell_length_a   4.89022353
_cell_length_b   4.89022351
_cell_length_c   8.32880922
_cell_angle_alpha   72.92803431
_cell_angle_beta   72.92803398
_cell_angle_gamma   60.00000259
_symmetry_Int_Tables_number   1
_chemical_formula_structural   TmTa2Fe9
_chemical_formula_sum   'Tm1 Ta2 Fe9'
_cell_volume   162.27959353
_cell_formula_units_Z   1
loop_
 _symmetry_equiv_pos_site_id
 _symmetry_equiv_pos_as_xyz
  1  'x, y, z'
loop_
 _atom_site_type_symbol
 _atom_site_label
 _atom_site_symmetry_multiplicity
 _atom_site_fract_x
 _atom_site_fract_y
 _atom_site_fract_z
 _atom_site_occupancy
  Tm  Tm0  1  0.000000  0.000000  0.000000  1
  Ta  Ta1  1  0.143802  0.143802  0.568592  1
  Ta  Ta2  1  0.856198  0.856198  0.431408  1
  Fe  Fe3  1  0.082349  0.588375  0.740899  1
  Fe  Fe4  1  0.588375  0.588375  0.740899  1
  Fe  Fe5  1  0.588375  0.082349  0.740899  1
  Fe  Fe6  1  0.917651  0.411625  0.259101  1
  Fe  Fe7  1  0.411625  0.411625  0.259101  1
  Fe  Fe8  1  0.411625  0.917651  0.259101  1
  Fe  Fe9  1  0.333554  0.333554  0.999337  1
  Fe  Fe10  1  0.666446  0.666446  0.000663  1
  Fe  Fe11  1  0.500000  0.500000  0.500000  1
