# generated using pymatgen
data_Gd3Ho2(ReN4)3
_symmetry_space_group_name_H-M   'P 1'
_cell_length_a   11.10360904
_cell_length_b   11.10360895
_cell_length_c   11.10360900
_cell_angle_alpha   109.47122073
_cell_angle_beta   109.47122056
_cell_angle_gamma   109.47121829
_symmetry_Int_Tables_number   1
_chemical_formula_structural   Gd3Ho2(ReN4)3
_chemical_formula_sum   'Gd12 Ho8 Re12 N48'
_cell_volume   1053.83010731
_cell_formula_units_Z   4
loop_
 _symmetry_equiv_pos_site_id
 _symmetry_equiv_pos_as_xyz
  1  'x, y, z'
loop_
 _atom_site_type_symbol
 _atom_site_label
 _atom_site_symmetry_multiplicity
 _atom_site_fract_x
 _atom_site_fract_y
 _atom_site_fract_z
 _atom_site_occupancy
  Gd  Gd0  1  0.250000  0.375001  0.125000  1
  Gd  Gd1  1  0.375000  0.750000  0.125000  1
  Gd  Gd2  1  0.375001  0.125000  0.250000  1
  Gd  Gd3  1  0.875000  0.625000  0.250000  1
  Gd  Gd4  1  0.750000  0.125000  0.375000  1
  Gd  Gd5  1  0.125000  0.250000  0.375001  1
  Gd  Gd6  1  0.875000  0.750000  0.625000  1
  Gd  Gd7  1  0.250000  0.875000  0.625000  1
  Gd  Gd8  1  0.125000  0.375000  0.750000  1
  Gd  Gd9  1  0.625000  0.875000  0.750000  1
  Gd  Gd10  1  0.625000  0.250000  0.875000  1
  Gd  Gd11  1  0.750000  0.625000  0.875000  1
  Ho  Ho12  1  0.000000  0.000000  0.000000  1
  Ho  Ho13  1  0.500001  0.000000  0.000000  1
  Ho  Ho14  1  0.000000  0.500001  0.000000  1
  Ho  Ho15  1  0.500000  0.500000  0.000000  1
  Ho  Ho16  1  0.000000  0.000000  0.500001  1
  Ho  Ho17  1  0.500000  0.000000  0.500000  1
  Ho  Ho18  1  0.000000  0.500000  0.500000  1
  Ho  Ho19  1  0.500001  0.500001  0.500001  1
  Re  Re20  1  0.875000  0.250000  0.124999  1
  Re  Re21  1  0.750000  0.875000  0.125000  1
  Re  Re22  1  0.625000  0.375000  0.250000  1
  Re  Re23  1  0.124999  0.875000  0.250000  1
  Re  Re24  1  0.250000  0.625000  0.375000  1
  Re  Re25  1  0.625000  0.750000  0.375001  1
  Re  Re26  1  0.375000  0.250000  0.625000  1
  Re  Re27  1  0.750000  0.375001  0.625000  1
  Re  Re28  1  0.875000  0.125000  0.750000  1
  Re  Re29  1  0.375001  0.625000  0.750000  1
  Re  Re30  1  0.250000  0.124999  0.875000  1
  Re  Re31  1  0.125000  0.750000  0.875000  1
  N  N32  1  0.304005  0.902326  0.029004  1
  N  N33  1  0.225000  0.126679  0.029005  1
  N  N34  1  0.873321  0.402326  0.098321  1
  N  N35  1  0.725000  0.695995  0.098321  1
  N  N36  1  0.970995  0.695995  0.097674  1
  N  N37  1  0.626679  0.401679  0.097674  1
  N  N38  1  0.597674  0.901679  0.126678  1
  N  N39  1  0.029005  0.225000  0.126679  1
  N  N40  1  0.225000  0.598321  0.195995  1
  N  N41  1  0.470996  0.597675  0.195995  1
  N  N42  1  0.598321  0.195995  0.225000  1
  N  N43  1  0.126679  0.029005  0.225000  1
  N  N44  1  0.470996  0.373322  0.275000  1
  N  N45  1  0.304005  0.901679  0.275000  1
  N  N46  1  0.902326  0.029004  0.304005  1
  N  N47  1  0.901679  0.275000  0.304005  1
  N  N48  1  0.275000  0.470996  0.373322  1
  N  N49  1  0.598321  0.902327  0.373322  1
  N  N50  1  0.804005  0.529005  0.402327  1
  N  N51  1  0.098321  0.873321  0.402326  1
  N  N52  1  0.097674  0.626679  0.401679  1
  N  N53  1  0.804005  0.775000  0.401679  1
  N  N54  1  0.597675  0.195995  0.470996  1
  N  N55  1  0.373322  0.275000  0.470996  1
  N  N56  1  0.626678  0.724999  0.529004  1
  N  N57  1  0.402327  0.804005  0.529005  1
  N  N58  1  0.195995  0.225000  0.598321  1
  N  N59  1  0.902327  0.373322  0.598321  1
  N  N60  1  0.901679  0.126678  0.597674  1
  N  N61  1  0.195995  0.470996  0.597675  1
  N  N62  1  0.401679  0.097674  0.626679  1
  N  N63  1  0.724999  0.529004  0.626678  1
  N  N64  1  0.098321  0.725000  0.695995  1
  N  N65  1  0.097674  0.970995  0.695995  1
  N  N66  1  0.695995  0.098321  0.725000  1
  N  N67  1  0.529004  0.626678  0.724999  1
  N  N68  1  0.401679  0.804005  0.775000  1
  N  N69  1  0.873322  0.970996  0.775001  1
  N  N70  1  0.529005  0.402327  0.804005  1
  N  N71  1  0.775000  0.401679  0.804005  1
  N  N72  1  0.402326  0.098321  0.873321  1
  N  N73  1  0.970996  0.775001  0.873322  1
  N  N74  1  0.029004  0.304005  0.902326  1
  N  N75  1  0.373322  0.598321  0.902327  1
  N  N76  1  0.275000  0.304005  0.901679  1
  N  N77  1  0.126678  0.597674  0.901679  1
  N  N78  1  0.695995  0.097674  0.970995  1
  N  N79  1  0.775001  0.873322  0.970996  1
