# generated using pymatgen
data_Y3Hf5Pt4
_symmetry_space_group_name_H-M   'P 1'
_cell_length_a   4.64081100
_cell_length_b   6.99700453
_cell_length_c   8.17683476
_cell_angle_alpha   89.70589084
_cell_angle_beta   90.00000000
_cell_angle_gamma   90.00000000
_symmetry_Int_Tables_number   1
_chemical_formula_structural   Y3Hf5Pt4
_chemical_formula_sum   'Y3 Hf5 Pt4'
_cell_volume   265.51284537
_cell_formula_units_Z   1
loop_
 _symmetry_equiv_pos_site_id
 _symmetry_equiv_pos_as_xyz
  1  'x, y, z'
loop_
 _atom_site_type_symbol
 _atom_site_label
 _atom_site_symmetry_multiplicity
 _atom_site_fract_x
 _atom_site_fract_y
 _atom_site_fract_z
 _atom_site_occupancy
  Y  Y0  1  0.250000  0.482166  0.181622  1
  Y  Y1  1  0.750000  0.013196  0.676120  1
  Y  Y2  1  0.750000  0.514700  0.818730  1
  Hf  Hf3  1  0.250000  0.851511  0.927135  1
  Hf  Hf4  1  0.250000  0.348356  0.577422  1
  Hf  Hf5  1  0.750000  0.143796  0.083810  1
  Hf  Hf6  1  0.750000  0.654864  0.418700  1
  Hf  Hf7  1  0.250000  0.985583  0.326866  1
  Pt  Pt8  1  0.250000  0.228219  0.905860  1
  Pt  Pt9  1  0.250000  0.737462  0.587071  1
  Pt  Pt10  1  0.750000  0.770069  0.095680  1
  Pt  Pt11  1  0.750000  0.270077  0.400986  1
