# generated using pymatgen
data_Hf3ScNi12
_symmetry_space_group_name_H-M   'P 1'
_cell_length_a   5.26328900
_cell_length_b   5.26328963
_cell_length_c   8.53963900
_cell_angle_alpha   90.00000000
_cell_angle_beta   90.00000000
_cell_angle_gamma   119.99998974
_symmetry_Int_Tables_number   1
_chemical_formula_structural   Hf3ScNi12
_chemical_formula_sum   'Hf3 Sc1 Ni12'
_cell_volume   204.87297552
_cell_formula_units_Z   1
loop_
 _symmetry_equiv_pos_site_id
 _symmetry_equiv_pos_as_xyz
  1  'x, y, z'
loop_
 _atom_site_type_symbol
 _atom_site_label
 _atom_site_symmetry_multiplicity
 _atom_site_fract_x
 _atom_site_fract_y
 _atom_site_fract_z
 _atom_site_occupancy
  Hf  Hf0  1  0.000000  0.000000  0.000000  1
  Hf  Hf1  1  0.333333  0.666667  0.251127  1
  Hf  Hf2  1  0.666667  0.333333  0.748873  1
  Sc  Sc3  1  0.000000  0.000000  0.500000  1
  Ni  Ni4  1  0.500000  0.500000  0.500000  1
  Ni  Ni5  1  0.500000  0.000000  0.500000  1
  Ni  Ni6  1  0.000000  0.500000  0.500000  1
  Ni  Ni7  1  0.500000  0.500000  0.000000  1
  Ni  Ni8  1  0.500000  0.000000  0.000000  1
  Ni  Ni9  1  0.000000  0.500000  0.000000  1
  Ni  Ni10  1  0.822428  0.177572  0.249422  1
  Ni  Ni11  1  0.822428  0.644856  0.249422  1
  Ni  Ni12  1  0.355144  0.177572  0.249422  1
  Ni  Ni13  1  0.177572  0.822428  0.750578  1
  Ni  Ni14  1  0.177572  0.355144  0.750578  1
  Ni  Ni15  1  0.644856  0.822428  0.750578  1
