# generated using pymatgen
data_TaTi2Nb5As6
_symmetry_space_group_name_H-M   'P 1'
_cell_length_a   7.43977501
_cell_length_b   7.43977495
_cell_length_c   19.18969300
_cell_angle_alpha   90.00000000
_cell_angle_beta   90.00000000
_cell_angle_gamma   152.43563364
_symmetry_Int_Tables_number   1
_chemical_formula_structural   TaTi2Nb5As6
_chemical_formula_sum   'Ta2 Ti4 Nb10 As12'
_cell_volume   491.50639123
_cell_formula_units_Z   2
loop_
 _symmetry_equiv_pos_site_id
 _symmetry_equiv_pos_as_xyz
  1  'x, y, z'
loop_
 _atom_site_type_symbol
 _atom_site_label
 _atom_site_symmetry_multiplicity
 _atom_site_fract_x
 _atom_site_fract_y
 _atom_site_fract_z
 _atom_site_occupancy
  Ta  Ta0  1  0.000000  0.000000  0.000000  1
  Ta  Ta1  1  0.000000  0.000000  0.500000  1
  Ti  Ti2  1  0.735753  0.264247  0.163189  1
  Ti  Ti3  1  0.264247  0.735753  0.836811  1
  Ti  Ti4  1  0.264247  0.735753  0.663189  1
  Ti  Ti5  1  0.735753  0.264247  0.336811  1
  Nb  Nb6  1  0.535151  0.464849  0.120968  1
  Nb  Nb7  1  0.464849  0.535151  0.879032  1
  Nb  Nb8  1  0.464849  0.535151  0.620968  1
  Nb  Nb9  1  0.535151  0.464849  0.379032  1
  Nb  Nb10  1  0.663734  0.336266  0.973253  1
  Nb  Nb11  1  0.336266  0.663734  0.026747  1
  Nb  Nb12  1  0.336266  0.663734  0.473253  1
  Nb  Nb13  1  0.663734  0.336266  0.526747  1
  Nb  Nb14  1  0.055885  0.944115  0.750000  1
  Nb  Nb15  1  0.944115  0.055885  0.250000  1
  As  As16  1  0.899952  0.100048  0.118561  1
  As  As17  1  0.100048  0.899952  0.881439  1
  As  As18  1  0.100048  0.899952  0.618561  1
  As  As19  1  0.899952  0.100048  0.381439  1
  As  As20  1  0.838624  0.161376  0.921226  1
  As  As21  1  0.161376  0.838624  0.078774  1
  As  As22  1  0.161376  0.838624  0.421226  1
  As  As23  1  0.838624  0.161376  0.578774  1
  As  As24  1  0.700062  0.299938  0.750000  1
  As  As25  1  0.299938  0.700062  0.250000  1
  As  As26  1  0.412313  0.587687  0.750000  1
  As  As27  1  0.587687  0.412313  0.250000  1
