# generated using pymatgen
data_Y6Si4Ir3Os
_symmetry_space_group_name_H-M   'P 1'
_cell_length_a   5.58275532
_cell_length_b   5.58275631
_cell_length_c   13.26411777
_cell_angle_alpha   90.09029204
_cell_angle_beta   89.90970832
_cell_angle_gamma   136.74151420
_symmetry_Int_Tables_number   1
_chemical_formula_structural   Y6Si4Ir3Os
_chemical_formula_sum   'Y6 Si4 Ir3 Os1'
_cell_volume   283.30220089
_cell_formula_units_Z   1
loop_
 _symmetry_equiv_pos_site_id
 _symmetry_equiv_pos_as_xyz
  1  'x, y, z'
loop_
 _atom_site_type_symbol
 _atom_site_label
 _atom_site_symmetry_multiplicity
 _atom_site_fract_x
 _atom_site_fract_y
 _atom_site_fract_z
 _atom_site_occupancy
  Y  Y0  1  0.774190  0.225810  0.603431  1
  Y  Y1  1  0.517246  0.482754  0.248682  1
  Y  Y2  1  0.225810  0.774190  0.396569  1
  Y  Y3  1  0.773873  0.226127  0.896709  1
  Y  Y4  1  0.482754  0.517246  0.751318  1
  Y  Y5  1  0.226127  0.773873  0.103291  1
  Si  Si6  1  0.061939  0.938061  0.589605  1
  Si  Si7  1  0.062182  0.937818  0.910681  1
  Si  Si8  1  0.938061  0.061939  0.410395  1
  Si  Si9  1  0.937818  0.062182  0.089319  1
  Ir  Ir10  1  0.813412  0.186588  0.251325  1
  Ir  Ir11  1  0.186588  0.813412  0.748675  1
  Ir  Ir12  1  0.500000  0.500000  0.500000  1
  Os  Os13  1  0.500000  0.500000  0.000000  1
