# generated using pymatgen
data_RbIn(GaCl4)2
_symmetry_space_group_name_H-M   'P 1'
_cell_length_a   7.36408500
_cell_length_b   8.80527349
_cell_length_c   12.51187600
_cell_angle_alpha   75.78500892
_cell_angle_beta   90.00000000
_cell_angle_gamma   90.00000000
_symmetry_Int_Tables_number   1
_chemical_formula_structural   RbIn(GaCl4)2
_chemical_formula_sum   'Rb2 In2 Ga4 Cl16'
_cell_volume   786.46361857
_cell_formula_units_Z   2
loop_
 _symmetry_equiv_pos_site_id
 _symmetry_equiv_pos_as_xyz
  1  'x, y, z'
loop_
 _atom_site_type_symbol
 _atom_site_label
 _atom_site_symmetry_multiplicity
 _atom_site_fract_x
 _atom_site_fract_y
 _atom_site_fract_z
 _atom_site_occupancy
  Rb  Rb0  1  0.847727  0.000000  0.250000  1
  Rb  Rb1  1  0.152273  0.000000  0.750000  1
  In  In2  1  0.414313  0.500000  0.250000  1
  In  In3  1  0.585687  0.500000  0.750000  1
  Ga  Ga4  1  0.711089  0.222276  0.546082  1
  Ga  Ga5  1  0.711089  0.777724  0.953918  1
  Ga  Ga6  1  0.288911  0.777724  0.453918  1
  Ga  Ga7  1  0.288911  0.222276  0.046082  1
  Cl  Cl8  1  0.088895  0.659032  0.371800  1
  Cl  Cl9  1  0.088895  0.340968  0.128200  1
  Cl  Cl10  1  0.911105  0.340968  0.628200  1
  Cl  Cl11  1  0.911105  0.659032  0.871800  1
  Cl  Cl12  1  0.435882  0.712077  0.909681  1
  Cl  Cl13  1  0.435882  0.287923  0.590319  1
  Cl  Cl14  1  0.564118  0.287923  0.090319  1
  Cl  Cl15  1  0.564118  0.712077  0.409681  1
  Cl  Cl16  1  0.745060  0.305829  0.364988  1
  Cl  Cl17  1  0.745060  0.694171  0.135012  1
  Cl  Cl18  1  0.254940  0.694171  0.635012  1
  Cl  Cl19  1  0.254940  0.305829  0.864988  1
  Cl  Cl20  1  0.245591  0.031769  0.406411  1
  Cl  Cl21  1  0.245591  0.968231  0.093589  1
  Cl  Cl22  1  0.754409  0.968231  0.593589  1
  Cl  Cl23  1  0.754409  0.031769  0.906411  1
