# generated using pymatgen
data_Tm3ScTl5
_symmetry_space_group_name_H-M   'P 1'
_cell_length_a   8.36312960
_cell_length_b   8.36312931
_cell_length_c   8.36312744
_cell_angle_alpha   66.24920126
_cell_angle_beta   66.24920256
_cell_angle_gamma   66.24919419
_symmetry_Int_Tables_number   1
_chemical_formula_structural   Tm3ScTl5
_chemical_formula_sum   'Tm6 Sc2 Tl10'
_cell_volume   469.41465551
_cell_formula_units_Z   2
loop_
 _symmetry_equiv_pos_site_id
 _symmetry_equiv_pos_as_xyz
  1  'x, y, z'
loop_
 _atom_site_type_symbol
 _atom_site_label
 _atom_site_symmetry_multiplicity
 _atom_site_fract_x
 _atom_site_fract_y
 _atom_site_fract_z
 _atom_site_occupancy
  Tm  Tm0  1  0.892997  0.188801  0.615981  1
  Tm  Tm1  1  0.615981  0.892997  0.188801  1
  Tm  Tm2  1  0.188801  0.615981  0.892997  1
  Tm  Tm3  1  0.107003  0.811199  0.384019  1
  Tm  Tm4  1  0.384019  0.107003  0.811199  1
  Tm  Tm5  1  0.811199  0.384019  0.107003  1
  Sc  Sc6  1  0.656719  0.656719  0.656719  1
  Sc  Sc7  1  0.343281  0.343281  0.343281  1
  Tl  Tl8  1  0.000000  0.000000  0.000000  1
  Tl  Tl9  1  0.500000  0.500000  0.500000  1
  Tl  Tl10  1  0.813437  0.813437  0.813437  1
  Tl  Tl11  1  0.186563  0.186563  0.186563  1
  Tl  Tl12  1  0.944558  0.569907  0.301394  1
  Tl  Tl13  1  0.301394  0.944558  0.569907  1
  Tl  Tl14  1  0.569907  0.301394  0.944558  1
  Tl  Tl15  1  0.055442  0.430093  0.698606  1
  Tl  Tl16  1  0.698606  0.055442  0.430093  1
  Tl  Tl17  1  0.430093  0.698606  0.055442  1
