# generated using pymatgen
data_La14Pr2Cd4Ru3Pt
_symmetry_space_group_name_H-M   'P 1'
_cell_length_a   10.08744709
_cell_length_b   10.13196655
_cell_length_c   10.12129900
_cell_angle_alpha   60.03481898
_cell_angle_beta   59.88892404
_cell_angle_gamma   59.72788644
_symmetry_Int_Tables_number   1
_chemical_formula_structural   La14Pr2Cd4Ru3Pt
_chemical_formula_sum   'La14 Pr2 Cd4 Ru3 Pt1'
_cell_volume   729.53185312
_cell_formula_units_Z   1
loop_
 _symmetry_equiv_pos_site_id
 _symmetry_equiv_pos_as_xyz
  1  'x, y, z'
loop_
 _atom_site_type_symbol
 _atom_site_label
 _atom_site_symmetry_multiplicity
 _atom_site_fract_x
 _atom_site_fract_y
 _atom_site_fract_z
 _atom_site_occupancy
  La  La0  1  0.342801  0.349842  0.349950  1
  La  La1  1  0.342801  0.349842  0.957407  1
  La  La2  1  0.342259  0.956460  0.350641  1
  La  La3  1  0.961198  0.345181  0.346811  1
  La  La4  1  0.816425  0.190978  0.190960  1
  La  La5  1  0.189967  0.810773  0.810693  1
  La  La6  1  0.189967  0.810773  0.188567  1
  La  La7  1  0.816425  0.190978  0.801638  1
  La  La8  1  0.190106  0.188450  0.810722  1
  La  La9  1  0.816608  0.802097  0.190647  1
  La  La10  1  0.938496  0.561304  0.561466  1
  La  La11  1  0.558965  0.939051  0.938328  1
  La  La12  1  0.558965  0.939051  0.563656  1
  La  La13  1  0.938496  0.561304  0.938733  1
  Pr  Pr14  1  0.559699  0.563608  0.938346  1
  Pr  Pr15  1  0.938310  0.939815  0.560937  1
  Cd  Cd16  1  0.579252  0.579443  0.579991  1
  Cd  Cd17  1  0.579252  0.579443  0.261313  1
  Cd  Cd18  1  0.580080  0.260702  0.579609  1
  Cd  Cd19  1  0.260959  0.580091  0.579475  1
  Ru  Ru20  1  0.140870  0.137701  0.137221  1
  Ru  Ru21  1  0.140870  0.137701  0.584208  1
  Ru  Ru22  1  0.140120  0.584313  0.137784  1
  Pt  Pt23  1  0.577108  0.141098  0.140898  1
