# generated using pymatgen
data_Sc4Cd2NiAu3
_symmetry_space_group_name_H-M   'P 1'
_cell_length_a   7.69775472
_cell_length_b   7.69775549
_cell_length_c   3.32652100
_cell_angle_alpha   90.00000000
_cell_angle_beta   90.00000000
_cell_angle_gamma   90.93153615
_symmetry_Int_Tables_number   1
_chemical_formula_structural   Sc4Cd2NiAu3
_chemical_formula_sum   'Sc4 Cd2 Ni1 Au3'
_cell_volume   197.08839290
_cell_formula_units_Z   1
loop_
 _symmetry_equiv_pos_site_id
 _symmetry_equiv_pos_as_xyz
  1  'x, y, z'
loop_
 _atom_site_type_symbol
 _atom_site_label
 _atom_site_symmetry_multiplicity
 _atom_site_fract_x
 _atom_site_fract_y
 _atom_site_fract_z
 _atom_site_occupancy
  Sc  Sc0  1  0.664537  0.164537  0.500000  1
  Sc  Sc1  1  0.173204  0.359282  0.500000  1
  Sc  Sc2  1  0.859282  0.673204  0.500000  1
  Sc  Sc3  1  0.312888  0.812888  0.500000  1
  Cd  Cd4  1  0.001898  0.997057  0.000000  1
  Cd  Cd5  1  0.497057  0.501898  0.000000  1
  Ni  Ni6  1  0.127136  0.627136  0.000000  1
  Au  Au7  1  0.873632  0.373632  0.000000  1
  Au  Au8  1  0.363410  0.126956  0.000000  1
  Au  Au9  1  0.626956  0.863410  0.000000  1
