# generated using pymatgen
data_EuLu(Cu2P)4
_symmetry_space_group_name_H-M   'P 1'
_cell_length_a   7.28941767
_cell_length_b   7.28941765
_cell_length_c   3.81951500
_cell_angle_alpha   90.00000000
_cell_angle_beta   90.00000000
_cell_angle_gamma   89.25346132
_symmetry_Int_Tables_number   1
_chemical_formula_structural   EuLu(Cu2P)4
_chemical_formula_sum   'Eu1 Lu1 Cu8 P4'
_cell_volume   202.93503141
_cell_formula_units_Z   1
loop_
 _symmetry_equiv_pos_site_id
 _symmetry_equiv_pos_as_xyz
  1  'x, y, z'
loop_
 _atom_site_type_symbol
 _atom_site_label
 _atom_site_symmetry_multiplicity
 _atom_site_fract_x
 _atom_site_fract_y
 _atom_site_fract_z
 _atom_site_occupancy
  Eu  Eu0  1  0.500000  0.500000  0.500000  1
  Lu  Lu1  1  0.000000  0.000000  0.000000  1
  Cu  Cu2  1  0.666838  0.917665  0.500000  1
  Cu  Cu3  1  0.158655  0.586550  0.000000  1
  Cu  Cu4  1  0.413450  0.841345  0.000000  1
  Cu  Cu5  1  0.917665  0.666838  0.500000  1
  Cu  Cu6  1  0.841345  0.413450  0.000000  1
  Cu  Cu7  1  0.586550  0.158655  0.000000  1
  Cu  Cu8  1  0.082335  0.333162  0.500000  1
  Cu  Cu9  1  0.333162  0.082335  0.500000  1
  P  P10  1  0.278982  0.278982  0.000000  1
  P  P11  1  0.721018  0.721018  0.000000  1
  P  P12  1  0.790393  0.209607  0.500000  1
  P  P13  1  0.209607  0.790393  0.500000  1
