# generated using pymatgen
data_Nd2Ho4Ga17Pd5
_symmetry_space_group_name_H-M   'P 1'
_cell_length_a   8.19382200
_cell_length_b   8.19382319
_cell_length_c   15.80208688
_cell_angle_alpha   76.23730618
_cell_angle_beta   76.23730474
_cell_angle_gamma   30.49032720
_symmetry_Int_Tables_number   1
_chemical_formula_structural   Nd2Ho4Ga17Pd5
_chemical_formula_sum   'Nd2 Ho4 Ga17 Pd5'
_cell_volume   521.68792124
_cell_formula_units_Z   1
loop_
 _symmetry_equiv_pos_site_id
 _symmetry_equiv_pos_as_xyz
  1  'x, y, z'
loop_
 _atom_site_type_symbol
 _atom_site_label
 _atom_site_symmetry_multiplicity
 _atom_site_fract_x
 _atom_site_fract_y
 _atom_site_fract_z
 _atom_site_occupancy
  Nd  Nd0  1  0.754055  0.754055  0.750308  1
  Nd  Nd1  1  0.245945  0.245945  0.249692  1
  Ho  Ho2  1  0.599704  0.599704  0.597042  1
  Ho  Ho3  1  0.090601  0.090601  0.092813  1
  Ho  Ho4  1  0.909399  0.909399  0.907187  1
  Ho  Ho5  1  0.400296  0.400296  0.402958  1
  Ga  Ga6  1  0.821952  0.821952  0.539206  1
  Ga  Ga7  1  0.327148  0.327148  0.042956  1
  Ga  Ga8  1  0.672852  0.672852  0.957044  1
  Ga  Ga9  1  0.178048  0.178048  0.460794  1
  Ga  Ga10  1  0.545651  0.545651  0.826297  1
  Ga  Ga11  1  0.037918  0.037918  0.323046  1
  Ga  Ga12  1  0.962082  0.962082  0.676954  1
  Ga  Ga13  1  0.454349  0.454349  0.173703  1
  Ga  Ga14  1  0.269577  0.269577  0.899265  1
  Ga  Ga15  1  0.761433  0.761433  0.396150  1
  Ga  Ga16  1  0.238567  0.238567  0.603850  1
  Ga  Ga17  1  0.730423  0.730423  0.100735  1
  Ga  Ga18  1  0.401912  0.401912  0.764838  1
  Ga  Ga19  1  0.893767  0.893767  0.266708  1
  Ga  Ga20  1  0.106233  0.106233  0.733292  1
  Ga  Ga21  1  0.598088  0.598088  0.235162  1
  Ga  Ga22  1  0.000000  0.000000  0.500000  1
  Pd  Pd23  1  0.105882  0.105882  0.896458  1
  Pd  Pd24  1  0.593657  0.593657  0.404437  1
  Pd  Pd25  1  0.406343  0.406343  0.595563  1
  Pd  Pd26  1  0.894118  0.894118  0.103542  1
  Pd  Pd27  1  0.500000  0.500000  0.000000  1
