# generated using pymatgen
data_Ho6Sn6Rh5Au
_symmetry_space_group_name_H-M   'P 1'
_cell_length_a   7.59075200
_cell_length_b   7.59075231
_cell_length_c   7.73042100
_cell_angle_alpha   90.00000000
_cell_angle_beta   90.00000000
_cell_angle_gamma   119.99999749
_symmetry_Int_Tables_number   1
_chemical_formula_structural   Ho6Sn6Rh5Au
_chemical_formula_sum   'Ho6 Sn6 Rh5 Au1'
_cell_volume   385.74775930
_cell_formula_units_Z   1
loop_
 _symmetry_equiv_pos_site_id
 _symmetry_equiv_pos_as_xyz
  1  'x, y, z'
loop_
 _atom_site_type_symbol
 _atom_site_label
 _atom_site_symmetry_multiplicity
 _atom_site_fract_x
 _atom_site_fract_y
 _atom_site_fract_z
 _atom_site_occupancy
  Ho  Ho0  1  0.590564  0.990933  0.743980  1
  Ho  Ho1  1  0.400370  0.409436  0.743980  1
  Ho  Ho2  1  0.009067  0.599630  0.743980  1
  Ho  Ho3  1  0.591078  0.991949  0.255899  1
  Ho  Ho4  1  0.400870  0.408922  0.255899  1
  Ho  Ho5  1  0.008051  0.599130  0.255899  1
  Sn  Sn6  1  0.253283  0.991819  0.000251  1
  Sn  Sn7  1  0.740093  0.735357  0.499990  1
  Sn  Sn8  1  0.995265  0.259907  0.499990  1
  Sn  Sn9  1  0.008181  0.261465  0.000251  1
  Sn  Sn10  1  0.738535  0.746717  0.000251  1
  Sn  Sn11  1  0.264643  0.004735  0.499990  1
  Rh  Rh12  1  0.666667  0.333333  0.500260  1
  Rh  Rh13  1  0.333333  0.666667  0.000960  1
  Rh  Rh14  1  0.333333  0.666667  0.499261  1
  Rh  Rh15  1  0.000000  0.000000  0.748720  1
  Rh  Rh16  1  0.000000  0.000000  0.251678  1
  Au  Au17  1  0.666667  0.333333  0.998761  1
