# generated using pymatgen
data_DyHoLu3CoSb2
_symmetry_space_group_name_H-M   'P 1'
_cell_length_a   7.75053500
_cell_length_b   8.75175800
_cell_length_c   12.03038900
_cell_angle_alpha   90.00000000
_cell_angle_beta   90.00000000
_cell_angle_gamma   90.00000000
_symmetry_Int_Tables_number   1
_chemical_formula_structural   DyHoLu3CoSb2
_chemical_formula_sum   'Dy4 Ho4 Lu12 Co4 Sb8'
_cell_volume   816.03099067
_cell_formula_units_Z   4
loop_
 _symmetry_equiv_pos_site_id
 _symmetry_equiv_pos_as_xyz
  1  'x, y, z'
loop_
 _atom_site_type_symbol
 _atom_site_label
 _atom_site_symmetry_multiplicity
 _atom_site_fract_x
 _atom_site_fract_y
 _atom_site_fract_z
 _atom_site_occupancy
  Dy  Dy0  1  0.622062  0.750000  0.307835  1
  Dy  Dy1  1  0.877938  0.750000  0.807835  1
  Dy  Dy2  1  0.377938  0.250000  0.692165  1
  Dy  Dy3  1  0.122062  0.250000  0.192165  1
  Ho  Ho4  1  0.155099  0.750000  0.204027  1
  Ho  Ho5  1  0.344901  0.750000  0.704027  1
  Ho  Ho6  1  0.844901  0.250000  0.795973  1
  Ho  Ho7  1  0.655099  0.250000  0.295973  1
  Lu  Lu8  1  0.448057  0.750000  0.997656  1
  Lu  Lu9  1  0.051943  0.750000  0.497656  1
  Lu  Lu10  1  0.551943  0.250000  0.002344  1
  Lu  Lu11  1  0.948057  0.250000  0.502344  1
  Lu  Lu12  1  0.823428  0.537524  0.065063  1
  Lu  Lu13  1  0.676572  0.962476  0.565063  1
  Lu  Lu14  1  0.176572  0.037524  0.934937  1
  Lu  Lu15  1  0.323428  0.462476  0.434937  1
  Lu  Lu16  1  0.176572  0.462476  0.934937  1
  Lu  Lu17  1  0.323428  0.037524  0.434937  1
  Lu  Lu18  1  0.823428  0.962476  0.065063  1
  Lu  Lu19  1  0.676572  0.537524  0.565063  1
  Co  Co20  1  0.432237  0.750000  0.491402  1
  Co  Co21  1  0.067763  0.750000  0.991402  1
  Co  Co22  1  0.567763  0.250000  0.508598  1
  Co  Co23  1  0.932237  0.250000  0.008598  1
  Sb  Sb24  1  0.931048  0.508385  0.329423  1
  Sb  Sb25  1  0.568952  0.991615  0.829423  1
  Sb  Sb26  1  0.068952  0.008385  0.670577  1
  Sb  Sb27  1  0.431048  0.491615  0.170577  1
  Sb  Sb28  1  0.068952  0.491615  0.670577  1
  Sb  Sb29  1  0.431048  0.008385  0.170577  1
  Sb  Sb30  1  0.931048  0.991615  0.329423  1
  Sb  Sb31  1  0.568952  0.508385  0.829423  1
