# generated using pymatgen
data_Tb3Al8CoSi4Os3
_symmetry_space_group_name_H-M   'P 1'
_cell_length_a   8.66364245
_cell_length_b   8.66364274
_cell_length_c   9.33954900
_cell_angle_alpha   90.00000000
_cell_angle_beta   90.00000000
_cell_angle_gamma   120.20925594
_symmetry_Int_Tables_number   1
_chemical_formula_structural   Tb3Al8CoSi4Os3
_chemical_formula_sum   'Tb6 Al16 Co2 Si8 Os6'
_cell_volume   605.81213810
_cell_formula_units_Z   2
loop_
 _symmetry_equiv_pos_site_id
 _symmetry_equiv_pos_as_xyz
  1  'x, y, z'
loop_
 _atom_site_type_symbol
 _atom_site_label
 _atom_site_symmetry_multiplicity
 _atom_site_fract_x
 _atom_site_fract_y
 _atom_site_fract_z
 _atom_site_occupancy
  Tb  Tb0  1  0.192773  0.388663  0.250000  1
  Tb  Tb1  1  0.807227  0.611337  0.750000  1
  Tb  Tb2  1  0.611337  0.807227  0.250000  1
  Tb  Tb3  1  0.388663  0.192773  0.750000  1
  Tb  Tb4  1  0.195432  0.804568  0.250000  1
  Tb  Tb5  1  0.804568  0.195432  0.750000  1
  Al  Al6  1  0.161759  0.321826  0.579773  1
  Al  Al7  1  0.838241  0.678174  0.420227  1
  Al  Al8  1  0.678174  0.838241  0.579773  1
  Al  Al9  1  0.838241  0.678174  0.079773  1
  Al  Al10  1  0.321826  0.161759  0.420227  1
  Al  Al11  1  0.161759  0.321826  0.920227  1
  Al  Al12  1  0.160853  0.839147  0.578400  1
  Al  Al13  1  0.321826  0.161759  0.079773  1
  Al  Al14  1  0.839147  0.160853  0.421600  1
  Al  Al15  1  0.678174  0.838241  0.920227  1
  Al  Al16  1  0.839147  0.160853  0.078400  1
  Al  Al17  1  0.160853  0.839147  0.921600  1
  Al  Al18  1  0.566462  0.433538  0.250000  1
  Al  Al19  1  0.433538  0.566462  0.750000  1
  Al  Al20  1  0.000544  0.999456  0.250000  1
  Al  Al21  1  0.999456  0.000544  0.750000  1
  Co  Co22  1  0.000000  0.000000  0.000000  1
  Co  Co23  1  0.000000  0.000000  0.500000  1
  Si  Si24  1  0.334814  0.665186  0.036938  1
  Si  Si25  1  0.665186  0.334814  0.963062  1
  Si  Si26  1  0.665186  0.334814  0.536938  1
  Si  Si27  1  0.334814  0.665186  0.463062  1
  Si  Si28  1  0.566515  0.128404  0.250000  1
  Si  Si29  1  0.433485  0.871596  0.750000  1
  Si  Si30  1  0.871596  0.433485  0.250000  1
  Si  Si31  1  0.128404  0.566515  0.750000  1
  Os  Os32  1  0.500000  0.000000  0.000000  1
  Os  Os33  1  0.000000  0.500000  0.000000  1
  Os  Os34  1  0.500000  0.000000  0.500000  1
  Os  Os35  1  0.500000  0.500000  0.000000  1
  Os  Os36  1  0.000000  0.500000  0.500000  1
  Os  Os37  1  0.500000  0.500000  0.500000  1
