# generated using pymatgen
data_Dy9YSi5P
_symmetry_space_group_name_H-M   'P 1'
_cell_length_a   8.41660600
_cell_length_b   8.42354345
_cell_length_c   6.31864700
_cell_angle_alpha   90.00000000
_cell_angle_beta   90.00000000
_cell_angle_gamma   119.97627515
_symmetry_Int_Tables_number   1
_chemical_formula_structural   Dy9YSi5P
_chemical_formula_sum   'Dy9 Y1 Si5 P1'
_cell_volume   388.05235127
_cell_formula_units_Z   1
loop_
 _symmetry_equiv_pos_site_id
 _symmetry_equiv_pos_as_xyz
  1  'x, y, z'
loop_
 _atom_site_type_symbol
 _atom_site_label
 _atom_site_symmetry_multiplicity
 _atom_site_fract_x
 _atom_site_fract_y
 _atom_site_fract_z
 _atom_site_occupancy
  Dy  Dy0  1  0.001066  0.756823  0.750000  1
  Dy  Dy1  1  0.756520  0.755608  0.250000  1
  Dy  Dy2  1  0.754916  0.999969  0.750000  1
  Dy  Dy3  1  0.244274  0.243175  0.750000  1
  Dy  Dy4  1  0.243865  0.999976  0.250000  1
  Dy  Dy5  1  0.666273  0.332536  0.999545  1
  Dy  Dy6  1  0.333767  0.667478  0.500453  1
  Dy  Dy7  1  0.333767  0.667478  0.999547  1
  Dy  Dy8  1  0.666273  0.332536  0.500455  1
  Y  Y9  1  0.000896  0.244338  0.250000  1
  Si  Si10  1  0.394170  0.393670  0.250000  1
  Si  Si11  1  0.000491  0.606369  0.250000  1
  Si  Si12  1  0.000118  0.393473  0.750000  1
  Si  Si13  1  0.606657  0.606558  0.750000  1
  Si  Si14  1  0.607168  0.999991  0.250000  1
  P  P15  1  0.389780  0.000019  0.750000  1
