# generated using pymatgen
data_Tb3Ho(SiPt2)4
_symmetry_space_group_name_H-M   'P 1'
_cell_length_a   5.55004052
_cell_length_b   6.96384200
_cell_length_c   7.37121900
_cell_angle_alpha   90.00000000
_cell_angle_beta   90.04246051
_cell_angle_gamma   90.00000000
_symmetry_Int_Tables_number   1
_chemical_formula_structural   Tb3Ho(SiPt2)4
_chemical_formula_sum   'Tb3 Ho1 Si4 Pt8'
_cell_volume   284.89462672
_cell_formula_units_Z   1
loop_
 _symmetry_equiv_pos_site_id
 _symmetry_equiv_pos_as_xyz
  1  'x, y, z'
loop_
 _atom_site_type_symbol
 _atom_site_label
 _atom_site_symmetry_multiplicity
 _atom_site_fract_x
 _atom_site_fract_y
 _atom_site_fract_z
 _atom_site_occupancy
  Tb  Tb0  1  0.363850  0.750000  0.026487  1
  Tb  Tb1  1  0.135200  0.750000  0.526692  1
  Tb  Tb2  1  0.635571  0.250000  0.972939  1
  Ho  Ho3  1  0.863533  0.250000  0.473741  1
  Si  Si4  1  0.635690  0.750000  0.379212  1
  Si  Si5  1  0.863786  0.750000  0.879526  1
  Si  Si6  1  0.363612  0.250000  0.620024  1
  Si  Si7  1  0.135647  0.250000  0.121756  1
  Pt  Pt8  1  0.906172  0.550288  0.181190  1
  Pt  Pt9  1  0.595319  0.949615  0.679401  1
  Pt  Pt10  1  0.093485  0.051103  0.819194  1
  Pt  Pt11  1  0.406580  0.448886  0.320027  1
  Pt  Pt12  1  0.093485  0.448897  0.819194  1
  Pt  Pt13  1  0.406580  0.051114  0.320027  1
  Pt  Pt14  1  0.906172  0.949712  0.181190  1
  Pt  Pt15  1  0.595319  0.550385  0.679401  1
