# generated using pymatgen
data_Zr8Ta11Si16W
_symmetry_space_group_name_H-M   'P 1'
_cell_length_a   6.67887164
_cell_length_b   6.85193411
_cell_length_c   13.09569600
_cell_angle_alpha   90.00000000
_cell_angle_beta   90.00000000
_cell_angle_gamma   89.94221997
_symmetry_Int_Tables_number   1
_chemical_formula_structural   Zr8Ta11Si16W
_chemical_formula_sum   'Zr8 Ta11 Si16 W1'
_cell_volume   599.30049909
_cell_formula_units_Z   1
loop_
 _symmetry_equiv_pos_site_id
 _symmetry_equiv_pos_as_xyz
  1  'x, y, z'
loop_
 _atom_site_type_symbol
 _atom_site_label
 _atom_site_symmetry_multiplicity
 _atom_site_fract_x
 _atom_site_fract_y
 _atom_site_fract_z
 _atom_site_occupancy
  Zr  Zr0  1  0.496814  0.672205  0.594026  1
  Zr  Zr1  1  0.996800  0.828400  0.905898  1
  Zr  Zr2  1  0.502942  0.328522  0.093290  1
  Zr  Zr3  1  0.004495  0.171872  0.406210  1
  Zr  Zr4  1  0.502942  0.328522  0.406710  1
  Zr  Zr5  1  0.004495  0.171872  0.093790  1
  Zr  Zr6  1  0.496814  0.672205  0.905974  1
  Zr  Zr7  1  0.996800  0.828400  0.594102  1
  Ta  Ta8  1  0.663265  0.171305  0.623253  1
  Ta  Ta9  1  0.164565  0.328807  0.875943  1
  Ta  Ta10  1  0.335774  0.829200  0.124760  1
  Ta  Ta11  1  0.835760  0.669803  0.375281  1
  Ta  Ta12  1  0.335774  0.829200  0.375240  1
  Ta  Ta13  1  0.835760  0.669803  0.124719  1
  Ta  Ta14  1  0.663265  0.171305  0.876747  1
  Ta  Ta15  1  0.164565  0.328807  0.624057  1
  Ta  Ta16  1  0.838788  0.495285  0.750000  1
  Ta  Ta17  1  0.337930  0.004914  0.750000  1
  Ta  Ta18  1  0.160975  0.504114  0.250000  1
  Si  Si19  1  0.670696  0.963302  0.459368  1
  Si  Si20  1  0.170136  0.536863  0.038959  1
  Si  Si21  1  0.329553  0.036383  0.961524  1
  Si  Si22  1  0.830000  0.463524  0.538931  1
  Si  Si23  1  0.329553  0.036383  0.538476  1
  Si  Si24  1  0.830000  0.463524  0.961069  1
  Si  Si25  1  0.670696  0.963302  0.040632  1
  Si  Si26  1  0.170136  0.536863  0.461041  1
  Si  Si27  1  0.463011  0.386255  0.750000  1
  Si  Si28  1  0.961907  0.113955  0.750000  1
  Si  Si29  1  0.538083  0.614451  0.250000  1
  Si  Si30  1  0.033632  0.888551  0.250000  1
  Si  Si31  1  0.703919  0.862732  0.750000  1
  Si  Si32  1  0.203986  0.637509  0.750000  1
  Si  Si33  1  0.299821  0.137269  0.250000  1
  Si  Si34  1  0.795117  0.357697  0.250000  1
  W  W35  1  0.661229  0.996896  0.250000  1
