# generated using pymatgen
data_La4Pr5SmCo4
_symmetry_space_group_name_H-M   'P 1'
_cell_length_a   9.12529641
_cell_length_b   9.12529574
_cell_length_c   7.05396700
_cell_angle_alpha   85.32477182
_cell_angle_beta   85.32477217
_cell_angle_gamma   42.39723731
_symmetry_Int_Tables_number   1
_chemical_formula_structural   La4Pr5SmCo4
_chemical_formula_sum   'La4 Pr5 Sm1 Co4'
_cell_volume   394.54188953
_cell_formula_units_Z   1
loop_
 _symmetry_equiv_pos_site_id
 _symmetry_equiv_pos_as_xyz
  1  'x, y, z'
loop_
 _atom_site_type_symbol
 _atom_site_label
 _atom_site_symmetry_multiplicity
 _atom_site_fract_x
 _atom_site_fract_y
 _atom_site_fract_z
 _atom_site_occupancy
  La  La0  1  0.014847  0.794618  0.899872  1
  La  La1  1  0.205382  0.985153  0.600128  1
  La  La2  1  0.984996  0.205708  0.099977  1
  La  La3  1  0.794292  0.015004  0.400023  1
  Pr  Pr4  1  0.357861  0.215863  0.827073  1
  Pr  Pr5  1  0.784137  0.642139  0.672927  1
  Pr  Pr6  1  0.642325  0.783856  0.172965  1
  Pr  Pr7  1  0.216144  0.357675  0.327035  1
  Pr  Pr8  1  0.571445  0.428555  0.750000  1
  Sm  Sm9  1  0.429105  0.570895  0.250000  1
  Co  Co10  1  0.174151  0.608028  0.584425  1
  Co  Co11  1  0.391972  0.825849  0.915575  1
  Co  Co12  1  0.825575  0.392231  0.414111  1
  Co  Co13  1  0.607769  0.174425  0.085889  1
