# generated using pymatgen
data_Pr2Er2ZrGa4
_symmetry_space_group_name_H-M   'P 1'
_cell_length_a   7.60223052
_cell_length_b   7.89650871
_cell_length_c   15.05950200
_cell_angle_alpha   90.04666955
_cell_angle_beta   89.97871634
_cell_angle_gamma   89.99111443
_symmetry_Int_Tables_number   1
_chemical_formula_structural   Pr2Er2ZrGa4
_chemical_formula_sum   'Pr8 Er8 Zr4 Ga16'
_cell_volume   904.03778995
_cell_formula_units_Z   4
loop_
 _symmetry_equiv_pos_site_id
 _symmetry_equiv_pos_as_xyz
  1  'x, y, z'
loop_
 _atom_site_type_symbol
 _atom_site_label
 _atom_site_symmetry_multiplicity
 _atom_site_fract_x
 _atom_site_fract_y
 _atom_site_fract_z
 _atom_site_occupancy
  Pr  Pr0  1  0.013532  0.176088  0.406001  1
  Pr  Pr1  1  0.512802  0.325422  0.406460  1
  Pr  Pr2  1  0.486933  0.675235  0.905613  1
  Pr  Pr3  1  0.486890  0.676131  0.593787  1
  Pr  Pr4  1  0.986847  0.825420  0.593126  1
  Pr  Pr5  1  0.987283  0.823190  0.904209  1
  Pr  Pr6  1  0.513433  0.322598  0.094240  1
  Pr  Pr7  1  0.012911  0.175739  0.094076  1
  Er  Er8  1  0.664448  0.992845  0.750088  1
  Er  Er9  1  0.826717  0.324335  0.620048  1
  Er  Er10  1  0.835515  0.491655  0.249621  1
  Er  Er11  1  0.335880  0.007496  0.251250  1
  Er  Er12  1  0.327368  0.175014  0.878432  1
  Er  Er13  1  0.172613  0.672919  0.122259  1
  Er  Er14  1  0.674993  0.827965  0.122110  1
  Er  Er15  1  0.164093  0.506815  0.749981  1
  Zr  Zr16  1  0.328276  0.172826  0.623895  1
  Zr  Zr17  1  0.670537  0.822511  0.377392  1
  Zr  Zr18  1  0.172014  0.676389  0.377776  1
  Zr  Zr19  1  0.828729  0.326589  0.874997  1
  Ga  Ga20  1  0.280230  0.884651  0.746262  1
  Ga  Ga21  1  0.465323  0.622853  0.257468  1
  Ga  Ga22  1  0.034648  0.122933  0.748933  1
  Ga  Ga23  1  0.534268  0.377294  0.749994  1
  Ga  Ga24  1  0.164070  0.461801  0.537096  1
  Ga  Ga25  1  0.965233  0.877867  0.257214  1
  Ga  Ga26  1  0.719848  0.115971  0.254564  1
  Ga  Ga27  1  0.841398  0.529330  0.035656  1
  Ga  Ga28  1  0.346043  0.964835  0.040976  1
  Ga  Ga29  1  0.146402  0.461505  0.956958  1
  Ga  Ga30  1  0.647307  0.032879  0.538096  1
  Ga  Ga31  1  0.343105  0.959683  0.460780  1
  Ga  Ga32  1  0.847607  0.546587  0.455841  1
  Ga  Ga33  1  0.780219  0.615392  0.752492  1
  Ga  Ga34  1  0.219718  0.385414  0.254822  1
  Ga  Ga35  1  0.662767  0.043819  0.957488  1
