# generated using pymatgen
data_Ho4MnCo19As12
_symmetry_space_group_name_H-M   'P 1'
_cell_length_a   3.78433700
_cell_length_b   10.68117639
_cell_length_c   12.21020287
_cell_angle_alpha   89.86887880
_cell_angle_beta   90.00000000
_cell_angle_gamma   90.00000000
_symmetry_Int_Tables_number   1
_chemical_formula_structural   Ho4MnCo19As12
_chemical_formula_sum   'Ho4 Mn1 Co19 As12'
_cell_volume   493.54940599
_cell_formula_units_Z   1
loop_
 _symmetry_equiv_pos_site_id
 _symmetry_equiv_pos_as_xyz
  1  'x, y, z'
loop_
 _atom_site_type_symbol
 _atom_site_label
 _atom_site_symmetry_multiplicity
 _atom_site_fract_x
 _atom_site_fract_y
 _atom_site_fract_z
 _atom_site_occupancy
  Ho  Ho0  1  0.250000  0.580877  0.699918  1
  Ho  Ho1  1  0.250000  0.920805  0.202703  1
  Ho  Ho2  1  0.750000  0.419855  0.298960  1
  Ho  Ho3  1  0.750000  0.080496  0.796561  1
  Mn  Mn4  1  0.250000  0.703183  0.989878  1
  Co  Co5  1  0.250000  0.787990  0.491806  1
  Co  Co6  1  0.750000  0.293517  0.010238  1
  Co  Co7  1  0.750000  0.212320  0.507821  1
  Co  Co8  1  0.250000  0.406573  0.488179  1
  Co  Co9  1  0.250000  0.094228  0.987904  1
  Co  Co10  1  0.750000  0.592893  0.513511  1
  Co  Co11  1  0.750000  0.906776  0.013260  1
  Co  Co12  1  0.250000  0.217309  0.177010  1
  Co  Co13  1  0.250000  0.283083  0.676584  1
  Co  Co14  1  0.750000  0.782599  0.822288  1
  Co  Co15  1  0.750000  0.716290  0.325660  1
  Co  Co16  1  0.250000  0.884553  0.696729  1
  Co  Co17  1  0.250000  0.617037  0.198509  1
  Co  Co18  1  0.750000  0.116668  0.302368  1
  Co  Co19  1  0.750000  0.381800  0.802474  1
  Co  Co20  1  0.250000  0.465571  0.932675  1
  Co  Co21  1  0.250000  0.031374  0.431649  1
  Co  Co22  1  0.750000  0.532266  0.066203  1
  Co  Co23  1  0.750000  0.969624  0.567322  1
  As  As24  1  0.250000  0.417193  0.115846  1
  As  As25  1  0.250000  0.084403  0.613290  1
  As  As26  1  0.750000  0.581098  0.881946  1
  As  As27  1  0.750000  0.916360  0.386001  1
  As  As28  1  0.250000  0.266507  0.868024  1
  As  As29  1  0.250000  0.231687  0.369397  1
  As  As30  1  0.750000  0.732397  0.135052  1
  As  As31  1  0.750000  0.769510  0.630378  1
  As  As32  1  0.250000  0.600004  0.392408  1
  As  As33  1  0.250000  0.902654  0.889435  1
  As  As34  1  0.750000  0.398606  0.609164  1
  As  As35  1  0.750000  0.101892  0.108848  1
