# generated using pymatgen
data_Er5ZnTe4
_symmetry_space_group_name_H-M   'P 1'
_cell_length_a   7.51561142
_cell_length_b   7.51561107
_cell_length_c   10.63760500
_cell_angle_alpha   61.25331740
_cell_angle_beta   61.25331887
_cell_angle_gamma   32.24877345
_symmetry_Int_Tables_number   1
_chemical_formula_structural   Er5ZnTe4
_chemical_formula_sum   'Er5 Zn1 Te4'
_cell_volume   277.54456543
_cell_formula_units_Z   1
loop_
 _symmetry_equiv_pos_site_id
 _symmetry_equiv_pos_as_xyz
  1  'x, y, z'
loop_
 _atom_site_type_symbol
 _atom_site_label
 _atom_site_symmetry_multiplicity
 _atom_site_fract_x
 _atom_site_fract_y
 _atom_site_fract_z
 _atom_site_occupancy
  Er  Er0  1  0.000000  0.000000  0.500000  1
  Er  Er1  1  0.586565  0.586565  0.091598  1
  Er  Er2  1  0.185462  0.185462  0.728515  1
  Er  Er3  1  0.814538  0.814538  0.271485  1
  Er  Er4  1  0.413435  0.413435  0.908402  1
  Zn  Zn5  1  0.000000  0.000000  0.000000  1
  Te  Te6  1  0.610266  0.610266  0.586040  1
  Te  Te7  1  0.192814  0.192814  0.195483  1
  Te  Te8  1  0.807186  0.807186  0.804517  1
  Te  Te9  1  0.389734  0.389734  0.413960  1
