# generated using pymatgen
data_Ho3CrCo5(P2Ir)3
_symmetry_space_group_name_H-M   'P 1'
_cell_length_a   3.75597300
_cell_length_b   10.77951500
_cell_length_c   12.47782500
_cell_angle_alpha   90.00000000
_cell_angle_beta   90.00000000
_cell_angle_gamma   90.00000000
_symmetry_Int_Tables_number   1
_chemical_formula_structural   Ho3CrCo5(P2Ir)3
_chemical_formula_sum   'Ho6 Cr2 Co10 P12 Ir6'
_cell_volume   505.19677936
_cell_formula_units_Z   2
loop_
 _symmetry_equiv_pos_site_id
 _symmetry_equiv_pos_as_xyz
  1  'x, y, z'
loop_
 _atom_site_type_symbol
 _atom_site_label
 _atom_site_symmetry_multiplicity
 _atom_site_fract_x
 _atom_site_fract_y
 _atom_site_fract_z
 _atom_site_occupancy
  Ho  Ho0  1  0.000000  0.500000  0.519302  1
  Ho  Ho1  1  0.500000  0.000000  0.480698  1
  Ho  Ho2  1  0.500000  0.815289  0.195310  1
  Ho  Ho3  1  0.500000  0.184711  0.195310  1
  Ho  Ho4  1  0.000000  0.684711  0.804690  1
  Ho  Ho5  1  0.000000  0.315289  0.804690  1
  Cr  Cr6  1  0.500000  0.500000  0.152759  1
  Cr  Cr7  1  0.000000  0.000000  0.847241  1
  Co  Co8  1  0.000000  0.500000  0.989959  1
  Co  Co9  1  0.500000  0.000000  0.010041  1
  Co  Co10  1  0.500000  0.880495  0.716700  1
  Co  Co11  1  0.500000  0.119505  0.716700  1
  Co  Co12  1  0.000000  0.619505  0.283300  1
  Co  Co13  1  0.000000  0.380495  0.283300  1
  Co  Co14  1  0.500000  0.332333  0.994664  1
  Co  Co15  1  0.500000  0.667667  0.994664  1
  Co  Co16  1  0.000000  0.167667  0.005336  1
  Co  Co17  1  0.000000  0.832333  0.005336  1
  P  P18  1  0.500000  0.309485  0.624801  1
  P  P19  1  0.500000  0.690515  0.624801  1
  P  P20  1  0.000000  0.190515  0.375199  1
  P  P21  1  0.000000  0.809485  0.375199  1
  P  P22  1  0.500000  0.500000  0.892904  1
  P  P23  1  0.000000  0.000000  0.107096  1
  P  P24  1  0.500000  0.846975  0.894706  1
  P  P25  1  0.500000  0.153025  0.894706  1
  P  P26  1  0.000000  0.653025  0.105294  1
  P  P27  1  0.000000  0.346975  0.105294  1
  P  P28  1  0.500000  0.500000  0.336844  1
  P  P29  1  0.000000  0.000000  0.663156  1
  Ir  Ir30  1  0.500000  0.298605  0.425664  1
  Ir  Ir31  1  0.500000  0.701395  0.425664  1
  Ir  Ir32  1  0.000000  0.201395  0.574336  1
  Ir  Ir33  1  0.000000  0.798605  0.574336  1
  Ir  Ir34  1  0.500000  0.500000  0.706337  1
  Ir  Ir35  1  0.000000  0.000000  0.293663  1
