# generated using pymatgen
data_Y6Al13Mo3Os7
_symmetry_space_group_name_H-M   'P 1'
_cell_length_a   9.01130631
_cell_length_b   9.01131492
_cell_length_c   9.01135348
_cell_angle_alpha   59.50869172
_cell_angle_beta   59.50813190
_cell_angle_gamma   59.50640098
_symmetry_Int_Tables_number   1
_chemical_formula_structural   Y6Al13Mo3Os7
_chemical_formula_sum   'Y6 Al13 Mo3 Os7'
_cell_volume   511.63672419
_cell_formula_units_Z   1
loop_
 _symmetry_equiv_pos_site_id
 _symmetry_equiv_pos_as_xyz
  1  'x, y, z'
loop_
 _atom_site_type_symbol
 _atom_site_label
 _atom_site_symmetry_multiplicity
 _atom_site_fract_x
 _atom_site_fract_y
 _atom_site_fract_z
 _atom_site_occupancy
  Y  Y0  1  0.708229  0.708233  0.285586  1
  Y  Y1  1  0.293319  0.708141  0.293258  1
  Y  Y2  1  0.708136  0.293316  0.293269  1
  Y  Y3  1  0.293283  0.293270  0.708161  1
  Y  Y4  1  0.708235  0.285596  0.708254  1
  Y  Y5  1  0.285598  0.708241  0.708256  1
  Al  Al6  1  0.880067  0.880069  0.880078  1
  Al  Al7  1  0.121497  0.121491  0.638962  1
  Al  Al8  1  0.121513  0.638945  0.121478  1
  Al  Al9  1  0.638940  0.121510  0.121481  1
  Al  Al10  1  0.122238  0.122230  0.122202  1
  Al  Al11  1  0.669413  0.669432  0.994390  1
  Al  Al12  1  0.669385  0.994402  0.669471  1
  Al  Al13  1  0.994406  0.669396  0.669462  1
  Al  Al14  1  0.663866  0.663881  0.663944  1
  Al  Al15  1  0.330975  0.330970  0.009601  1
  Al  Al16  1  0.330982  0.009607  0.330958  1
  Al  Al17  1  0.009608  0.330979  0.330961  1
  Al  Al18  1  0.331627  0.331625  0.331612  1
  Mo  Mo19  1  0.877278  0.877281  0.362950  1
  Mo  Mo20  1  0.877271  0.362960  0.877285  1
  Mo  Mo21  1  0.362963  0.877272  0.877282  1
  Os  Os22  1  0.004972  0.004956  0.004900  1
  Os  Os23  1  0.997938  0.997937  0.497005  1
  Os  Os24  1  0.503937  0.995445  0.503940  1
  Os  Os25  1  0.995447  0.503936  0.503939  1
  Os  Os26  1  0.503937  0.503937  0.995443  1
  Os  Os27  1  0.997945  0.496999  0.997936  1
  Os  Os28  1  0.496996  0.997945  0.997938  1
