# generated using pymatgen
data_Ce4Al18CrPd5
_symmetry_space_group_name_H-M   'P 1'
_cell_length_a   7.68558058
_cell_length_b   7.68558130
_cell_length_c   9.57044064
_cell_angle_alpha   89.77036233
_cell_angle_beta   89.77036087
_cell_angle_gamma   119.16183593
_symmetry_Int_Tables_number   1
_chemical_formula_structural   Ce4Al18CrPd5
_chemical_formula_sum   'Ce4 Al18 Cr1 Pd5'
_cell_volume   493.63819040
_cell_formula_units_Z   1
loop_
 _symmetry_equiv_pos_site_id
 _symmetry_equiv_pos_as_xyz
  1  'x, y, z'
loop_
 _atom_site_type_symbol
 _atom_site_label
 _atom_site_symmetry_multiplicity
 _atom_site_fract_x
 _atom_site_fract_y
 _atom_site_fract_z
 _atom_site_occupancy
  Ce  Ce0  1  0.994633  0.674985  0.247202  1
  Ce  Ce1  1  0.005367  0.325015  0.752798  1
  Ce  Ce2  1  0.674985  0.994633  0.247202  1
  Ce  Ce3  1  0.325015  0.005367  0.752798  1
  Al  Al4  1  0.131466  0.131466  0.244408  1
  Al  Al5  1  0.868534  0.868534  0.755592  1
  Al  Al6  1  0.002544  0.329836  0.074384  1
  Al  Al7  1  0.997456  0.670164  0.925616  1
  Al  Al8  1  0.996357  0.662404  0.577682  1
  Al  Al9  1  0.337596  0.003643  0.422318  1
  Al  Al10  1  0.003643  0.337596  0.422318  1
  Al  Al11  1  0.662404  0.996357  0.577682  1
  Al  Al12  1  0.670164  0.997456  0.925616  1
  Al  Al13  1  0.329836  0.002544  0.074384  1
  Al  Al14  1  0.334509  0.334509  0.554344  1
  Al  Al15  1  0.665491  0.665491  0.445656  1
  Al  Al16  1  0.671939  0.671939  0.047102  1
  Al  Al17  1  0.328061  0.328061  0.952898  1
  Al  Al18  1  0.342764  0.547658  0.249423  1
  Al  Al19  1  0.657236  0.452342  0.750577  1
  Al  Al20  1  0.547658  0.342764  0.249423  1
  Al  Al21  1  0.452342  0.657236  0.750577  1
  Cr  Cr22  1  0.000000  0.000000  0.000000  1
  Pd  Pd23  1  0.671798  0.328202  0.000000  1
  Pd  Pd24  1  0.328202  0.671798  0.000000  1
  Pd  Pd25  1  0.328155  0.671845  0.500000  1
  Pd  Pd26  1  0.671845  0.328155  0.500000  1
  Pd  Pd27  1  0.000000  0.000000  0.500000  1
