# generated using pymatgen
data_LiPm2Tc3
_symmetry_space_group_name_H-M   'P 1'
_cell_length_a   5.27015019
_cell_length_b   5.69606683
_cell_length_c   5.27015000
_cell_angle_alpha   62.44414648
_cell_angle_beta   60.00000119
_cell_angle_gamma   62.44414940
_symmetry_Int_Tables_number   1
_chemical_formula_structural   LiPm2Tc3
_chemical_formula_sum   'Li1 Pm2 Tc3'
_cell_volume   115.82413160
_cell_formula_units_Z   1
loop_
 _symmetry_equiv_pos_site_id
 _symmetry_equiv_pos_as_xyz
  1  'x, y, z'
loop_
 _atom_site_type_symbol
 _atom_site_label
 _atom_site_symmetry_multiplicity
 _atom_site_fract_x
 _atom_site_fract_y
 _atom_site_fract_z
 _atom_site_occupancy
  Li  Li0  1  0.125000  0.625000  0.125000  1
  Pm  Pm1  1  0.745252  0.764245  0.745252  1
  Pm  Pm2  1  0.504748  0.485755  0.504748  1
  Tc  Tc3  1  0.125000  0.125000  0.125000  1
  Tc  Tc4  1  0.625000  0.125000  0.125000  1
  Tc  Tc5  1  0.125000  0.125000  0.625000  1
