# generated using pymatgen
data_Tb2CuNiHg
_symmetry_space_group_name_H-M   'P 1'
_cell_length_a   7.47690866
_cell_length_b   7.47690823
_cell_length_c   3.67415800
_cell_angle_alpha   90.00000000
_cell_angle_beta   90.00000000
_cell_angle_gamma   89.31952042
_symmetry_Int_Tables_number   1
_chemical_formula_structural   Tb2CuNiHg
_chemical_formula_sum   'Tb4 Cu2 Ni2 Hg2'
_cell_volume   205.38623018
_cell_formula_units_Z   2
loop_
 _symmetry_equiv_pos_site_id
 _symmetry_equiv_pos_as_xyz
  1  'x, y, z'
loop_
 _atom_site_type_symbol
 _atom_site_label
 _atom_site_symmetry_multiplicity
 _atom_site_fract_x
 _atom_site_fract_y
 _atom_site_fract_z
 _atom_site_occupancy
  Tb  Tb0  1  0.668387  0.168387  0.500000  1
  Tb  Tb1  1  0.331613  0.831613  0.500000  1
  Tb  Tb2  1  0.184874  0.315126  0.500000  1
  Tb  Tb3  1  0.815126  0.684874  0.500000  1
  Cu  Cu4  1  0.117739  0.617739  0.000000  1
  Cu  Cu5  1  0.882261  0.382261  0.000000  1
  Ni  Ni6  1  0.617950  0.882050  0.000000  1
  Ni  Ni7  1  0.382050  0.117950  0.000000  1
  Hg  Hg8  1  0.000000  0.000000  0.000000  1
  Hg  Hg9  1  0.500000  0.500000  0.000000  1
