# generated using pymatgen
data_TaNb5Re5Si6Rh
_symmetry_space_group_name_H-M   'P 1'
_cell_length_a   7.56361938
_cell_length_b   7.52694669
_cell_length_c   7.53430207
_cell_angle_alpha   127.67498937
_cell_angle_beta   122.79576639
_cell_angle_gamma   81.15188648
_symmetry_Int_Tables_number   1
_chemical_formula_structural   TaNb5Re5Si6Rh
_chemical_formula_sum   'Ta1 Nb5 Re5 Si6 Rh1'
_cell_volume   275.07308499
_cell_formula_units_Z   1
loop_
 _symmetry_equiv_pos_site_id
 _symmetry_equiv_pos_as_xyz
  1  'x, y, z'
loop_
 _atom_site_type_symbol
 _atom_site_label
 _atom_site_symmetry_multiplicity
 _atom_site_fract_x
 _atom_site_fract_y
 _atom_site_fract_z
 _atom_site_occupancy
  Ta  Ta0  1  0.555013  0.094876  0.050870  1
  Nb  Nb1  1  0.445179  0.495468  0.539208  1
  Nb  Nb2  1  0.980239  0.501631  0.045040  1
  Nb  Nb3  1  0.019573  0.064730  0.521323  1
  Nb  Nb4  1  0.758769  0.911035  0.664021  1
  Nb  Nb5  1  0.241119  0.905389  0.152457  1
  Re  Re6  1  0.999453  0.243489  0.243425  1
  Re  Re7  1  0.163156  0.748347  0.660720  1
  Re  Re8  1  0.837060  0.496956  0.584461  1
  Re  Re9  1  0.591944  0.749024  0.091104  1
  Re  Re10  1  0.408350  0.498765  0.156524  1
  Si  Si11  1  0.776699  0.522862  0.245110  1
  Si  Si12  1  0.223437  0.468410  0.746140  1
  Si  Si13  1  0.338474  0.838763  0.506790  1
  Si  Si14  1  0.661454  0.168230  0.500168  1
  Si  Si15  1  0.828564  0.824165  0.988729  1
  Si  Si16  1  0.171478  0.160111  0.995472  1
  Rh  Rh17  1  0.500040  0.249949  0.750640  1
