# generated using pymatgen
data_Ac3(GeAu)4
_symmetry_space_group_name_H-M   'P 1'
_cell_length_a   4.55091792
_cell_length_b   4.53713028
_cell_length_c   13.53849609
_cell_angle_alpha   80.35378631
_cell_angle_beta   80.32417741
_cell_angle_gamma   89.99999308
_symmetry_Int_Tables_number   1
_chemical_formula_structural   Ac3(GeAu)4
_chemical_formula_sum   'Ac3 Ge4 Au4'
_cell_volume   271.55736734
_cell_formula_units_Z   1
loop_
 _symmetry_equiv_pos_site_id
 _symmetry_equiv_pos_as_xyz
  1  'x, y, z'
loop_
 _atom_site_type_symbol
 _atom_site_label
 _atom_site_symmetry_multiplicity
 _atom_site_fract_x
 _atom_site_fract_y
 _atom_site_fract_z
 _atom_site_occupancy
  Ac  Ac0  1  0.348993  0.848993  0.302012  1
  Ac  Ac1  1  0.651007  0.151007  0.697988  1
  Ac  Ac2  1  0.000000  0.000000  0.000000  1
  Ge  Ge3  1  0.194080  0.694080  0.611841  1
  Ge  Ge4  1  0.805920  0.305920  0.388159  1
  Ge  Ge5  1  0.450495  0.450495  0.099009  1
  Ge  Ge6  1  0.549505  0.549505  0.900991  1
  Au  Au7  1  0.250081  0.250081  0.499841  1
  Au  Au8  1  0.749919  0.749919  0.500159  1
  Au  Au9  1  0.095521  0.595521  0.808958  1
  Au  Au10  1  0.904479  0.404479  0.191042  1
