# generated using pymatgen
data_Tb3Nd17Si15Tc
_symmetry_space_group_name_H-M   'P 1'
_cell_length_a   7.72111382
_cell_length_b   7.92599358
_cell_length_c   15.17627100
_cell_angle_alpha   90.30591895
_cell_angle_beta   90.77417675
_cell_angle_gamma   90.23248187
_symmetry_Int_Tables_number   1
_chemical_formula_structural   Tb3Nd17Si15Tc
_chemical_formula_sum   'Tb3 Nd17 Si15 Tc1'
_cell_volume   928.64388406
_cell_formula_units_Z   1
loop_
 _symmetry_equiv_pos_site_id
 _symmetry_equiv_pos_as_xyz
  1  'x, y, z'
loop_
 _atom_site_type_symbol
 _atom_site_label
 _atom_site_symmetry_multiplicity
 _atom_site_fract_x
 _atom_site_fract_y
 _atom_site_fract_z
 _atom_site_occupancy
  Tb  Tb0  1  0.360001  0.989326  0.747123  1
  Tb  Tb1  1  0.140245  0.490884  0.255623  1
  Tb  Tb2  1  0.644169  0.011009  0.258736  1
  Nd  Nd3  1  0.687232  0.164991  0.614828  1
  Nd  Nd4  1  0.190108  0.321007  0.878212  1
  Nd  Nd5  1  0.315169  0.820517  0.121622  1
  Nd  Nd6  1  0.803441  0.694089  0.383561  1
  Nd  Nd7  1  0.318980  0.823436  0.379115  1
  Nd  Nd8  1  0.811216  0.681447  0.121795  1
  Nd  Nd9  1  0.688024  0.182195  0.878161  1
  Nd  Nd10  1  0.183984  0.318225  0.622682  1
  Nd  Nd11  1  0.532385  0.688020  0.597339  1
  Nd  Nd12  1  0.039206  0.812983  0.898876  1
  Nd  Nd13  1  0.459285  0.312036  0.102541  1
  Nd  Nd14  1  0.965255  0.182341  0.397768  1
  Nd  Nd15  1  0.468920  0.307166  0.402429  1
  Nd  Nd16  1  0.957896  0.189093  0.103675  1
  Nd  Nd17  1  0.539048  0.685034  0.898701  1
  Nd  Nd18  1  0.028455  0.817599  0.598948  1
  Nd  Nd19  1  0.856087  0.504971  0.745919  1
  Si  Si20  1  0.137461  0.525029  0.042558  1
  Si  Si21  1  0.365749  0.023965  0.957093  1
  Si  Si22  1  0.864552  0.474909  0.539249  1
  Si  Si23  1  0.354434  0.023748  0.542570  1
  Si  Si24  1  0.867064  0.473907  0.959860  1
  Si  Si25  1  0.636258  0.974460  0.039439  1
  Si  Si26  1  0.138443  0.529138  0.460654  1
  Si  Si27  1  0.480128  0.395826  0.749275  1
  Si  Si28  1  0.983060  0.095583  0.752339  1
  Si  Si29  1  0.517311  0.596968  0.248239  1
  Si  Si30  1  0.020956  0.899917  0.245625  1
  Si  Si31  1  0.745088  0.877174  0.751139  1
  Si  Si32  1  0.248273  0.626227  0.751224  1
  Si  Si33  1  0.252994  0.125674  0.247653  1
  Si  Si34  1  0.755986  0.379315  0.248030  1
  Tc  Tc35  1  0.643136  0.981792  0.457392  1
