# generated using pymatgen
data_Sm2Dy4ScCo17P12
_symmetry_space_group_name_H-M   'P 1'
_cell_length_a   3.73150500
_cell_length_b   10.63023600
_cell_length_c   12.33404200
_cell_angle_alpha   90.00000000
_cell_angle_beta   90.00000000
_cell_angle_gamma   90.00000000
_symmetry_Int_Tables_number   1
_chemical_formula_structural   Sm2Dy4ScCo17P12
_chemical_formula_sum   'Sm2 Dy4 Sc1 Co17 P12'
_cell_volume   489.25171554
_cell_formula_units_Z   1
loop_
 _symmetry_equiv_pos_site_id
 _symmetry_equiv_pos_as_xyz
  1  'x, y, z'
loop_
 _atom_site_type_symbol
 _atom_site_label
 _atom_site_symmetry_multiplicity
 _atom_site_fract_x
 _atom_site_fract_y
 _atom_site_fract_z
 _atom_site_occupancy
  Sm  Sm0  1  0.000000  0.500000  0.528086  1
  Sm  Sm1  1  0.500000  0.000000  0.477660  1
  Dy  Dy2  1  0.500000  0.821581  0.206954  1
  Dy  Dy3  1  0.500000  0.178419  0.206954  1
  Dy  Dy4  1  0.000000  0.682553  0.796164  1
  Dy  Dy5  1  0.000000  0.317447  0.796164  1
  Sc  Sc6  1  0.500000  0.500000  0.151107  1
  Co  Co7  1  0.000000  0.000000  0.838297  1
  Co  Co8  1  0.500000  0.500000  0.706003  1
  Co  Co9  1  0.000000  0.000000  0.293527  1
  Co  Co10  1  0.000000  0.500000  0.984724  1
  Co  Co11  1  0.500000  0.000000  0.012458  1
  Co  Co12  1  0.500000  0.326484  0.990140  1
  Co  Co13  1  0.500000  0.673516  0.990140  1
  Co  Co14  1  0.000000  0.162211  0.001279  1
  Co  Co15  1  0.000000  0.837789  0.001279  1
  Co  Co16  1  0.500000  0.294620  0.433433  1
  Co  Co17  1  0.500000  0.705380  0.433433  1
  Co  Co18  1  0.000000  0.202525  0.571367  1
  Co  Co19  1  0.000000  0.797475  0.571367  1
  Co  Co20  1  0.500000  0.880672  0.709332  1
  Co  Co21  1  0.500000  0.119328  0.709332  1
  Co  Co22  1  0.000000  0.622365  0.294872  1
  Co  Co23  1  0.000000  0.377635  0.294872  1
  P  P24  1  0.500000  0.500000  0.884271  1
  P  P25  1  0.000000  0.000000  0.114932  1
  P  P26  1  0.500000  0.500000  0.355396  1
  P  P27  1  0.000000  0.000000  0.657301  1
  P  P28  1  0.500000  0.307141  0.618659  1
  P  P29  1  0.500000  0.692859  0.618659  1
  P  P30  1  0.000000  0.190878  0.385520  1
  P  P31  1  0.000000  0.809122  0.385520  1
  P  P32  1  0.500000  0.851431  0.889472  1
  P  P33  1  0.500000  0.148569  0.889472  1
  P  P34  1  0.000000  0.663540  0.100927  1
  P  P35  1  0.000000  0.336460  0.100927  1
