# generated using pymatgen
data_Li4ScNi9P7
_symmetry_space_group_name_H-M   'P 1'
_cell_length_a   9.04937100
_cell_length_b   9.04937073
_cell_length_c   3.61801900
_cell_angle_alpha   90.00000000
_cell_angle_beta   90.00000000
_cell_angle_gamma   120.00001194
_symmetry_Int_Tables_number   1
_chemical_formula_structural   Li4ScNi9P7
_chemical_formula_sum   'Li4 Sc1 Ni9 P7'
_cell_volume   256.58909609
_cell_formula_units_Z   1
loop_
 _symmetry_equiv_pos_site_id
 _symmetry_equiv_pos_as_xyz
  1  'x, y, z'
loop_
 _atom_site_type_symbol
 _atom_site_label
 _atom_site_symmetry_multiplicity
 _atom_site_fract_x
 _atom_site_fract_y
 _atom_site_fract_z
 _atom_site_occupancy
  Li  Li0  1  0.886279  0.784006  0.500000  1
  Li  Li1  1  0.897727  0.113721  0.500000  1
  Li  Li2  1  0.215994  0.102273  0.500000  1
  Li  Li3  1  0.666667  0.333333  0.500000  1
  Sc  Sc4  1  0.333333  0.666667  0.000000  1
  Ni  Ni5  1  0.713481  0.880897  0.000000  1
  Ni  Ni6  1  0.167415  0.286519  0.000000  1
  Ni  Ni7  1  0.119103  0.832585  0.000000  1
  Ni  Ni8  1  0.627615  0.570017  0.000000  1
  Ni  Ni9  1  0.942401  0.372385  0.000000  1
  Ni  Ni10  1  0.429983  0.057599  0.000000  1
  Ni  Ni11  1  0.561876  0.954017  0.500000  1
  Ni  Ni12  1  0.392142  0.438124  0.500000  1
  Ni  Ni13  1  0.045983  0.607858  0.500000  1
  P  P14  1  0.586377  0.713262  0.500000  1
  P  P15  1  0.126885  0.413623  0.500000  1
  P  P16  1  0.286738  0.873115  0.500000  1
  P  P17  1  0.000000  0.000000  0.000000  1
  P  P18  1  0.878062  0.577415  0.000000  1
  P  P19  1  0.699354  0.121938  0.000000  1
  P  P20  1  0.422585  0.300646  0.000000  1
