# generated using pymatgen
data_La2Pr2YIr2
_symmetry_space_group_name_H-M   'P 1'
_cell_length_a   6.73355745
_cell_length_b   7.28827144
_cell_length_c   9.11109065
_cell_angle_alpha   95.95102401
_cell_angle_beta   111.68634997
_cell_angle_gamma   89.99999685
_symmetry_Int_Tables_number   1
_chemical_formula_structural   La2Pr2YIr2
_chemical_formula_sum   'La4 Pr4 Y2 Ir4'
_cell_volume   412.89351815
_cell_formula_units_Z   2
loop_
 _symmetry_equiv_pos_site_id
 _symmetry_equiv_pos_as_xyz
  1  'x, y, z'
loop_
 _atom_site_type_symbol
 _atom_site_label
 _atom_site_symmetry_multiplicity
 _atom_site_fract_x
 _atom_site_fract_y
 _atom_site_fract_z
 _atom_site_occupancy
  La  La0  1  0.978822  0.918719  0.183341  1
  La  La1  1  0.795480  0.581281  0.816659  1
  La  La2  1  0.021178  0.081281  0.816659  1
  La  La3  1  0.204520  0.418719  0.183341  1
  Pr  Pr4  1  0.645448  0.813671  0.429383  1
  Pr  Pr5  1  0.216063  0.686329  0.570617  1
  Pr  Pr6  1  0.354552  0.186329  0.570617  1
  Pr  Pr7  1  0.783937  0.313671  0.429383  1
  Y  Y8  1  0.437383  0.750000  0.000000  1
  Y  Y9  1  0.562617  0.250000  0.000000  1
  Ir  Ir10  1  0.815419  0.573879  0.211616  1
  Ir  Ir11  1  0.603802  0.926121  0.788384  1
  Ir  Ir12  1  0.184581  0.426121  0.788384  1
  Ir  Ir13  1  0.396198  0.073879  0.211616  1
