# generated using pymatgen
data_YEr7Ti9Si16Tc3
_symmetry_space_group_name_H-M   'P 1'
_cell_length_a   6.95072633
_cell_length_b   6.95013468
_cell_length_c   12.75826604
_cell_angle_alpha   90.06602627
_cell_angle_beta   89.93234462
_cell_angle_gamma   90.01444724
_symmetry_Int_Tables_number   1
_chemical_formula_structural   YEr7Ti9Si16Tc3
_chemical_formula_sum   'Y1 Er7 Ti9 Si16 Tc3'
_cell_volume   616.33163435
_cell_formula_units_Z   1
loop_
 _symmetry_equiv_pos_site_id
 _symmetry_equiv_pos_as_xyz
  1  'x, y, z'
loop_
 _atom_site_type_symbol
 _atom_site_label
 _atom_site_symmetry_multiplicity
 _atom_site_fract_x
 _atom_site_fract_y
 _atom_site_fract_z
 _atom_site_occupancy
  Y  Y0  1  0.340454  0.001980  0.467382  1
  Er  Er1  1  0.499249  0.841703  0.719493  1
  Er  Er2  1  0.499889  0.158533  0.217649  1
  Er  Er3  1  0.841876  0.499132  0.280551  1
  Er  Er4  1  0.158483  0.499905  0.782283  1
  Er  Er5  1  0.658750  0.999674  0.968357  1
  Er  Er6  1  0.000972  0.341041  0.532850  1
  Er  Er7  1  0.999707  0.658709  0.031629  1
  Ti  Ti8  1  0.674076  0.673499  0.500025  1
  Ti  Ti9  1  0.151713  0.005185  0.876874  1
  Ti  Ti10  1  0.494796  0.653067  0.124265  1
  Ti  Ti11  1  0.505025  0.348415  0.627551  1
  Ti  Ti12  1  0.653106  0.494815  0.875679  1
  Ti  Ti13  1  0.348245  0.504839  0.372568  1
  Ti  Ti14  1  0.847395  0.992643  0.375623  1
  Ti  Ti15  1  0.005109  0.151740  0.123128  1
  Ti  Ti16  1  0.992467  0.847237  0.624506  1
  Si  Si17  1  0.200434  0.130142  0.683674  1
  Si  Si18  1  0.369689  0.701091  0.932539  1
  Si  Si19  1  0.632692  0.297329  0.433806  1
  Si  Si20  1  0.701111  0.369717  0.067462  1
  Si  Si21  1  0.296584  0.631228  0.566394  1
  Si  Si22  1  0.798542  0.869384  0.183082  1
  Si  Si23  1  0.129352  0.201297  0.316164  1
  Si  Si24  1  0.869421  0.798482  0.816904  1
  Si  Si25  1  0.291055  0.952217  0.066628  1
  Si  Si26  1  0.547543  0.790278  0.315438  1
  Si  Si27  1  0.452367  0.210061  0.816682  1
  Si  Si28  1  0.790822  0.547021  0.684225  1
  Si  Si29  1  0.210030  0.452446  0.183283  1
  Si  Si30  1  0.708397  0.049200  0.567586  1
  Si  Si31  1  0.952255  0.291054  0.933359  1
  Si  Si32  1  0.048452  0.706987  0.432580  1
  Tc  Tc33  1  0.328068  0.328043  0.999961  1
  Tc  Tc34  1  0.173680  0.828017  0.248364  1
  Tc  Tc35  1  0.828193  0.173892  0.751456  1
