# generated using pymatgen
data_Y4Sc4B24Ir3Ru
_symmetry_space_group_name_H-M   'P 1'
_cell_length_a   3.55642700
_cell_length_b   9.00855920
_cell_length_c   11.38833325
_cell_angle_alpha   90.02386169
_cell_angle_beta   90.00000000
_cell_angle_gamma   90.00000000
_symmetry_Int_Tables_number   1
_chemical_formula_structural   Y4Sc4B24Ir3Ru
_chemical_formula_sum   'Y4 Sc4 B24 Ir3 Ru1'
_cell_volume   364.86261357
_cell_formula_units_Z   1
loop_
 _symmetry_equiv_pos_site_id
 _symmetry_equiv_pos_as_xyz
  1  'x, y, z'
loop_
 _atom_site_type_symbol
 _atom_site_label
 _atom_site_symmetry_multiplicity
 _atom_site_fract_x
 _atom_site_fract_y
 _atom_site_fract_z
 _atom_site_occupancy
  Y  Y0  1  0.500000  0.318239  0.412959  1
  Y  Y1  1  0.500000  0.680699  0.586156  1
  Y  Y2  1  0.500000  0.180453  0.915097  1
  Y  Y3  1  0.500000  0.821250  0.086513  1
  Sc  Sc4  1  0.500000  0.442257  0.124181  1
  Sc  Sc5  1  0.500000  0.555292  0.875991  1
  Sc  Sc6  1  0.500000  0.055063  0.623914  1
  Sc  Sc7  1  0.500000  0.947317  0.374668  1
  B  B8  1  0.000000  0.100146  0.473176  1
  B  B9  1  0.000000  0.899748  0.527131  1
  B  B10  1  0.000000  0.399896  0.972831  1
  B  B11  1  0.000000  0.600504  0.027012  1
  B  B12  1  0.000000  0.129329  0.317302  1
  B  B13  1  0.000000  0.870358  0.681459  1
  B  B14  1  0.000000  0.370519  0.818543  1
  B  B15  1  0.000000  0.629388  0.181612  1
  B  B16  1  0.000000  0.055382  0.066945  1
  B  B17  1  0.000000  0.945320  0.933979  1
  B  B18  1  0.000000  0.444726  0.565859  1
  B  B19  1  0.000000  0.554968  0.433877  1
  B  B20  1  0.000000  0.481712  0.284921  1
  B  B21  1  0.000000  0.518236  0.715049  1
  B  B22  1  0.000000  0.018346  0.784818  1
  B  B23  1  0.000000  0.982597  0.215010  1
  B  B24  1  0.000000  0.253909  0.081593  1
  B  B25  1  0.000000  0.745396  0.919455  1
  B  B26  1  0.000000  0.245417  0.580449  1
  B  B27  1  0.000000  0.754680  0.419360  1
  B  B28  1  0.000000  0.294738  0.234477  1
  B  B29  1  0.000000  0.704357  0.764753  1
  B  B30  1  0.000000  0.204522  0.735391  1
  B  B31  1  0.000000  0.795543  0.265281  1
  Ir  Ir32  1  0.500000  0.859369  0.819088  1
  Ir  Ir33  1  0.500000  0.358877  0.681238  1
  Ir  Ir34  1  0.500000  0.640774  0.318348  1
  Ru  Ru35  1  0.500000  0.140675  0.181563  1
