# generated using pymatgen
data_Sc12In2Fe2Ru
_symmetry_space_group_name_H-M   'P 1'
_cell_length_a   7.82608038
_cell_length_b   7.82607999
_cell_length_c   7.82608046
_cell_angle_alpha   108.47214043
_cell_angle_beta   108.47215072
_cell_angle_gamma   111.48839567
_symmetry_Int_Tables_number   1
_chemical_formula_structural   Sc12In2Fe2Ru
_chemical_formula_sum   'Sc12 In2 Fe2 Ru1'
_cell_volume   368.64259572
_cell_formula_units_Z   1
loop_
 _symmetry_equiv_pos_site_id
 _symmetry_equiv_pos_as_xyz
  1  'x, y, z'
loop_
 _atom_site_type_symbol
 _atom_site_label
 _atom_site_symmetry_multiplicity
 _atom_site_fract_x
 _atom_site_fract_y
 _atom_site_fract_z
 _atom_site_occupancy
  Sc  Sc0  1  0.306088  0.306088  0.612176  1
  Sc  Sc1  1  0.693912  0.693912  0.387824  1
  Sc  Sc2  1  0.693912  0.306088  0.000000  1
  Sc  Sc3  1  0.306088  0.693912  0.000000  1
  Sc  Sc4  1  0.194905  0.432395  0.237490  1
  Sc  Sc5  1  0.805095  0.567605  0.762510  1
  Sc  Sc6  1  0.194905  0.957414  0.762510  1
  Sc  Sc7  1  0.957414  0.194905  0.762510  1
  Sc  Sc8  1  0.805095  0.042586  0.237490  1
  Sc  Sc9  1  0.042586  0.805095  0.237490  1
  Sc  Sc10  1  0.432395  0.194905  0.237490  1
  Sc  Sc11  1  0.567605  0.805095  0.762510  1
  In  In12  1  0.000000  0.500000  0.500000  1
  In  In13  1  0.500000  0.000000  0.500000  1
  Fe  Fe14  1  0.378773  0.378773  0.000000  1
  Fe  Fe15  1  0.621227  0.621227  0.000000  1
  Ru  Ru16  1  0.000000  0.000000  0.000000  1
