# generated using pymatgen
data_LiPr(InIr4)2
_symmetry_space_group_name_H-M   'P 1'
_cell_length_a   8.82675000
_cell_length_b   8.82675000
_cell_length_c   5.19564600
_cell_angle_alpha   90.00000000
_cell_angle_beta   90.00000000
_cell_angle_gamma   90.00000000
_symmetry_Int_Tables_number   1
_chemical_formula_structural   LiPr(InIr4)2
_chemical_formula_sum   'Li2 Pr2 In4 Ir16'
_cell_volume   404.80065419
_cell_formula_units_Z   2
loop_
 _symmetry_equiv_pos_site_id
 _symmetry_equiv_pos_as_xyz
  1  'x, y, z'
loop_
 _atom_site_type_symbol
 _atom_site_label
 _atom_site_symmetry_multiplicity
 _atom_site_fract_x
 _atom_site_fract_y
 _atom_site_fract_z
 _atom_site_occupancy
  Li  Li0  1  0.500000  0.000000  0.500000  1
  Li  Li1  1  0.000000  0.500000  0.500000  1
  Pr  Pr2  1  0.000000  0.000000  0.000000  1
  Pr  Pr3  1  0.500000  0.500000  0.000000  1
  In  In4  1  0.120630  0.620630  0.000000  1
  In  In5  1  0.879370  0.379370  0.000000  1
  In  In6  1  0.620630  0.879370  0.000000  1
  In  In7  1  0.379370  0.120630  0.000000  1
  Ir  Ir8  1  0.207728  0.066743  0.500000  1
  Ir  Ir9  1  0.792272  0.933257  0.500000  1
  Ir  Ir10  1  0.066743  0.792272  0.500000  1
  Ir  Ir11  1  0.707728  0.433257  0.500000  1
  Ir  Ir12  1  0.933257  0.207728  0.500000  1
  Ir  Ir13  1  0.292272  0.566743  0.500000  1
  Ir  Ir14  1  0.566743  0.707728  0.500000  1
  Ir  Ir15  1  0.433257  0.292272  0.500000  1
  Ir  Ir16  1  0.676836  0.176836  0.238475  1
  Ir  Ir17  1  0.323164  0.823164  0.761525  1
  Ir  Ir18  1  0.323164  0.823164  0.238475  1
  Ir  Ir19  1  0.176836  0.323164  0.238475  1
  Ir  Ir20  1  0.176836  0.323164  0.761525  1
  Ir  Ir21  1  0.676836  0.176836  0.761525  1
  Ir  Ir22  1  0.823164  0.676836  0.761525  1
  Ir  Ir23  1  0.823164  0.676836  0.238475  1
