# generated using pymatgen
data_Sr10V6O25
_symmetry_space_group_name_H-M   'P 1'
_cell_length_a   10.55149300
_cell_length_b   10.55149276
_cell_length_c   7.58954400
_cell_angle_alpha   90.00000000
_cell_angle_beta   90.00000000
_cell_angle_gamma   119.99999761
_symmetry_Int_Tables_number   1
_chemical_formula_structural   Sr10V6O25
_chemical_formula_sum   'Sr10 V6 O25'
_cell_volume   731.76923305
_cell_formula_units_Z   1
loop_
 _symmetry_equiv_pos_site_id
 _symmetry_equiv_pos_as_xyz
  1  'x, y, z'
loop_
 _atom_site_type_symbol
 _atom_site_label
 _atom_site_symmetry_multiplicity
 _atom_site_fract_x
 _atom_site_fract_y
 _atom_site_fract_z
 _atom_site_occupancy
  Sr  Sr0  1  0.333333  0.666667  0.503461  1
  Sr  Sr1  1  0.000000  0.000000  0.997443  1
  Sr  Sr2  1  0.000000  0.000000  0.502004  1
  Sr  Sr3  1  0.333333  0.666667  0.990612  1
  Sr  Sr4  1  0.683214  0.564580  0.749402  1
  Sr  Sr5  1  0.435420  0.118634  0.749402  1
  Sr  Sr6  1  0.881366  0.316786  0.749402  1
  Sr  Sr7  1  0.668357  0.049100  0.248391  1
  Sr  Sr8  1  0.950900  0.619257  0.248391  1
  Sr  Sr9  1  0.380743  0.331643  0.248391  1
  V  V10  1  0.052611  0.751805  0.748678  1
  V  V11  1  0.248195  0.300806  0.748678  1
  V  V12  1  0.699194  0.947389  0.748678  1
  V  V13  1  0.312450  0.949184  0.249016  1
  V  V14  1  0.050816  0.363266  0.249016  1
  V  V15  1  0.636734  0.687550  0.249016  1
  O  O16  1  0.939925  0.692826  0.562620  1
  O  O17  1  0.307174  0.247098  0.562620  1
  O  O18  1  0.752902  0.060075  0.562620  1
  O  O19  1  0.431220  0.012317  0.070496  1
  O  O20  1  0.987683  0.418903  0.070496  1
  O  O21  1  0.581097  0.568780  0.070496  1
  O  O22  1  0.428722  0.007334  0.430006  1
  O  O23  1  0.992666  0.421389  0.430006  1
  O  O24  1  0.578611  0.571278  0.430006  1
  O  O25  1  0.938553  0.689180  0.933397  1
  O  O26  1  0.310820  0.249373  0.933397  1
  O  O27  1  0.750627  0.061447  0.933397  1
  O  O28  1  0.138484  0.943187  0.751097  1
  O  O29  1  0.056813  0.195297  0.751097  1
  O  O30  1  0.804703  0.861516  0.751097  1
  O  O31  1  0.219405  0.754784  0.245919  1
  O  O32  1  0.245216  0.464621  0.245919  1
  O  O33  1  0.535379  0.780595  0.245919  1
  O  O34  1  0.179087  0.691204  0.747569  1
  O  O35  1  0.308796  0.487883  0.747569  1
  O  O36  1  0.512117  0.820913  0.747569  1
  O  O37  1  0.187870  0.014215  0.249324  1
  O  O38  1  0.985785  0.173654  0.249324  1
  O  O39  1  0.826346  0.812130  0.249324  1
  O  O40  1  0.666667  0.333333  0.746740  1
