# generated using pymatgen
data_Pr5SmU4O20
_symmetry_space_group_name_H-M   'P 1'
_cell_length_a   6.81508332
_cell_length_b   7.73552170
_cell_length_c   8.65891003
_cell_angle_alpha   101.51404254
_cell_angle_beta   97.71940320
_cell_angle_gamma   107.15523530
_symmetry_Int_Tables_number   1
_chemical_formula_structural   Pr5SmU4O20
_chemical_formula_sum   'Pr5 Sm1 U4 O20'
_cell_volume   418.19741164
_cell_formula_units_Z   1
loop_
 _symmetry_equiv_pos_site_id
 _symmetry_equiv_pos_as_xyz
  1  'x, y, z'
loop_
 _atom_site_type_symbol
 _atom_site_label
 _atom_site_symmetry_multiplicity
 _atom_site_fract_x
 _atom_site_fract_y
 _atom_site_fract_z
 _atom_site_occupancy
  Pr  Pr0  1  0.612663  0.703021  0.700765  1
  Pr  Pr1  1  0.387337  0.296979  0.299235  1
  Pr  Pr2  1  0.200064  0.897531  0.893773  1
  Pr  Pr3  1  0.000000  0.500000  0.500000  1
  Pr  Pr4  1  0.799936  0.102469  0.106227  1
  Sm  Sm5  1  0.000000  0.000000  0.500000  1
  U  U6  1  0.401529  0.804137  0.302056  1
  U  U7  1  0.198340  0.401872  0.901781  1
  U  U8  1  0.801660  0.598128  0.098219  1
  U  U9  1  0.598471  0.195863  0.697944  1
  O  O10  1  0.435124  0.532882  0.131665  1
  O  O11  1  0.557624  0.994482  0.836916  1
  O  O12  1  0.276895  0.154078  0.743434  1
  O  O13  1  0.361758  0.601485  0.437830  1
  O  O14  1  0.055848  0.731221  0.325083  1
  O  O15  1  0.442376  0.005518  0.163084  1
  O  O16  1  0.148981  0.189355  0.026781  1
  O  O17  1  0.564876  0.467118  0.868335  1
  O  O18  1  0.855604  0.342312  0.950224  1
  O  O19  1  0.256605  0.599839  0.764012  1
  O  O20  1  0.954812  0.776045  0.649715  1
  O  O21  1  0.355467  0.056721  0.454815  1
  O  O22  1  0.644533  0.943279  0.545185  1
  O  O23  1  0.045188  0.223955  0.350285  1
  O  O24  1  0.743395  0.400161  0.235988  1
  O  O25  1  0.144396  0.657688  0.049776  1
  O  O26  1  0.851019  0.810645  0.973219  1
  O  O27  1  0.944152  0.268779  0.674917  1
  O  O28  1  0.638242  0.398515  0.562170  1
  O  O29  1  0.723105  0.845922  0.256566  1
