# generated using pymatgen
data_Sr3PrMn(FeO4)3
_symmetry_space_group_name_H-M   'P 1'
_cell_length_a   5.55044755
_cell_length_b   5.51669265
_cell_length_c   7.79558722
_cell_angle_alpha   90.02700382
_cell_angle_beta   90.01615151
_cell_angle_gamma   89.87085269
_symmetry_Int_Tables_number   1
_chemical_formula_structural   Sr3PrMn(FeO4)3
_chemical_formula_sum   'Sr3 Pr1 Mn1 Fe3 O12'
_cell_volume   238.70112074
_cell_formula_units_Z   1
loop_
 _symmetry_equiv_pos_site_id
 _symmetry_equiv_pos_as_xyz
  1  'x, y, z'
loop_
 _atom_site_type_symbol
 _atom_site_label
 _atom_site_symmetry_multiplicity
 _atom_site_fract_x
 _atom_site_fract_y
 _atom_site_fract_z
 _atom_site_occupancy
  Sr  Sr0  1  0.493065  0.489570  0.751849  1
  Sr  Sr1  1  0.501535  0.510327  0.248666  1
  Sr  Sr2  1  0.000463  0.991953  0.751180  1
  Pr  Pr3  1  0.002050  0.018898  0.247405  1
  Mn  Mn4  1  0.500094  0.999465  0.000242  1
  Fe  Fe5  1  0.000031  0.502137  0.997957  1
  Fe  Fe6  1  0.000297  0.501109  0.500115  1
  Fe  Fe7  1  0.500257  0.999107  0.502189  1
  O  O8  1  0.739072  0.255418  0.026722  1
  O  O9  1  0.234942  0.228963  0.981910  1
  O  O10  1  0.773496  0.769703  0.466300  1
  O  O11  1  0.261109  0.734424  0.514683  1
  O  O12  1  0.266857  0.738559  0.985851  1
  O  O13  1  0.768183  0.774692  0.033226  1
  O  O14  1  0.231488  0.234472  0.518658  1
  O  O15  1  0.744850  0.259087  0.473223  1
  O  O16  1  0.040605  0.483851  0.251573  1
  O  O17  1  0.540409  0.996359  0.753515  1
  O  O18  1  0.444713  0.004639  0.247600  1
  O  O19  1  0.956483  0.507265  0.747134  1
