# generated using pymatgen
data_Nd6Tm7Th3(CdIr)4
_symmetry_space_group_name_H-M   'P 1'
_cell_length_a   9.78238479
_cell_length_b   9.76549819
_cell_length_c   9.76545800
_cell_angle_alpha   60.00004817
_cell_angle_beta   60.05787651
_cell_angle_gamma   60.05823570
_symmetry_Int_Tables_number   1
_chemical_formula_structural   Nd6Tm7Th3(CdIr)4
_chemical_formula_sum   'Nd6 Tm7 Th3 Cd4 Ir4'
_cell_volume   660.23336420
_cell_formula_units_Z   1
loop_
 _symmetry_equiv_pos_site_id
 _symmetry_equiv_pos_as_xyz
  1  'x, y, z'
loop_
 _atom_site_type_symbol
 _atom_site_label
 _atom_site_symmetry_multiplicity
 _atom_site_fract_x
 _atom_site_fract_y
 _atom_site_fract_z
 _atom_site_occupancy
  Nd  Nd0  1  0.938541  0.561145  0.561145  1
  Nd  Nd1  1  0.562455  0.937708  0.937710  1
  Nd  Nd2  1  0.562454  0.937711  0.562127  1
  Nd  Nd3  1  0.938539  0.561145  0.939172  1
  Nd  Nd4  1  0.562455  0.562130  0.937708  1
  Nd  Nd5  1  0.938539  0.939172  0.561146  1
  Tm  Tm6  1  0.954107  0.348629  0.348631  1
  Tm  Tm7  1  0.814861  0.186072  0.186073  1
  Tm  Tm8  1  0.185369  0.815862  0.815862  1
  Tm  Tm9  1  0.185370  0.815862  0.182907  1
  Tm  Tm10  1  0.814860  0.186071  0.812997  1
  Tm  Tm11  1  0.185370  0.182906  0.815862  1
  Tm  Tm12  1  0.814859  0.812998  0.186071  1
  Th  Th13  1  0.346222  0.349368  0.349376  1
  Th  Th14  1  0.346219  0.349377  0.955027  1
  Th  Th15  1  0.346218  0.955032  0.349375  1
  Cd  Cd16  1  0.582141  0.578593  0.578593  1
  Cd  Cd17  1  0.582141  0.578594  0.260672  1
  Cd  Cd18  1  0.582141  0.260671  0.578594  1
  Cd  Cd19  1  0.258684  0.580438  0.580438  1
  Ir  Ir20  1  0.141878  0.141929  0.141928  1
  Ir  Ir21  1  0.141877  0.141928  0.574266  1
  Ir  Ir22  1  0.141878  0.574263  0.141929  1
  Ir  Ir23  1  0.572820  0.142393  0.142393  1
