# generated using pymatgen
data_Sm2DyGa6(CuNi2)3
_symmetry_space_group_name_H-M   'P 1'
_cell_length_a   4.14675000
_cell_length_b   8.84259034
_cell_length_c   8.84258954
_cell_angle_alpha   59.99741111
_cell_angle_beta   90.00000000
_cell_angle_gamma   90.00000000
_symmetry_Int_Tables_number   1
_chemical_formula_structural   Sm2DyGa6(CuNi2)3
_chemical_formula_sum   'Sm2 Dy1 Ga6 Cu3 Ni6'
_cell_volume   280.79290277
_cell_formula_units_Z   1
loop_
 _symmetry_equiv_pos_site_id
 _symmetry_equiv_pos_as_xyz
  1  'x, y, z'
loop_
 _atom_site_type_symbol
 _atom_site_label
 _atom_site_symmetry_multiplicity
 _atom_site_fract_x
 _atom_site_fract_y
 _atom_site_fract_z
 _atom_site_occupancy
  Sm  Sm0  1  0.500000  0.333286  0.333357  1
  Sm  Sm1  1  0.500000  0.666643  0.666714  1
  Dy  Dy2  1  0.000000  0.000107  0.999893  1
  Ga  Ga3  1  0.000000  0.515916  0.484084  1
  Ga  Ga4  1  0.000000  0.483992  0.000059  1
  Ga  Ga5  1  0.000000  0.999941  0.516008  1
  Ga  Ga6  1  0.500000  0.278192  0.721808  1
  Ga  Ga7  1  0.500000  0.722042  0.000056  1
  Ga  Ga8  1  0.500000  0.999944  0.277958  1
  Cu  Cu9  1  0.500000  0.707582  0.292418  1
  Cu  Cu10  1  0.500000  0.292169  0.999954  1
  Cu  Cu11  1  0.500000  0.000046  0.707831  1
  Ni  Ni12  1  0.000000  0.173194  0.195582  1
  Ni  Ni13  1  0.000000  0.195548  0.631240  1
  Ni  Ni14  1  0.000000  0.631323  0.173203  1
  Ni  Ni15  1  0.000000  0.804418  0.826806  1
  Ni  Ni16  1  0.000000  0.368760  0.804452  1
  Ni  Ni17  1  0.000000  0.826797  0.368677  1
