# generated using pymatgen
data_Tm5Lu15(Cd3Os)2
_symmetry_space_group_name_H-M   'P 1'
_cell_length_a   9.43931100
_cell_length_b   9.44148213
_cell_length_c   9.70570500
_cell_angle_alpha   90.00000000
_cell_angle_beta   90.00000000
_cell_angle_gamma   119.77187863
_symmetry_Int_Tables_number   1
_chemical_formula_structural   Tm5Lu15(Cd3Os)2
_chemical_formula_sum   'Tm5 Lu15 Cd6 Os2'
_cell_volume   750.81323637
_cell_formula_units_Z   1
loop_
 _symmetry_equiv_pos_site_id
 _symmetry_equiv_pos_as_xyz
  1  'x, y, z'
loop_
 _atom_site_type_symbol
 _atom_site_label
 _atom_site_symmetry_multiplicity
 _atom_site_fract_x
 _atom_site_fract_y
 _atom_site_fract_z
 _atom_site_occupancy
  Tm  Tm0  1  0.539432  0.079169  0.250000  1
  Tm  Tm1  1  0.921233  0.461059  0.250000  1
  Tm  Tm2  1  0.460641  0.539276  0.750000  1
  Tm  Tm3  1  0.461457  0.924170  0.750000  1
  Tm  Tm4  1  0.076018  0.538578  0.750000  1
  Lu  Lu5  1  0.000600  0.999252  0.499671  1
  Lu  Lu6  1  0.000600  0.999252  0.000329  1
  Lu  Lu7  1  0.210537  0.789627  0.441139  1
  Lu  Lu8  1  0.210266  0.419483  0.441785  1
  Lu  Lu9  1  0.580454  0.789679  0.441678  1
  Lu  Lu10  1  0.790263  0.209800  0.558085  1
  Lu  Lu11  1  0.788371  0.579135  0.557727  1
  Lu  Lu12  1  0.420704  0.211559  0.557663  1
  Lu  Lu13  1  0.790263  0.209800  0.941915  1
  Lu  Lu14  1  0.788371  0.579135  0.942273  1
  Lu  Lu15  1  0.420704  0.211559  0.942337  1
  Lu  Lu16  1  0.210537  0.789627  0.058861  1
  Lu  Lu17  1  0.210266  0.419483  0.058215  1
  Lu  Lu18  1  0.580454  0.789679  0.058322  1
  Lu  Lu19  1  0.536801  0.463248  0.250000  1
  Cd  Cd20  1  0.886586  0.113195  0.250000  1
  Cd  Cd21  1  0.885206  0.772867  0.250000  1
  Cd  Cd22  1  0.227384  0.114878  0.250000  1
  Cd  Cd23  1  0.113676  0.886566  0.750000  1
  Cd  Cd24  1  0.114348  0.226701  0.750000  1
  Cd  Cd25  1  0.773036  0.885609  0.750000  1
  Os  Os26  1  0.334961  0.664752  0.250000  1
  Os  Os27  1  0.666829  0.332857  0.750000  1
