# generated using pymatgen
data_CsK3Hg2(BSe)18
_symmetry_space_group_name_H-M   'P 1'
_cell_length_a   10.01102324
_cell_length_b   10.95417583
_cell_length_c   11.19880188
_cell_angle_alpha   101.27842040
_cell_angle_beta   91.30100403
_cell_angle_gamma   116.53699772
_symmetry_Int_Tables_number   1
_chemical_formula_structural   CsK3Hg2(BSe)18
_chemical_formula_sum   'Cs1 K3 Hg2 B18 Se18'
_cell_volume   1068.97197443
_cell_formula_units_Z   1
loop_
 _symmetry_equiv_pos_site_id
 _symmetry_equiv_pos_as_xyz
  1  'x, y, z'
loop_
 _atom_site_type_symbol
 _atom_site_label
 _atom_site_symmetry_multiplicity
 _atom_site_fract_x
 _atom_site_fract_y
 _atom_site_fract_z
 _atom_site_occupancy
  Cs  Cs0  1  0.825621  0.656284  0.490317  1
  K  K1  1  0.789582  0.170327  0.010476  1
  K  K2  1  0.211551  0.830114  0.986862  1
  K  K3  1  0.184656  0.350509  0.495551  1
  Hg  Hg4  1  0.320155  0.313007  0.081268  1
  Hg  Hg5  1  0.676598  0.683766  0.919939  1
  B  B6  1  0.515276  0.160699  0.553769  1
  B  B7  1  0.484950  0.839074  0.446500  1
  B  B8  1  0.662668  0.121086  0.590633  1
  B  B9  1  0.337042  0.878192  0.409133  1
  B  B10  1  0.486968  0.043532  0.650127  1
  B  B11  1  0.512374  0.955850  0.349796  1
  B  B12  1  0.338733  0.006968  0.537122  1
  B  B13  1  0.661074  0.993283  0.462809  1
  B  B14  1  0.421756  0.059691  0.404582  1
  B  B15  1  0.577571  0.939814  0.595676  1
  B  B16  1  0.619645  0.128977  0.437742  1
  B  B17  1  0.379310  0.870301  0.562117  1
  B  B18  1  0.752726  0.413967  0.719990  1
  B  B19  1  0.246719  0.582668  0.283784  1
  B  B20  1  0.252735  0.085042  0.781591  1
  B  B21  1  0.748538  0.918900  0.217738  1
  B  B22  1  0.566962  0.277020  0.262761  1
  B  B23  1  0.431044  0.722143  0.737941  1
  Se  Se24  1  0.555846  0.357755  0.630924  1
  Se  Se25  1  0.445275  0.641824  0.371005  1
  Se  Se26  1  0.840438  0.281991  0.702722  1
  Se  Se27  1  0.161383  0.715969  0.295317  1
  Se  Se28  1  0.450030  0.096677  0.824110  1
  Se  Se29  1  0.548722  0.902358  0.175820  1
  Se  Se30  1  0.166092  0.031054  0.607735  1
  Se  Se31  1  0.838010  0.978667  0.391469  1
  Se  Se32  1  0.360214  0.149485  0.287916  1
  Se  Se33  1  0.637676  0.851553  0.714886  1
  Se  Se34  1  0.741367  0.280061  0.350507  1
  Se  Se35  1  0.256748  0.717048  0.647563  1
  Se  Se36  1  0.871618  0.601559  0.821662  1
  Se  Se37  1  0.125360  0.390222  0.191921  1
  Se  Se38  1  0.126656  0.111599  0.902563  1
  Se  Se39  1  0.872812  0.892110  0.095268  1
  Se  Se40  1  0.604422  0.399717  0.149921  1
  Se  Se41  1  0.393074  0.599134  0.850469  1
