# generated using pymatgen
data_Pr5Zn2Ir3
_symmetry_space_group_name_H-M   'P 1'
_cell_length_a   8.62616455
_cell_length_b   8.62616380
_cell_length_c   8.62616400
_cell_angle_alpha   109.47122110
_cell_angle_beta   109.47121934
_cell_angle_gamma   109.47122370
_symmetry_Int_Tables_number   1
_chemical_formula_structural   Pr5Zn2Ir3
_chemical_formula_sum   'Pr10 Zn4 Ir6'
_cell_volume   494.11865106
_cell_formula_units_Z   2
loop_
 _symmetry_equiv_pos_site_id
 _symmetry_equiv_pos_as_xyz
  1  'x, y, z'
loop_
 _atom_site_type_symbol
 _atom_site_label
 _atom_site_symmetry_multiplicity
 _atom_site_fract_x
 _atom_site_fract_y
 _atom_site_fract_z
 _atom_site_occupancy
  Pr  Pr0  1  0.250000  0.679297  0.429298  1
  Pr  Pr1  1  0.750000  0.820703  0.070703  1
  Pr  Pr2  1  0.429298  0.250000  0.679297  1
  Pr  Pr3  1  0.679297  0.429298  0.250000  1
  Pr  Pr4  1  0.070703  0.750000  0.820703  1
  Pr  Pr5  1  0.820703  0.070703  0.750000  1
  Pr  Pr6  1  0.223198  0.223198  0.223198  1
  Pr  Pr7  1  0.500001  0.000000  0.276802  1
  Pr  Pr8  1  0.276802  0.500001  0.000000  1
  Pr  Pr9  1  0.000000  0.276802  0.500001  1
  Zn  Zn10  1  0.500001  0.000000  0.903255  1
  Zn  Zn11  1  0.596745  0.596745  0.596745  1
  Zn  Zn12  1  0.903255  0.500001  0.000000  1
  Zn  Zn13  1  0.000000  0.903255  0.500001  1
  Ir  Ir14  1  0.250001  0.128543  0.878543  1
  Ir  Ir15  1  0.750000  0.371456  0.621456  1
  Ir  Ir16  1  0.878543  0.250001  0.128543  1
  Ir  Ir17  1  0.128543  0.878543  0.250001  1
  Ir  Ir18  1  0.621456  0.750000  0.371456  1
  Ir  Ir19  1  0.371456  0.621456  0.750000  1
