# generated using pymatgen
data_Nb4Al4Zn2GaCu
_symmetry_space_group_name_H-M   'P 1'
_cell_length_a   4.99625069
_cell_length_b   5.12171036
_cell_length_c   8.36315700
_cell_angle_alpha   90.00000000
_cell_angle_beta   90.00000000
_cell_angle_gamma   120.47325417
_symmetry_Int_Tables_number   1
_chemical_formula_structural   Nb4Al4Zn2GaCu
_chemical_formula_sum   'Nb4 Al4 Zn2 Ga1 Cu1'
_cell_volume   184.44599434
_cell_formula_units_Z   1
loop_
 _symmetry_equiv_pos_site_id
 _symmetry_equiv_pos_as_xyz
  1  'x, y, z'
loop_
 _atom_site_type_symbol
 _atom_site_label
 _atom_site_symmetry_multiplicity
 _atom_site_fract_x
 _atom_site_fract_y
 _atom_site_fract_z
 _atom_site_occupancy
  Nb  Nb0  1  0.677067  0.340964  0.565447  1
  Nb  Nb1  1  0.320183  0.659336  0.438430  1
  Nb  Nb2  1  0.320183  0.659336  0.061570  1
  Nb  Nb3  1  0.677067  0.340964  0.934553  1
  Al  Al4  1  0.989034  0.998770  0.500983  1
  Al  Al5  1  0.989034  0.998770  0.999017  1
  Al  Al6  1  0.190645  0.355642  0.750000  1
  Al  Al7  1  0.189619  0.838759  0.750000  1
  Zn  Zn8  1  0.819971  0.162763  0.250000  1
  Zn  Zn9  1  0.333465  0.161118  0.250000  1
  Ga  Ga10  1  0.817460  0.644895  0.250000  1
  Cu  Cu11  1  0.676272  0.838683  0.750000  1
