# generated using pymatgen
data_Dy20Cd6NiRu
_symmetry_space_group_name_H-M   'P 1'
_cell_length_a   9.57986800
_cell_length_b   9.57986969
_cell_length_c   9.83992400
_cell_angle_alpha   90.00000000
_cell_angle_beta   90.00000000
_cell_angle_gamma   119.99999418
_symmetry_Int_Tables_number   1
_chemical_formula_structural   Dy20Cd6NiRu
_chemical_formula_sum   'Dy20 Cd6 Ni1 Ru1'
_cell_volume   782.06261861
_cell_formula_units_Z   1
loop_
 _symmetry_equiv_pos_site_id
 _symmetry_equiv_pos_as_xyz
  1  'x, y, z'
loop_
 _atom_site_type_symbol
 _atom_site_label
 _atom_site_symmetry_multiplicity
 _atom_site_fract_x
 _atom_site_fract_y
 _atom_site_fract_z
 _atom_site_occupancy
  Dy  Dy0  1  0.000000  0.000000  0.500248  1
  Dy  Dy1  1  0.000000  0.000000  0.999752  1
  Dy  Dy2  1  0.542471  0.457529  0.250000  1
  Dy  Dy3  1  0.542471  0.084942  0.250000  1
  Dy  Dy4  1  0.915058  0.457529  0.250000  1
  Dy  Dy5  1  0.456786  0.543214  0.750000  1
  Dy  Dy6  1  0.456786  0.913572  0.750000  1
  Dy  Dy7  1  0.086428  0.543214  0.750000  1
  Dy  Dy8  1  0.209287  0.790713  0.439525  1
  Dy  Dy9  1  0.209287  0.418575  0.439525  1
  Dy  Dy10  1  0.581425  0.790713  0.439525  1
  Dy  Dy11  1  0.788882  0.211118  0.562784  1
  Dy  Dy12  1  0.788882  0.577762  0.562784  1
  Dy  Dy13  1  0.422238  0.211118  0.562784  1
  Dy  Dy14  1  0.788882  0.211118  0.937216  1
  Dy  Dy15  1  0.788882  0.577762  0.937216  1
  Dy  Dy16  1  0.422238  0.211118  0.937216  1
  Dy  Dy17  1  0.209287  0.790713  0.060475  1
  Dy  Dy18  1  0.209287  0.418575  0.060475  1
  Dy  Dy19  1  0.581425  0.790713  0.060475  1
  Cd  Cd20  1  0.885421  0.114579  0.250000  1
  Cd  Cd21  1  0.885421  0.770841  0.250000  1
  Cd  Cd22  1  0.229159  0.114579  0.250000  1
  Cd  Cd23  1  0.114611  0.885389  0.750000  1
  Cd  Cd24  1  0.114611  0.229222  0.750000  1
  Cd  Cd25  1  0.770778  0.885389  0.750000  1
  Ni  Ni26  1  0.666667  0.333333  0.750000  1
  Ru  Ru27  1  0.333333  0.666667  0.250000  1
