# generated using pymatgen
data_Si(SnPd3)2
_symmetry_space_group_name_H-M   'P 1'
_cell_length_a   6.98255600
_cell_length_b   6.98255660
_cell_length_c   3.54329000
_cell_angle_alpha   90.00000000
_cell_angle_beta   90.00000000
_cell_angle_gamma   120.00000661
_symmetry_Int_Tables_number   1
_chemical_formula_structural   Si(SnPd3)2
_chemical_formula_sum   'Si1 Sn2 Pd6'
_cell_volume   149.61191910
_cell_formula_units_Z   1
loop_
 _symmetry_equiv_pos_site_id
 _symmetry_equiv_pos_as_xyz
  1  'x, y, z'
loop_
 _atom_site_type_symbol
 _atom_site_label
 _atom_site_symmetry_multiplicity
 _atom_site_fract_x
 _atom_site_fract_y
 _atom_site_fract_z
 _atom_site_occupancy
  Si  Si0  1  0.000000  0.000000  0.000000  1
  Sn  Sn1  1  0.333333  0.666667  0.500000  1
  Sn  Sn2  1  0.666667  0.333333  0.500000  1
  Pd  Pd3  1  0.244161  0.000000  0.500000  1
  Pd  Pd4  1  0.000000  0.244161  0.500000  1
  Pd  Pd5  1  0.755839  0.755839  0.500000  1
  Pd  Pd6  1  0.619283  0.000000  0.000000  1
  Pd  Pd7  1  0.000000  0.619283  0.000000  1
  Pd  Pd8  1  0.380717  0.380717  0.000000  1
