# generated using pymatgen
data_CaPr(Ga2Ag)2
_symmetry_space_group_name_H-M   'P 1'
_cell_length_a   4.46221700
_cell_length_b   7.08208062
_cell_length_c   10.52437922
_cell_angle_alpha   90.18302784
_cell_angle_beta   90.00000000
_cell_angle_gamma   90.00000000
_symmetry_Int_Tables_number   1
_chemical_formula_structural   CaPr(Ga2Ag)2
_chemical_formula_sum   'Ca2 Pr2 Ga8 Ag4'
_cell_volume   332.58742559
_cell_formula_units_Z   2
loop_
 _symmetry_equiv_pos_site_id
 _symmetry_equiv_pos_as_xyz
  1  'x, y, z'
loop_
 _atom_site_type_symbol
 _atom_site_label
 _atom_site_symmetry_multiplicity
 _atom_site_fract_x
 _atom_site_fract_y
 _atom_site_fract_z
 _atom_site_occupancy
  Ca  Ca0  1  0.750000  0.722393  0.331293  1
  Ca  Ca1  1  0.250000  0.277607  0.668707  1
  Pr  Pr2  1  0.250000  0.782904  0.828355  1
  Pr  Pr3  1  0.750000  0.217096  0.171645  1
  Ga  Ga4  1  0.250000  0.697772  0.534011  1
  Ga  Ga5  1  0.750000  0.302228  0.465989  1
  Ga  Ga6  1  0.750000  0.791283  0.039041  1
  Ga  Ga7  1  0.250000  0.208717  0.960959  1
  Ga  Ga8  1  0.250000  0.918159  0.150796  1
  Ga  Ga9  1  0.750000  0.081841  0.849204  1
  Ga  Ga10  1  0.750000  0.573742  0.650385  1
  Ga  Ga11  1  0.250000  0.426258  0.349615  1
  Ag  Ag12  1  0.250000  0.541480  0.100228  1
  Ag  Ag13  1  0.750000  0.458520  0.899772  1
  Ag  Ag14  1  0.750000  0.960593  0.596743  1
  Ag  Ag15  1  0.250000  0.039407  0.403257  1
