# generated using pymatgen
data_ErZn2InPd2
_symmetry_space_group_name_H-M   'P 1'
_cell_length_a   5.21739529
_cell_length_b   5.30332699
_cell_length_c   5.30332513
_cell_angle_alpha   63.34666821
_cell_angle_beta   60.53455575
_cell_angle_gamma   60.53456057
_symmetry_Int_Tables_number   1
_chemical_formula_structural   ErZn2InPd2
_chemical_formula_sum   'Er1 Zn2 In1 Pd2'
_cell_volume   107.02248688
_cell_formula_units_Z   1
loop_
 _symmetry_equiv_pos_site_id
 _symmetry_equiv_pos_as_xyz
  1  'x, y, z'
loop_
 _atom_site_type_symbol
 _atom_site_label
 _atom_site_symmetry_multiplicity
 _atom_site_fract_x
 _atom_site_fract_y
 _atom_site_fract_z
 _atom_site_occupancy
  Er  Er0  1  0.994665  0.005335  0.005335  1
  Zn  Zn1  1  0.128098  0.620581  0.620581  1
  Zn  Zn2  1  0.630739  0.620581  0.620581  1
  In  In3  1  0.244086  0.255914  0.255914  1
  Pd  Pd4  1  0.626206  0.624555  0.123034  1
  Pd  Pd5  1  0.626206  0.123034  0.624555  1
