# generated using pymatgen
data_Pr6Nb3Al13Os7
_symmetry_space_group_name_H-M   'P 1'
_cell_length_a   9.16534949
_cell_length_b   9.16535070
_cell_length_c   9.16535044
_cell_angle_alpha   59.68569371
_cell_angle_beta   59.68568516
_cell_angle_gamma   59.68568372
_symmetry_Int_Tables_number   1
_chemical_formula_structural   Pr6Nb3Al13Os7
_chemical_formula_sum   'Pr6 Nb3 Al13 Os7'
_cell_volume   540.53039385
_cell_formula_units_Z   1
loop_
 _symmetry_equiv_pos_site_id
 _symmetry_equiv_pos_as_xyz
  1  'x, y, z'
loop_
 _atom_site_type_symbol
 _atom_site_label
 _atom_site_symmetry_multiplicity
 _atom_site_fract_x
 _atom_site_fract_y
 _atom_site_fract_z
 _atom_site_occupancy
  Pr  Pr0  1  0.707808  0.707808  0.284247  1
  Pr  Pr1  1  0.297224  0.705474  0.297224  1
  Pr  Pr2  1  0.705474  0.297224  0.297224  1
  Pr  Pr3  1  0.297224  0.297224  0.705474  1
  Pr  Pr4  1  0.707808  0.284247  0.707808  1
  Pr  Pr5  1  0.284247  0.707808  0.707808  1
  Nb  Nb6  1  0.877908  0.877908  0.360383  1
  Nb  Nb7  1  0.877908  0.360383  0.877908  1
  Nb  Nb8  1  0.360383  0.877908  0.877908  1
  Al  Al9  1  0.880864  0.880864  0.880864  1
  Al  Al10  1  0.121437  0.121437  0.642910  1
  Al  Al11  1  0.121437  0.642910  0.121437  1
  Al  Al12  1  0.642910  0.121437  0.121437  1
  Al  Al13  1  0.119210  0.119210  0.119210  1
  Al  Al14  1  0.672266  0.672266  0.984403  1
  Al  Al15  1  0.672266  0.984403  0.672266  1
  Al  Al16  1  0.984403  0.672266  0.672266  1
  Al  Al17  1  0.669653  0.669653  0.669653  1
  Al  Al18  1  0.327575  0.327575  0.019428  1
  Al  Al19  1  0.327575  0.019428  0.327575  1
  Al  Al20  1  0.019428  0.327575  0.327575  1
  Al  Al21  1  0.328360  0.328360  0.328360  1
  Os  Os22  1  0.002018  0.002018  0.002018  1
  Os  Os23  1  0.997734  0.997734  0.498355  1
  Os  Os24  1  0.502873  0.995041  0.502873  1
  Os  Os25  1  0.995041  0.502873  0.502873  1
  Os  Os26  1  0.502873  0.502873  0.995041  1
  Os  Os27  1  0.997734  0.498355  0.997734  1
  Os  Os28  1  0.498355  0.997734  0.997734  1
