# generated using pymatgen
data_Rb3GeS3
_symmetry_space_group_name_H-M   'P 1'
_cell_length_a   7.95736151
_cell_length_b   7.95736213
_cell_length_c   8.56783472
_cell_angle_alpha   75.32943479
_cell_angle_beta   75.32943228
_cell_angle_gamma   110.02146545
_symmetry_Int_Tables_number   1
_chemical_formula_structural   Rb3GeS3
_chemical_formula_sum   'Rb6 Ge2 S6'
_cell_volume   457.31494542
_cell_formula_units_Z   2
loop_
 _symmetry_equiv_pos_site_id
 _symmetry_equiv_pos_as_xyz
  1  'x, y, z'
loop_
 _atom_site_type_symbol
 _atom_site_label
 _atom_site_symmetry_multiplicity
 _atom_site_fract_x
 _atom_site_fract_y
 _atom_site_fract_z
 _atom_site_occupancy
  Rb  Rb0  1  0.781892  0.781892  0.686316  1
  Rb  Rb1  1  0.218108  0.218108  0.313684  1
  Rb  Rb2  1  0.500000  0.000000  0.000000  1
  Rb  Rb3  1  0.000000  0.500000  0.000000  1
  Rb  Rb4  1  0.331199  0.668801  0.500000  1
  Rb  Rb5  1  0.668801  0.331199  0.500000  1
  Ge  Ge6  1  0.115749  0.115749  0.847319  1
  Ge  Ge7  1  0.884251  0.884251  0.152681  1
  S  S8  1  0.045567  0.762749  0.294225  1
  S  S9  1  0.237251  0.954433  0.705775  1
  S  S10  1  0.358446  0.358446  0.858445  1
  S  S11  1  0.641554  0.641554  0.141555  1
  S  S12  1  0.954433  0.237251  0.705775  1
  S  S13  1  0.762749  0.045567  0.294225  1
