# generated using pymatgen
data_K4GaFe3O8
_symmetry_space_group_name_H-M   'P 1'
_cell_length_a   5.79164484
_cell_length_b   5.89642803
_cell_length_c   7.93016106
_cell_angle_alpha   90.07213155
_cell_angle_beta   90.03145129
_cell_angle_gamma   90.11387303
_symmetry_Int_Tables_number   1
_chemical_formula_structural   K4GaFe3O8
_chemical_formula_sum   'K4 Ga1 Fe3 O8'
_cell_volume   270.81434422
_cell_formula_units_Z   1
loop_
 _symmetry_equiv_pos_site_id
 _symmetry_equiv_pos_as_xyz
  1  'x, y, z'
loop_
 _atom_site_type_symbol
 _atom_site_label
 _atom_site_symmetry_multiplicity
 _atom_site_fract_x
 _atom_site_fract_y
 _atom_site_fract_z
 _atom_site_occupancy
  K  K0  1  0.507040  0.935969  0.375873  1
  K  K1  1  0.005467  0.064989  0.622045  1
  K  K2  1  0.007327  0.567820  0.880117  1
  K  K3  1  0.508734  0.432452  0.122113  1
  Ga  Ga4  1  0.020791  0.051359  0.126562  1
  Fe  Fe5  1  0.024070  0.551939  0.371816  1
  Fe  Fe6  1  0.524222  0.447935  0.626728  1
  Fe  Fe7  1  0.520304  0.948710  0.875620  1
  O  O8  1  0.965911  0.860063  0.310515  1
  O  O9  1  0.468330  0.136646  0.683032  1
  O  O10  1  0.467951  0.636917  0.817766  1
  O  O11  1  0.967700  0.355284  0.185339  1
  O  O12  1  0.341119  0.517575  0.433919  1
  O  O13  1  0.841331  0.487628  0.565402  1
  O  O14  1  0.834868  0.988102  0.939529  1
  O  O15  1  0.330836  0.016610  0.063622  1
