# generated using pymatgen
data_CsMgInBi2
_symmetry_space_group_name_H-M   'P 1'
_cell_length_a   4.82897747
_cell_length_b   4.82897695
_cell_length_c   8.69651773
_cell_angle_alpha   106.11932274
_cell_angle_beta   106.11932140
_cell_angle_gamma   89.99998908
_symmetry_Int_Tables_number   1
_chemical_formula_structural   CsMgInBi2
_chemical_formula_sum   'Cs1 Mg1 In1 Bi2'
_cell_volume   186.50829970
_cell_formula_units_Z   1
loop_
 _symmetry_equiv_pos_site_id
 _symmetry_equiv_pos_as_xyz
  1  'x, y, z'
loop_
 _atom_site_type_symbol
 _atom_site_label
 _atom_site_symmetry_multiplicity
 _atom_site_fract_x
 _atom_site_fract_y
 _atom_site_fract_z
 _atom_site_occupancy
  Cs  Cs0  1  0.000000  0.000000  0.000000  1
  Mg  Mg1  1  0.750003  0.250001  0.500001  1
  In  In2  1  0.250001  0.750003  0.500001  1
  Bi  Bi3  1  0.633761  0.633761  0.267522  1
  Bi  Bi4  1  0.366239  0.366239  0.732477  1
