# generated using pymatgen
data_Y3VFeCo7P6
_symmetry_space_group_name_H-M   'P 1'
_cell_length_a   3.70669300
_cell_length_b   10.59199900
_cell_length_c   12.18805300
_cell_angle_alpha   90.00000000
_cell_angle_beta   90.00000000
_cell_angle_gamma   90.00000000
_symmetry_Int_Tables_number   1
_chemical_formula_structural   Y3VFeCo7P6
_chemical_formula_sum   'Y6 V2 Fe2 Co14 P12'
_cell_volume   478.51866569
_cell_formula_units_Z   2
loop_
 _symmetry_equiv_pos_site_id
 _symmetry_equiv_pos_as_xyz
  1  'x, y, z'
loop_
 _atom_site_type_symbol
 _atom_site_label
 _atom_site_symmetry_multiplicity
 _atom_site_fract_x
 _atom_site_fract_y
 _atom_site_fract_z
 _atom_site_occupancy
  Y  Y0  1  0.000000  0.500000  0.523243  1
  Y  Y1  1  0.500000  0.000000  0.476757  1
  Y  Y2  1  0.500000  0.819073  0.203619  1
  Y  Y3  1  0.500000  0.180927  0.203619  1
  Y  Y4  1  0.000000  0.680927  0.796381  1
  Y  Y5  1  0.000000  0.319073  0.796381  1
  V  V6  1  0.500000  0.500000  0.152335  1
  V  V7  1  0.000000  0.000000  0.847665  1
  Fe  Fe8  1  0.000000  0.500000  0.987490  1
  Fe  Fe9  1  0.500000  0.000000  0.012510  1
  Co  Co10  1  0.500000  0.500000  0.700750  1
  Co  Co11  1  0.000000  0.000000  0.299250  1
  Co  Co12  1  0.500000  0.331229  0.993772  1
  Co  Co13  1  0.500000  0.668771  0.993772  1
  Co  Co14  1  0.000000  0.168771  0.006228  1
  Co  Co15  1  0.000000  0.831229  0.006228  1
  Co  Co16  1  0.500000  0.295818  0.431144  1
  Co  Co17  1  0.500000  0.704182  0.431144  1
  Co  Co18  1  0.000000  0.204182  0.568856  1
  Co  Co19  1  0.000000  0.795818  0.568856  1
  Co  Co20  1  0.500000  0.879168  0.707310  1
  Co  Co21  1  0.500000  0.120832  0.707310  1
  Co  Co22  1  0.000000  0.620832  0.292690  1
  Co  Co23  1  0.000000  0.379168  0.292690  1
  P  P24  1  0.500000  0.500000  0.884674  1
  P  P25  1  0.000000  0.000000  0.115326  1
  P  P26  1  0.500000  0.500000  0.346285  1
  P  P27  1  0.000000  0.000000  0.653715  1
  P  P28  1  0.500000  0.309774  0.616177  1
  P  P29  1  0.500000  0.690226  0.616177  1
  P  P30  1  0.000000  0.190226  0.383823  1
  P  P31  1  0.000000  0.809774  0.383823  1
  P  P32  1  0.500000  0.846712  0.893700  1
  P  P33  1  0.500000  0.153288  0.893700  1
  P  P34  1  0.000000  0.653288  0.106300  1
  P  P35  1  0.000000  0.346712  0.106300  1
