# generated using pymatgen
data_Y2Hf3Zr3F30
_symmetry_space_group_name_H-M   'P 1'
_cell_length_a   8.19872856
_cell_length_b   8.19432050
_cell_length_c   8.17828700
_cell_angle_alpha   79.79354894
_cell_angle_beta   79.73893861
_cell_angle_gamma   100.10640811
_symmetry_Int_Tables_number   1
_chemical_formula_structural   Y2Hf3Zr3F30
_chemical_formula_sum   'Y2 Hf3 Zr3 F30'
_cell_volume   519.79657864
_cell_formula_units_Z   1
loop_
 _symmetry_equiv_pos_site_id
 _symmetry_equiv_pos_as_xyz
  1  'x, y, z'
loop_
 _atom_site_type_symbol
 _atom_site_label
 _atom_site_symmetry_multiplicity
 _atom_site_fract_x
 _atom_site_fract_y
 _atom_site_fract_z
 _atom_site_occupancy
  Y  Y0  1  0.177129  0.821480  0.251228  1
  Y  Y1  1  0.821771  0.178253  0.749520  1
  Hf  Hf2  1  0.751225  0.248593  0.249690  1
  Hf  Hf3  1  0.248858  0.751285  0.750137  1
  Hf  Hf4  1  0.746894  0.677540  0.674335  1
  Zr  Zr5  1  0.322747  0.253314  0.825088  1
  Zr  Zr6  1  0.252494  0.322122  0.325214  1
  Zr  Zr7  1  0.677898  0.747478  0.174504  1
  F  F8  1  0.316364  0.350931  0.053429  1
  F  F9  1  0.935617  0.812189  0.151347  1
  F  F10  1  0.841419  0.463446  0.684342  1
  F  F11  1  0.461528  0.844049  0.183719  1
  F  F12  1  0.809869  0.931920  0.653435  1
  F  F13  1  0.350387  0.316199  0.553003  1
  F  F14  1  0.686301  0.651652  0.942171  1
  F  F15  1  0.064740  0.188003  0.848482  1
  F  F16  1  0.155345  0.537984  0.317025  1
  F  F17  1  0.538537  0.156107  0.816510  1
  F  F18  1  0.187306  0.064210  0.349490  1
  F  F19  1  0.652121  0.684490  0.448811  1
  F  F20  1  0.774305  0.280152  0.998898  1
  F  F21  1  0.003754  0.275496  0.220650  1
  F  F22  1  0.774773  0.503486  0.223412  1
  F  F23  1  0.503834  0.772849  0.723388  1
  F  F24  1  0.276195  0.003966  0.720516  1
  F  F25  1  0.280551  0.774050  0.499048  1
  F  F26  1  0.225640  0.719639  0.001196  1
  F  F27  1  0.996566  0.724037  0.777541  1
  F  F28  1  0.225210  0.496419  0.775929  1
  F  F29  1  0.496610  0.224916  0.275816  1
  F  F30  1  0.724258  0.995929  0.279349  1
  F  F31  1  0.719704  0.225667  0.500663  1
  F  F32  1  0.467403  0.533657  0.249661  1
  F  F33  1  0.747361  0.954131  0.971856  1
  F  F34  1  0.045676  0.252537  0.528709  1
  F  F35  1  0.252771  0.046454  0.028806  1
  F  F36  1  0.952129  0.746685  0.473859  1
  F  F37  1  0.534710  0.468688  0.749223  1
