# generated using pymatgen
data_Pr8Co3Si12Ag
_symmetry_space_group_name_H-M   'P 1'
_cell_length_a   8.19657200
_cell_length_b   8.19656990
_cell_length_c   8.62557000
_cell_angle_alpha   89.99998637
_cell_angle_beta   90.00002028
_cell_angle_gamma   120.00003160
_symmetry_Int_Tables_number   1
_chemical_formula_structural   Pr8Co3Si12Ag
_chemical_formula_sum   'Pr8 Co3 Si12 Ag1'
_cell_volume   501.86013906
_cell_formula_units_Z   1
loop_
 _symmetry_equiv_pos_site_id
 _symmetry_equiv_pos_as_xyz
  1  'x, y, z'
loop_
 _atom_site_type_symbol
 _atom_site_label
 _atom_site_symmetry_multiplicity
 _atom_site_fract_x
 _atom_site_fract_y
 _atom_site_fract_z
 _atom_site_occupancy
  Pr  Pr0  1  0.495806  0.504195  0.755745  1
  Pr  Pr1  1  0.496827  0.503174  0.244948  1
  Pr  Pr2  1  0.008389  0.504195  0.755745  1
  Pr  Pr3  1  0.006347  0.503174  0.244948  1
  Pr  Pr4  1  0.495806  0.991612  0.755746  1
  Pr  Pr5  1  0.496826  0.993652  0.244949  1
  Pr  Pr6  1  0.000000  0.000000  0.751588  1
  Pr  Pr7  1  0.000000  0.000000  0.247476  1
  Co  Co8  1  0.666667  0.333333  0.993598  1
  Co  Co9  1  0.333333  0.666667  0.005765  1
  Co  Co10  1  0.333333  0.666666  0.496435  1
  Si  Si11  1  0.827598  0.172402  0.000872  1
  Si  Si12  1  0.171140  0.828860  0.999269  1
  Si  Si13  1  0.344804  0.172402  0.000872  1
  Si  Si14  1  0.173522  0.826478  0.501201  1
  Si  Si15  1  0.657719  0.828860  0.999269  1
  Si  Si16  1  0.840334  0.159666  0.498199  1
  Si  Si17  1  0.827598  0.655195  0.000871  1
  Si  Si18  1  0.652955  0.826478  0.501201  1
  Si  Si19  1  0.171140  0.342281  0.999269  1
  Si  Si20  1  0.319332  0.159666  0.498199  1
  Si  Si21  1  0.173522  0.347044  0.501200  1
  Si  Si22  1  0.840334  0.680668  0.498199  1
  Ag  Ag23  1  0.666667  0.333333  0.504440  1
