# generated using pymatgen
data_La2Th(GaPt)4
_symmetry_space_group_name_H-M   'P 1'
_cell_length_a   8.41014344
_cell_length_b   8.41014407
_cell_length_c   8.41014300
_cell_angle_alpha   150.83587487
_cell_angle_beta   128.25360965
_cell_angle_gamma   60.50347332
_symmetry_Int_Tables_number   1
_chemical_formula_structural   La2Th(GaPt)4
_chemical_formula_sum   'La2 Th1 Ga4 Pt4'
_cell_volume   225.81722391
_cell_formula_units_Z   1
loop_
 _symmetry_equiv_pos_site_id
 _symmetry_equiv_pos_as_xyz
  1  'x, y, z'
loop_
 _atom_site_type_symbol
 _atom_site_label
 _atom_site_symmetry_multiplicity
 _atom_site_fract_x
 _atom_site_fract_y
 _atom_site_fract_z
 _atom_site_occupancy
  La  La0  1  0.874539  0.874539  0.000000  1
  La  La1  1  0.125461  0.125461  0.000000  1
  Th  Th2  1  0.500000  0.000000  0.500000  1
  Ga  Ga3  1  0.480071  0.674499  0.805573  1
  Ga  Ga4  1  0.868925  0.674499  0.194427  1
  Ga  Ga5  1  0.131075  0.325501  0.805573  1
  Ga  Ga6  1  0.519929  0.325501  0.194427  1
  Pt  Pt7  1  0.286777  0.786777  0.500000  1
  Pt  Pt8  1  0.713223  0.213223  0.500000  1
  Pt  Pt9  1  0.787304  0.500000  0.287304  1
  Pt  Pt10  1  0.212696  0.500000  0.712696  1
