# generated using pymatgen
data_Dy3Y2Er(Al3Os)8
_symmetry_space_group_name_H-M   'P 1'
_cell_length_a   8.82954245
_cell_length_b   8.83079538
_cell_length_c   9.57316300
_cell_angle_alpha   90.00000000
_cell_angle_beta   90.00000000
_cell_angle_gamma   120.03204014
_symmetry_Int_Tables_number   1
_chemical_formula_structural   Dy3Y2Er(Al3Os)8
_chemical_formula_sum   'Dy3 Y2 Er1 Al24 Os8'
_cell_volume   646.22506689
_cell_formula_units_Z   1
loop_
 _symmetry_equiv_pos_site_id
 _symmetry_equiv_pos_as_xyz
  1  'x, y, z'
loop_
 _atom_site_type_symbol
 _atom_site_label
 _atom_site_symmetry_multiplicity
 _atom_site_fract_x
 _atom_site_fract_y
 _atom_site_fract_z
 _atom_site_occupancy
  Dy  Dy0  1  0.612648  0.806430  0.250000  1
  Dy  Dy1  1  0.386886  0.193279  0.750000  1
  Dy  Dy2  1  0.193850  0.806430  0.250000  1
  Y  Y3  1  0.193071  0.386090  0.250000  1
  Y  Y4  1  0.807195  0.614352  0.750000  1
  Er  Er5  1  0.806035  0.193644  0.750000  1
  Al  Al6  1  0.333295  0.666477  0.017040  1
  Al  Al7  1  0.666822  0.333385  0.983053  1
  Al  Al8  1  0.666822  0.333385  0.516947  1
  Al  Al9  1  0.333295  0.666477  0.482960  1
  Al  Al10  1  0.162593  0.325571  0.576010  1
  Al  Al11  1  0.837154  0.674268  0.424088  1
  Al  Al12  1  0.674252  0.837249  0.575191  1
  Al  Al13  1  0.837154  0.674268  0.075912  1
  Al  Al14  1  0.325917  0.163015  0.424904  1
  Al  Al15  1  0.162593  0.325571  0.923990  1
  Al  Al16  1  0.162816  0.837029  0.575202  1
  Al  Al17  1  0.325917  0.163015  0.075096  1
  Al  Al18  1  0.837163  0.162987  0.425134  1
  Al  Al19  1  0.674252  0.837249  0.924809  1
  Al  Al20  1  0.837163  0.162987  0.074866  1
  Al  Al21  1  0.162816  0.837029  0.924798  1
  Al  Al22  1  0.560958  0.121835  0.250000  1
  Al  Al23  1  0.439558  0.878632  0.750000  1
  Al  Al24  1  0.878286  0.439250  0.250000  1
  Al  Al25  1  0.121300  0.560288  0.750000  1
  Al  Al26  1  0.560984  0.439306  0.250000  1
  Al  Al27  1  0.439016  0.560686  0.750000  1
  Al  Al28  1  0.999287  0.998537  0.250000  1
  Al  Al29  1  0.000419  0.001735  0.750000  1
  Os  Os30  1  0.500326  0.000243  0.999723  1
  Os  Os31  1  0.999751  0.499663  0.999709  1
  Os  Os32  1  0.500326  0.000243  0.500277  1
  Os  Os33  1  0.500135  0.499882  0.999848  1
  Os  Os34  1  0.999751  0.499663  0.500291  1
  Os  Os35  1  0.500135  0.499882  0.500152  1
  Os  Os36  1  0.000027  0.999983  0.999878  1
  Os  Os37  1  0.000027  0.999983  0.500122  1
