# generated using pymatgen
data_BaPuNiS3
_symmetry_space_group_name_H-M   'P 1'
_cell_length_a   7.01300159
_cell_length_b   7.01300193
_cell_length_c   10.21429900
_cell_angle_alpha   90.00000000
_cell_angle_beta   90.00000000
_cell_angle_gamma   146.83413479
_symmetry_Int_Tables_number   1
_chemical_formula_structural   BaPuNiS3
_chemical_formula_sum   'Ba2 Pu2 Ni2 S6'
_cell_volume   274.82427085
_cell_formula_units_Z   2
loop_
 _symmetry_equiv_pos_site_id
 _symmetry_equiv_pos_as_xyz
  1  'x, y, z'
loop_
 _atom_site_type_symbol
 _atom_site_label
 _atom_site_symmetry_multiplicity
 _atom_site_fract_x
 _atom_site_fract_y
 _atom_site_fract_z
 _atom_site_occupancy
  Ba  Ba0  1  0.241664  0.758337  0.250000  1
  Ba  Ba1  1  0.758337  0.241664  0.750000  1
  Pu  Pu2  1  0.500001  0.500001  0.000000  1
  Pu  Pu3  1  0.500001  0.500001  0.500000  1
  Ni  Ni4  1  0.968720  0.031282  0.250000  1
  Ni  Ni5  1  0.031282  0.968720  0.750000  1
  S  S6  1  0.870085  0.129917  0.067701  1
  S  S7  1  0.558905  0.441097  0.250000  1
  S  S8  1  0.870085  0.129917  0.432299  1
  S  S9  1  0.129917  0.870085  0.567701  1
  S  S10  1  0.441097  0.558905  0.750000  1
  S  S11  1  0.129917  0.870085  0.932299  1
