# generated using pymatgen
data_Tm3SnRh6C
_symmetry_space_group_name_H-M   'P 1'
_cell_length_a   5.75892700
_cell_length_b   5.75892668
_cell_length_c   13.71742900
_cell_angle_alpha   90.00000000
_cell_angle_beta   90.00000000
_cell_angle_gamma   119.99999609
_symmetry_Int_Tables_number   1
_chemical_formula_structural   Tm3SnRh6C
_chemical_formula_sum   'Tm6 Sn2 Rh12 C2'
_cell_volume   393.99117358
_cell_formula_units_Z   2
loop_
 _symmetry_equiv_pos_site_id
 _symmetry_equiv_pos_as_xyz
  1  'x, y, z'
loop_
 _atom_site_type_symbol
 _atom_site_label
 _atom_site_symmetry_multiplicity
 _atom_site_fract_x
 _atom_site_fract_y
 _atom_site_fract_z
 _atom_site_occupancy
  Tm  Tm0  1  0.000000  0.000000  0.750000  1
  Tm  Tm1  1  0.000000  0.000000  0.250000  1
  Tm  Tm2  1  0.333333  0.666667  0.410626  1
  Tm  Tm3  1  0.666667  0.333333  0.910626  1
  Tm  Tm4  1  0.666667  0.333333  0.589374  1
  Tm  Tm5  1  0.333333  0.666667  0.089374  1
  Sn  Sn6  1  0.333333  0.666667  0.750000  1
  Sn  Sn7  1  0.666667  0.333333  0.250000  1
  Rh  Rh8  1  0.340022  0.170012  0.414161  1
  Rh  Rh9  1  0.829988  0.170012  0.414161  1
  Rh  Rh10  1  0.829988  0.659978  0.414161  1
  Rh  Rh11  1  0.170012  0.340022  0.914161  1
  Rh  Rh12  1  0.659978  0.829988  0.585839  1
  Rh  Rh13  1  0.659978  0.829988  0.914161  1
  Rh  Rh14  1  0.340022  0.170012  0.085839  1
  Rh  Rh15  1  0.170012  0.340022  0.585839  1
  Rh  Rh16  1  0.170012  0.829988  0.585839  1
  Rh  Rh17  1  0.829988  0.170012  0.085839  1
  Rh  Rh18  1  0.829988  0.659978  0.085839  1
  Rh  Rh19  1  0.170012  0.829988  0.914161  1
  C  C20  1  0.000000  0.000000  0.500000  1
  C  C21  1  0.000000  0.000000  0.000000  1
