# generated using pymatgen
data_Hf3ScH15
_symmetry_space_group_name_H-M   'P 1'
_cell_length_a   6.92877974
_cell_length_b   6.92696679
_cell_length_c   6.93531784
_cell_angle_alpha   109.46281820
_cell_angle_beta   109.47342330
_cell_angle_gamma   109.43389649
_symmetry_Int_Tables_number   1
_chemical_formula_structural   Hf3ScH15
_chemical_formula_sum   'Hf6 Sc2 H30'
_cell_volume   256.37599403
_cell_formula_units_Z   2
loop_
 _symmetry_equiv_pos_site_id
 _symmetry_equiv_pos_as_xyz
  1  'x, y, z'
loop_
 _atom_site_type_symbol
 _atom_site_label
 _atom_site_symmetry_multiplicity
 _atom_site_fract_x
 _atom_site_fract_y
 _atom_site_fract_z
 _atom_site_occupancy
  Hf  Hf0  1  0.997535  0.099569  0.498294  1
  Hf  Hf1  1  0.103219  0.502449  0.001596  1
  Hf  Hf2  1  0.999241  0.601275  0.501706  1
  Hf  Hf3  1  0.601623  0.500853  0.998404  1
  Hf  Hf4  1  0.501756  0.998669  0.599411  1
  Hf  Hf5  1  0.402346  0.399259  0.400589  1
  Sc  Sc6  1  0.903821  0.903943  0.903357  1
  Sc  Sc7  1  0.500464  0.000587  0.096643  1
  H  H8  1  0.658340  0.970349  0.389371  1
  H  H9  1  0.226125  0.308589  0.844343  1
  H  H10  1  0.189995  0.419874  0.534849  1
  H  H11  1  0.088449  0.277588  0.117917  1
  H  H12  1  0.274580  0.118747  0.092073  1
  H  H13  1  0.119266  0.090351  0.278311  1
  H  H14  1  0.470531  0.159671  0.882083  1
  H  H15  1  0.728664  0.344812  0.811006  1
  H  H16  1  0.624365  0.377032  0.250849  1
  H  H17  1  0.245985  0.624524  0.371763  1
  H  H18  1  0.754283  0.874691  0.131346  1
  H  H19  1  0.122937  0.743345  0.868654  1
  H  H20  1  0.374222  0.252761  0.628237  1
  H  H21  1  0.873516  0.126184  0.749151  1
  H  H22  1  0.768969  0.580978  0.610629  1
  H  H23  1  0.310851  0.841178  0.228617  1
  H  H24  1  0.385038  0.652134  0.969169  1
  H  H25  1  0.967411  0.383380  0.655512  1
  H  H26  1  0.530381  0.188714  0.421404  1
  H  H27  1  0.417658  0.533806  0.188994  1
  H  H28  1  0.847392  0.230862  0.315724  1
  H  H29  1  0.915868  0.682965  0.030831  1
  H  H30  1  0.811899  0.727868  0.344488  1
  H  H31  1  0.155146  0.885025  0.465151  1
  H  H32  1  0.682508  0.026675  0.907927  1
  H  H33  1  0.340957  0.812040  0.721689  1
  H  H34  1  0.881782  0.464246  0.155657  1
  H  H35  1  0.608978  0.767311  0.578596  1
  H  H36  1  0.582234  0.612562  0.771383  1
  H  H37  1  0.031668  0.915137  0.684276  1
