# generated using pymatgen
data_Ho2Ti2NbSi4
_symmetry_space_group_name_H-M   'P 1'
_cell_length_a   7.04573800
_cell_length_b   7.04573800
_cell_length_c   12.96057500
_cell_angle_alpha   90.00000000
_cell_angle_beta   90.00000000
_cell_angle_gamma   90.00000000
_symmetry_Int_Tables_number   1
_chemical_formula_structural   Ho2Ti2NbSi4
_chemical_formula_sum   'Ho8 Ti8 Nb4 Si16'
_cell_volume   643.39435898
_cell_formula_units_Z   4
loop_
 _symmetry_equiv_pos_site_id
 _symmetry_equiv_pos_as_xyz
  1  'x, y, z'
loop_
 _atom_site_type_symbol
 _atom_site_label
 _atom_site_symmetry_multiplicity
 _atom_site_fract_x
 _atom_site_fract_y
 _atom_site_fract_z
 _atom_site_occupancy
  Ho  Ho0  1  0.340663  0.001534  0.467262  1
  Ho  Ho1  1  0.498466  0.840663  0.717262  1
  Ho  Ho2  1  0.501534  0.159337  0.217262  1
  Ho  Ho3  1  0.840663  0.498466  0.282738  1
  Ho  Ho4  1  0.159337  0.501534  0.782738  1
  Ho  Ho5  1  0.659337  0.998466  0.967262  1
  Ho  Ho6  1  0.001534  0.340663  0.532738  1
  Ho  Ho7  1  0.998466  0.659337  0.032738  1
  Ti  Ti8  1  0.152871  0.008956  0.875464  1
  Ti  Ti9  1  0.491044  0.652871  0.125464  1
  Ti  Ti10  1  0.508956  0.347129  0.625464  1
  Ti  Ti11  1  0.652871  0.491044  0.874536  1
  Ti  Ti12  1  0.347129  0.508956  0.374536  1
  Ti  Ti13  1  0.847129  0.991044  0.375464  1
  Ti  Ti14  1  0.008956  0.152871  0.124536  1
  Ti  Ti15  1  0.991044  0.847129  0.624536  1
  Nb  Nb16  1  0.326456  0.326456  0.000000  1
  Nb  Nb17  1  0.173544  0.826456  0.250000  1
  Nb  Nb18  1  0.826456  0.173544  0.750000  1
  Nb  Nb19  1  0.673544  0.673544  0.500000  1
  Si  Si20  1  0.203038  0.129811  0.683949  1
  Si  Si21  1  0.370189  0.703038  0.933949  1
  Si  Si22  1  0.629811  0.296962  0.433949  1
  Si  Si23  1  0.703038  0.370189  0.066051  1
  Si  Si24  1  0.296962  0.629811  0.566051  1
  Si  Si25  1  0.796962  0.870189  0.183949  1
  Si  Si26  1  0.129811  0.203038  0.316051  1
  Si  Si27  1  0.870189  0.796962  0.816051  1
  Si  Si28  1  0.292378  0.953027  0.064085  1
  Si  Si29  1  0.546973  0.792378  0.314085  1
  Si  Si30  1  0.453027  0.207622  0.814085  1
  Si  Si31  1  0.792378  0.546973  0.685915  1
  Si  Si32  1  0.207622  0.453027  0.185915  1
  Si  Si33  1  0.707622  0.046973  0.564085  1
  Si  Si34  1  0.953027  0.292378  0.935915  1
  Si  Si35  1  0.046973  0.707622  0.435915  1
