# generated using pymatgen
data_Pr10SnBi4Pb
_symmetry_space_group_name_H-M   'P 1'
_cell_length_a   9.57712197
_cell_length_b   9.55564572
_cell_length_c   6.68118600
_cell_angle_alpha   90.00000000
_cell_angle_beta   90.00000000
_cell_angle_gamma   119.99155011
_symmetry_Int_Tables_number   1
_chemical_formula_structural   Pr10SnBi4Pb
_chemical_formula_sum   'Pr10 Sn1 Bi4 Pb1'
_cell_volume   529.56128158
_cell_formula_units_Z   1
loop_
 _symmetry_equiv_pos_site_id
 _symmetry_equiv_pos_as_xyz
  1  'x, y, z'
loop_
 _atom_site_type_symbol
 _atom_site_label
 _atom_site_symmetry_multiplicity
 _atom_site_fract_x
 _atom_site_fract_y
 _atom_site_fract_z
 _atom_site_occupancy
  Pr  Pr0  1  0.664607  0.330475  0.998450  1
  Pr  Pr1  1  0.336101  0.668342  0.998411  1
  Pr  Pr2  1  0.336101  0.668342  0.501589  1
  Pr  Pr3  1  0.664607  0.330475  0.501550  1
  Pr  Pr4  1  0.751463  0.756636  0.750000  1
  Pr  Pr5  1  0.249967  0.003356  0.750000  1
  Pr  Pr6  1  0.998327  0.241584  0.750000  1
  Pr  Pr7  1  0.245440  0.245457  0.250000  1
  Pr  Pr8  1  0.753653  0.999764  0.250000  1
  Pr  Pr9  1  0.999720  0.753504  0.250000  1
  Sn  Sn10  1  0.610455  0.000857  0.750000  1
  Bi  Bi11  1  0.999814  0.611739  0.750000  1
  Bi  Bi12  1  0.611690  0.610658  0.250000  1
  Bi  Bi13  1  0.388204  0.999164  0.250000  1
  Bi  Bi14  1  0.000205  0.389079  0.250000  1
  Pb  Pb15  1  0.389648  0.390565  0.750000  1
