# generated using pymatgen
data_Er2Fe3Co3(P3Ru2)2
_symmetry_space_group_name_H-M   'P 1'
_cell_length_a   3.75117500
_cell_length_b   10.44988800
_cell_length_c   11.90958200
_cell_angle_alpha   90.00000000
_cell_angle_beta   90.00000000
_cell_angle_gamma   90.00000000
_symmetry_Int_Tables_number   1
_chemical_formula_structural   Er2Fe3Co3(P3Ru2)2
_chemical_formula_sum   'Er4 Fe6 Co6 P12 Ru8'
_cell_volume   466.84797581
_cell_formula_units_Z   2
loop_
 _symmetry_equiv_pos_site_id
 _symmetry_equiv_pos_as_xyz
  1  'x, y, z'
loop_
 _atom_site_type_symbol
 _atom_site_label
 _atom_site_symmetry_multiplicity
 _atom_site_fract_x
 _atom_site_fract_y
 _atom_site_fract_z
 _atom_site_occupancy
  Er  Er0  1  0.250000  0.581065  0.709296  1
  Er  Er1  1  0.250000  0.918935  0.209296  1
  Er  Er2  1  0.750000  0.416597  0.291322  1
  Er  Er3  1  0.750000  0.083403  0.791322  1
  Fe  Fe4  1  0.750000  0.120342  0.300185  1
  Fe  Fe5  1  0.750000  0.379658  0.800185  1
  Fe  Fe6  1  0.250000  0.462511  0.935815  1
  Fe  Fe7  1  0.250000  0.037489  0.435815  1
  Fe  Fe8  1  0.750000  0.539073  0.067186  1
  Fe  Fe9  1  0.750000  0.960927  0.567186  1
  Co  Co10  1  0.250000  0.227449  0.175195  1
  Co  Co11  1  0.250000  0.272551  0.675195  1
  Co  Co12  1  0.750000  0.772370  0.822852  1
  Co  Co13  1  0.750000  0.727630  0.322852  1
  Co  Co14  1  0.250000  0.880098  0.700877  1
  Co  Co15  1  0.250000  0.619902  0.200877  1
  P  P16  1  0.250000  0.426336  0.114044  1
  P  P17  1  0.250000  0.073664  0.614044  1
  P  P18  1  0.750000  0.571357  0.886096  1
  P  P19  1  0.750000  0.928643  0.386096  1
  P  P20  1  0.250000  0.273897  0.860599  1
  P  P21  1  0.250000  0.226103  0.360599  1
  P  P22  1  0.750000  0.729493  0.136979  1
  P  P23  1  0.750000  0.770507  0.636979  1
  P  P24  1  0.250000  0.601291  0.386908  1
  P  P25  1  0.250000  0.898709  0.886908  1
  P  P26  1  0.750000  0.398177  0.614085  1
  P  P27  1  0.750000  0.101823  0.114085  1
  Ru  Ru28  1  0.250000  0.703816  0.983888  1
  Ru  Ru29  1  0.250000  0.796184  0.483888  1
  Ru  Ru30  1  0.750000  0.296896  0.016741  1
  Ru  Ru31  1  0.750000  0.203104  0.516741  1
  Ru  Ru32  1  0.250000  0.401549  0.484376  1
  Ru  Ru33  1  0.250000  0.098452  0.984376  1
  Ru  Ru34  1  0.750000  0.597028  0.513556  1
  Ru  Ru35  1  0.750000  0.902972  0.013556  1
