# generated using pymatgen
data_Ca2Dy2HoAgPb3
_symmetry_space_group_name_H-M   'P 1'
_cell_length_a   9.32565200
_cell_length_b   9.32565192
_cell_length_c   6.82948700
_cell_angle_alpha   90.00000000
_cell_angle_beta   90.00000000
_cell_angle_gamma   120.00309608
_symmetry_Int_Tables_number   1
_chemical_formula_structural   Ca2Dy2HoAgPb3
_chemical_formula_sum   'Ca4 Dy4 Ho2 Ag2 Pb6'
_cell_volume   514.35571644
_cell_formula_units_Z   2
loop_
 _symmetry_equiv_pos_site_id
 _symmetry_equiv_pos_as_xyz
  1  'x, y, z'
loop_
 _atom_site_type_symbol
 _atom_site_label
 _atom_site_symmetry_multiplicity
 _atom_site_fract_x
 _atom_site_fract_y
 _atom_site_fract_z
 _atom_site_occupancy
  Ca  Ca0  1  0.666784  0.333376  0.500085  1
  Ca  Ca1  1  0.333376  0.666784  0.500085  1
  Ca  Ca2  1  0.333376  0.666784  0.999915  1
  Ca  Ca3  1  0.666784  0.333376  0.999915  1
  Dy  Dy4  1  0.729491  0.729491  0.250000  1
  Dy  Dy5  1  0.270380  0.999990  0.250000  1
  Dy  Dy6  1  0.999990  0.270380  0.250000  1
  Dy  Dy7  1  0.270549  0.270549  0.750000  1
  Ho  Ho8  1  0.729691  0.000014  0.750000  1
  Ho  Ho9  1  0.000014  0.729691  0.750000  1
  Ag  Ag10  1  0.999684  0.999684  0.500475  1
  Ag  Ag11  1  0.999684  0.999684  0.999525  1
  Pb  Pb12  1  0.379316  0.379316  0.250000  1
  Pb  Pb13  1  0.620718  0.000000  0.250000  1
  Pb  Pb14  1  0.000000  0.620718  0.250000  1
  Pb  Pb15  1  0.621131  0.621131  0.750000  1
  Pb  Pb16  1  0.379330  0.999701  0.750000  1
  Pb  Pb17  1  0.999701  0.379330  0.750000  1
