# generated using pymatgen
data_Pr5Mn3(P3Ir4)4
_symmetry_space_group_name_H-M   'P 1'
_cell_length_a   12.68033800
_cell_length_b   12.68033728
_cell_length_c   4.01585400
_cell_angle_alpha   90.00000000
_cell_angle_beta   90.00000000
_cell_angle_gamma   120.00000189
_symmetry_Int_Tables_number   1
_chemical_formula_structural   Pr5Mn3(P3Ir4)4
_chemical_formula_sum   'Pr5 Mn3 P12 Ir16'
_cell_volume   559.20387719
_cell_formula_units_Z   1
loop_
 _symmetry_equiv_pos_site_id
 _symmetry_equiv_pos_as_xyz
  1  'x, y, z'
loop_
 _atom_site_type_symbol
 _atom_site_label
 _atom_site_symmetry_multiplicity
 _atom_site_fract_x
 _atom_site_fract_y
 _atom_site_fract_z
 _atom_site_occupancy
  Pr  Pr0  1  0.666667  0.333333  0.000000  1
  Pr  Pr1  1  0.333333  0.666667  0.000000  1
  Pr  Pr2  1  0.816668  0.816668  0.500000  1
  Pr  Pr3  1  0.183332  0.000000  0.500000  1
  Pr  Pr4  1  0.000000  0.183332  0.500000  1
  Mn  Mn5  1  0.291499  0.291499  0.500000  1
  Mn  Mn6  1  0.708501  0.000000  0.500000  1
  Mn  Mn7  1  0.000000  0.708501  0.500000  1
  P  P8  1  0.689615  0.164205  0.500000  1
  P  P9  1  0.835795  0.525410  0.500000  1
  P  P10  1  0.474590  0.310385  0.500000  1
  P  P11  1  0.164205  0.689615  0.500000  1
  P  P12  1  0.525410  0.835795  0.500000  1
  P  P13  1  0.310385  0.474590  0.500000  1
  P  P14  1  0.637298  0.637298  0.000000  1
  P  P15  1  0.362702  0.000000  0.000000  1
  P  P16  1  0.000000  0.362702  0.000000  1
  P  P17  1  0.185486  0.185486  0.000000  1
  P  P18  1  0.814514  0.000000  0.000000  1
  P  P19  1  0.000000  0.814514  0.000000  1
  Ir  Ir20  1  0.801662  0.179491  0.000000  1
  Ir  Ir21  1  0.820509  0.622172  0.000000  1
  Ir  Ir22  1  0.377828  0.198338  0.000000  1
  Ir  Ir23  1  0.179491  0.801662  0.000000  1
  Ir  Ir24  1  0.622172  0.820509  0.000000  1
  Ir  Ir25  1  0.198338  0.377828  0.000000  1
  Ir  Ir26  1  0.454465  0.454465  0.000000  1
  Ir  Ir27  1  0.545535  0.000000  0.000000  1
  Ir  Ir28  1  0.000000  0.545535  0.000000  1
  Ir  Ir29  1  0.871746  0.362635  0.500000  1
  Ir  Ir30  1  0.637365  0.509111  0.500000  1
  Ir  Ir31  1  0.490889  0.128254  0.500000  1
  Ir  Ir32  1  0.362635  0.871746  0.500000  1
  Ir  Ir33  1  0.509111  0.637365  0.500000  1
  Ir  Ir34  1  0.128254  0.490889  0.500000  1
  Ir  Ir35  1  0.000000  0.000000  0.000000  1
