# generated using pymatgen
data_ScTa2(GaIr)3
_symmetry_space_group_name_H-M   'P 1'
_cell_length_a   7.48538800
_cell_length_b   7.47790751
_cell_length_c   2.98825000
_cell_angle_alpha   90.00000000
_cell_angle_beta   90.00000000
_cell_angle_gamma   120.03309667
_symmetry_Int_Tables_number   1
_chemical_formula_structural   ScTa2(GaIr)3
_chemical_formula_sum   'Sc1 Ta2 Ga3 Ir3'
_cell_volume   144.80949209
_cell_formula_units_Z   1
loop_
 _symmetry_equiv_pos_site_id
 _symmetry_equiv_pos_as_xyz
  1  'x, y, z'
loop_
 _atom_site_type_symbol
 _atom_site_label
 _atom_site_symmetry_multiplicity
 _atom_site_fract_x
 _atom_site_fract_y
 _atom_site_fract_z
 _atom_site_occupancy
  Sc  Sc0  1  0.376091  0.000000  0.500001  1
  Ta  Ta1  1  0.000074  0.369806  0.500001  1
  Ta  Ta2  1  0.630267  0.630195  0.500001  1
  Ga  Ga3  1  0.703876  0.000000  0.000000  1
  Ga  Ga4  1  0.291707  0.289197  0.000000  1
  Ga  Ga5  1  0.002510  0.710804  0.000000  1
  Ir  Ir6  1  0.672594  0.339756  0.000000  1
  Ir  Ir7  1  0.332839  0.660245  0.000000  1
  Ir  Ir8  1  0.990044  0.000000  0.500001  1
