# generated using pymatgen
data_Gd9Ho3(CCl3)4
_symmetry_space_group_name_H-M   'P 1'
_cell_length_a   9.30939046
_cell_length_b   9.29483222
_cell_length_c   9.33242656
_cell_angle_alpha   109.49800761
_cell_angle_beta   109.52781934
_cell_angle_gamma   109.29437121
_symmetry_Int_Tables_number   1
_chemical_formula_structural   Gd9Ho3(CCl3)4
_chemical_formula_sum   'Gd9 Ho3 C4 Cl12'
_cell_volume   622.34875539
_cell_formula_units_Z   1
loop_
 _symmetry_equiv_pos_site_id
 _symmetry_equiv_pos_as_xyz
  1  'x, y, z'
loop_
 _atom_site_type_symbol
 _atom_site_label
 _atom_site_symmetry_multiplicity
 _atom_site_fract_x
 _atom_site_fract_y
 _atom_site_fract_z
 _atom_site_occupancy
  Gd  Gd0  1  0.966083  0.982572  0.232853  1
  Gd  Gd1  1  0.766127  0.249722  0.232183  1
  Gd  Gd2  1  0.519213  0.535392  0.266621  1
  Gd  Gd3  1  0.248453  0.731766  0.266898  1
  Gd  Gd4  1  0.982370  0.732867  0.465072  1
  Gd  Gd5  1  0.732441  0.965182  0.482305  1
  Gd  Gd6  1  0.247962  0.516068  0.480354  1
  Gd  Gd7  1  0.517478  0.982790  0.749768  1
  Gd  Gd8  1  0.731868  0.766690  0.747525  1
  Ho  Ho9  1  0.540168  0.769927  0.020109  1
  Ho  Ho10  1  0.978558  0.248654  0.018774  1
  Ho  Ho11  1  0.770347  0.519403  0.040342  1
  C  C12  1  0.749602  0.998802  0.999762  1
  C  C13  1  0.748857  0.749869  0.246082  1
  C  C14  1  0.997859  0.496814  0.246398  1
  C  C15  1  0.499745  0.749806  0.500266  1
  Cl  Cl16  1  0.489852  0.002382  0.243597  1
  Cl  Cl17  1  0.253032  0.241003  0.242626  1
  Cl  Cl18  1  0.750004  0.490804  0.507554  1
  Cl  Cl19  1  0.258728  0.017162  0.508159  1
  Cl  Cl20  1  0.007540  0.257758  0.515142  1
  Cl  Cl21  1  0.754956  0.262158  0.750121  1
  Cl  Cl22  1  0.495698  0.489338  0.750396  1
  Cl  Cl23  1  0.015929  0.012039  0.761142  1
  Cl  Cl24  1  0.245635  0.749108  0.760746  1
  Cl  Cl25  1  0.242279  0.492215  0.985095  1
  Cl  Cl26  1  0.487563  0.246305  0.989840  1
  Cl  Cl27  1  0.001644  0.743395  0.990258  1
