# generated using pymatgen
data_LiLaLuNi6B2Pt
_symmetry_space_group_name_H-M   'P 1'
_cell_length_a   5.04593100
_cell_length_b   5.04593224
_cell_length_c   7.11482200
_cell_angle_alpha   90.00000000
_cell_angle_beta   90.00000000
_cell_angle_gamma   120.00001152
_symmetry_Int_Tables_number   1
_chemical_formula_structural   LiLaLuNi6B2Pt
_chemical_formula_sum   'Li1 La1 Lu1 Ni6 B2 Pt1'
_cell_volume   156.88352630
_cell_formula_units_Z   1
loop_
 _symmetry_equiv_pos_site_id
 _symmetry_equiv_pos_as_xyz
  1  'x, y, z'
loop_
 _atom_site_type_symbol
 _atom_site_label
 _atom_site_symmetry_multiplicity
 _atom_site_fract_x
 _atom_site_fract_y
 _atom_site_fract_z
 _atom_site_occupancy
  Li  Li0  1  0.333333  0.666667  0.000000  1
  La  La1  1  0.000000  0.000000  0.000000  1
  Lu  Lu2  1  0.000000  0.000000  0.500000  1
  Ni  Ni3  1  0.500876  0.499124  0.693974  1
  Ni  Ni4  1  0.500876  0.001750  0.693974  1
  Ni  Ni5  1  0.998250  0.499124  0.693974  1
  Ni  Ni6  1  0.500876  0.499124  0.306026  1
  Ni  Ni7  1  0.500876  0.001750  0.306026  1
  Ni  Ni8  1  0.998250  0.499124  0.306026  1
  B  B9  1  0.666667  0.333333  0.500000  1
  B  B10  1  0.333333  0.666667  0.500000  1
  Pt  Pt11  1  0.666667  0.333333  0.000000  1
