# generated using pymatgen
data_Gd3(In2Ru)2
_symmetry_space_group_name_H-M   'P 1'
_cell_length_a   7.77814000
_cell_length_b   7.77813978
_cell_length_c   3.93459800
_cell_angle_alpha   90.00000000
_cell_angle_beta   90.00000000
_cell_angle_gamma   120.00000945
_symmetry_Int_Tables_number   1
_chemical_formula_structural   Gd3(In2Ru)2
_chemical_formula_sum   'Gd3 In4 Ru2'
_cell_volume   206.14958099
_cell_formula_units_Z   1
loop_
 _symmetry_equiv_pos_site_id
 _symmetry_equiv_pos_as_xyz
  1  'x, y, z'
loop_
 _atom_site_type_symbol
 _atom_site_label
 _atom_site_symmetry_multiplicity
 _atom_site_fract_x
 _atom_site_fract_y
 _atom_site_fract_z
 _atom_site_occupancy
  Gd  Gd0  1  0.048261  0.296377  0.500000  1
  Gd  Gd1  1  0.703623  0.751883  0.500000  1
  Gd  Gd2  1  0.248117  0.951739  0.500000  1
  In  In3  1  0.668090  0.080502  0.000000  1
  In  In4  1  0.919498  0.587589  0.000000  1
  In  In5  1  0.412411  0.331910  0.000000  1
  In  In6  1  0.333333  0.666667  0.000000  1
  Ru  Ru7  1  0.666667  0.333333  0.500000  1
  Ru  Ru8  1  0.000000  0.000000  0.000000  1
