# generated using pymatgen
data_Yb11ScAl8(SiO4)12
_symmetry_space_group_name_H-M   'P 1'
_cell_length_a   10.28379866
_cell_length_b   10.25887667
_cell_length_c   10.25887391
_cell_angle_alpha   109.40131883
_cell_angle_beta   109.45700920
_cell_angle_gamma   109.45701144
_symmetry_Int_Tables_number   1
_chemical_formula_structural   Yb11ScAl8(SiO4)12
_chemical_formula_sum   'Yb11 Sc1 Al8 Si12 O48'
_cell_volume   834.17456227
_cell_formula_units_Z   1
loop_
 _symmetry_equiv_pos_site_id
 _symmetry_equiv_pos_as_xyz
  1  'x, y, z'
loop_
 _atom_site_type_symbol
 _atom_site_label
 _atom_site_symmetry_multiplicity
 _atom_site_fract_x
 _atom_site_fract_y
 _atom_site_fract_z
 _atom_site_occupancy
  Yb  Yb0  1  0.250000  0.375000  0.125000  1
  Yb  Yb1  1  0.374883  0.749908  0.125256  1
  Yb  Yb2  1  0.873089  0.623348  0.245837  1
  Yb  Yb3  1  0.374882  0.124975  0.249627  1
  Yb  Yb4  1  0.125118  0.250374  0.375025  1
  Yb  Yb5  1  0.750001  0.125000  0.375000  1
  Yb  Yb6  1  0.250000  0.874999  0.625000  1
  Yb  Yb7  1  0.873090  0.749742  0.627253  1
  Yb  Yb8  1  0.125118  0.374745  0.750093  1
  Yb  Yb9  1  0.626911  0.872748  0.750258  1
  Yb  Yb10  1  0.626910  0.254163  0.876652  1
  Sc  Sc11  1  0.749999  0.624999  0.874999  1
  Al  Al12  1  0.000027  0.999157  0.999478  1
  Al  Al13  1  0.500103  0.000166  0.999394  1
  Al  Al14  1  0.000027  0.500870  0.000549  1
  Al  Al15  1  0.499973  0.499451  0.999130  1
  Al  Al16  1  0.999897  0.999291  0.500063  1
  Al  Al17  1  0.499973  0.500522  0.500843  1
  Al  Al18  1  0.500103  0.999937  0.500709  1
  Al  Al19  1  0.999897  0.500606  0.499833  1
  Si  Si20  1  0.874929  0.249610  0.124967  1
  Si  Si21  1  0.750000  0.875097  0.125097  1
  Si  Si22  1  0.625071  0.375033  0.250390  1
  Si  Si23  1  0.125593  0.876190  0.250130  1
  Si  Si24  1  0.250000  0.625310  0.375309  1
  Si  Si25  1  0.625071  0.750037  0.374681  1
  Si  Si26  1  0.374407  0.249870  0.623810  1
  Si  Si27  1  0.750000  0.374903  0.624903  1
  Si  Si28  1  0.874929  0.125320  0.749963  1
  Si  Si29  1  0.374407  0.624538  0.750597  1
  Si  Si30  1  0.250000  0.124691  0.874691  1
  Si  Si31  1  0.125593  0.749403  0.875463  1
  O  O32  1  0.198120  0.113809  0.009316  1
  O  O33  1  0.311438  0.895017  0.009360  1
  O  O34  1  0.886691  0.395601  0.084650  1
  O  O35  1  0.698055  0.687303  0.079588  1
  O  O36  1  0.613308  0.415350  0.104399  1
  O  O37  1  0.990625  0.690760  0.102838  1
  O  O38  1  0.008708  0.196971  0.113847  1
  O  O39  1  0.604994  0.915869  0.114088  1
  O  O40  1  0.198120  0.584311  0.188804  1
  O  O41  1  0.491293  0.605140  0.188263  1
  O  O42  1  0.114891  0.011144  0.198974  1
  O  O43  1  0.583955  0.188518  0.198352  1
  O  O44  1  0.311438  0.916421  0.302077  1
  O  O45  1  0.491292  0.386152  0.303029  1
  O  O46  1  0.916045  0.301648  0.311483  1
  O  O47  1  0.895006  0.009094  0.310875  1
  O  O48  1  0.583955  0.895438  0.385604  1
  O  O49  1  0.301880  0.490683  0.386191  1
  O  O50  1  0.810803  0.509621  0.395473  1
  O  O51  1  0.083639  0.885047  0.394561  1
  O  O52  1  0.104635  0.614370  0.415759  1
  O  O53  1  0.810803  0.801183  0.415330  1
  O  O54  1  0.604994  0.189125  0.490906  1
  O  O55  1  0.385110  0.301027  0.488856  1
  O  O56  1  0.395365  0.811124  0.509736  1
  O  O57  1  0.613309  0.697959  0.508910  1
  O  O58  1  0.895006  0.385913  0.584131  1
  O  O59  1  0.188562  0.197922  0.583580  1
  O  O60  1  0.188563  0.490640  0.604983  1
  O  O61  1  0.916045  0.114397  0.604563  1
  O  O62  1  0.416361  0.105439  0.614953  1
  O  O63  1  0.698054  0.510751  0.618467  1
  O  O64  1  0.083638  0.698592  0.689077  1
  O  O65  1  0.104635  0.990264  0.688876  1
  O  O66  1  0.509375  0.612213  0.700134  1
  O  O67  1  0.689197  0.084670  0.698818  1
  O  O68  1  0.886691  0.991090  0.802041  1
  O  O69  1  0.416362  0.810922  0.801409  1
  O  O70  1  0.509375  0.397162  0.809240  1
  O  O71  1  0.801945  0.420412  0.812696  1
  O  O72  1  0.395365  0.084241  0.885630  1
  O  O73  1  0.990625  0.799866  0.887787  1
  O  O74  1  0.008708  0.311737  0.894860  1
  O  O75  1  0.385110  0.584083  0.896253  1
  O  O76  1  0.301880  0.311197  0.915689  1
  O  O77  1  0.114890  0.603747  0.915917  1
  O  O78  1  0.801946  0.881534  0.989249  1
  O  O79  1  0.689197  0.104527  0.990379  1
