# generated using pymatgen
data_Ca3DyAs6Rh7
_symmetry_space_group_name_H-M   'P 1'
_cell_length_a   7.31107244
_cell_length_b   7.28526076
_cell_length_c   7.28526138
_cell_angle_alpha   109.39933058
_cell_angle_beta   109.54301170
_cell_angle_gamma   109.54301129
_symmetry_Int_Tables_number   1
_chemical_formula_structural   Ca3DyAs6Rh7
_chemical_formula_sum   'Ca3 Dy1 As6 Rh7'
_cell_volume   298.44472387
_cell_formula_units_Z   1
loop_
 _symmetry_equiv_pos_site_id
 _symmetry_equiv_pos_as_xyz
  1  'x, y, z'
loop_
 _atom_site_type_symbol
 _atom_site_label
 _atom_site_symmetry_multiplicity
 _atom_site_fract_x
 _atom_site_fract_y
 _atom_site_fract_z
 _atom_site_occupancy
  Ca  Ca0  1  0.500000  0.500000  0.500000  1
  Ca  Ca1  1  0.000000  0.500000  0.000000  1
  Ca  Ca2  1  0.000000  0.000000  0.500000  1
  Dy  Dy3  1  0.500000  0.000000  0.000000  1
  As  As4  1  0.679342  0.000000  0.676663  1
  As  As5  1  0.679342  0.676663  0.000000  1
  As  As6  1  0.320658  0.323337  0.000000  1
  As  As7  1  0.997322  0.676663  0.676663  1
  As  As8  1  0.002678  0.323337  0.323337  1
  As  As9  1  0.320658  0.000000  0.323337  1
  Rh  Rh10  1  0.500000  0.751522  0.248478  1
  Rh  Rh11  1  0.748478  0.248478  0.496956  1
  Rh  Rh12  1  0.251522  0.751522  0.503044  1
  Rh  Rh13  1  0.251522  0.503044  0.751522  1
  Rh  Rh14  1  0.000000  0.000000  0.000000  1
  Rh  Rh15  1  0.500000  0.248478  0.751522  1
  Rh  Rh16  1  0.748478  0.496956  0.248478  1
