# generated using pymatgen
data_NdTm2RuO7
_symmetry_space_group_name_H-M   'P 1'
_cell_length_a   6.39386673
_cell_length_b   6.39386683
_cell_length_c   7.46081100
_cell_angle_alpha   90.00000000
_cell_angle_beta   90.00000000
_cell_angle_gamma   109.77966947
_symmetry_Int_Tables_number   1
_chemical_formula_structural   NdTm2RuO7
_chemical_formula_sum   'Nd2 Tm4 Ru2 O14'
_cell_volume   287.01410923
_cell_formula_units_Z   2
loop_
 _symmetry_equiv_pos_site_id
 _symmetry_equiv_pos_as_xyz
  1  'x, y, z'
loop_
 _atom_site_type_symbol
 _atom_site_label
 _atom_site_symmetry_multiplicity
 _atom_site_fract_x
 _atom_site_fract_y
 _atom_site_fract_z
 _atom_site_occupancy
  Nd  Nd0  1  0.000000  0.000000  0.500000  1
  Nd  Nd1  1  0.000000  0.000000  0.000000  1
  Tm  Tm2  1  0.484219  0.935251  0.750000  1
  Tm  Tm3  1  0.515781  0.064749  0.250000  1
  Tm  Tm4  1  0.935251  0.484219  0.750000  1
  Tm  Tm5  1  0.064749  0.515781  0.250000  1
  Ru  Ru6  1  0.500000  0.500000  0.500000  1
  Ru  Ru7  1  0.500000  0.500000  0.000000  1
  O  O8  1  0.592814  0.592814  0.750000  1
  O  O9  1  0.407186  0.407186  0.250000  1
  O  O10  1  0.836291  0.121296  0.750000  1
  O  O11  1  0.163709  0.878704  0.250000  1
  O  O12  1  0.121296  0.836291  0.750000  1
  O  O13  1  0.878704  0.163709  0.250000  1
  O  O14  1  0.440518  0.179548  0.963237  1
  O  O15  1  0.559482  0.820452  0.463237  1
  O  O16  1  0.179548  0.440518  0.963237  1
  O  O17  1  0.820452  0.559482  0.463237  1
  O  O18  1  0.440518  0.179548  0.536763  1
  O  O19  1  0.559482  0.820452  0.036763  1
  O  O20  1  0.820452  0.559482  0.036763  1
  O  O21  1  0.179548  0.440518  0.536763  1
