# generated using pymatgen
data_Eu3TmH10
_symmetry_space_group_name_H-M   'P 1'
_cell_length_a   6.56252327
_cell_length_b   6.56252298
_cell_length_c   6.56252268
_cell_angle_alpha   130.71858907
_cell_angle_beta   131.25528553
_cell_angle_gamma   71.83469910
_symmetry_Int_Tables_number   1
_chemical_formula_structural   Eu3TmH10
_chemical_formula_sum   'Eu3 Tm1 H10'
_cell_volume   157.52225803
_cell_formula_units_Z   1
loop_
 _symmetry_equiv_pos_site_id
 _symmetry_equiv_pos_as_xyz
  1  'x, y, z'
loop_
 _atom_site_type_symbol
 _atom_site_label
 _atom_site_symmetry_multiplicity
 _atom_site_fract_x
 _atom_site_fract_y
 _atom_site_fract_z
 _atom_site_occupancy
  Eu  Eu0  1  0.487541  0.987541  0.500000  1
  Eu  Eu1  1  0.736306  0.736306  0.000000  1
  Eu  Eu2  1  0.014934  0.514934  0.500000  1
  Tm  Tm3  1  0.266627  0.266627  0.000000  1
  H  H4  1  0.368166  0.342034  0.449274  1
  H  H5  1  0.892760  0.918893  0.550726  1
  H  H6  1  0.638428  0.132619  0.032984  1
  H  H7  1  0.099634  0.605444  0.967016  1
  H  H8  1  0.368166  0.918893  0.026132  1
  H  H9  1  0.892760  0.342034  0.973868  1
  H  H10  1  0.638428  0.605444  0.505810  1
  H  H11  1  0.099634  0.132619  0.494190  1
  H  H12  1  0.251814  0.751814  0.500000  1
  H  H13  1  0.494798  0.494798  0.000000  1
