# generated using pymatgen
data_Pr4Ga24Pd5Pt4
_symmetry_space_group_name_H-M   'P 1'
_cell_length_a   7.56055502
_cell_length_b   7.61123791
_cell_length_c   13.49440500
_cell_angle_alpha   84.94491874
_cell_angle_beta   100.42881023
_cell_angle_gamma   119.49418563
_symmetry_Int_Tables_number   1
_chemical_formula_structural   Pr4Ga24Pd5Pt4
_chemical_formula_sum   'Pr4 Ga24 Pd5 Pt4'
_cell_volume   664.73708760
_cell_formula_units_Z   1
loop_
 _symmetry_equiv_pos_site_id
 _symmetry_equiv_pos_as_xyz
  1  'x, y, z'
loop_
 _atom_site_type_symbol
 _atom_site_label
 _atom_site_symmetry_multiplicity
 _atom_site_fract_x
 _atom_site_fract_y
 _atom_site_fract_z
 _atom_site_occupancy
  Pr  Pr0  1  0.437675  0.830674  0.811134  1
  Pr  Pr1  1  0.562325  0.169326  0.188866  1
  Pr  Pr2  1  0.770265  0.502588  0.811533  1
  Pr  Pr3  1  0.229735  0.497412  0.188467  1
  Ga  Ga4  1  0.477746  0.166209  0.941134  1
  Ga  Ga5  1  0.522254  0.833791  0.058866  1
  Ga  Ga6  1  0.021872  0.168571  0.558325  1
  Ga  Ga7  1  0.978128  0.831429  0.441675  1
  Ga  Ga8  1  0.354715  0.833127  0.556029  1
  Ga  Ga9  1  0.645285  0.166873  0.443971  1
  Ga  Ga10  1  0.616931  0.834210  0.327204  1
  Ga  Ga11  1  0.383069  0.165790  0.672796  1
  Ga  Ga12  1  0.058393  0.494808  0.670827  1
  Ga  Ga13  1  0.941607  0.505192  0.329173  1
  Ga  Ga14  1  0.729296  0.837190  0.670645  1
  Ga  Ga15  1  0.270704  0.162810  0.329355  1
  Ga  Ga16  1  0.145684  0.498390  0.941771  1
  Ga  Ga17  1  0.854316  0.501610  0.058229  1
  Ga  Ga18  1  0.815573  0.833762  0.948169  1
  Ga  Ga19  1  0.184427  0.166238  0.051831  1
  Ga  Ga20  1  0.315260  0.501434  0.443858  1
  Ga  Ga21  1  0.684740  0.498566  0.556142  1
  Ga  Ga22  1  0.099814  0.835684  0.182348  1
  Ga  Ga23  1  0.900186  0.164316  0.817652  1
  Ga  Ga24  1  0.305865  0.367650  0.816663  1
  Ga  Ga25  1  0.694135  0.632350  0.183337  1
  Ga  Ga26  1  0.103116  0.962615  0.816892  1
  Ga  Ga27  1  0.896884  0.037385  0.183108  1
  Pd  Pd28  1  0.383543  0.501825  0.636860  1
  Pd  Pd29  1  0.616457  0.498175  0.363140  1
  Pd  Pd30  1  0.170418  0.830195  0.999291  1
  Pd  Pd31  1  0.829582  0.169805  0.000709  1
  Pd  Pd32  1  0.500000  0.500000  0.000000  1
  Pt  Pt33  1  0.291991  0.832880  0.362423  1
  Pt  Pt34  1  0.708009  0.167120  0.637577  1
  Pt  Pt35  1  0.048241  0.830107  0.635262  1
  Pt  Pt36  1  0.951759  0.169893  0.364738  1
