# generated using pymatgen
data_Tb2Th2TlPd4Pb
_symmetry_space_group_name_H-M   'P 1'
_cell_length_a   8.02795551
_cell_length_b   7.99392553
_cell_length_c   3.72204900
_cell_angle_alpha   90.00000000
_cell_angle_beta   90.00000000
_cell_angle_gamma   89.89255928
_symmetry_Int_Tables_number   1
_chemical_formula_structural   Tb2Th2TlPd4Pb
_chemical_formula_sum   'Tb2 Th2 Tl1 Pd4 Pb1'
_cell_volume   238.86162247
_cell_formula_units_Z   1
loop_
 _symmetry_equiv_pos_site_id
 _symmetry_equiv_pos_as_xyz
  1  'x, y, z'
loop_
 _atom_site_type_symbol
 _atom_site_label
 _atom_site_symmetry_multiplicity
 _atom_site_fract_x
 _atom_site_fract_y
 _atom_site_fract_z
 _atom_site_occupancy
  Tb  Tb0  1  0.829949  0.676639  0.500000  1
  Tb  Tb1  1  0.325789  0.827235  0.500000  1
  Th  Th2  1  0.672269  0.167315  0.500000  1
  Th  Th3  1  0.170703  0.330526  0.500000  1
  Tl  Tl4  1  0.002815  0.989241  0.000000  1
  Pd  Pd5  1  0.371096  0.128398  0.000000  1
  Pd  Pd6  1  0.125362  0.621339  0.000000  1
  Pd  Pd7  1  0.625744  0.878654  0.000000  1
  Pd  Pd8  1  0.872255  0.369791  0.000000  1
  Pb  Pb9  1  0.504019  0.510862  0.000000  1
