# generated using pymatgen
data_Tb4LuPt9
_symmetry_space_group_name_H-M   'P 1'
_cell_length_a   9.78217300
_cell_length_b   9.78217300
_cell_length_c   5.77499800
_cell_angle_alpha   90.00000000
_cell_angle_beta   90.00000000
_cell_angle_gamma   90.00000000
_symmetry_Int_Tables_number   1
_chemical_formula_structural   Tb4LuPt9
_chemical_formula_sum   'Tb8 Lu2 Pt18'
_cell_volume   552.61480579
_cell_formula_units_Z   2
loop_
 _symmetry_equiv_pos_site_id
 _symmetry_equiv_pos_as_xyz
  1  'x, y, z'
loop_
 _atom_site_type_symbol
 _atom_site_label
 _atom_site_symmetry_multiplicity
 _atom_site_fract_x
 _atom_site_fract_y
 _atom_site_fract_z
 _atom_site_occupancy
  Tb  Tb0  1  0.452376  0.809094  0.000000  1
  Tb  Tb1  1  0.547624  0.190906  0.000000  1
  Tb  Tb2  1  0.190906  0.547624  0.000000  1
  Tb  Tb3  1  0.809094  0.452376  0.000000  1
  Tb  Tb4  1  0.309094  0.047624  0.500000  1
  Tb  Tb5  1  0.690906  0.952376  0.500000  1
  Tb  Tb6  1  0.952376  0.690906  0.500000  1
  Tb  Tb7  1  0.047624  0.309094  0.500000  1
  Lu  Lu8  1  0.500000  0.500000  0.500000  1
  Lu  Lu9  1  0.000000  0.000000  0.000000  1
  Pt  Pt10  1  0.190478  0.809522  0.250139  1
  Pt  Pt11  1  0.809522  0.190478  0.749861  1
  Pt  Pt12  1  0.809522  0.190478  0.250139  1
  Pt  Pt13  1  0.190478  0.809522  0.749861  1
  Pt  Pt14  1  0.439657  0.778578  0.500000  1
  Pt  Pt15  1  0.560343  0.221422  0.500000  1
  Pt  Pt16  1  0.221422  0.560343  0.500000  1
  Pt  Pt17  1  0.778578  0.439657  0.500000  1
  Pt  Pt18  1  0.309522  0.309522  0.249861  1
  Pt  Pt19  1  0.690478  0.690478  0.750139  1
  Pt  Pt20  1  0.690478  0.690478  0.249861  1
  Pt  Pt21  1  0.309522  0.309522  0.750139  1
  Pt  Pt22  1  0.278578  0.060343  0.000000  1
  Pt  Pt23  1  0.721422  0.939657  0.000000  1
  Pt  Pt24  1  0.939657  0.721422  0.000000  1
  Pt  Pt25  1  0.060343  0.278578  0.000000  1
  Pt  Pt26  1  0.000000  0.000000  0.500000  1
  Pt  Pt27  1  0.500000  0.500000  0.000000  1
