# generated using pymatgen
data_TbPa3Ga12Os
_symmetry_space_group_name_H-M   'P 1'
_cell_length_a   7.43859283
_cell_length_b   7.43859335
_cell_length_c   7.43859301
_cell_angle_alpha   109.29997970
_cell_angle_beta   109.29998210
_cell_angle_gamma   109.29996665
_symmetry_Int_Tables_number   1
_chemical_formula_structural   TbPa3Ga12Os
_chemical_formula_sum   'Tb1 Pa3 Ga12 Os1'
_cell_volume   318.84070747
_cell_formula_units_Z   1
loop_
 _symmetry_equiv_pos_site_id
 _symmetry_equiv_pos_as_xyz
  1  'x, y, z'
loop_
 _atom_site_type_symbol
 _atom_site_label
 _atom_site_symmetry_multiplicity
 _atom_site_fract_x
 _atom_site_fract_y
 _atom_site_fract_z
 _atom_site_occupancy
  Tb  Tb0  1  0.500000  0.500000  0.500000  1
  Pa  Pa1  1  0.000000  0.000000  0.500000  1
  Pa  Pa2  1  0.000000  0.500000  0.000000  1
  Pa  Pa3  1  0.500000  0.000000  0.000000  1
  Ga  Ga4  1  0.749950  0.250050  0.500000  1
  Ga  Ga5  1  0.749950  0.500000  0.250050  1
  Ga  Ga6  1  0.500000  0.250050  0.749950  1
  Ga  Ga7  1  0.250050  0.500000  0.749950  1
  Ga  Ga8  1  0.250050  0.749950  0.500000  1
  Ga  Ga9  1  0.500000  0.749950  0.250050  1
  Ga  Ga10  1  0.705284  0.705284  0.998638  1
  Ga  Ga11  1  0.294716  0.001362  0.294716  1
  Ga  Ga12  1  0.001362  0.294716  0.294716  1
  Ga  Ga13  1  0.294716  0.294716  0.001362  1
  Ga  Ga14  1  0.705284  0.998638  0.705284  1
  Ga  Ga15  1  0.998638  0.705284  0.705284  1
  Os  Os16  1  0.000000  0.000000  0.000000  1
