# generated using pymatgen
data_Cs3NbS4
_symmetry_space_group_name_H-M   'P 1'
_cell_length_a   9.86782662
_cell_length_b   11.59996200
_cell_length_c   9.95696555
_cell_angle_alpha   90.00000000
_cell_angle_beta   90.08282221
_cell_angle_gamma   90.00000000
_symmetry_Int_Tables_number   1
_chemical_formula_structural   Cs3NbS4
_chemical_formula_sum   'Cs12 Nb4 S16'
_cell_volume   1139.73694915
_cell_formula_units_Z   4
loop_
 _symmetry_equiv_pos_site_id
 _symmetry_equiv_pos_as_xyz
  1  'x, y, z'
loop_
 _atom_site_type_symbol
 _atom_site_label
 _atom_site_symmetry_multiplicity
 _atom_site_fract_x
 _atom_site_fract_y
 _atom_site_fract_z
 _atom_site_occupancy
  Cs  Cs0  1  0.853444  0.750000  0.084662  1
  Cs  Cs1  1  0.451682  0.040700  0.208719  1
  Cs  Cs2  1  0.451682  0.459300  0.208719  1
  Cs  Cs3  1  0.951680  0.041047  0.292447  1
  Cs  Cs4  1  0.951680  0.458953  0.292447  1
  Cs  Cs5  1  0.353818  0.750000  0.414095  1
  Cs  Cs6  1  0.646953  0.250000  0.587053  1
  Cs  Cs7  1  0.049235  0.541500  0.707618  1
  Cs  Cs8  1  0.049235  0.958500  0.707618  1
  Cs  Cs9  1  0.547660  0.541459  0.790262  1
  Cs  Cs10  1  0.547660  0.958541  0.790262  1
  Cs  Cs11  1  0.147334  0.250000  0.914067  1
  Nb  Nb12  1  0.721015  0.250000  0.017277  1
  Nb  Nb13  1  0.221914  0.250000  0.483644  1
  Nb  Nb14  1  0.778485  0.750000  0.515625  1
  Nb  Nb15  1  0.278345  0.750000  0.984032  1
  S  S16  1  0.832487  0.086274  0.952348  1
  S  S17  1  0.832487  0.413726  0.952348  1
  S  S18  1  0.166468  0.586485  0.048494  1
  S  S19  1  0.166468  0.913515  0.048494  1
  S  S20  1  0.493092  0.750000  0.073083  1
  S  S21  1  0.705810  0.250000  0.246738  1
  S  S22  1  0.205684  0.250000  0.254431  1
  S  S23  1  0.993123  0.750000  0.426785  1
  S  S24  1  0.666232  0.586488  0.451207  1
  S  S25  1  0.666232  0.913512  0.451207  1
  S  S26  1  0.333928  0.086354  0.547996  1
  S  S27  1  0.333928  0.413646  0.547996  1
  S  S28  1  0.007554  0.250000  0.573044  1
  S  S29  1  0.794341  0.750000  0.744772  1
  S  S30  1  0.294060  0.750000  0.754605  1
  S  S31  1  0.506284  0.250000  0.927899  1
