# generated using pymatgen
data_PrMnFeO5
_symmetry_space_group_name_H-M   'P 1'
_cell_length_a   5.84383000
_cell_length_b   7.61907700
_cell_length_c   8.82100400
_cell_angle_alpha   90.00000000
_cell_angle_beta   90.00000000
_cell_angle_gamma   90.00000000
_symmetry_Int_Tables_number   1
_chemical_formula_structural   PrMnFeO5
_chemical_formula_sum   'Pr4 Mn4 Fe4 O20'
_cell_volume   392.75159306
_cell_formula_units_Z   4
loop_
 _symmetry_equiv_pos_site_id
 _symmetry_equiv_pos_as_xyz
  1  'x, y, z'
loop_
 _atom_site_type_symbol
 _atom_site_label
 _atom_site_symmetry_multiplicity
 _atom_site_fract_x
 _atom_site_fract_y
 _atom_site_fract_z
 _atom_site_occupancy
  Pr  Pr0  1  0.000000  0.636391  0.328877  1
  Pr  Pr1  1  0.000000  0.363609  0.671123  1
  Pr  Pr2  1  0.000000  0.136391  0.171123  1
  Pr  Pr3  1  0.000000  0.863609  0.828877  1
  Mn  Mn4  1  0.252523  0.500000  0.000000  1
  Mn  Mn5  1  0.747477  0.000000  0.500000  1
  Mn  Mn6  1  0.747477  0.500000  0.000000  1
  Mn  Mn7  1  0.252523  0.000000  0.500000  1
  Fe  Fe8  1  0.500000  0.889444  0.143378  1
  Fe  Fe9  1  0.500000  0.110556  0.856622  1
  Fe  Fe10  1  0.500000  0.389444  0.356622  1
  Fe  Fe11  1  0.500000  0.610556  0.643378  1
  O  O12  1  0.000000  0.655490  0.052107  1
  O  O13  1  0.000000  0.344510  0.947893  1
  O  O14  1  0.000000  0.155490  0.447893  1
  O  O15  1  0.000000  0.844510  0.552107  1
  O  O16  1  0.274807  0.500000  0.500000  1
  O  O17  1  0.725193  0.000000  0.000000  1
  O  O18  1  0.725193  0.500000  0.500000  1
  O  O19  1  0.274807  0.000000  0.000000  1
  O  O20  1  0.500000  0.652304  0.064993  1
  O  O21  1  0.500000  0.347696  0.935007  1
  O  O22  1  0.500000  0.152304  0.435007  1
  O  O23  1  0.500000  0.847696  0.564993  1
  O  O24  1  0.249334  0.901229  0.295489  1
  O  O25  1  0.249334  0.098771  0.704511  1
  O  O26  1  0.750666  0.401229  0.204511  1
  O  O27  1  0.750666  0.598771  0.795489  1
  O  O28  1  0.750666  0.098771  0.704511  1
  O  O29  1  0.750666  0.901229  0.295489  1
  O  O30  1  0.249334  0.598771  0.795489  1
  O  O31  1  0.249334  0.401229  0.204511  1
