# generated using pymatgen
data_Dy8Mg2Sc10Si15As
_symmetry_space_group_name_H-M   'P 1'
_cell_length_a   7.06851342
_cell_length_b   7.37463264
_cell_length_c   14.01743362
_cell_angle_alpha   90.06713969
_cell_angle_beta   89.10881445
_cell_angle_gamma   90.02715326
_symmetry_Int_Tables_number   1
_chemical_formula_structural   Dy8Mg2Sc10Si15As
_chemical_formula_sum   'Dy8 Mg2 Sc10 Si15 As1'
_cell_volume   730.60746639
_cell_formula_units_Z   1
loop_
 _symmetry_equiv_pos_site_id
 _symmetry_equiv_pos_as_xyz
  1  'x, y, z'
loop_
 _atom_site_type_symbol
 _atom_site_label
 _atom_site_symmetry_multiplicity
 _atom_site_fract_x
 _atom_site_fract_y
 _atom_site_fract_z
 _atom_site_occupancy
  Dy  Dy0  1  0.010764  0.178124  0.097768  1
  Dy  Dy1  1  0.989406  0.822699  0.902053  1
  Dy  Dy2  1  0.488003  0.674491  0.902562  1
  Dy  Dy3  1  0.994082  0.819677  0.595839  1
  Dy  Dy4  1  0.513128  0.325875  0.097608  1
  Dy  Dy5  1  0.004492  0.181005  0.403282  1
  Dy  Dy6  1  0.509659  0.323496  0.401743  1
  Dy  Dy7  1  0.494289  0.675121  0.597720  1
  Mg  Mg8  1  0.163884  0.504146  0.753051  1
  Mg  Mg9  1  0.836175  0.497155  0.251309  1
  Sc  Sc10  1  0.336857  0.001895  0.251969  1
  Sc  Sc11  1  0.663020  0.998033  0.748638  1
  Sc  Sc12  1  0.335936  0.175326  0.625852  1
  Sc  Sc13  1  0.665291  0.823925  0.374532  1
  Sc  Sc14  1  0.154879  0.673486  0.376777  1
  Sc  Sc15  1  0.670684  0.821063  0.124836  1
  Sc  Sc16  1  0.842890  0.326693  0.622953  1
  Sc  Sc17  1  0.328825  0.178329  0.874888  1
  Sc  Sc18  1  0.833973  0.322044  0.874309  1
  Sc  Sc19  1  0.165884  0.677876  0.125216  1
  Si  Si20  1  0.034139  0.104133  0.749338  1
  Si  Si21  1  0.965867  0.895215  0.249329  1
  Si  Si22  1  0.455335  0.619671  0.249447  1
  Si  Si23  1  0.544071  0.380530  0.750484  1
  Si  Si24  1  0.291789  0.879858  0.749922  1
  Si  Si25  1  0.708888  0.119185  0.249471  1
  Si  Si26  1  0.219261  0.372976  0.249992  1
  Si  Si27  1  0.781552  0.627389  0.749688  1
  Si  Si28  1  0.811412  0.544061  0.464537  1
  Si  Si29  1  0.334191  0.964370  0.461046  1
  Si  Si30  1  0.841685  0.538374  0.034206  1
  Si  Si31  1  0.665634  0.035484  0.539702  1
  Si  Si32  1  0.158109  0.462109  0.965208  1
  Si  Si33  1  0.655658  0.032997  0.959645  1
  Si  Si34  1  0.344322  0.967396  0.040097  1
  As  As35  1  0.185961  0.455795  0.534985  1
