# generated using pymatgen
data_NaAlSb4
_symmetry_space_group_name_H-M   'P 1'
_cell_length_a   4.25858700
_cell_length_b   10.23071800
_cell_length_c   17.46806500
_cell_angle_alpha   90.00000000
_cell_angle_beta   90.00000000
_cell_angle_gamma   90.00000000
_symmetry_Int_Tables_number   1
_chemical_formula_structural   NaAlSb4
_chemical_formula_sum   'Na4 Al4 Sb16'
_cell_volume   761.05568988
_cell_formula_units_Z   4
loop_
 _symmetry_equiv_pos_site_id
 _symmetry_equiv_pos_as_xyz
  1  'x, y, z'
loop_
 _atom_site_type_symbol
 _atom_site_label
 _atom_site_symmetry_multiplicity
 _atom_site_fract_x
 _atom_site_fract_y
 _atom_site_fract_z
 _atom_site_occupancy
  Na  Na0  1  0.250000  0.337699  0.937087  1
  Na  Na1  1  0.750000  0.662301  0.062913  1
  Na  Na2  1  0.250000  0.837699  0.562913  1
  Na  Na3  1  0.750000  0.162301  0.437087  1
  Al  Al4  1  0.250000  0.185856  0.129837  1
  Al  Al5  1  0.750000  0.814144  0.870163  1
  Al  Al6  1  0.250000  0.685856  0.370163  1
  Al  Al7  1  0.750000  0.314144  0.629837  1
  Sb  Sb8  1  0.750000  0.834546  0.409018  1
  Sb  Sb9  1  0.250000  0.165454  0.590982  1
  Sb  Sb10  1  0.750000  0.334546  0.090982  1
  Sb  Sb11  1  0.250000  0.665454  0.909018  1
  Sb  Sb12  1  0.750000  0.369489  0.782015  1
  Sb  Sb13  1  0.250000  0.630511  0.217985  1
  Sb  Sb14  1  0.750000  0.869489  0.717985  1
  Sb  Sb15  1  0.250000  0.130511  0.282015  1
  Sb  Sb16  1  0.750000  0.543750  0.550423  1
  Sb  Sb17  1  0.250000  0.456250  0.449577  1
  Sb  Sb18  1  0.750000  0.043750  0.949577  1
  Sb  Sb19  1  0.250000  0.956250  0.050423  1
  Sb  Sb20  1  0.750000  0.941379  0.256416  1
  Sb  Sb21  1  0.250000  0.058621  0.743584  1
  Sb  Sb22  1  0.750000  0.441379  0.243584  1
  Sb  Sb23  1  0.250000  0.558621  0.756416  1
