# generated using pymatgen
data_Li3ScIn4
_symmetry_space_group_name_H-M   'P 1'
_cell_length_a   6.04235435
_cell_length_b   6.04235572
_cell_length_c   9.36920900
_cell_angle_alpha   90.00000000
_cell_angle_beta   90.00000000
_cell_angle_gamma   106.43208978
_symmetry_Int_Tables_number   1
_chemical_formula_structural   Li3ScIn4
_chemical_formula_sum   'Li6 Sc2 In8'
_cell_volume   328.09870380
_cell_formula_units_Z   2
loop_
 _symmetry_equiv_pos_site_id
 _symmetry_equiv_pos_as_xyz
  1  'x, y, z'
loop_
 _atom_site_type_symbol
 _atom_site_label
 _atom_site_symmetry_multiplicity
 _atom_site_fract_x
 _atom_site_fract_y
 _atom_site_fract_z
 _atom_site_occupancy
  Li  Li0  1  0.507747  0.507747  0.250000  1
  Li  Li1  1  0.492253  0.492253  0.750000  1
  Li  Li2  1  0.234107  0.765893  0.500000  1
  Li  Li3  1  0.234107  0.765893  0.000000  1
  Li  Li4  1  0.765893  0.234107  0.500000  1
  Li  Li5  1  0.765893  0.234107  0.000000  1
  Sc  Sc6  1  0.997438  0.997438  0.250000  1
  Sc  Sc7  1  0.002562  0.002562  0.750000  1
  In  In8  1  0.275254  0.275254  0.003276  1
  In  In9  1  0.724746  0.724746  0.996724  1
  In  In10  1  0.275254  0.275254  0.496724  1
  In  In11  1  0.724746  0.724746  0.503276  1
  In  In12  1  0.499817  0.005558  0.250000  1
  In  In13  1  0.994442  0.500183  0.750000  1
  In  In14  1  0.500183  0.994442  0.750000  1
  In  In15  1  0.005558  0.499817  0.250000  1
