# generated using pymatgen
data_Mn3ZnBi4(TeO6)4
_symmetry_space_group_name_H-M   'P 1'
_cell_length_a   5.32529286
_cell_length_b   9.03914907
_cell_length_c   10.04417210
_cell_angle_alpha   89.99696766
_cell_angle_beta   89.19823591
_cell_angle_gamma   90.00333232
_symmetry_Int_Tables_number   1
_chemical_formula_structural   Mn3ZnBi4(TeO6)4
_chemical_formula_sum   'Mn3 Zn1 Bi4 Te4 O24'
_cell_volume   483.44009532
_cell_formula_units_Z   1
loop_
 _symmetry_equiv_pos_site_id
 _symmetry_equiv_pos_as_xyz
  1  'x, y, z'
loop_
 _atom_site_type_symbol
 _atom_site_label
 _atom_site_symmetry_multiplicity
 _atom_site_fract_x
 _atom_site_fract_y
 _atom_site_fract_z
 _atom_site_occupancy
  Mn  Mn0  1  0.500140  0.166276  0.250058  1
  Mn  Mn1  1  0.999984  0.332549  0.750036  1
  Mn  Mn2  1  0.000079  0.665796  0.250028  1
  Zn  Zn3  1  0.500060  0.829259  0.749986  1
  Bi  Bi4  1  0.995065  0.997716  0.501458  1
  Bi  Bi5  1  0.512426  0.507361  0.499897  1
  Bi  Bi6  1  0.004926  0.997702  0.998523  1
  Bi  Bi7  1  0.487528  0.507347  0.000094  1
  Te  Te8  1  0.500031  0.166745  0.750000  1
  Te  Te9  1  0.000038  0.665172  0.749992  1
  Te  Te10  1  0.999973  0.328729  0.249985  1
  Te  Te11  1  0.499949  0.833019  0.250003  1
  O  O12  1  0.629079  0.012868  0.635856  1
  O  O13  1  0.131969  0.493678  0.644499  1
  O  O14  1  0.691745  0.317854  0.647188  1
  O  O15  1  0.171450  0.805782  0.637809  1
  O  O16  1  0.189412  0.186674  0.643778  1
  O  O17  1  0.701878  0.671389  0.638240  1
  O  O18  1  0.162272  0.188660  0.132009  1
  O  O19  1  0.660422  0.689605  0.134480  1
  O  O20  1  0.126796  0.498829  0.142553  1
  O  O21  1  0.630066  0.998552  0.142947  1
  O  O22  1  0.688743  0.318128  0.148576  1
  O  O23  1  0.187718  0.819142  0.146606  1
  O  O24  1  0.873055  0.498851  0.357362  1
  O  O25  1  0.369798  0.998556  0.357026  1
  O  O26  1  0.837553  0.188678  0.368010  1
  O  O27  1  0.339413  0.689589  0.365528  1
  O  O28  1  0.311123  0.318150  0.351421  1
  O  O29  1  0.812183  0.819160  0.353378  1
  O  O30  1  0.308395  0.317832  0.852836  1
  O  O31  1  0.828642  0.805771  0.862170  1
  O  O32  1  0.370989  0.012858  0.864152  1
  O  O33  1  0.868169  0.493662  0.855530  1
  O  O34  1  0.810702  0.186651  0.856237  1
  O  O35  1  0.298230  0.671405  0.861750  1
