# generated using pymatgen
data_Er3PaAs6Ru7
_symmetry_space_group_name_H-M   'P 1'
_cell_length_a   7.25019245
_cell_length_b   7.22980752
_cell_length_c   7.22980800
_cell_angle_alpha   109.41403991
_cell_angle_beta   109.52834741
_cell_angle_gamma   109.52834477
_symmetry_Int_Tables_number   1
_chemical_formula_structural   Er3PaAs6Ru7
_chemical_formula_sum   'Er3 Pa1 As6 Ru7'
_cell_volume   291.52409138
_cell_formula_units_Z   1
loop_
 _symmetry_equiv_pos_site_id
 _symmetry_equiv_pos_as_xyz
  1  'x, y, z'
loop_
 _atom_site_type_symbol
 _atom_site_label
 _atom_site_symmetry_multiplicity
 _atom_site_fract_x
 _atom_site_fract_y
 _atom_site_fract_z
 _atom_site_occupancy
  Er  Er0  1  0.000000  0.000000  0.500000  1
  Er  Er1  1  0.000000  0.500000  0.000000  1
  Er  Er2  1  0.500000  0.500000  0.500000  1
  Pa  Pa3  1  0.500000  0.000000  0.000000  1
  As  As4  1  0.313390  0.000000  0.319634  1
  As  As5  1  0.006244  0.319634  0.319634  1
  As  As6  1  0.993756  0.680366  0.680366  1
  As  As7  1  0.313390  0.319634  0.000000  1
  As  As8  1  0.686610  0.680366  0.000000  1
  As  As9  1  0.686610  0.000000  0.680366  1
  Ru  Ru10  1  0.746358  0.492716  0.246358  1
  Ru  Ru11  1  0.500000  0.753642  0.246358  1
  Ru  Ru12  1  0.500000  0.246358  0.753642  1
  Ru  Ru13  1  0.746358  0.246358  0.492716  1
  Ru  Ru14  1  0.253642  0.753642  0.507284  1
  Ru  Ru15  1  0.253642  0.507284  0.753642  1
  Ru  Ru16  1  0.000000  0.000000  0.000000  1
