# generated using pymatgen
data_SrPa2Se5
_symmetry_space_group_name_H-M   'P 1'
_cell_length_a   7.78000500
_cell_length_b   8.65494116
_cell_length_c   12.38526500
_cell_angle_alpha   89.69695808
_cell_angle_beta   90.00000000
_cell_angle_gamma   90.00000000
_symmetry_Int_Tables_number   1
_chemical_formula_structural   SrPa2Se5
_chemical_formula_sum   'Sr4 Pa8 Se20'
_cell_volume   833.95616705
_cell_formula_units_Z   4
loop_
 _symmetry_equiv_pos_site_id
 _symmetry_equiv_pos_as_xyz
  1  'x, y, z'
loop_
 _atom_site_type_symbol
 _atom_site_label
 _atom_site_symmetry_multiplicity
 _atom_site_fract_x
 _atom_site_fract_y
 _atom_site_fract_z
 _atom_site_occupancy
  Sr  Sr0  1  0.045959  0.492225  0.328689  1
  Sr  Sr1  1  0.545959  0.507775  0.171311  1
  Sr  Sr2  1  0.954041  0.507775  0.671311  1
  Sr  Sr3  1  0.454041  0.492225  0.828689  1
  Pa  Pa4  1  0.025307  0.998496  0.318723  1
  Pa  Pa5  1  0.525307  0.001504  0.181277  1
  Pa  Pa6  1  0.974693  0.001504  0.681277  1
  Pa  Pa7  1  0.474693  0.998496  0.818723  1
  Pa  Pa8  1  0.073412  0.754204  0.008712  1
  Pa  Pa9  1  0.573412  0.245796  0.491288  1
  Pa  Pa10  1  0.926588  0.245796  0.991288  1
  Pa  Pa11  1  0.426588  0.754204  0.508712  1
  Se  Se12  1  0.665192  0.953885  0.401095  1
  Se  Se13  1  0.165192  0.046115  0.098905  1
  Se  Se14  1  0.334808  0.046115  0.598905  1
  Se  Se15  1  0.834808  0.953885  0.901095  1
  Se  Se16  1  0.455306  0.782042  0.001936  1
  Se  Se17  1  0.955306  0.217958  0.498064  1
  Se  Se18  1  0.544694  0.217958  0.998064  1
  Se  Se19  1  0.044694  0.782042  0.501936  1
  Se  Se20  1  0.834102  0.773641  0.187077  1
  Se  Se21  1  0.334102  0.226359  0.312923  1
  Se  Se22  1  0.165898  0.226359  0.812923  1
  Se  Se23  1  0.665898  0.773641  0.687077  1
  Se  Se24  1  0.308534  0.763610  0.283823  1
  Se  Se25  1  0.808534  0.236390  0.216177  1
  Se  Se26  1  0.691466  0.236390  0.716177  1
  Se  Se27  1  0.191466  0.763610  0.783823  1
  Se  Se28  1  0.177147  0.459253  0.080336  1
  Se  Se29  1  0.677147  0.540747  0.419664  1
  Se  Se30  1  0.822853  0.540747  0.919664  1
  Se  Se31  1  0.322853  0.459253  0.580336  1
