# generated using pymatgen
data_Yb3LuP3
_symmetry_space_group_name_H-M   'P 1'
_cell_length_a   7.26927125
_cell_length_b   7.43357238
_cell_length_c   7.43357203
_cell_angle_alpha   109.91462482
_cell_angle_beta   109.02409024
_cell_angle_gamma   109.02410154
_symmetry_Int_Tables_number   1
_chemical_formula_structural   Yb3LuP3
_chemical_formula_sum   'Yb6 Lu2 P6'
_cell_volume   310.90727089
_cell_formula_units_Z   2
loop_
 _symmetry_equiv_pos_site_id
 _symmetry_equiv_pos_as_xyz
  1  'x, y, z'
loop_
 _atom_site_type_symbol
 _atom_site_label
 _atom_site_symmetry_multiplicity
 _atom_site_fract_x
 _atom_site_fract_y
 _atom_site_fract_z
 _atom_site_occupancy
  Yb  Yb0  1  0.499216  0.995085  0.635575  1
  Yb  Yb1  1  0.363641  0.359510  0.364425  1
  Yb  Yb2  1  0.504131  0.004915  0.140490  1
  Yb  Yb3  1  0.004131  0.640490  0.504915  1
  Yb  Yb4  1  0.863641  0.864425  0.859510  1
  Yb  Yb5  1  0.999216  0.135575  0.495085  1
  Lu  Lu6  1  0.131650  0.500000  0.000000  1
  Lu  Lu7  1  0.631650  0.500000  0.000000  1
  P  P8  1  0.378398  0.621654  0.762177  1
  P  P9  1  0.878398  0.262177  0.121654  1
  P  P10  1  0.616220  0.737823  0.359477  1
  P  P11  1  0.116220  0.859477  0.237823  1
  P  P12  1  0.256744  0.140523  0.878346  1
  P  P13  1  0.756744  0.378346  0.640523  1
