# generated using pymatgen
data_Tm12InTc3Bi
_symmetry_space_group_name_H-M   'P 1'
_cell_length_a   8.39773120
_cell_length_b   8.39773109
_cell_length_c   8.39773156
_cell_angle_alpha   108.67589636
_cell_angle_beta   109.43190120
_cell_angle_gamma   110.30999224
_symmetry_Int_Tables_number   1
_chemical_formula_structural   Tm12InTc3Bi
_chemical_formula_sum   'Tm12 In1 Tc3 Bi1'
_cell_volume   455.80124447
_cell_formula_units_Z   1
loop_
 _symmetry_equiv_pos_site_id
 _symmetry_equiv_pos_as_xyz
  1  'x, y, z'
loop_
 _atom_site_type_symbol
 _atom_site_label
 _atom_site_symmetry_multiplicity
 _atom_site_fract_x
 _atom_site_fract_y
 _atom_site_fract_z
 _atom_site_occupancy
  Tm  Tm0  1  0.188148  0.426725  0.238577  1
  Tm  Tm1  1  0.811852  0.573275  0.761423  1
  Tm  Tm2  1  0.188148  0.949572  0.761423  1
  Tm  Tm3  1  0.955982  0.192585  0.763395  1
  Tm  Tm4  1  0.811852  0.050428  0.238577  1
  Tm  Tm5  1  0.044018  0.807415  0.236605  1
  Tm  Tm6  1  0.429190  0.192585  0.236605  1
  Tm  Tm7  1  0.570810  0.807415  0.763395  1
  Tm  Tm8  1  0.303602  0.311121  0.614724  1
  Tm  Tm9  1  0.696398  0.688879  0.385276  1
  Tm  Tm10  1  0.696398  0.311121  0.007519  1
  Tm  Tm11  1  0.303602  0.688879  0.992481  1
  In  In12  1  0.000000  0.500000  0.500000  1
  Tc  Tc13  1  0.370280  0.370280  0.000000  1
  Tc  Tc14  1  0.629720  0.629720  0.000000  1
  Tc  Tc15  1  0.000000  0.000000  0.000000  1
  Bi  Bi16  1  0.500000  0.000000  0.500000  1
