# generated using pymatgen
data_Tm2P4OsRh5
_symmetry_space_group_name_H-M   'P 1'
_cell_length_a   3.94671500
_cell_length_b   11.33378990
_cell_length_c   12.49149730
_cell_angle_alpha   89.82058747
_cell_angle_beta   90.00000000
_cell_angle_gamma   90.00000000
_symmetry_Int_Tables_number   1
_chemical_formula_structural   Tm2P4OsRh5
_chemical_formula_sum   'Tm6 P12 Os3 Rh15'
_cell_volume   558.75740690
_cell_formula_units_Z   3
loop_
 _symmetry_equiv_pos_site_id
 _symmetry_equiv_pos_as_xyz
  1  'x, y, z'
loop_
 _atom_site_type_symbol
 _atom_site_label
 _atom_site_symmetry_multiplicity
 _atom_site_fract_x
 _atom_site_fract_y
 _atom_site_fract_z
 _atom_site_occupancy
  Tm  Tm0  1  0.000000  0.499574  0.521437  1
  Tm  Tm1  1  0.500000  0.000703  0.477840  1
  Tm  Tm2  1  0.500000  0.820924  0.204989  1
  Tm  Tm3  1  0.500000  0.179510  0.204419  1
  Tm  Tm4  1  0.000000  0.677841  0.795146  1
  Tm  Tm5  1  0.000000  0.320089  0.796379  1
  P  P6  1  0.500000  0.498379  0.882031  1
  P  P7  1  0.000000  0.998166  0.119413  1
  P  P8  1  0.500000  0.499647  0.351092  1
  P  P9  1  0.000000  0.999893  0.647734  1
  P  P10  1  0.500000  0.314085  0.620657  1
  P  P11  1  0.500000  0.685166  0.620173  1
  P  P12  1  0.000000  0.186513  0.379648  1
  P  P13  1  0.000000  0.814702  0.380502  1
  P  P14  1  0.500000  0.844145  0.890568  1
  P  P15  1  0.500000  0.159689  0.894579  1
  P  P16  1  0.000000  0.657400  0.108958  1
  P  P17  1  0.000000  0.340761  0.103637  1
  Os  Os18  1  0.000000  0.502741  0.990837  1
  Os  Os19  1  0.500000  0.998402  0.009919  1
  Os  Os20  1  0.500000  0.333206  0.993607  1
  Rh  Rh21  1  0.500000  0.506578  0.163268  1
  Rh  Rh22  1  0.000000  0.995481  0.834687  1
  Rh  Rh23  1  0.500000  0.499969  0.698020  1
  Rh  Rh24  1  0.000000  0.000122  0.302598  1
  Rh  Rh25  1  0.500000  0.670519  0.988064  1
  Rh  Rh26  1  0.000000  0.163787  0.009669  1
  Rh  Rh27  1  0.000000  0.831255  0.010608  1
  Rh  Rh28  1  0.500000  0.297994  0.431184  1
  Rh  Rh29  1  0.500000  0.702991  0.431798  1
  Rh  Rh30  1  0.000000  0.201441  0.568601  1
  Rh  Rh31  1  0.000000  0.797628  0.568690  1
  Rh  Rh32  1  0.500000  0.870956  0.709455  1
  Rh  Rh33  1  0.500000  0.129664  0.713081  1
  Rh  Rh34  1  0.000000  0.629679  0.290550  1
  Rh  Rh35  1  0.000000  0.370399  0.286161  1
