# generated using pymatgen
data_TbCe3(PrSi)16
_symmetry_space_group_name_H-M   'P 1'
_cell_length_a   7.83241306
_cell_length_b   7.83241323
_cell_length_c   15.34826500
_cell_angle_alpha   89.99282377
_cell_angle_beta   90.00717623
_cell_angle_gamma   89.98797469
_symmetry_Int_Tables_number   1
_chemical_formula_structural   TbCe3(PrSi)16
_chemical_formula_sum   'Tb1 Ce3 Pr16 Si16'
_cell_volume   941.56530722
_cell_formula_units_Z   1
loop_
 _symmetry_equiv_pos_site_id
 _symmetry_equiv_pos_as_xyz
  1  'x, y, z'
loop_
 _atom_site_type_symbol
 _atom_site_label
 _atom_site_symmetry_multiplicity
 _atom_site_fract_x
 _atom_site_fract_y
 _atom_site_fract_z
 _atom_site_occupancy
  Tb  Tb0  1  0.308752  0.308752  0.000000  1
  Ce  Ce1  1  0.193114  0.806958  0.249965  1
  Ce  Ce2  1  0.806958  0.193114  0.750035  1
  Ce  Ce3  1  0.695113  0.695113  0.500000  1
  Pr  Pr4  1  0.382105  0.010566  0.444556  1
  Pr  Pr5  1  0.488417  0.883066  0.694607  1
  Pr  Pr6  1  0.510330  0.117053  0.194641  1
  Pr  Pr7  1  0.883066  0.488417  0.305393  1
  Pr  Pr8  1  0.117053  0.510330  0.805359  1
  Pr  Pr9  1  0.620356  0.987899  0.944561  1
  Pr  Pr10  1  0.010566  0.382105  0.555444  1
  Pr  Pr11  1  0.987899  0.620356  0.055439  1
  Pr  Pr12  1  0.123609  0.979036  0.876559  1
  Pr  Pr13  1  0.518162  0.627225  0.127570  1
  Pr  Pr14  1  0.481517  0.374605  0.627899  1
  Pr  Pr15  1  0.627225  0.518162  0.872430  1
  Pr  Pr16  1  0.374605  0.481517  0.372101  1
  Pr  Pr17  1  0.875414  0.018995  0.377345  1
  Pr  Pr18  1  0.979036  0.123609  0.123441  1
  Pr  Pr19  1  0.018995  0.875414  0.622655  1
  Si  Si20  1  0.188552  0.172484  0.705717  1
  Si  Si21  1  0.328071  0.689108  0.954479  1
  Si  Si22  1  0.671748  0.310967  0.454233  1
  Si  Si23  1  0.689108  0.328071  0.045521  1
  Si  Si24  1  0.310967  0.671748  0.545767  1
  Si  Si25  1  0.810543  0.826390  0.205347  1
  Si  Si26  1  0.172484  0.188552  0.294283  1
  Si  Si27  1  0.826390  0.810543  0.794653  1
  Si  Si28  1  0.286304  0.921750  0.059866  1
  Si  Si29  1  0.579143  0.787555  0.310519  1
  Si  Si30  1  0.419350  0.212709  0.812390  1
  Si  Si31  1  0.787555  0.579143  0.689481  1
  Si  Si32  1  0.212709  0.419350  0.187610  1
  Si  Si33  1  0.712202  0.080834  0.560295  1
  Si  Si34  1  0.921750  0.286304  0.940134  1
  Si  Si35  1  0.080834  0.712202  0.439705  1
