# generated using pymatgen
data_Er3Lu5Cd2IrRu
_symmetry_space_group_name_H-M   'P 1'
_cell_length_a   9.47979731
_cell_length_b   9.47979851
_cell_length_c   9.52620500
_cell_angle_alpha   59.83793562
_cell_angle_beta   59.83793138
_cell_angle_gamma   59.68793511
_symmetry_Int_Tables_number   1
_chemical_formula_structural   Er3Lu5Cd2IrRu
_chemical_formula_sum   'Er6 Lu10 Cd4 Ir2 Ru2'
_cell_volume   602.42800758
_cell_formula_units_Z   2
loop_
 _symmetry_equiv_pos_site_id
 _symmetry_equiv_pos_as_xyz
  1  'x, y, z'
loop_
 _atom_site_type_symbol
 _atom_site_label
 _atom_site_symmetry_multiplicity
 _atom_site_fract_x
 _atom_site_fract_y
 _atom_site_fract_z
 _atom_site_occupancy
  Er  Er0  1  0.189138  0.808836  0.812595  1
  Er  Er1  1  0.808836  0.189138  0.189431  1
  Er  Er2  1  0.808836  0.189138  0.812595  1
  Er  Er3  1  0.189138  0.808836  0.189431  1
  Er  Er4  1  0.810313  0.810313  0.189687  1
  Er  Er5  1  0.189200  0.189200  0.810800  1
  Lu  Lu6  1  0.598159  0.598159  0.597822  1
  Lu  Lu7  1  0.598159  0.598159  0.205859  1
  Lu  Lu8  1  0.597021  0.209646  0.596666  1
  Lu  Lu9  1  0.209646  0.597021  0.596666  1
  Lu  Lu10  1  0.062347  0.437459  0.439712  1
  Lu  Lu11  1  0.437459  0.062347  0.060482  1
  Lu  Lu12  1  0.437459  0.062347  0.439712  1
  Lu  Lu13  1  0.062347  0.437459  0.060482  1
  Lu  Lu14  1  0.437642  0.437642  0.062358  1
  Lu  Lu15  1  0.059748  0.059748  0.440252  1
  Cd  Cd16  1  0.830536  0.830536  0.830579  1
  Cd  Cd17  1  0.830536  0.830536  0.508349  1
  Cd  Cd18  1  0.831011  0.507359  0.830815  1
  Cd  Cd19  1  0.507359  0.831011  0.830815  1
  Ir  Ir20  1  0.393746  0.827154  0.389550  1
  Ir  Ir21  1  0.827154  0.393746  0.389550  1
  Ru  Ru22  1  0.392105  0.392105  0.387764  1
  Ru  Ru23  1  0.392105  0.392105  0.828025  1
