# generated using pymatgen
data_Tb2Ho8(InBi)3
_symmetry_space_group_name_H-M   'P 1'
_cell_length_a   9.03879258
_cell_length_b   9.04442181
_cell_length_c   6.55721800
_cell_angle_alpha   90.00000000
_cell_angle_beta   90.00000000
_cell_angle_gamma   120.02060836
_symmetry_Int_Tables_number   1
_chemical_formula_structural   Tb2Ho8(InBi)3
_chemical_formula_sum   'Tb2 Ho8 In3 Bi3'
_cell_volume   464.14241639
_cell_formula_units_Z   1
loop_
 _symmetry_equiv_pos_site_id
 _symmetry_equiv_pos_as_xyz
  1  'x, y, z'
loop_
 _atom_site_type_symbol
 _atom_site_label
 _atom_site_symmetry_multiplicity
 _atom_site_fract_x
 _atom_site_fract_y
 _atom_site_fract_z
 _atom_site_occupancy
  Tb  Tb0  1  0.763708  0.763647  0.750000  1
  Tb  Tb1  1  0.236292  0.999939  0.750000  1
  Ho  Ho2  1  0.666311  0.333125  0.007033  1
  Ho  Ho3  1  0.333689  0.666815  0.007033  1
  Ho  Ho4  1  0.333689  0.666815  0.492967  1
  Ho  Ho5  1  0.666311  0.333125  0.492967  1
  Ho  Ho6  1  0.000000  0.236780  0.750000  1
  Ho  Ho7  1  0.238223  0.238625  0.250000  1
  Ho  Ho8  1  0.761777  0.000402  0.250000  1
  Ho  Ho9  1  0.000000  0.761021  0.250000  1
  In  In10  1  0.607175  0.606547  0.250000  1
  In  In11  1  0.392825  0.999372  0.250000  1
  In  In12  1  0.000000  0.394314  0.250000  1
  Bi  Bi13  1  0.396026  0.396608  0.750000  1
  Bi  Bi14  1  0.603974  0.000583  0.750000  1
  Bi  Bi15  1  0.000000  0.602282  0.750000  1
