# generated using pymatgen
data_Tc2OsRu5
_symmetry_space_group_name_H-M   'P 1'
_cell_length_a   5.49101500
_cell_length_b   5.48715801
_cell_length_c   4.33176700
_cell_angle_alpha   89.99997811
_cell_angle_beta   90.00000000
_cell_angle_gamma   120.02326092
_symmetry_Int_Tables_number   1
_chemical_formula_structural   Tc2OsRu5
_chemical_formula_sum   'Tc2 Os1 Ru5'
_cell_volume   113.00404084
_cell_formula_units_Z   1
loop_
 _symmetry_equiv_pos_site_id
 _symmetry_equiv_pos_as_xyz
  1  'x, y, z'
loop_
 _atom_site_type_symbol
 _atom_site_label
 _atom_site_symmetry_multiplicity
 _atom_site_fract_x
 _atom_site_fract_y
 _atom_site_fract_z
 _atom_site_occupancy
  Tc  Tc0  1  0.333541  0.667082  0.749998  1
  Tc  Tc1  1  0.668576  0.337150  0.250001  1
  Os  Os2  1  0.166633  0.333265  0.250000  1
  Ru  Ru3  1  0.667645  0.830419  0.250001  1
  Ru  Ru4  1  0.162774  0.830419  0.250001  1
  Ru  Ru5  1  0.833339  0.666675  0.749998  1
  Ru  Ru6  1  0.334067  0.167494  0.749998  1
  Ru  Ru7  1  0.833428  0.167494  0.749998  1
