# generated using pymatgen
data_Er4Al4Pd3Rh
_symmetry_space_group_name_H-M   'P 1'
_cell_length_a   4.39577900
_cell_length_b   6.79374378
_cell_length_c   7.81161982
_cell_angle_alpha   89.76157722
_cell_angle_beta   90.00000000
_cell_angle_gamma   90.00000000
_symmetry_Int_Tables_number   1
_chemical_formula_structural   Er4Al4Pd3Rh
_chemical_formula_sum   'Er4 Al4 Pd3 Rh1'
_cell_volume   233.28260289
_cell_formula_units_Z   1
loop_
 _symmetry_equiv_pos_site_id
 _symmetry_equiv_pos_as_xyz
  1  'x, y, z'
loop_
 _atom_site_type_symbol
 _atom_site_label
 _atom_site_symmetry_multiplicity
 _atom_site_fract_x
 _atom_site_fract_y
 _atom_site_fract_z
 _atom_site_occupancy
  Er  Er0  1  0.250000  0.037075  0.323331  1
  Er  Er1  1  0.250000  0.534835  0.179534  1
  Er  Er2  1  0.750000  0.972837  0.679099  1
  Er  Er3  1  0.750000  0.463051  0.817763  1
  Al  Al4  1  0.250000  0.144150  0.938063  1
  Al  Al5  1  0.250000  0.635541  0.561422  1
  Al  Al6  1  0.750000  0.858327  0.059657  1
  Al  Al7  1  0.750000  0.357397  0.441479  1
  Pd  Pd8  1  0.250000  0.770062  0.878631  1
  Pd  Pd9  1  0.750000  0.732074  0.378953  1
  Pd  Pd10  1  0.750000  0.232093  0.122351  1
  Rh  Rh11  1  0.250000  0.262557  0.619717  1
