# generated using pymatgen
data_Li4TbDy(HoSi3)2
_symmetry_space_group_name_H-M   'P 1'
_cell_length_a   9.26671467
_cell_length_b   9.26671281
_cell_length_c   6.68390200
_cell_angle_alpha   90.00000000
_cell_angle_beta   90.00000000
_cell_angle_gamma   153.52037965
_symmetry_Int_Tables_number   1
_chemical_formula_structural   Li4TbDy(HoSi3)2
_chemical_formula_sum   'Li4 Tb1 Dy1 Ho2 Si6'
_cell_volume   255.91694249
_cell_formula_units_Z   1
loop_
 _symmetry_equiv_pos_site_id
 _symmetry_equiv_pos_as_xyz
  1  'x, y, z'
loop_
 _atom_site_type_symbol
 _atom_site_label
 _atom_site_symmetry_multiplicity
 _atom_site_fract_x
 _atom_site_fract_y
 _atom_site_fract_z
 _atom_site_occupancy
  Li  Li0  1  0.190508  0.809492  0.059076  1
  Li  Li1  1  0.190508  0.809492  0.440924  1
  Li  Li2  1  0.809664  0.190336  0.940369  1
  Li  Li3  1  0.809664  0.190336  0.559631  1
  Tb  Tb4  1  0.552859  0.447141  0.250000  1
  Dy  Dy5  1  0.447005  0.552995  0.750000  1
  Ho  Ho6  1  0.344961  0.655039  0.250000  1
  Ho  Ho7  1  0.654935  0.345065  0.750000  1
  Si  Si8  1  0.721125  0.278875  0.250000  1
  Si  Si9  1  0.279228  0.720772  0.750000  1
  Si  Si10  1  0.059318  0.940682  0.927236  1
  Si  Si11  1  0.940454  0.059546  0.072390  1
  Si  Si12  1  0.940454  0.059546  0.427610  1
  Si  Si13  1  0.059318  0.940682  0.572764  1
