# generated using pymatgen
data_Tb2Sm2ReRu7
_symmetry_space_group_name_H-M   'P 1'
_cell_length_a   5.21564369
_cell_length_b   5.49665519
_cell_length_c   9.08341121
_cell_angle_alpha   89.99999976
_cell_angle_beta   89.97859563
_cell_angle_gamma   121.79888543
_symmetry_Int_Tables_number   1
_chemical_formula_structural   Tb2Sm2ReRu7
_chemical_formula_sum   'Tb2 Sm2 Re1 Ru7'
_cell_volume   221.32204566
_cell_formula_units_Z   1
loop_
 _symmetry_equiv_pos_site_id
 _symmetry_equiv_pos_as_xyz
  1  'x, y, z'
loop_
 _atom_site_type_symbol
 _atom_site_label
 _atom_site_symmetry_multiplicity
 _atom_site_fract_x
 _atom_site_fract_y
 _atom_site_fract_z
 _atom_site_occupancy
  Tb  Tb0  1  0.653263  0.326631  0.935056  1
  Tb  Tb1  1  0.327098  0.663549  0.066815  1
  Sm  Sm2  1  0.325754  0.662877  0.433034  1
  Sm  Sm3  1  0.654883  0.327441  0.564655  1
  Re  Re4  1  0.690027  0.845013  0.752205  1
  Ru  Ru5  1  0.973815  0.986907  0.500420  1
  Ru  Ru6  1  0.973687  0.986843  0.000047  1
  Ru  Ru7  1  0.838395  0.165340  0.247582  1
  Ru  Ru8  1  0.838395  0.673054  0.247582  1
  Ru  Ru9  1  0.356436  0.178218  0.247061  1
  Ru  Ru10  1  0.184125  0.830124  0.752771  1
  Ru  Ru11  1  0.184125  0.354002  0.752771  1
