# generated using pymatgen
data_Lu5Th3(Nb3Si4)4
_symmetry_space_group_name_H-M   'P 1'
_cell_length_a   7.09098636
_cell_length_b   7.08949014
_cell_length_c   13.12956880
_cell_angle_alpha   89.84076238
_cell_angle_beta   90.00766410
_cell_angle_gamma   90.12686782
_symmetry_Int_Tables_number   1
_chemical_formula_structural   Lu5Th3(Nb3Si4)4
_chemical_formula_sum   'Lu5 Th3 Nb12 Si16'
_cell_volume   660.03865488
_cell_formula_units_Z   1
loop_
 _symmetry_equiv_pos_site_id
 _symmetry_equiv_pos_as_xyz
  1  'x, y, z'
loop_
 _atom_site_type_symbol
 _atom_site_label
 _atom_site_symmetry_multiplicity
 _atom_site_fract_x
 _atom_site_fract_y
 _atom_site_fract_z
 _atom_site_occupancy
  Lu  Lu0  1  0.000141  0.342891  0.215879  1
  Lu  Lu1  1  0.998422  0.657877  0.718843  1
  Lu  Lu2  1  0.157798  0.501485  0.467160  1
  Lu  Lu3  1  0.498961  0.841071  0.032028  1
  Lu  Lu4  1  0.840834  0.499625  0.968520  1
  Th  Th5  1  0.497276  0.161420  0.532475  1
  Th  Th6  1  0.339630  0.996176  0.783123  1
  Th  Th7  1  0.660875  0.003600  0.281537  1
  Nb  Nb8  1  0.168719  0.171005  0.999521  1
  Nb  Nb9  1  0.830340  0.829785  0.499471  1
  Nb  Nb10  1  0.329490  0.670344  0.248261  1
  Nb  Nb11  1  0.669733  0.330224  0.751369  1
  Nb  Nb12  1  0.155219  0.990477  0.373930  1
  Nb  Nb13  1  0.846577  0.006679  0.877002  1
  Nb  Nb14  1  0.509332  0.654235  0.626493  1
  Nb  Nb15  1  0.346267  0.495386  0.876303  1
  Nb  Nb16  1  0.491717  0.347498  0.125091  1
  Nb  Nb17  1  0.655694  0.502603  0.373383  1
  Nb  Nb18  1  0.998566  0.156688  0.624944  1
  Nb  Nb19  1  0.002753  0.845030  0.124148  1
  Si  Si20  1  0.287339  0.045031  0.182801  1
  Si  Si21  1  0.717395  0.951944  0.687663  1
  Si  Si22  1  0.451898  0.782867  0.436562  1
  Si  Si23  1  0.202949  0.543329  0.063567  1
  Si  Si24  1  0.547417  0.208220  0.939400  1
  Si  Si25  1  0.800706  0.460745  0.564237  1
  Si  Si26  1  0.038562  0.301182  0.814904  1
  Si  Si27  1  0.958795  0.699235  0.312768  1
  Si  Si28  1  0.359708  0.301039  0.315195  1
  Si  Si29  1  0.638883  0.700032  0.819370  1
  Si  Si30  1  0.198498  0.860537  0.566244  1
  Si  Si31  1  0.127727  0.790319  0.935286  1
  Si  Si32  1  0.797426  0.135741  0.066347  1
  Si  Si33  1  0.879534  0.209573  0.433138  1
  Si  Si34  1  0.289541  0.378728  0.684141  1
  Si  Si35  1  0.705278  0.627378  0.178896  1
