# generated using pymatgen
data_Sc4Si2B4Ir9Ru
_symmetry_space_group_name_H-M   'P 1'
_cell_length_a   9.29572021
_cell_length_b   9.29572021
_cell_length_c   3.08012000
_cell_angle_alpha   90.00000000
_cell_angle_beta   90.00000000
_cell_angle_gamma   89.61595314
_symmetry_Int_Tables_number   1
_chemical_formula_structural   Sc4Si2B4Ir9Ru
_chemical_formula_sum   'Sc4 Si2 B4 Ir9 Ru1'
_cell_volume   266.14846584
_cell_formula_units_Z   1
loop_
 _symmetry_equiv_pos_site_id
 _symmetry_equiv_pos_as_xyz
  1  'x, y, z'
loop_
 _atom_site_type_symbol
 _atom_site_label
 _atom_site_symmetry_multiplicity
 _atom_site_fract_x
 _atom_site_fract_y
 _atom_site_fract_z
 _atom_site_occupancy
  Sc  Sc0  1  0.175475  0.675475  0.000000  1
  Sc  Sc1  1  0.672614  0.827386  0.000000  1
  Sc  Sc2  1  0.327386  0.172614  0.000000  1
  Sc  Sc3  1  0.824525  0.324525  0.000000  1
  Si  Si4  1  0.000000  0.000000  0.000000  1
  Si  Si5  1  0.500000  0.500000  0.000000  1
  B  B6  1  0.377448  0.877448  0.000000  1
  B  B7  1  0.875759  0.624241  0.000000  1
  B  B8  1  0.124241  0.375759  0.000000  1
  B  B9  1  0.622552  0.122552  0.000000  1
  Ir  Ir10  1  0.000000  0.500000  0.500000  1
  Ir  Ir11  1  0.288058  0.429238  0.500000  1
  Ir  Ir12  1  0.711943  0.570762  0.500000  1
  Ir  Ir13  1  0.570585  0.288806  0.500000  1
  Ir  Ir14  1  0.429415  0.711195  0.500000  1
  Ir  Ir15  1  0.929238  0.788057  0.500000  1
  Ir  Ir16  1  0.788805  0.070585  0.500000  1
  Ir  Ir17  1  0.211194  0.929415  0.500000  1
  Ir  Ir18  1  0.070762  0.211942  0.500000  1
  Ru  Ru19  1  0.500000  0.000000  0.500000  1
