# generated using pymatgen
data_Sm2Tc5(PIr)7
_symmetry_space_group_name_H-M   'P 1'
_cell_length_a   9.56639200
_cell_length_b   9.52406853
_cell_length_c   4.03045600
_cell_angle_alpha   90.00000000
_cell_angle_beta   90.00000000
_cell_angle_gamma   120.21686396
_symmetry_Int_Tables_number   1
_chemical_formula_structural   Sm2Tc5(PIr)7
_chemical_formula_sum   'Sm2 Tc5 P7 Ir7'
_cell_volume   317.32354546
_cell_formula_units_Z   1
loop_
 _symmetry_equiv_pos_site_id
 _symmetry_equiv_pos_as_xyz
  1  'x, y, z'
loop_
 _atom_site_type_symbol
 _atom_site_label
 _atom_site_symmetry_multiplicity
 _atom_site_fract_x
 _atom_site_fract_y
 _atom_site_fract_z
 _atom_site_occupancy
  Sm  Sm0  1  0.663792  0.331346  0.000000  1
  Sm  Sm1  1  0.334419  0.664616  0.500000  1
  Tc  Tc2  1  0.264783  0.101526  0.000000  1
  Tc  Tc3  1  0.842424  0.730186  0.000000  1
  Tc  Tc4  1  0.889160  0.166690  0.000000  1
  Tc  Tc5  1  0.783345  0.911803  0.500000  1
  Tc  Tc6  1  0.128226  0.221927  0.500000  1
  P  P7  1  0.307548  0.886042  0.000000  1
  P  P8  1  0.587561  0.699341  0.000000  1
  P  P9  1  0.117903  0.416096  0.000000  1
  P  P10  1  0.396229  0.278453  0.500000  1
  P  P11  1  0.873484  0.596347  0.500000  1
  P  P12  1  0.721220  0.120607  0.500000  1
  P  P13  1  0.995721  0.005385  0.000000  1
  Ir  Ir14  1  0.072543  0.637205  0.000000  1
  Ir  Ir15  1  0.567841  0.930065  0.000000  1
  Ir  Ir16  1  0.365893  0.432943  0.000000  1
  Ir  Ir17  1  0.445543  0.053731  0.500000  1
  Ir  Ir18  1  0.607984  0.554830  0.500000  1
  Ir  Ir19  1  0.945635  0.397075  0.500000  1
  Ir  Ir20  1  0.088749  0.863786  0.500000  1
