# generated using pymatgen
data_Lu12ZnFe3Au
_symmetry_space_group_name_H-M   'P 1'
_cell_length_a   8.05400249
_cell_length_b   8.05402565
_cell_length_c   8.05400281
_cell_angle_alpha   109.12116835
_cell_angle_beta   108.27523434
_cell_angle_gamma   111.02951918
_symmetry_Int_Tables_number   1
_chemical_formula_structural   Lu12ZnFe3Au
_chemical_formula_sum   'Lu12 Zn1 Fe3 Au1'
_cell_volume   401.93013651
_cell_formula_units_Z   1
loop_
 _symmetry_equiv_pos_site_id
 _symmetry_equiv_pos_as_xyz
  1  'x, y, z'
loop_
 _atom_site_type_symbol
 _atom_site_label
 _atom_site_symmetry_multiplicity
 _atom_site_fract_x
 _atom_site_fract_y
 _atom_site_fract_z
 _atom_site_occupancy
  Lu  Lu0  1  0.308084  0.309748  0.617846  1
  Lu  Lu1  1  0.691916  0.690252  0.382154  1
  Lu  Lu2  1  0.691902  0.309748  0.001664  1
  Lu  Lu3  1  0.308098  0.690252  0.998336  1
  Lu  Lu4  1  0.191688  0.444554  0.252866  1
  Lu  Lu5  1  0.808312  0.555446  0.747134  1
  Lu  Lu6  1  0.191695  0.938835  0.747140  1
  Lu  Lu7  1  0.952966  0.185809  0.767129  1
  Lu  Lu8  1  0.808305  0.061165  0.252860  1
  Lu  Lu9  1  0.047034  0.814191  0.232871  1
  Lu  Lu10  1  0.418680  0.185809  0.232842  1
  Lu  Lu11  1  0.581320  0.814191  0.767158  1
  Zn  Zn12  1  0.500000  0.000000  0.500000  1
  Fe  Fe13  1  0.380435  0.380440  0.000004  1
  Fe  Fe14  1  0.619565  0.619560  0.999996  1
  Fe  Fe15  1  0.000000  0.000000  0.000000  1
  Au  Au16  1  0.000000  0.500000  0.500000  1
