# generated using pymatgen
data_Y7Lu(Zr2Pb5)2
_symmetry_space_group_name_H-M   'P 1'
_cell_length_a   6.30267166
_cell_length_b   9.38274553
_cell_length_c   11.53866800
_cell_angle_alpha   114.02925146
_cell_angle_beta   105.84947405
_cell_angle_gamma   89.99999312
_symmetry_Int_Tables_number   1
_chemical_formula_structural   Y7Lu(Zr2Pb5)2
_chemical_formula_sum   'Y7 Lu1 Zr4 Pb10'
_cell_volume   594.70511162
_cell_formula_units_Z   1
loop_
 _symmetry_equiv_pos_site_id
 _symmetry_equiv_pos_as_xyz
  1  'x, y, z'
loop_
 _atom_site_type_symbol
 _atom_site_label
 _atom_site_symmetry_multiplicity
 _atom_site_fract_x
 _atom_site_fract_y
 _atom_site_fract_z
 _atom_site_occupancy
  Y  Y0  1  0.440349  0.669393  0.880698  1
  Y  Y1  1  0.559645  0.329392  0.119292  1
  Y  Y2  1  0.940171  0.209368  0.880342  1
  Y  Y3  1  0.059807  0.790549  0.119614  1
  Y  Y4  1  0.145902  0.257430  0.291803  1
  Y  Y5  1  0.854462  0.744067  0.708925  1
  Y  Y6  1  0.645797  0.034911  0.291594  1
  Lu  Lu7  1  0.353544  0.963642  0.707087  1
  Zr  Zr8  1  0.554430  0.305244  0.608891  1
  Zr  Zr9  1  0.445592  0.696401  0.391874  1
  Zr  Zr10  1  0.946281  0.696401  0.391874  1
  Zr  Zr11  1  0.054461  0.305244  0.608891  1
  Pb  Pb12  1  0.291424  0.591879  0.582845  1
  Pb  Pb13  1  0.709090  0.410613  0.418182  1
  Pb  Pb14  1  0.791041  0.992310  0.582079  1
  Pb  Pb15  1  0.209458  0.008214  0.418918  1
  Pb  Pb16  1  0.249888  0.999417  0.999061  1
  Pb  Pb17  1  0.749173  0.999417  0.999061  1
  Pb  Pb18  1  0.078127  0.476612  0.156257  1
  Pb  Pb19  1  0.922044  0.523977  0.844088  1
  Pb  Pb20  1  0.578241  0.679663  0.156485  1
  Pb  Pb21  1  0.421070  0.315857  0.842139  1
