# generated using pymatgen
data_Th4Zn4Ru3Rh
_symmetry_space_group_name_H-M   'P 1'
_cell_length_a   3.93926200
_cell_length_b   7.53379054
_cell_length_c   16.49135652
_cell_angle_alpha   89.64075956
_cell_angle_beta   90.00000000
_cell_angle_gamma   90.00000000
_symmetry_Int_Tables_number   1
_chemical_formula_structural   Th4Zn4Ru3Rh
_chemical_formula_sum   'Th8 Zn8 Ru6 Rh2'
_cell_volume   489.41384625
_cell_formula_units_Z   2
loop_
 _symmetry_equiv_pos_site_id
 _symmetry_equiv_pos_as_xyz
  1  'x, y, z'
loop_
 _atom_site_type_symbol
 _atom_site_label
 _atom_site_symmetry_multiplicity
 _atom_site_fract_x
 _atom_site_fract_y
 _atom_site_fract_z
 _atom_site_occupancy
  Th  Th0  1  0.250000  0.676307  0.560033  1
  Th  Th1  1  0.750000  0.823426  0.058443  1
  Th  Th2  1  0.250000  0.055959  0.716242  1
  Th  Th3  1  0.250000  0.174778  0.937110  1
  Th  Th4  1  0.750000  0.936306  0.283890  1
  Th  Th5  1  0.250000  0.558505  0.783048  1
  Th  Th6  1  0.750000  0.447274  0.216991  1
  Th  Th7  1  0.750000  0.327270  0.443459  1
  Zn  Zn8  1  0.250000  0.114500  0.151314  1
  Zn  Zn9  1  0.750000  0.506496  0.939460  1
  Zn  Zn10  1  0.750000  0.003339  0.559051  1
  Zn  Zn11  1  0.750000  0.384680  0.650629  1
  Zn  Zn12  1  0.750000  0.883693  0.849020  1
  Zn  Zn13  1  0.250000  0.494922  0.058749  1
  Zn  Zn14  1  0.250000  0.616120  0.350211  1
  Zn  Zn15  1  0.250000  0.996440  0.440772  1
  Ru  Ru16  1  0.750000  0.747101  0.438358  1
  Ru  Ru17  1  0.750000  0.260303  0.814774  1
  Ru  Ru18  1  0.750000  0.757530  0.687009  1
  Ru  Ru19  1  0.250000  0.739719  0.186502  1
  Ru  Ru20  1  0.250000  0.754790  0.939787  1
  Ru  Ru21  1  0.250000  0.253280  0.561375  1
  Rh  Rh22  1  0.750000  0.246801  0.062028  1
  Rh  Rh23  1  0.250000  0.240457  0.311747  1
