# generated using pymatgen
data_Tm7Pa(TcB6)4
_symmetry_space_group_name_H-M   'P 1'
_cell_length_a   3.65541100
_cell_length_b   9.08657962
_cell_length_c   11.45097709
_cell_angle_alpha   90.13152905
_cell_angle_beta   90.00000000
_cell_angle_gamma   90.00000000
_symmetry_Int_Tables_number   1
_chemical_formula_structural   Tm7Pa(TcB6)4
_chemical_formula_sum   'Tm7 Pa1 Tc4 B24'
_cell_volume   380.34529838
_cell_formula_units_Z   1
loop_
 _symmetry_equiv_pos_site_id
 _symmetry_equiv_pos_as_xyz
  1  'x, y, z'
loop_
 _atom_site_type_symbol
 _atom_site_label
 _atom_site_symmetry_multiplicity
 _atom_site_fract_x
 _atom_site_fract_y
 _atom_site_fract_z
 _atom_site_occupancy
  Tm  Tm0  1  0.000000  0.679425  0.586917  1
  Tm  Tm1  1  0.000000  0.823296  0.084920  1
  Tm  Tm2  1  0.000000  0.175528  0.913666  1
  Tm  Tm3  1  0.000000  0.942212  0.370960  1
  Tm  Tm4  1  0.000000  0.055393  0.630134  1
  Tm  Tm5  1  0.000000  0.443259  0.128089  1
  Tm  Tm6  1  0.000000  0.557771  0.869888  1
  Pa  Pa7  1  0.000000  0.323440  0.414167  1
  Tc  Tc8  1  0.000000  0.636381  0.321430  1
  Tc  Tc9  1  0.000000  0.361993  0.676961  1
  Tc  Tc10  1  0.000000  0.140717  0.181560  1
  Tc  Tc11  1  0.000000  0.861430  0.820861  1
  B  B12  1  0.500000  0.553249  0.432575  1
  B  B13  1  0.500000  0.446309  0.567107  1
  B  B14  1  0.500000  0.053581  0.066882  1
  B  B15  1  0.500000  0.947025  0.933983  1
  B  B16  1  0.500000  0.749450  0.418934  1
  B  B17  1  0.500000  0.250153  0.581293  1
  B  B18  1  0.500000  0.249227  0.079957  1
  B  B19  1  0.500000  0.750635  0.919470  1
  B  B20  1  0.500000  0.792196  0.265235  1
  B  B21  1  0.500000  0.207612  0.735516  1
  B  B22  1  0.500000  0.292027  0.234445  1
  B  B23  1  0.500000  0.707770  0.765220  1
  B  B24  1  0.500000  0.631168  0.184107  1
  B  B25  1  0.500000  0.369714  0.814890  1
  B  B26  1  0.500000  0.131174  0.315178  1
  B  B27  1  0.500000  0.868934  0.685490  1
  B  B28  1  0.500000  0.981639  0.211940  1
  B  B29  1  0.500000  0.018293  0.788443  1
  B  B30  1  0.500000  0.482625  0.287220  1
  B  B31  1  0.500000  0.518596  0.712759  1
  B  B32  1  0.500000  0.601649  0.027713  1
  B  B33  1  0.500000  0.398483  0.971113  1
  B  B34  1  0.500000  0.102440  0.471766  1
  B  B35  1  0.500000  0.895207  0.529211  1
