# generated using pymatgen
data_CaYb15(CN4)4
_symmetry_space_group_name_H-M   'P 1'
_cell_length_a   11.29004356
_cell_length_b   3.50996200
_cell_length_c   13.85938820
_cell_angle_alpha   90.00000000
_cell_angle_beta   89.92242145
_cell_angle_gamma   90.00000000
_symmetry_Int_Tables_number   1
_chemical_formula_structural   CaYb15(CN4)4
_chemical_formula_sum   'Ca1 Yb15 C4 N16'
_cell_volume   549.21411965
_cell_formula_units_Z   1
loop_
 _symmetry_equiv_pos_site_id
 _symmetry_equiv_pos_as_xyz
  1  'x, y, z'
loop_
 _atom_site_type_symbol
 _atom_site_label
 _atom_site_symmetry_multiplicity
 _atom_site_fract_x
 _atom_site_fract_y
 _atom_site_fract_z
 _atom_site_occupancy
  Ca  Ca0  1  0.117419  0.250000  0.169211  1
  Yb  Yb1  1  0.619576  0.250000  0.332923  1
  Yb  Yb2  1  0.880577  0.750000  0.832408  1
  Yb  Yb3  1  0.380822  0.750000  0.667423  1
  Yb  Yb4  1  0.878840  0.250000  0.042010  1
  Yb  Yb5  1  0.380127  0.250000  0.457611  1
  Yb  Yb6  1  0.120246  0.750000  0.957004  1
  Yb  Yb7  1  0.620755  0.750000  0.542965  1
  Yb  Yb8  1  0.375541  0.250000  0.881768  1
  Yb  Yb9  1  0.875667  0.250000  0.617809  1
  Yb  Yb10  1  0.624026  0.750000  0.117688  1
  Yb  Yb11  1  0.124786  0.750000  0.383589  1
  Yb  Yb12  1  0.136894  0.250000  0.758238  1
  Yb  Yb13  1  0.636774  0.250000  0.741496  1
  Yb  Yb14  1  0.862082  0.750000  0.241199  1
  Yb  Yb15  1  0.364220  0.750000  0.258771  1
  C  C16  1  0.361954  0.250000  0.084413  1
  C  C17  1  0.861261  0.250000  0.415592  1
  C  C18  1  0.638568  0.750000  0.915110  1
  C  C19  1  0.139186  0.750000  0.584767  1
  N  N20  1  0.734765  0.250000  0.186619  1
  N  N21  1  0.235801  0.250000  0.314314  1
  N  N22  1  0.264792  0.750000  0.813241  1
  N  N23  1  0.764817  0.750000  0.686222  1
  N  N24  1  0.000358  0.250000  0.881984  1
  N  N25  1  0.500723  0.250000  0.617320  1
  N  N26  1  0.997717  0.750000  0.115650  1
  N  N27  1  0.499750  0.750000  0.383017  1
  N  N28  1  0.269129  0.250000  0.036151  1
  N  N29  1  0.767823  0.250000  0.463310  1
  N  N30  1  0.731707  0.750000  0.963023  1
  N  N31  1  0.232719  0.750000  0.537089  1
  N  N32  1  0.454966  0.250000  0.132274  1
  N  N33  1  0.954916  0.250000  0.368453  1
  N  N34  1  0.545276  0.750000  0.867673  1
  N  N35  1  0.045420  0.750000  0.631666  1
