# generated using pymatgen
data_Dy2Fe2Te
_symmetry_space_group_name_H-M   'P 1'
_cell_length_a   3.93063200
_cell_length_b   3.93063186
_cell_length_c   16.21158100
_cell_angle_alpha   90.00000000
_cell_angle_beta   90.00000000
_cell_angle_gamma   120.00000120
_symmetry_Int_Tables_number   1
_chemical_formula_structural   Dy2Fe2Te
_chemical_formula_sum   'Dy4 Fe4 Te2'
_cell_volume   216.91058829
_cell_formula_units_Z   2
loop_
 _symmetry_equiv_pos_site_id
 _symmetry_equiv_pos_as_xyz
  1  'x, y, z'
loop_
 _atom_site_type_symbol
 _atom_site_label
 _atom_site_symmetry_multiplicity
 _atom_site_fract_x
 _atom_site_fract_y
 _atom_site_fract_z
 _atom_site_occupancy
  Dy  Dy0  1  0.000000  0.000000  0.116486  1
  Dy  Dy1  1  0.000000  0.000000  0.383514  1
  Dy  Dy2  1  0.000000  0.000000  0.616486  1
  Dy  Dy3  1  0.000000  0.000000  0.883514  1
  Fe  Fe4  1  0.333334  0.666667  0.005313  1
  Fe  Fe5  1  0.333334  0.666667  0.494687  1
  Fe  Fe6  1  0.666666  0.333334  0.505313  1
  Fe  Fe7  1  0.666666  0.333334  0.994687  1
  Te  Te8  1  0.666666  0.333334  0.250000  1
  Te  Te9  1  0.333334  0.666667  0.750000  1
