# generated using pymatgen
data_Er4Ga17SiRh6
_symmetry_space_group_name_H-M   'P 1'
_cell_length_a   7.55455336
_cell_length_b   7.52614863
_cell_length_c   9.47489100
_cell_angle_alpha   90.05989827
_cell_angle_beta   89.89222745
_cell_angle_gamma   119.90369143
_symmetry_Int_Tables_number   1
_chemical_formula_structural   Er4Ga17SiRh6
_chemical_formula_sum   'Er4 Ga17 Si1 Rh6'
_cell_volume   466.98864242
_cell_formula_units_Z   1
loop_
 _symmetry_equiv_pos_site_id
 _symmetry_equiv_pos_as_xyz
  1  'x, y, z'
loop_
 _atom_site_type_symbol
 _atom_site_label
 _atom_site_symmetry_multiplicity
 _atom_site_fract_x
 _atom_site_fract_y
 _atom_site_fract_z
 _atom_site_occupancy
  Er  Er0  1  0.996152  0.663462  0.247560  1
  Er  Er1  1  0.003218  0.330939  0.752344  1
  Er  Er2  1  0.674176  0.003249  0.247649  1
  Er  Er3  1  0.329924  0.002415  0.749567  1
  Ga  Ga4  1  0.127643  0.127169  0.250588  1
  Ga  Ga5  1  0.872848  0.874965  0.750423  1
  Ga  Ga6  1  0.999091  0.670880  0.918139  1
  Ga  Ga7  1  0.000219  0.665370  0.579717  1
  Ga  Ga8  1  0.333913  0.998257  0.419522  1
  Ga  Ga9  1  0.000653  0.334885  0.421660  1
  Ga  Ga10  1  0.665239  0.999842  0.579782  1
  Ga  Ga11  1  0.658491  0.994973  0.918121  1
  Ga  Ga12  1  0.333341  0.998067  0.080620  1
  Ga  Ga13  1  0.332952  0.331979  0.566066  1
  Ga  Ga14  1  0.669013  0.669626  0.433678  1
  Ga  Ga15  1  0.667604  0.669223  0.068211  1
  Ga  Ga16  1  0.338419  0.332580  0.932803  1
  Ga  Ga17  1  0.339130  0.547978  0.251063  1
  Ga  Ga18  1  0.663094  0.450782  0.751073  1
  Ga  Ga19  1  0.547138  0.338100  0.250483  1
  Ga  Ga20  1  0.450308  0.659572  0.750270  1
  Si  Si21  1  0.000676  0.334551  0.074617  1
  Rh  Rh22  1  0.683985  0.329883  0.003905  1
  Rh  Rh23  1  0.314533  0.657596  0.001436  1
  Rh  Rh24  1  0.328414  0.671364  0.500099  1
  Rh  Rh25  1  0.671837  0.328435  0.499630  1
  Rh  Rh26  1  0.998128  0.013478  0.001178  1
  Rh  Rh27  1  0.999860  0.000381  0.499794  1
