# generated using pymatgen
data_Ca4VFe(SbO6)2
_symmetry_space_group_name_H-M   'P 1'
_cell_length_a   5.48335952
_cell_length_b   5.63866853
_cell_length_c   7.82804618
_cell_angle_alpha   90.12069878
_cell_angle_beta   89.83016785
_cell_angle_gamma   90.10644784
_symmetry_Int_Tables_number   1
_chemical_formula_structural   Ca4VFe(SbO6)2
_chemical_formula_sum   'Ca4 V1 Fe1 Sb2 O12'
_cell_volume   242.03214519
_cell_formula_units_Z   1
loop_
 _symmetry_equiv_pos_site_id
 _symmetry_equiv_pos_as_xyz
  1  'x, y, z'
loop_
 _atom_site_type_symbol
 _atom_site_label
 _atom_site_symmetry_multiplicity
 _atom_site_fract_x
 _atom_site_fract_y
 _atom_site_fract_z
 _atom_site_occupancy
  Ca  Ca0  1  0.487848  0.550079  0.249951  1
  Ca  Ca1  1  0.012732  0.051444  0.250609  1
  Ca  Ca2  1  0.987268  0.948557  0.749391  1
  Ca  Ca3  1  0.512152  0.449921  0.750049  1
  V  V4  1  0.500001  0.000000  0.000000  1
  Fe  Fe5  1  0.999999  0.500000  0.500000  1
  Sb  Sb6  1  0.000000  0.500000  0.000000  1
  Sb  Sb7  1  0.499999  0.000000  0.500000  1
  O  O8  1  0.295908  0.301771  0.047839  1
  O  O9  1  0.197675  0.793933  0.049824  1
  O  O10  1  0.907089  0.470094  0.248205  1
  O  O11  1  0.593939  0.969378  0.252275  1
  O  O12  1  0.302147  0.293553  0.451119  1
  O  O13  1  0.203720  0.799114  0.452182  1
  O  O14  1  0.796281  0.200885  0.547818  1
  O  O15  1  0.697854  0.706446  0.548881  1
  O  O16  1  0.406062  0.030623  0.747726  1
  O  O17  1  0.092911  0.529905  0.751796  1
  O  O18  1  0.802325  0.206066  0.950176  1
  O  O19  1  0.704093  0.698228  0.952161  1
