# generated using pymatgen
data_PrTm7(P7Ir8)2
_symmetry_space_group_name_H-M   'P 1'
_cell_length_a   3.94255800
_cell_length_b   12.61536500
_cell_length_c   13.15222126
_cell_angle_alpha   80.68419254
_cell_angle_beta   90.00000000
_cell_angle_gamma   90.00000000
_symmetry_Int_Tables_number   1
_chemical_formula_structural   PrTm7(P7Ir8)2
_chemical_formula_sum   'Pr1 Tm7 P14 Ir16'
_cell_volume   645.52198980
_cell_formula_units_Z   1
loop_
 _symmetry_equiv_pos_site_id
 _symmetry_equiv_pos_as_xyz
  1  'x, y, z'
loop_
 _atom_site_type_symbol
 _atom_site_label
 _atom_site_symmetry_multiplicity
 _atom_site_fract_x
 _atom_site_fract_y
 _atom_site_fract_z
 _atom_site_occupancy
  Pr  Pr0  1  0.250000  0.279540  0.101269  1
  Tm  Tm1  1  0.750000  0.791091  0.562074  1
  Tm  Tm2  1  0.250000  0.208961  0.438124  1
  Tm  Tm3  1  0.750000  0.479991  0.706498  1
  Tm  Tm4  1  0.250000  0.520563  0.293896  1
  Tm  Tm5  1  0.750000  0.719016  0.898828  1
  Tm  Tm6  1  0.250000  0.101719  0.790073  1
  Tm  Tm7  1  0.750000  0.898118  0.210557  1
  P  P8  1  0.250000  0.906312  0.412967  1
  P  P9  1  0.750000  0.472004  0.130309  1
  P  P10  1  0.250000  0.529792  0.869739  1
  P  P11  1  0.750000  0.093246  0.587405  1
  P  P12  1  0.250000  0.740981  0.079111  1
  P  P13  1  0.750000  0.257619  0.917120  1
  P  P14  1  0.750000  0.157866  0.283615  1
  P  P15  1  0.250000  0.842709  0.718267  1
  P  P16  1  0.250000  0.047799  0.101520  1
  P  P17  1  0.750000  0.947038  0.898620  1
  P  P18  1  0.250000  0.311433  0.689490  1
  P  P19  1  0.750000  0.688577  0.309967  1
  P  P20  1  0.250000  0.608758  0.566429  1
  P  P21  1  0.750000  0.392107  0.435509  1
  Ir  Ir22  1  0.250000  0.991051  0.576284  1
  Ir  Ir23  1  0.750000  0.008632  0.424663  1
  Ir  Ir24  1  0.250000  0.662072  0.728320  1
  Ir  Ir25  1  0.750000  0.340191  0.275415  1
  Ir  Ir26  1  0.250000  0.554709  0.045880  1
  Ir  Ir27  1  0.750000  0.450510  0.950446  1
  Ir  Ir28  1  0.250000  0.058801  0.274056  1
  Ir  Ir29  1  0.750000  0.939292  0.726720  1
  Ir  Ir30  1  0.250000  0.421652  0.524036  1
  Ir  Ir31  1  0.750000  0.579296  0.476768  1
  Ir  Ir32  1  0.250000  0.913906  0.996935  1
  Ir  Ir33  1  0.750000  0.083585  0.000814  1
  Ir  Ir34  1  0.250000  0.729293  0.394382  1
  Ir  Ir35  1  0.750000  0.270485  0.605693  1
  Ir  Ir36  1  0.250000  0.342631  0.856112  1
  Ir  Ir37  1  0.750000  0.658657  0.142087  1
