# generated using pymatgen
data_Sc2ReTcOs2
_symmetry_space_group_name_H-M   'P 1'
_cell_length_a   5.19820669
_cell_length_b   5.22461436
_cell_length_c   8.70664200
_cell_angle_alpha   90.00000000
_cell_angle_beta   90.00000000
_cell_angle_gamma   120.16819227
_symmetry_Int_Tables_number   1
_chemical_formula_structural   Sc2ReTcOs2
_chemical_formula_sum   'Sc4 Re2 Tc2 Os4'
_cell_volume   204.43279003
_cell_formula_units_Z   2
loop_
 _symmetry_equiv_pos_site_id
 _symmetry_equiv_pos_as_xyz
  1  'x, y, z'
loop_
 _atom_site_type_symbol
 _atom_site_label
 _atom_site_symmetry_multiplicity
 _atom_site_fract_x
 _atom_site_fract_y
 _atom_site_fract_z
 _atom_site_occupancy
  Sc  Sc0  1  0.333535  0.665382  0.435278  1
  Sc  Sc1  1  0.666465  0.331846  0.935278  1
  Sc  Sc2  1  0.666465  0.331846  0.564722  1
  Sc  Sc3  1  0.333535  0.665382  0.064722  1
  Re  Re4  1  0.172809  0.833333  0.750000  1
  Re  Re5  1  0.827191  0.660525  0.250000  1
  Tc  Tc6  1  0.655969  0.833228  0.750000  1
  Tc  Tc7  1  0.344031  0.177259  0.250000  1
  Os  Os8  1  0.829403  0.180255  0.250000  1
  Os  Os9  1  0.170597  0.350853  0.750000  1
  Os  Os10  1  0.000000  0.985046  0.500000  1
  Os  Os11  1  0.000000  0.985046  0.000000  1
