# generated using pymatgen
data_Tb6ErLu3Cd3In5Pt4
_symmetry_space_group_name_H-M   'P 1'
_cell_length_a   3.63103700
_cell_length_b   8.14995651
_cell_length_c   18.14344400
_cell_angle_alpha   89.93340295
_cell_angle_beta   90.00000000
_cell_angle_gamma   90.00000000
_symmetry_Int_Tables_number   1
_chemical_formula_structural   Tb6ErLu3Cd3In5Pt4
_chemical_formula_sum   'Tb6 Er1 Lu3 Cd3 In5 Pt4'
_cell_volume   536.91483115
_cell_formula_units_Z   1
loop_
 _symmetry_equiv_pos_site_id
 _symmetry_equiv_pos_as_xyz
  1  'x, y, z'
loop_
 _atom_site_type_symbol
 _atom_site_label
 _atom_site_symmetry_multiplicity
 _atom_site_fract_x
 _atom_site_fract_y
 _atom_site_fract_z
 _atom_site_occupancy
  Tb  Tb0  1  0.000000  0.244666  0.219856  1
  Tb  Tb1  1  0.000000  0.758602  0.780796  1
  Tb  Tb2  1  0.000000  0.257948  0.717788  1
  Tb  Tb3  1  0.000000  0.739443  0.282603  1
  Tb  Tb4  1  0.000000  0.000096  0.999714  1
  Tb  Tb5  1  0.000000  0.500268  0.500001  1
  Er  Er6  1  0.000000  0.616819  0.086190  1
  Lu  Lu7  1  0.000000  0.116946  0.412863  1
  Lu  Lu8  1  0.000000  0.883290  0.587602  1
  Lu  Lu9  1  0.000000  0.384356  0.912248  1
  Cd  Cd10  1  0.500000  0.421127  0.352882  1
  Cd  Cd11  1  0.500000  0.578242  0.647492  1
  Cd  Cd12  1  0.500000  0.076831  0.851521  1
  In  In13  1  0.500000  0.922165  0.149371  1
  In  In14  1  0.500000  0.294876  0.063641  1
  In  In15  1  0.500000  0.705822  0.934927  1
  In  In16  1  0.500000  0.204335  0.562934  1
  In  In17  1  0.500000  0.796092  0.437229  1
  Pt  Pt18  1  0.500000  0.024391  0.305228  1
  Pt  Pt19  1  0.500000  0.973923  0.694660  1
  Pt  Pt20  1  0.500000  0.473659  0.804653  1
  Pt  Pt21  1  0.500000  0.526107  0.195801  1
