# generated using pymatgen
data_Eu3Mg2HgPt3
_symmetry_space_group_name_H-M   'P 1'
_cell_length_a   7.69885300
_cell_length_b   7.58901265
_cell_length_c   4.28156700
_cell_angle_alpha   90.00000000
_cell_angle_beta   90.00000000
_cell_angle_gamma   120.47993597
_symmetry_Int_Tables_number   1
_chemical_formula_structural   Eu3Mg2HgPt3
_chemical_formula_sum   'Eu3 Mg2 Hg1 Pt3'
_cell_volume   215.58770263
_cell_formula_units_Z   1
loop_
 _symmetry_equiv_pos_site_id
 _symmetry_equiv_pos_as_xyz
  1  'x, y, z'
loop_
 _atom_site_type_symbol
 _atom_site_label
 _atom_site_symmetry_multiplicity
 _atom_site_fract_x
 _atom_site_fract_y
 _atom_site_fract_z
 _atom_site_occupancy
  Eu  Eu0  1  0.421484  0.000000  0.500001  1
  Eu  Eu1  1  0.988680  0.400514  0.500001  1
  Eu  Eu2  1  0.588167  0.599487  0.500001  1
  Mg  Mg3  1  0.245818  0.242926  0.000000  1
  Mg  Mg4  1  0.002892  0.757075  0.000000  1
  Hg  Hg5  1  0.756396  0.000000  0.000000  1
  Pt  Pt6  1  0.660988  0.351205  0.000000  1
  Pt  Pt7  1  0.309784  0.648796  0.000000  1
  Pt  Pt8  1  0.025790  0.000000  0.500001  1
