# generated using pymatgen
data_HfTh8Sc11Sn16
_symmetry_space_group_name_H-M   'P 1'
_cell_length_a   7.90202913
_cell_length_b   7.97611014
_cell_length_c   14.97942600
_cell_angle_alpha   90.00000000
_cell_angle_beta   90.00000000
_cell_angle_gamma   89.88306296
_symmetry_Int_Tables_number   1
_chemical_formula_structural   HfTh8Sc11Sn16
_chemical_formula_sum   'Hf1 Th8 Sc11 Sn16'
_cell_volume   944.11312656
_cell_formula_units_Z   1
loop_
 _symmetry_equiv_pos_site_id
 _symmetry_equiv_pos_as_xyz
  1  'x, y, z'
loop_
 _atom_site_type_symbol
 _atom_site_label
 _atom_site_symmetry_multiplicity
 _atom_site_fract_x
 _atom_site_fract_y
 _atom_site_fract_z
 _atom_site_occupancy
  Hf  Hf0  1  0.177225  0.497612  0.750000  1
  Th  Th1  1  0.512950  0.325779  0.905227  1
  Th  Th2  1  0.015596  0.175902  0.594429  1
  Th  Th3  1  0.485400  0.674757  0.406611  1
  Th  Th4  1  0.986154  0.826958  0.093595  1
  Th  Th5  1  0.485400  0.674757  0.093389  1
  Th  Th6  1  0.986154  0.826958  0.406405  1
  Th  Th7  1  0.512950  0.325779  0.594773  1
  Th  Th8  1  0.015596  0.175902  0.905571  1
  Sc  Sc9  1  0.348849  0.839502  0.873049  1
  Sc  Sc10  1  0.849144  0.658543  0.626885  1
  Sc  Sc11  1  0.651891  0.159744  0.373792  1
  Sc  Sc12  1  0.150981  0.340357  0.125939  1
  Sc  Sc13  1  0.651891  0.159744  0.126208  1
  Sc  Sc14  1  0.150981  0.340357  0.374061  1
  Sc  Sc15  1  0.348849  0.839502  0.626951  1
  Sc  Sc16  1  0.849144  0.658543  0.873115  1
  Sc  Sc17  1  0.678545  0.000434  0.750000  1
  Sc  Sc18  1  0.820748  0.499581  0.250000  1
  Sc  Sc19  1  0.320560  0.000479  0.250000  1
  Sn  Sn20  1  0.313770  0.046584  0.044206  1
  Sn  Sn21  1  0.813026  0.454195  0.456392  1
  Sn  Sn22  1  0.687632  0.953705  0.544611  1
  Sn  Sn23  1  0.187278  0.546108  0.953672  1
  Sn  Sn24  1  0.687632  0.953705  0.955389  1
  Sn  Sn25  1  0.187278  0.546108  0.546328  1
  Sn  Sn26  1  0.313770  0.046584  0.455794  1
  Sn  Sn27  1  0.813026  0.454195  0.043608  1
  Sn  Sn28  1  0.541121  0.630005  0.750000  1
  Sn  Sn29  1  0.043563  0.866758  0.750000  1
  Sn  Sn30  1  0.457196  0.368437  0.250000  1
  Sn  Sn31  1  0.957468  0.132169  0.250000  1
  Sn  Sn32  1  0.318664  0.142980  0.750000  1
  Sn  Sn33  1  0.819411  0.357557  0.750000  1
  Sn  Sn34  1  0.680439  0.856999  0.250000  1
  Sn  Sn35  1  0.179717  0.642721  0.250000  1
