# generated using pymatgen
data_Y2Th(InNi)3
_symmetry_space_group_name_H-M   'P 1'
_cell_length_a   7.40077139
_cell_length_b   7.51898163
_cell_length_c   3.90231300
_cell_angle_alpha   90.00000000
_cell_angle_beta   90.00000000
_cell_angle_gamma   120.52980053
_symmetry_Int_Tables_number   1
_chemical_formula_structural   Y2Th(InNi)3
_chemical_formula_sum   'Y2 Th1 In3 Ni3'
_cell_volume   187.04468295
_cell_formula_units_Z   1
loop_
 _symmetry_equiv_pos_site_id
 _symmetry_equiv_pos_as_xyz
  1  'x, y, z'
loop_
 _atom_site_type_symbol
 _atom_site_label
 _atom_site_symmetry_multiplicity
 _atom_site_fract_x
 _atom_site_fract_y
 _atom_site_fract_z
 _atom_site_occupancy
  Y  Y0  1  0.591106  0.001676  0.500000  1
  Y  Y1  1  0.408894  0.410570  0.500000  1
  Th  Th2  1  0.000000  0.584956  0.500000  1
  In  In3  1  0.000000  0.239127  0.000000  1
  In  In4  1  0.262717  0.012113  0.000000  1
  In  In5  1  0.737283  0.749396  0.000000  1
  Ni  Ni6  1  0.000000  0.989035  0.500000  1
  Ni  Ni7  1  0.682604  0.347865  0.000000  1
  Ni  Ni8  1  0.317396  0.665262  0.000000  1
