# generated using pymatgen
data_Th6Ir17Rh
_symmetry_space_group_name_H-M   'P 1'
_cell_length_a   5.37802800
_cell_length_b   5.37796629
_cell_length_c   17.79224900
_cell_angle_alpha   90.00000000
_cell_angle_beta   90.00000000
_cell_angle_gamma   119.99960424
_symmetry_Int_Tables_number   1
_chemical_formula_structural   Th6Ir17Rh
_chemical_formula_sum   'Th6 Ir17 Rh1'
_cell_volume   445.66070857
_cell_formula_units_Z   1
loop_
 _symmetry_equiv_pos_site_id
 _symmetry_equiv_pos_as_xyz
  1  'x, y, z'
loop_
 _atom_site_type_symbol
 _atom_site_label
 _atom_site_symmetry_multiplicity
 _atom_site_fract_x
 _atom_site_fract_y
 _atom_site_fract_z
 _atom_site_occupancy
  Th  Th0  1  0.333396  0.666661  0.957317  1
  Th  Th1  1  0.666727  0.333375  0.042530  1
  Th  Th2  1  0.666727  0.333375  0.457470  1
  Th  Th3  1  0.333396  0.666661  0.542683  1
  Th  Th4  1  0.333133  0.666639  0.750000  1
  Th  Th5  1  0.666472  0.333247  0.250000  1
  Ir  Ir6  1  0.167528  0.832524  0.373159  1
  Ir  Ir7  1  0.167518  0.335043  0.373160  1
  Ir  Ir8  1  0.665004  0.832535  0.373138  1
  Ir  Ir9  1  0.832858  0.167152  0.626934  1
  Ir  Ir10  1  0.832856  0.665657  0.626960  1
  Ir  Ir11  1  0.334349  0.167149  0.626947  1
  Ir  Ir12  1  0.832858  0.167152  0.873066  1
  Ir  Ir13  1  0.832856  0.665657  0.873040  1
  Ir  Ir14  1  0.334349  0.167149  0.873053  1
  Ir  Ir15  1  0.167528  0.832524  0.126841  1
  Ir  Ir16  1  0.167518  0.335043  0.126840  1
  Ir  Ir17  1  0.665004  0.832535  0.126862  1
  Ir  Ir18  1  0.666652  0.333255  0.750000  1
  Ir  Ir19  1  0.000040  0.000001  0.250000  1
  Ir  Ir20  1  0.999982  0.000085  0.750000  1
  Ir  Ir21  1  0.000013  0.999998  0.499796  1
  Ir  Ir22  1  0.000013  0.999998  0.000204  1
  Rh  Rh23  1  0.333223  0.666585  0.250000  1
