# generated using pymatgen
data_CeTh7(CoSi3)4
_symmetry_space_group_name_H-M   'P 1'
_cell_length_a   8.06567700
_cell_length_b   8.06567709
_cell_length_c   8.39773700
_cell_angle_alpha   90.00000000
_cell_angle_beta   90.00000000
_cell_angle_gamma   120.00000372
_symmetry_Int_Tables_number   1
_chemical_formula_structural   CeTh7(CoSi3)4
_chemical_formula_sum   'Ce1 Th7 Co4 Si12'
_cell_volume   473.12352411
_cell_formula_units_Z   1
loop_
 _symmetry_equiv_pos_site_id
 _symmetry_equiv_pos_as_xyz
  1  'x, y, z'
loop_
 _atom_site_type_symbol
 _atom_site_label
 _atom_site_symmetry_multiplicity
 _atom_site_fract_x
 _atom_site_fract_y
 _atom_site_fract_z
 _atom_site_occupancy
  Ce  Ce0  1  0.000000  0.000000  0.250000  1
  Th  Th1  1  0.500091  0.499909  0.750000  1
  Th  Th2  1  0.500117  0.499883  0.250000  1
  Th  Th3  1  0.999818  0.499909  0.750000  1
  Th  Th4  1  0.999764  0.499883  0.250000  1
  Th  Th5  1  0.500091  0.000182  0.750000  1
  Th  Th6  1  0.500117  0.000236  0.250000  1
  Th  Th7  1  0.000000  0.000000  0.750000  1
  Co  Co8  1  0.666667  0.333333  0.999745  1
  Co  Co9  1  0.333333  0.666667  0.001380  1
  Co  Co10  1  0.333333  0.666667  0.498620  1
  Co  Co11  1  0.666667  0.333333  0.500255  1
  Si  Si12  1  0.829436  0.170564  0.000282  1
  Si  Si13  1  0.170500  0.829500  0.000392  1
  Si  Si14  1  0.341129  0.170564  0.000282  1
  Si  Si15  1  0.170500  0.829500  0.499608  1
  Si  Si16  1  0.658998  0.829500  0.000392  1
  Si  Si17  1  0.829436  0.170564  0.499718  1
  Si  Si18  1  0.829436  0.658871  0.000282  1
  Si  Si19  1  0.658998  0.829500  0.499608  1
  Si  Si20  1  0.170500  0.341002  0.000392  1
  Si  Si21  1  0.341129  0.170564  0.499718  1
  Si  Si22  1  0.170500  0.341002  0.499608  1
  Si  Si23  1  0.829436  0.658871  0.499718  1
