# generated using pymatgen
data_Ce3Al12Tc3Ir
_symmetry_space_group_name_H-M   'P 1'
_cell_length_a   8.97194876
_cell_length_b   8.95608145
_cell_length_c   9.67079299
_cell_angle_alpha   89.20316740
_cell_angle_beta   90.39770145
_cell_angle_gamma   119.94151639
_symmetry_Int_Tables_number   1
_chemical_formula_structural   Ce3Al12Tc3Ir
_chemical_formula_sum   'Ce6 Al24 Tc6 Ir2'
_cell_volume   673.30396827
_cell_formula_units_Z   2
loop_
 _symmetry_equiv_pos_site_id
 _symmetry_equiv_pos_as_xyz
  1  'x, y, z'
loop_
 _atom_site_type_symbol
 _atom_site_label
 _atom_site_symmetry_multiplicity
 _atom_site_fract_x
 _atom_site_fract_y
 _atom_site_fract_z
 _atom_site_occupancy
  Ce  Ce0  1  0.807125  0.609650  0.746564  1
  Ce  Ce1  1  0.192875  0.802526  0.246564  1
  Ce  Ce2  1  0.611661  0.805831  0.250000  1
  Ce  Ce3  1  0.388339  0.194169  0.750000  1
  Ce  Ce4  1  0.807125  0.197474  0.753436  1
  Ce  Ce5  1  0.192875  0.390350  0.253436  1
  Al  Al6  1  0.333298  0.667510  0.495716  1
  Al  Al7  1  0.666702  0.334211  0.995716  1
  Al  Al8  1  0.666702  0.332490  0.504284  1
  Al  Al9  1  0.333298  0.665789  0.004284  1
  Al  Al10  1  0.161332  0.322445  0.579963  1
  Al  Al11  1  0.677483  0.839243  0.578242  1
  Al  Al12  1  0.162476  0.839183  0.576862  1
  Al  Al13  1  0.838668  0.161114  0.079963  1
  Al  Al14  1  0.837524  0.160817  0.423138  1
  Al  Al15  1  0.837524  0.676706  0.076862  1
  Al  Al16  1  0.322517  0.161760  0.078242  1
  Al  Al17  1  0.677483  0.838240  0.921758  1
  Al  Al18  1  0.162476  0.323294  0.923138  1
  Al  Al19  1  0.838668  0.677555  0.420037  1
  Al  Al20  1  0.000506  0.000253  0.250000  1
  Al  Al21  1  0.999494  0.999747  0.750000  1
  Al  Al22  1  0.561167  0.123670  0.249670  1
  Al  Al23  1  0.438833  0.562503  0.749670  1
  Al  Al24  1  0.126180  0.563090  0.750000  1
  Al  Al25  1  0.873820  0.436910  0.250000  1
  Al  Al26  1  0.561167  0.437497  0.250330  1
  Al  Al27  1  0.438833  0.876330  0.750330  1
  Al  Al28  1  0.161332  0.838886  0.920037  1
  Al  Al29  1  0.322517  0.160757  0.421758  1
  Tc  Tc30  1  0.000000  0.000000  0.500000  1
  Tc  Tc31  1  0.000000  0.000000  0.000000  1
  Tc  Tc32  1  0.000000  0.500000  0.000000  1
  Tc  Tc33  1  0.000000  0.500000  0.500000  1
  Tc  Tc34  1  0.500000  0.500000  0.500000  1
  Tc  Tc35  1  0.500000  0.000000  0.000000  1
  Ir  Ir36  1  0.500000  0.000000  0.500000  1
  Ir  Ir37  1  0.500000  0.500000  0.000000  1
