# generated using pymatgen
data_SrPrHg2(Pt2O7)2
_symmetry_space_group_name_H-M   'P 1'
_cell_length_a   7.39169879
_cell_length_b   7.40374264
_cell_length_c   7.33879600
_cell_angle_alpha   60.28974926
_cell_angle_beta   60.23646347
_cell_angle_gamma   61.02032572
_symmetry_Int_Tables_number   1
_chemical_formula_structural   SrPrHg2(Pt2O7)2
_chemical_formula_sum   'Sr1 Pr1 Hg2 Pt4 O14'
_cell_volume   287.26662469
_cell_formula_units_Z   1
loop_
 _symmetry_equiv_pos_site_id
 _symmetry_equiv_pos_as_xyz
  1  'x, y, z'
loop_
 _atom_site_type_symbol
 _atom_site_label
 _atom_site_symmetry_multiplicity
 _atom_site_fract_x
 _atom_site_fract_y
 _atom_site_fract_z
 _atom_site_occupancy
  Sr  Sr0  1  0.625000  0.125000  0.125000  1
  Pr  Pr1  1  0.125000  0.625000  0.125000  1
  Hg  Hg2  1  0.125000  0.125000  0.125000  1
  Hg  Hg3  1  0.125000  0.125000  0.625000  1
  Pt  Pt4  1  0.625000  0.625000  0.125000  1
  Pt  Pt5  1  0.625000  0.625000  0.625000  1
  Pt  Pt6  1  0.625000  0.125000  0.625000  1
  Pt  Pt7  1  0.125000  0.625000  0.625000  1
  O  O8  1  0.698351  0.301569  0.298008  1
  O  O9  1  0.698351  0.301569  0.702071  1
  O  O10  1  0.028024  0.013122  0.979427  1
  O  O11  1  0.298191  0.693400  0.296196  1
  O  O12  1  0.715532  0.701586  0.291441  1
  O  O13  1  0.951809  0.556600  0.537787  1
  O  O14  1  0.298191  0.693400  0.712213  1
  O  O15  1  0.221976  0.236878  0.270573  1
  O  O16  1  0.951809  0.556600  0.953804  1
  O  O17  1  0.551649  0.948431  0.547929  1
  O  O18  1  0.534468  0.548414  0.958559  1
  O  O19  1  0.949973  0.948332  0.550848  1
  O  O20  1  0.551649  0.948431  0.951992  1
  O  O21  1  0.300027  0.301668  0.699152  1
