# generated using pymatgen
data_Pr8Y9Sc3Si15Ag
_symmetry_space_group_name_H-M   'P 1'
_cell_length_a   7.48534052
_cell_length_b   7.75835162
_cell_length_c   14.85241780
_cell_angle_alpha   89.85798834
_cell_angle_beta   89.72657670
_cell_angle_gamma   90.23150384
_symmetry_Int_Tables_number   1
_chemical_formula_structural   Pr8Y9Sc3Si15Ag
_chemical_formula_sum   'Pr8 Y9 Sc3 Si15 Ag1'
_cell_volume   862.51832954
_cell_formula_units_Z   1
loop_
 _symmetry_equiv_pos_site_id
 _symmetry_equiv_pos_as_xyz
  1  'x, y, z'
loop_
 _atom_site_type_symbol
 _atom_site_label
 _atom_site_symmetry_multiplicity
 _atom_site_fract_x
 _atom_site_fract_y
 _atom_site_fract_z
 _atom_site_occupancy
  Pr  Pr0  1  0.013001  0.173928  0.395823  1
  Pr  Pr1  1  0.516391  0.320864  0.396701  1
  Pr  Pr2  1  0.482478  0.677021  0.904198  1
  Pr  Pr3  1  0.487428  0.679075  0.602509  1
  Pr  Pr4  1  0.986210  0.826433  0.599424  1
  Pr  Pr5  1  0.984490  0.821937  0.904504  1
  Pr  Pr6  1  0.515496  0.323925  0.096223  1
  Pr  Pr7  1  0.015922  0.176627  0.097470  1
  Y  Y8  1  0.335882  0.176520  0.626103  1
  Y  Y9  1  0.667699  0.822064  0.373670  1
  Y  Y10  1  0.664497  0.989400  0.752530  1
  Y  Y11  1  0.168786  0.675186  0.372301  1
  Y  Y12  1  0.828174  0.323117  0.880677  1
  Y  Y13  1  0.826665  0.327817  0.623268  1
  Y  Y14  1  0.837726  0.494171  0.247204  1
  Y  Y15  1  0.338703  0.003081  0.245261  1
  Y  Y16  1  0.325476  0.177710  0.880118  1
  Sc  Sc17  1  0.170905  0.676893  0.124034  1
  Sc  Sc18  1  0.673045  0.824105  0.124417  1
  Sc  Sc19  1  0.161700  0.507234  0.755813  1
  Si  Si20  1  0.277558  0.874076  0.752155  1
  Si  Si21  1  0.462144  0.618344  0.241964  1
  Si  Si22  1  0.036754  0.119860  0.751789  1
  Si  Si23  1  0.531869  0.391859  0.753727  1
  Si  Si24  1  0.963150  0.880790  0.243109  1
  Si  Si25  1  0.718727  0.117556  0.244617  1
  Si  Si26  1  0.852231  0.541899  0.041860  1
  Si  Si27  1  0.352090  0.958208  0.041944  1
  Si  Si28  1  0.151226  0.472340  0.966084  1
  Si  Si29  1  0.652168  0.033594  0.536650  1
  Si  Si30  1  0.344900  0.964513  0.461994  1
  Si  Si31  1  0.838760  0.534611  0.457628  1
  Si  Si32  1  0.787656  0.620194  0.753303  1
  Si  Si33  1  0.220492  0.381244  0.244942  1
  Si  Si34  1  0.652013  0.027514  0.966623  1
  Ag  Ag35  1  0.157586  0.466294  0.539363  1
