# generated using pymatgen
data_MgPa4CdO12
_symmetry_space_group_name_H-M   'P 1'
_cell_length_a   5.36656700
_cell_length_b   5.39577800
_cell_length_c   15.86965200
_cell_angle_alpha   90.00000000
_cell_angle_beta   90.00000000
_cell_angle_gamma   90.00000000
_symmetry_Int_Tables_number   1
_chemical_formula_structural   MgPa4CdO12
_chemical_formula_sum   'Mg2 Pa8 Cd2 O24'
_cell_volume   459.53440496
_cell_formula_units_Z   2
loop_
 _symmetry_equiv_pos_site_id
 _symmetry_equiv_pos_as_xyz
  1  'x, y, z'
loop_
 _atom_site_type_symbol
 _atom_site_label
 _atom_site_symmetry_multiplicity
 _atom_site_fract_x
 _atom_site_fract_y
 _atom_site_fract_z
 _atom_site_occupancy
  Mg  Mg0  1  0.000000  0.462918  0.000000  1
  Mg  Mg1  1  0.500000  0.537082  0.500000  1
  Pa  Pa2  1  0.961069  0.495420  0.659177  1
  Pa  Pa3  1  0.461069  0.504580  0.840823  1
  Pa  Pa4  1  0.538931  0.504580  0.159177  1
  Pa  Pa5  1  0.038931  0.495420  0.340823  1
  Pa  Pa6  1  0.532685  0.001787  0.340885  1
  Pa  Pa7  1  0.032685  0.998213  0.159115  1
  Pa  Pa8  1  0.967315  0.998213  0.840885  1
  Pa  Pa9  1  0.467315  0.001787  0.659115  1
  Cd  Cd10  1  0.500000  0.031714  0.000000  1
  Cd  Cd11  1  0.000000  0.968286  0.500000  1
  O  O12  1  0.248953  0.696342  0.588606  1
  O  O13  1  0.748953  0.303658  0.911394  1
  O  O14  1  0.251047  0.303658  0.088606  1
  O  O15  1  0.751047  0.696342  0.411394  1
  O  O16  1  0.269721  0.777232  0.413688  1
  O  O17  1  0.769721  0.222768  0.086312  1
  O  O18  1  0.230279  0.222768  0.913688  1
  O  O19  1  0.730279  0.777232  0.586312  1
  O  O20  1  0.279777  0.730642  0.252614  1
  O  O21  1  0.779777  0.269358  0.247386  1
  O  O22  1  0.220223  0.269358  0.752614  1
  O  O23  1  0.720223  0.730642  0.747386  1
  O  O24  1  0.219860  0.770521  0.750839  1
  O  O25  1  0.719860  0.229479  0.749161  1
  O  O26  1  0.280140  0.229479  0.250839  1
  O  O27  1  0.780140  0.770521  0.249161  1
  O  O28  1  0.163283  0.706184  0.912358  1
  O  O29  1  0.663283  0.293816  0.587642  1
  O  O30  1  0.336717  0.293816  0.412358  1
  O  O31  1  0.836717  0.706184  0.087642  1
  O  O32  1  0.331589  0.795542  0.095949  1
  O  O33  1  0.831589  0.204458  0.404051  1
  O  O34  1  0.168411  0.204458  0.595949  1
  O  O35  1  0.668411  0.795542  0.904051  1
