# generated using pymatgen
data_Ta3ZnPd3(Pt2Rh)3
_symmetry_space_group_name_H-M   'P 1'
_cell_length_a   5.59513300
_cell_length_b   5.59513334
_cell_length_c   9.10247400
_cell_angle_alpha   90.00000000
_cell_angle_beta   90.00000000
_cell_angle_gamma   119.99999206
_symmetry_Int_Tables_number   1
_chemical_formula_structural   Ta3ZnPd3(Pt2Rh)3
_chemical_formula_sum   'Ta3 Zn1 Pd3 Pt6 Rh3'
_cell_volume   246.78057344
_cell_formula_units_Z   1
loop_
 _symmetry_equiv_pos_site_id
 _symmetry_equiv_pos_as_xyz
  1  'x, y, z'
loop_
 _atom_site_type_symbol
 _atom_site_label
 _atom_site_symmetry_multiplicity
 _atom_site_fract_x
 _atom_site_fract_y
 _atom_site_fract_z
 _atom_site_occupancy
  Ta  Ta0  1  0.666667  0.333333  0.500000  1
  Ta  Ta1  1  0.000000  0.000000  0.738495  1
  Ta  Ta2  1  0.000000  0.000000  0.261505  1
  Zn  Zn3  1  0.333333  0.666667  0.000000  1
  Pd  Pd4  1  0.832824  0.167176  0.000000  1
  Pd  Pd5  1  0.832824  0.665647  0.000000  1
  Pd  Pd6  1  0.334353  0.167176  0.000000  1
  Pt  Pt7  1  0.997995  0.498998  0.747908  1
  Pt  Pt8  1  0.501002  0.498998  0.747908  1
  Pt  Pt9  1  0.501002  0.002005  0.747908  1
  Pt  Pt10  1  0.997995  0.498998  0.252092  1
  Pt  Pt11  1  0.501002  0.498998  0.252092  1
  Pt  Pt12  1  0.501002  0.002005  0.252092  1
  Rh  Rh13  1  0.168087  0.831913  0.500000  1
  Rh  Rh14  1  0.168087  0.336175  0.500000  1
  Rh  Rh15  1  0.663825  0.831913  0.500000  1
