# generated using pymatgen
data_Rb2Ba(NbCl3)6
_symmetry_space_group_name_H-M   'P 1'
_cell_length_a   10.59694027
_cell_length_b   10.59694048
_cell_length_c   10.59694060
_cell_angle_alpha   54.56845491
_cell_angle_beta   54.56845251
_cell_angle_gamma   54.56845381
_symmetry_Int_Tables_number   1
_chemical_formula_structural   Rb2Ba(NbCl3)6
_chemical_formula_sum   'Rb2 Ba1 Nb6 Cl18'
_cell_volume   734.92420518
_cell_formula_units_Z   1
loop_
 _symmetry_equiv_pos_site_id
 _symmetry_equiv_pos_as_xyz
  1  'x, y, z'
loop_
 _atom_site_type_symbol
 _atom_site_label
 _atom_site_symmetry_multiplicity
 _atom_site_fract_x
 _atom_site_fract_y
 _atom_site_fract_z
 _atom_site_occupancy
  Rb  Rb0  1  0.221952  0.221952  0.221952  1
  Rb  Rb1  1  0.778048  0.778048  0.778048  1
  Ba  Ba2  1  0.500000  0.500000  0.500000  1
  Nb  Nb3  1  0.929134  0.794633  0.142805  1
  Nb  Nb4  1  0.070866  0.205367  0.857195  1
  Nb  Nb5  1  0.142805  0.929134  0.794633  1
  Nb  Nb6  1  0.857195  0.070866  0.205367  1
  Nb  Nb7  1  0.794633  0.142805  0.929134  1
  Nb  Nb8  1  0.205367  0.857195  0.070866  1
  Cl  Cl9  1  0.153407  0.469963  0.680158  1
  Cl  Cl10  1  0.925388  0.083118  0.675132  1
  Cl  Cl11  1  0.324868  0.074612  0.916882  1
  Cl  Cl12  1  0.675132  0.925388  0.083118  1
  Cl  Cl13  1  0.592491  0.253211  0.156023  1
  Cl  Cl14  1  0.083118  0.675132  0.925388  1
  Cl  Cl15  1  0.680158  0.153407  0.469963  1
  Cl  Cl16  1  0.746789  0.843977  0.407509  1
  Cl  Cl17  1  0.407509  0.746789  0.843977  1
  Cl  Cl18  1  0.319842  0.846593  0.530037  1
  Cl  Cl19  1  0.253211  0.156023  0.592491  1
  Cl  Cl20  1  0.843977  0.407509  0.746789  1
  Cl  Cl21  1  0.074612  0.916882  0.324868  1
  Cl  Cl22  1  0.530037  0.319842  0.846593  1
  Cl  Cl23  1  0.156023  0.592491  0.253211  1
  Cl  Cl24  1  0.916882  0.324868  0.074612  1
  Cl  Cl25  1  0.846593  0.530037  0.319842  1
  Cl  Cl26  1  0.469963  0.680158  0.153407  1
