# generated using pymatgen
data_CaPr4GeBi2
_symmetry_space_group_name_H-M   'P 1'
_cell_length_a   8.43090500
_cell_length_b   9.50175100
_cell_length_c   12.70241800
_cell_angle_alpha   90.00000000
_cell_angle_beta   90.00000000
_cell_angle_gamma   90.00000000
_symmetry_Int_Tables_number   1
_chemical_formula_structural   CaPr4GeBi2
_chemical_formula_sum   'Ca4 Pr16 Ge4 Bi8'
_cell_volume   1017.56987420
_cell_formula_units_Z   4
loop_
 _symmetry_equiv_pos_site_id
 _symmetry_equiv_pos_as_xyz
  1  'x, y, z'
loop_
 _atom_site_type_symbol
 _atom_site_label
 _atom_site_symmetry_multiplicity
 _atom_site_fract_x
 _atom_site_fract_y
 _atom_site_fract_z
 _atom_site_occupancy
  Ca  Ca0  1  0.538558  0.750000  0.497953  1
  Ca  Ca1  1  0.038558  0.250000  0.002047  1
  Ca  Ca2  1  0.461442  0.250000  0.502047  1
  Ca  Ca3  1  0.961442  0.750000  0.997953  1
  Pr  Pr4  1  0.311399  0.959574  0.064708  1
  Pr  Pr5  1  0.811399  0.040426  0.435292  1
  Pr  Pr6  1  0.688601  0.459574  0.935292  1
  Pr  Pr7  1  0.188601  0.540426  0.564708  1
  Pr  Pr8  1  0.688601  0.040426  0.935292  1
  Pr  Pr9  1  0.188601  0.959574  0.564708  1
  Pr  Pr10  1  0.311399  0.540426  0.064708  1
  Pr  Pr11  1  0.811399  0.459574  0.435292  1
  Pr  Pr12  1  0.660380  0.750000  0.206915  1
  Pr  Pr13  1  0.160380  0.250000  0.293085  1
  Pr  Pr14  1  0.339620  0.250000  0.793085  1
  Pr  Pr15  1  0.839620  0.750000  0.706915  1
  Pr  Pr16  1  0.139617  0.750000  0.294107  1
  Pr  Pr17  1  0.639617  0.250000  0.205893  1
  Pr  Pr18  1  0.860383  0.250000  0.705893  1
  Pr  Pr19  1  0.360383  0.750000  0.794107  1
  Ge  Ge20  1  0.568099  0.750000  0.982160  1
  Ge  Ge21  1  0.068099  0.250000  0.517840  1
  Ge  Ge22  1  0.431901  0.250000  0.017840  1
  Ge  Ge23  1  0.931901  0.750000  0.482160  1
  Bi  Bi24  1  0.929263  0.007257  0.172636  1
  Bi  Bi25  1  0.429263  0.992743  0.327364  1
  Bi  Bi26  1  0.070737  0.507257  0.827364  1
  Bi  Bi27  1  0.570737  0.492743  0.672636  1
  Bi  Bi28  1  0.070737  0.992743  0.827364  1
  Bi  Bi29  1  0.570737  0.007257  0.672636  1
  Bi  Bi30  1  0.929263  0.492743  0.172636  1
  Bi  Bi31  1  0.429263  0.507257  0.327364  1
