# generated using pymatgen
data_Dy3Al12Ir2RuRh
_symmetry_space_group_name_H-M   'P 1'
_cell_length_a   8.81739551
_cell_length_b   8.79576481
_cell_length_c   9.53410447
_cell_angle_alpha   90.00000100
_cell_angle_beta   89.92895218
_cell_angle_gamma   119.91888215
_symmetry_Int_Tables_number   1
_chemical_formula_structural   Dy3Al12Ir2RuRh
_chemical_formula_sum   'Dy6 Al24 Ir4 Ru2 Rh2'
_cell_volume   640.88253190
_cell_formula_units_Z   2
loop_
 _symmetry_equiv_pos_site_id
 _symmetry_equiv_pos_as_xyz
  1  'x, y, z'
loop_
 _atom_site_type_symbol
 _atom_site_label
 _atom_site_symmetry_multiplicity
 _atom_site_fract_x
 _atom_site_fract_y
 _atom_site_fract_z
 _atom_site_occupancy
  Dy  Dy0  1  0.191445  0.806873  0.250946  1
  Dy  Dy1  1  0.191445  0.384572  0.250946  1
  Dy  Dy2  1  0.615954  0.807977  0.250999  1
  Dy  Dy3  1  0.808555  0.193127  0.749054  1
  Dy  Dy4  1  0.808555  0.615428  0.749054  1
  Dy  Dy5  1  0.384046  0.192023  0.749001  1
  Al  Al6  1  0.562258  0.437611  0.249461  1
  Al  Al7  1  0.562258  0.124646  0.249461  1
  Al  Al8  1  0.874607  0.437303  0.250020  1
  Al  Al9  1  0.437742  0.562389  0.750539  1
  Al  Al10  1  0.437742  0.875354  0.750539  1
  Al  Al11  1  0.125393  0.562697  0.749980  1
  Al  Al12  1  0.326817  0.163409  0.424126  1
  Al  Al13  1  0.836535  0.163247  0.423809  1
  Al  Al14  1  0.836535  0.673290  0.423809  1
  Al  Al15  1  0.673183  0.836591  0.575874  1
  Al  Al16  1  0.163465  0.836753  0.576191  1
  Al  Al17  1  0.163465  0.326710  0.576191  1
  Al  Al18  1  0.673905  0.836952  0.923181  1
  Al  Al19  1  0.163453  0.836851  0.923571  1
  Al  Al20  1  0.163453  0.326601  0.923571  1
  Al  Al21  1  0.326095  0.163048  0.076819  1
  Al  Al22  1  0.836547  0.163149  0.076429  1
  Al  Al23  1  0.836547  0.673399  0.076429  1
  Al  Al24  1  0.666588  0.333293  0.529146  1
  Al  Al25  1  0.333412  0.666707  0.470854  1
  Al  Al26  1  0.333629  0.666815  0.029478  1
  Al  Al27  1  0.666371  0.333185  0.970522  1
  Al  Al28  1  0.999726  0.999863  0.250172  1
  Al  Al29  1  0.000274  0.000137  0.749828  1
  Ir  Ir30  1  0.500000  0.500000  0.500000  1
  Ir  Ir31  1  0.500000  0.000000  0.500000  1
  Ir  Ir32  1  0.000000  0.500000  0.500000  1
  Ir  Ir33  1  0.000000  0.500000  0.000000  1
  Ru  Ru34  1  0.000000  0.000000  0.500000  1
  Ru  Ru35  1  0.000000  0.000000  0.000000  1
  Rh  Rh36  1  0.500000  0.500000  0.000000  1
  Rh  Rh37  1  0.500000  0.000000  0.000000  1
