# generated using pymatgen
data_TbDy7Tm8(In3Co)2
_symmetry_space_group_name_H-M   'P 1'
_cell_length_a   10.25131500
_cell_length_b   10.25131370
_cell_length_c   7.07989000
_cell_angle_alpha   90.00000000
_cell_angle_beta   90.00000000
_cell_angle_gamma   120.00000097
_symmetry_Int_Tables_number   1
_chemical_formula_structural   TbDy7Tm8(In3Co)2
_chemical_formula_sum   'Tb1 Dy7 Tm8 In6 Co2'
_cell_volume   644.34170175
_cell_formula_units_Z   1
loop_
 _symmetry_equiv_pos_site_id
 _symmetry_equiv_pos_as_xyz
  1  'x, y, z'
loop_
 _atom_site_type_symbol
 _atom_site_label
 _atom_site_symmetry_multiplicity
 _atom_site_fract_x
 _atom_site_fract_y
 _atom_site_fract_z
 _atom_site_occupancy
  Tb  Tb0  1  0.000000  0.000000  0.273876  1
  Dy  Dy1  1  0.536044  0.072088  0.786143  1
  Dy  Dy2  1  0.927912  0.463956  0.786143  1
  Dy  Dy3  1  0.536044  0.463956  0.786143  1
  Dy  Dy4  1  0.463994  0.927988  0.286188  1
  Dy  Dy5  1  0.072012  0.536006  0.286188  1
  Dy  Dy6  1  0.463994  0.536006  0.286188  1
  Dy  Dy7  1  0.000000  0.000000  0.773592  1
  Tm  Tm8  1  0.821248  0.642497  0.490852  1
  Tm  Tm9  1  0.357503  0.178752  0.490852  1
  Tm  Tm10  1  0.821248  0.178752  0.490852  1
  Tm  Tm11  1  0.178736  0.357472  0.990529  1
  Tm  Tm12  1  0.642528  0.821264  0.990529  1
  Tm  Tm13  1  0.178736  0.821264  0.990529  1
  Tm  Tm14  1  0.666667  0.333333  0.181375  1
  Tm  Tm15  1  0.333333  0.666667  0.681466  1
  In  In16  1  0.836348  0.672696  0.039213  1
  In  In17  1  0.327304  0.163652  0.039213  1
  In  In18  1  0.836348  0.163652  0.039213  1
  In  In19  1  0.163636  0.327273  0.539840  1
  In  In20  1  0.672727  0.836364  0.539840  1
  In  In21  1  0.163636  0.836364  0.539840  1
  Co  Co22  1  0.666667  0.333333  0.558565  1
  Co  Co23  1  0.333333  0.666667  0.058909  1
