# generated using pymatgen
data_Lu5ScTcPt
_symmetry_space_group_name_H-M   'P 1'
_cell_length_a   6.26865300
_cell_length_b   7.06447200
_cell_length_c   8.96594200
_cell_angle_alpha   90.00000000
_cell_angle_beta   90.00000000
_cell_angle_gamma   90.00000000
_symmetry_Int_Tables_number   1
_chemical_formula_structural   Lu5ScTcPt
_chemical_formula_sum   'Lu10 Sc2 Tc2 Pt2'
_cell_volume   397.05426325
_cell_formula_units_Z   2
loop_
 _symmetry_equiv_pos_site_id
 _symmetry_equiv_pos_as_xyz
  1  'x, y, z'
loop_
 _atom_site_type_symbol
 _atom_site_label
 _atom_site_symmetry_multiplicity
 _atom_site_fract_x
 _atom_site_fract_y
 _atom_site_fract_z
 _atom_site_occupancy
  Lu  Lu0  1  0.322354  0.678956  0.067857  1
  Lu  Lu1  1  0.177646  0.178956  0.432143  1
  Lu  Lu2  1  0.670520  0.319750  0.551796  1
  Lu  Lu3  1  0.829480  0.819750  0.948204  1
  Lu  Lu4  1  0.670520  0.319750  0.948204  1
  Lu  Lu5  1  0.829480  0.819750  0.551796  1
  Lu  Lu6  1  0.322354  0.678956  0.432143  1
  Lu  Lu7  1  0.177646  0.178956  0.067857  1
  Lu  Lu8  1  0.126508  0.465747  0.750000  1
  Lu  Lu9  1  0.373492  0.965747  0.750000  1
  Sc  Sc10  1  0.879209  0.540128  0.250000  1
  Sc  Sc11  1  0.620791  0.040128  0.250000  1
  Tc  Tc12  1  0.019120  0.887200  0.250000  1
  Tc  Tc13  1  0.480880  0.387200  0.250000  1
  Pt  Pt14  1  0.955278  0.109514  0.750000  1
  Pt  Pt15  1  0.544722  0.609514  0.750000  1
