# generated using pymatgen
data_TmLu19CoBi11
_symmetry_space_group_name_H-M   'P 1'
_cell_length_a   8.04044599
_cell_length_b   9.35077900
_cell_length_c   11.82393600
_cell_angle_alpha   90.00000000
_cell_angle_beta   89.60302465
_cell_angle_gamma   90.00000000
_symmetry_Int_Tables_number   1
_chemical_formula_structural   TmLu19CoBi11
_chemical_formula_sum   'Tm1 Lu19 Co1 Bi11'
_cell_volume   888.95459251
_cell_formula_units_Z   1
loop_
 _symmetry_equiv_pos_site_id
 _symmetry_equiv_pos_as_xyz
  1  'x, y, z'
loop_
 _atom_site_type_symbol
 _atom_site_label
 _atom_site_symmetry_multiplicity
 _atom_site_fract_x
 _atom_site_fract_y
 _atom_site_fract_z
 _atom_site_occupancy
  Tm  Tm0  1  0.315340  0.750000  0.281035  1
  Lu  Lu1  1  0.051652  0.250000  0.506838  1
  Lu  Lu2  1  0.986141  0.750000  0.493151  1
  Lu  Lu3  1  0.478017  0.750000  0.011441  1
  Lu  Lu4  1  0.527048  0.250000  0.990285  1
  Lu  Lu5  1  0.357794  0.250000  0.308391  1
  Lu  Lu6  1  0.656267  0.750000  0.718460  1
  Lu  Lu7  1  0.145073  0.750000  0.779453  1
  Lu  Lu8  1  0.848043  0.250000  0.215290  1
  Lu  Lu9  1  0.205572  0.250000  0.774227  1
  Lu  Lu10  1  0.808548  0.750000  0.216356  1
  Lu  Lu11  1  0.640281  0.250000  0.698135  1
  Lu  Lu12  1  0.193331  0.067700  0.064703  1
  Lu  Lu13  1  0.807447  0.933089  0.940507  1
  Lu  Lu14  1  0.317061  0.974240  0.558988  1
  Lu  Lu15  1  0.807447  0.566911  0.940507  1
  Lu  Lu16  1  0.675978  0.076865  0.447246  1
  Lu  Lu17  1  0.193331  0.432300  0.064703  1
  Lu  Lu18  1  0.675978  0.423135  0.447246  1
  Lu  Lu19  1  0.317061  0.525760  0.558988  1
  Co  Co20  1  0.415031  0.250000  0.528380  1
  Bi  Bi21  1  0.596257  0.750000  0.459994  1
  Bi  Bi22  1  0.097494  0.750000  0.042328  1
  Bi  Bi23  1  0.909875  0.250000  0.950761  1
  Bi  Bi24  1  0.056472  0.000022  0.322503  1
  Bi  Bi25  1  0.932059  0.002867  0.675147  1
  Bi  Bi26  1  0.434688  0.991901  0.828687  1
  Bi  Bi27  1  0.932059  0.497133  0.675147  1
  Bi  Bi28  1  0.563749  0.005662  0.174956  1
  Bi  Bi29  1  0.056472  0.499978  0.322503  1
  Bi  Bi30  1  0.563749  0.494338  0.174956  1
  Bi  Bi31  1  0.434688  0.508099  0.828687  1
