# generated using pymatgen
data_Np(GaRh2)5
_symmetry_space_group_name_H-M   'P 1'
_cell_length_a   4.16671400
_cell_length_b   5.43161735
_cell_length_c   10.53732196
_cell_angle_alpha   87.74019990
_cell_angle_beta   90.00000000
_cell_angle_gamma   90.00000000
_symmetry_Int_Tables_number   1
_chemical_formula_structural   Np(GaRh2)5
_chemical_formula_sum   'Np1 Ga5 Rh10'
_cell_volume   238.29516423
_cell_formula_units_Z   1
loop_
 _symmetry_equiv_pos_site_id
 _symmetry_equiv_pos_as_xyz
  1  'x, y, z'
loop_
 _atom_site_type_symbol
 _atom_site_label
 _atom_site_symmetry_multiplicity
 _atom_site_fract_x
 _atom_site_fract_y
 _atom_site_fract_z
 _atom_site_occupancy
  Np  Np0  1  0.500000  0.346224  0.361584  1
  Ga  Ga1  1  0.500000  0.645980  0.649413  1
  Ga  Ga2  1  0.500000  0.147636  0.862248  1
  Ga  Ga3  1  0.500000  0.848268  0.134674  1
  Ga  Ga4  1  0.000000  0.015267  0.503051  1
  Ga  Ga5  1  0.000000  0.501538  0.995611  1
  Rh  Rh6  1  0.500000  0.324349  0.103758  1
  Rh  Rh7  1  0.500000  0.676646  0.890170  1
  Rh  Rh8  1  0.500000  0.832649  0.393829  1
  Rh  Rh9  1  0.500000  0.174503  0.614192  1
  Rh  Rh10  1  0.000000  0.872426  0.733847  1
  Rh  Rh11  1  0.000000  0.108662  0.255432  1
  Rh  Rh12  1  0.000000  0.367031  0.772119  1
  Rh  Rh13  1  0.000000  0.614300  0.226169  1
  Rh  Rh14  1  0.000000  0.526977  0.510498  1
  Rh  Rh15  1  0.000000  0.997547  0.993404  1
