# generated using pymatgen
data_Tb6Si2Ni20P11
_symmetry_space_group_name_H-M   'P 1'
_cell_length_a   12.76391300
_cell_length_b   12.82876321
_cell_length_c   3.73454000
_cell_angle_alpha   90.00000000
_cell_angle_beta   90.00000000
_cell_angle_gamma   119.78518215
_symmetry_Int_Tables_number   1
_chemical_formula_structural   Tb6Si2Ni20P11
_chemical_formula_sum   'Tb6 Si2 Ni20 P11'
_cell_volume   530.72849026
_cell_formula_units_Z   1
loop_
 _symmetry_equiv_pos_site_id
 _symmetry_equiv_pos_as_xyz
  1  'x, y, z'
loop_
 _atom_site_type_symbol
 _atom_site_label
 _atom_site_symmetry_multiplicity
 _atom_site_fract_x
 _atom_site_fract_y
 _atom_site_fract_z
 _atom_site_occupancy
  Tb  Tb0  1  0.282640  0.472437  0.000000  1
  Tb  Tb1  1  0.188536  0.717079  0.000000  1
  Tb  Tb2  1  0.529861  0.812211  0.000000  1
  Tb  Tb3  1  0.472327  0.190247  0.500000  1
  Tb  Tb4  1  0.811623  0.280544  0.500000  1
  Tb  Tb5  1  0.718086  0.530000  0.500000  1
  Si  Si6  1  0.001840  0.000444  0.000000  1
  Si  Si7  1  0.275203  0.049140  0.000000  1
  Ni  Ni8  1  0.759308  0.077621  0.000000  1
  Ni  Ni9  1  0.106655  0.200239  0.000000  1
  Ni  Ni10  1  0.321687  0.248159  0.000000  1
  Ni  Ni11  1  0.667274  0.333291  0.000000  1
  Ni  Ni12  1  0.020667  0.436146  0.000000  1
  Ni  Ni13  1  0.563068  0.584387  0.000000  1
  Ni  Ni14  1  0.919439  0.677013  0.000000  1
  Ni  Ni15  1  0.088013  0.887250  0.000000  1
  Ni  Ni16  1  0.800691  0.905485  0.000000  1
  Ni  Ni17  1  0.415912  0.979500  0.000000  1
  Ni  Ni18  1  0.586638  0.020744  0.500000  1
  Ni  Ni19  1  0.157769  0.076412  0.500000  1
  Ni  Ni20  1  0.928304  0.076198  0.500000  1
  Ni  Ni21  1  0.069939  0.317709  0.500000  1
  Ni  Ni22  1  0.435030  0.416476  0.500000  1
  Ni  Ni23  1  0.978601  0.565005  0.500000  1
  Ni  Ni24  1  0.333206  0.667262  0.500000  1
  Ni  Ni25  1  0.682062  0.751883  0.500000  1
  Ni  Ni26  1  0.922540  0.848967  0.500000  1
  Ni  Ni27  1  0.246021  0.926544  0.500000  1
  P  P28  1  0.614117  0.136779  0.000000  1
  P  P29  1  0.952041  0.233413  0.000000  1
  P  P30  1  0.523150  0.385769  0.000000  1
  P  P31  1  0.862174  0.476100  0.000000  1
  P  P32  1  0.766519  0.718244  0.000000  1
  P  P33  1  0.232290  0.280427  0.500000  1
  P  P34  1  0.136772  0.523956  0.500000  1
  P  P35  1  0.476218  0.614458  0.500000  1
  P  P36  1  0.045404  0.766020  0.500000  1
  P  P37  1  0.386118  0.863462  0.500000  1
  P  P38  1  0.722264  0.952990  0.500000  1
