# generated using pymatgen
data_Dy3Lu3TcSb2
_symmetry_space_group_name_H-M   'P 1'
_cell_length_a   8.06981100
_cell_length_b   8.06981046
_cell_length_c   4.24322900
_cell_angle_alpha   90.00000000
_cell_angle_beta   90.00000000
_cell_angle_gamma   119.99999810
_symmetry_Int_Tables_number   1
_chemical_formula_structural   Dy3Lu3TcSb2
_chemical_formula_sum   'Dy3 Lu3 Tc1 Sb2'
_cell_volume   239.30612174
_cell_formula_units_Z   1
loop_
 _symmetry_equiv_pos_site_id
 _symmetry_equiv_pos_as_xyz
  1  'x, y, z'
loop_
 _atom_site_type_symbol
 _atom_site_label
 _atom_site_symmetry_multiplicity
 _atom_site_fract_x
 _atom_site_fract_y
 _atom_site_fract_z
 _atom_site_occupancy
  Dy  Dy0  1  0.604763  0.000000  0.000000  1
  Dy  Dy1  1  0.000000  0.604763  0.000000  1
  Dy  Dy2  1  0.395237  0.395237  0.000000  1
  Lu  Lu3  1  0.233047  0.000000  0.500000  1
  Lu  Lu4  1  0.000000  0.233047  0.500000  1
  Lu  Lu5  1  0.766953  0.766953  0.500000  1
  Tc  Tc6  1  0.000000  0.000000  0.000000  1
  Sb  Sb7  1  0.333333  0.666667  0.500000  1
  Sb  Sb8  1  0.666667  0.333333  0.500000  1
