# generated using pymatgen
data_Tb2Dy3Th3(MgRu)2
_symmetry_space_group_name_H-M   'P 1'
_cell_length_a   9.75256847
_cell_length_b   9.83607923
_cell_length_c   9.83607924
_cell_angle_alpha   59.43907742
_cell_angle_beta   60.28044951
_cell_angle_gamma   60.28045620
_symmetry_Int_Tables_number   1
_chemical_formula_structural   Tb2Dy3Th3(MgRu)2
_chemical_formula_sum   'Tb4 Dy6 Th6 Mg4 Ru4'
_cell_volume   667.09226081
_cell_formula_units_Z   2
loop_
 _symmetry_equiv_pos_site_id
 _symmetry_equiv_pos_as_xyz
  1  'x, y, z'
loop_
 _atom_site_type_symbol
 _atom_site_label
 _atom_site_symmetry_multiplicity
 _atom_site_fract_x
 _atom_site_fract_y
 _atom_site_fract_z
 _atom_site_occupancy
  Tb  Tb0  1  0.813051  0.186949  0.813051  1
  Tb  Tb1  1  0.186949  0.813051  0.186949  1
  Tb  Tb2  1  0.813051  0.813051  0.186949  1
  Tb  Tb3  1  0.186949  0.186949  0.813051  1
  Dy  Dy4  1  0.439241  0.060759  0.439241  1
  Dy  Dy5  1  0.060759  0.439241  0.060759  1
  Dy  Dy6  1  0.439241  0.439241  0.060759  1
  Dy  Dy7  1  0.060759  0.060759  0.439241  1
  Dy  Dy8  1  0.184289  0.815711  0.815711  1
  Dy  Dy9  1  0.815711  0.184289  0.184289  1
  Th  Th10  1  0.592415  0.598652  0.598652  1
  Th  Th11  1  0.598652  0.592415  0.210282  1
  Th  Th12  1  0.598652  0.210282  0.592415  1
  Th  Th13  1  0.210282  0.598652  0.598652  1
  Th  Th14  1  0.065971  0.434029  0.434029  1
  Th  Th15  1  0.434029  0.065971  0.065971  1
  Mg  Mg16  1  0.831854  0.829102  0.829102  1
  Mg  Mg17  1  0.829102  0.831854  0.509942  1
  Mg  Mg18  1  0.829102  0.509942  0.831854  1
  Mg  Mg19  1  0.509942  0.829102  0.829102  1
  Ru  Ru20  1  0.378304  0.398865  0.398865  1
  Ru  Ru21  1  0.398865  0.378304  0.823965  1
  Ru  Ru22  1  0.398865  0.823965  0.378304  1
  Ru  Ru23  1  0.823965  0.398865  0.398865  1
