# generated using pymatgen
data_La2TcO6
_symmetry_space_group_name_H-M   'P 1'
_cell_length_a   10.32699765
_cell_length_b   10.32699677
_cell_length_c   5.67990923
_cell_angle_alpha   75.48767618
_cell_angle_beta   75.48767802
_cell_angle_gamma   69.35903483
_symmetry_Int_Tables_number   1
_chemical_formula_structural   La2TcO6
_chemical_formula_sum   'La8 Tc4 O24'
_cell_volume   539.90112549
_cell_formula_units_Z   4
loop_
 _symmetry_equiv_pos_site_id
 _symmetry_equiv_pos_as_xyz
  1  'x, y, z'
loop_
 _atom_site_type_symbol
 _atom_site_label
 _atom_site_symmetry_multiplicity
 _atom_site_fract_x
 _atom_site_fract_y
 _atom_site_fract_z
 _atom_site_occupancy
  La  La0  1  0.938645  0.712783  0.375786  1
  La  La1  1  0.712783  0.938645  0.875786  1
  La  La2  1  0.369265  0.630735  0.250000  1
  La  La3  1  0.887637  0.112363  0.250000  1
  La  La4  1  0.112363  0.887637  0.750000  1
  La  La5  1  0.630735  0.369265  0.750000  1
  La  La6  1  0.287217  0.061355  0.124214  1
  La  La7  1  0.061355  0.287217  0.624214  1
  Tc  Tc8  1  0.799941  0.504183  0.050445  1
  Tc  Tc9  1  0.504183  0.799941  0.550445  1
  Tc  Tc10  1  0.495817  0.200059  0.449555  1
  Tc  Tc11  1  0.200059  0.495817  0.949555  1
  O  O12  1  0.890920  0.922521  0.072388  1
  O  O13  1  0.922521  0.890920  0.572388  1
  O  O14  1  0.527206  0.926836  0.266852  1
  O  O15  1  0.786433  0.672558  0.126668  1
  O  O16  1  0.926836  0.527206  0.766852  1
  O  O17  1  0.672558  0.786433  0.626668  1
  O  O18  1  0.825337  0.387235  0.345185  1
  O  O19  1  0.387235  0.825337  0.845185  1
  O  O20  1  0.619644  0.540343  0.016943  1
  O  O21  1  0.312341  0.836904  0.409023  1
  O  O22  1  0.540343  0.619644  0.516943  1
  O  O23  1  0.836904  0.312341  0.909023  1
  O  O24  1  0.163096  0.687659  0.090977  1
  O  O25  1  0.459657  0.380356  0.483057  1
  O  O26  1  0.687659  0.163096  0.590977  1
  O  O27  1  0.380356  0.459657  0.983057  1
  O  O28  1  0.612765  0.174663  0.154815  1
  O  O29  1  0.174663  0.612765  0.654815  1
  O  O30  1  0.327442  0.213567  0.373332  1
  O  O31  1  0.073164  0.472794  0.233148  1
  O  O32  1  0.213567  0.327442  0.873332  1
  O  O33  1  0.472794  0.073164  0.733148  1
  O  O34  1  0.077479  0.109080  0.427612  1
  O  O35  1  0.109080  0.077479  0.927612  1
