# generated using pymatgen
data_SmY5PtI10
_symmetry_space_group_name_H-M   'P 1'
_cell_length_a   7.76214555
_cell_length_b   9.77446843
_cell_length_c   9.83162483
_cell_angle_alpha   107.29761857
_cell_angle_beta   96.84704509
_cell_angle_gamma   104.83739420
_symmetry_Int_Tables_number   1
_chemical_formula_structural   SmY5PtI10
_chemical_formula_sum   'Sm1 Y5 Pt1 I10'
_cell_volume   672.85056611
_cell_formula_units_Z   1
loop_
 _symmetry_equiv_pos_site_id
 _symmetry_equiv_pos_as_xyz
  1  'x, y, z'
loop_
 _atom_site_type_symbol
 _atom_site_label
 _atom_site_symmetry_multiplicity
 _atom_site_fract_x
 _atom_site_fract_y
 _atom_site_fract_z
 _atom_site_occupancy
  Sm  Sm0  1  0.883364  0.958694  0.244468  1
  Y  Y1  1  0.115184  0.040515  0.758438  1
  Y  Y2  1  0.350168  0.126493  0.165530  1
  Y  Y3  1  0.650573  0.874024  0.833692  1
  Y  Y4  1  0.971889  0.287334  0.086003  1
  Y  Y5  1  0.028591  0.712493  0.911868  1
  Pt  Pt6  1  0.000345  0.999902  0.999592  1
  I  I7  1  0.354831  0.452514  0.272153  1
  I  I8  1  0.644799  0.547532  0.727889  1
  I  I9  1  0.915628  0.624175  0.176628  1
  I  I10  1  0.085337  0.372079  0.820749  1
  I  I11  1  0.450153  0.816535  0.089611  1
  I  I12  1  0.546467  0.182154  0.908245  1
  I  I13  1  0.264223  0.089146  0.464816  1
  I  I14  1  0.739551  0.912360  0.541046  1
  I  I15  1  0.778990  0.262699  0.346295  1
  I  I16  1  0.219907  0.741350  0.652978  1
