# generated using pymatgen
data_La2HfTh6S17
_symmetry_space_group_name_H-M   'P 1'
_cell_length_a   8.03302423
_cell_length_b   8.03302447
_cell_length_c   10.64831400
_cell_angle_alpha   80.72665014
_cell_angle_beta   80.72665708
_cell_angle_gamma   65.43981077
_symmetry_Int_Tables_number   1
_chemical_formula_structural   La2HfTh6S17
_chemical_formula_sum   'La2 Hf1 Th6 S17'
_cell_volume   613.39119536
_cell_formula_units_Z   1
loop_
 _symmetry_equiv_pos_site_id
 _symmetry_equiv_pos_as_xyz
  1  'x, y, z'
loop_
 _atom_site_type_symbol
 _atom_site_label
 _atom_site_symmetry_multiplicity
 _atom_site_fract_x
 _atom_site_fract_y
 _atom_site_fract_z
 _atom_site_occupancy
  La  La0  1  0.811364  0.305519  0.297603  1
  La  La1  1  0.305519  0.811364  0.297603  1
  Hf  Hf2  1  0.002049  0.002049  0.003959  1
  Th  Th3  1  0.187493  0.696077  0.700591  1
  Th  Th4  1  0.696077  0.187493  0.700591  1
  Th  Th5  1  0.205587  0.205587  0.539928  1
  Th  Th6  1  0.791697  0.791697  0.458368  1
  Th  Th7  1  0.680576  0.680576  0.980411  1
  Th  Th8  1  0.319353  0.319353  0.024047  1
  S  S9  1  0.822682  0.430914  0.539793  1
  S  S10  1  0.430914  0.822682  0.539793  1
  S  S11  1  0.172389  0.568194  0.472073  1
  S  S12  1  0.568194  0.172389  0.472073  1
  S  S13  1  0.945047  0.327025  0.021588  1
  S  S14  1  0.327025  0.945047  0.021588  1
  S  S15  1  0.058620  0.675593  0.969472  1
  S  S16  1  0.675593  0.058620  0.969472  1
  S  S17  1  0.212965  0.212965  0.276484  1
  S  S18  1  0.791099  0.791099  0.725158  1
  S  S19  1  0.059819  0.059819  0.769736  1
  S  S20  1  0.935200  0.935200  0.229547  1
  S  S21  1  0.303210  0.303210  0.755462  1
  S  S22  1  0.700181  0.700181  0.241461  1
  S  S23  1  0.519388  0.519388  0.831757  1
  S  S24  1  0.480716  0.480716  0.156837  1
  S  S25  1  0.997243  0.997243  0.504610  1
