# generated using pymatgen
data_Er6HfCo17P12
_symmetry_space_group_name_H-M   'P 1'
_cell_length_a   3.68885300
_cell_length_b   10.55108500
_cell_length_c   12.24040400
_cell_angle_alpha   90.00000000
_cell_angle_beta   90.00000000
_cell_angle_gamma   90.00000000
_symmetry_Int_Tables_number   1
_chemical_formula_structural   Er6HfCo17P12
_chemical_formula_sum   'Er6 Hf1 Co17 P12'
_cell_volume   476.41367929
_cell_formula_units_Z   1
loop_
 _symmetry_equiv_pos_site_id
 _symmetry_equiv_pos_as_xyz
  1  'x, y, z'
loop_
 _atom_site_type_symbol
 _atom_site_label
 _atom_site_symmetry_multiplicity
 _atom_site_fract_x
 _atom_site_fract_y
 _atom_site_fract_z
 _atom_site_occupancy
  Er  Er0  1  0.000000  0.500000  0.528655  1
  Er  Er1  1  0.500000  0.000000  0.477109  1
  Er  Er2  1  0.500000  0.821802  0.207429  1
  Er  Er3  1  0.500000  0.178198  0.207429  1
  Er  Er4  1  0.000000  0.682450  0.796077  1
  Er  Er5  1  0.000000  0.317550  0.796077  1
  Hf  Hf6  1  0.500000  0.500000  0.154177  1
  Co  Co7  1  0.000000  0.500000  0.984428  1
  Co  Co8  1  0.500000  0.000000  0.013728  1
  Co  Co9  1  0.500000  0.294660  0.434226  1
  Co  Co10  1  0.500000  0.705340  0.434226  1
  Co  Co11  1  0.000000  0.201899  0.570249  1
  Co  Co12  1  0.000000  0.798101  0.570249  1
  Co  Co13  1  0.500000  0.879796  0.707377  1
  Co  Co14  1  0.500000  0.120204  0.707377  1
  Co  Co15  1  0.000000  0.622987  0.295676  1
  Co  Co16  1  0.000000  0.377013  0.295676  1
  Co  Co17  1  0.500000  0.327581  0.989080  1
  Co  Co18  1  0.500000  0.672419  0.989080  1
  Co  Co19  1  0.000000  0.161946  0.001893  1
  Co  Co20  1  0.000000  0.838054  0.001893  1
  Co  Co21  1  0.000000  0.000000  0.836654  1
  Co  Co22  1  0.500000  0.500000  0.702731  1
  Co  Co23  1  0.000000  0.000000  0.296562  1
  P  P24  1  0.500000  0.310127  0.618095  1
  P  P25  1  0.500000  0.689873  0.618095  1
  P  P26  1  0.000000  0.187731  0.385950  1
  P  P27  1  0.000000  0.812269  0.385950  1
  P  P28  1  0.500000  0.500000  0.881166  1
  P  P29  1  0.000000  0.000000  0.116999  1
  P  P30  1  0.500000  0.851728  0.888257  1
  P  P31  1  0.500000  0.148272  0.888257  1
  P  P32  1  0.000000  0.664911  0.101852  1
  P  P33  1  0.000000  0.335089  0.101852  1
  P  P34  1  0.500000  0.500000  0.361674  1
  P  P35  1  0.000000  0.000000  0.653793  1
