# generated using pymatgen
data_La4Tm(SnSb)2
_symmetry_space_group_name_H-M   'P 1'
_cell_length_a   8.41050200
_cell_length_b   8.49435700
_cell_length_c   16.15421000
_cell_angle_alpha   90.00000000
_cell_angle_beta   90.00000000
_cell_angle_gamma   90.00000000
_symmetry_Int_Tables_number   1
_chemical_formula_structural   La4Tm(SnSb)2
_chemical_formula_sum   'La16 Tm4 Sn8 Sb8'
_cell_volume   1154.08594558
_cell_formula_units_Z   4
loop_
 _symmetry_equiv_pos_site_id
 _symmetry_equiv_pos_as_xyz
  1  'x, y, z'
loop_
 _atom_site_type_symbol
 _atom_site_label
 _atom_site_symmetry_multiplicity
 _atom_site_fract_x
 _atom_site_fract_y
 _atom_site_fract_z
 _atom_site_occupancy
  La  La0  1  0.954507  0.826424  0.895444  1
  La  La1  1  0.454507  0.673576  0.604556  1
  La  La2  1  0.545493  0.326424  0.104556  1
  La  La3  1  0.045493  0.173576  0.395444  1
  La  La4  1  0.954507  0.826424  0.604556  1
  La  La5  1  0.454507  0.673576  0.895444  1
  La  La6  1  0.545493  0.326424  0.395444  1
  La  La7  1  0.045493  0.173576  0.104556  1
  La  La8  1  0.882341  0.659671  0.382750  1
  La  La9  1  0.382341  0.840329  0.117250  1
  La  La10  1  0.617659  0.159671  0.617250  1
  La  La11  1  0.117659  0.340329  0.882750  1
  La  La12  1  0.117659  0.340329  0.617250  1
  La  La13  1  0.617659  0.159671  0.882750  1
  La  La14  1  0.382341  0.840329  0.382750  1
  La  La15  1  0.882341  0.659671  0.117250  1
  Tm  Tm16  1  0.285789  0.995658  0.750000  1
  Tm  Tm17  1  0.785789  0.504342  0.750000  1
  Tm  Tm18  1  0.214211  0.495658  0.250000  1
  Tm  Tm19  1  0.714211  0.004342  0.250000  1
  Sn  Sn20  1  0.148511  0.645302  0.750000  1
  Sn  Sn21  1  0.648511  0.854698  0.750000  1
  Sn  Sn22  1  0.351489  0.145302  0.250000  1
  Sn  Sn23  1  0.851489  0.354698  0.250000  1
  Sn  Sn24  1  0.922529  0.125809  0.750000  1
  Sn  Sn25  1  0.422529  0.374191  0.750000  1
  Sn  Sn26  1  0.577471  0.625809  0.250000  1
  Sn  Sn27  1  0.077471  0.874191  0.250000  1
  Sb  Sb28  1  0.773312  0.481017  0.552971  1
  Sb  Sb29  1  0.273312  0.018983  0.947029  1
  Sb  Sb30  1  0.726688  0.981017  0.447029  1
  Sb  Sb31  1  0.226688  0.518983  0.052971  1
  Sb  Sb32  1  0.226688  0.518983  0.447029  1
  Sb  Sb33  1  0.726688  0.981017  0.052971  1
  Sb  Sb34  1  0.273312  0.018983  0.552971  1
  Sb  Sb35  1  0.773312  0.481017  0.947029  1
