# generated using pymatgen
data_Ho12Al2TcNi3
_symmetry_space_group_name_H-M   'P 1'
_cell_length_a   8.32757855
_cell_length_b   8.32883097
_cell_length_c   8.32757600
_cell_angle_alpha   112.74677577
_cell_angle_beta   109.99457017
_cell_angle_gamma   105.74227412
_symmetry_Int_Tables_number   1
_chemical_formula_structural   Ho12Al2TcNi3
_chemical_formula_sum   'Ho12 Al2 Tc1 Ni3'
_cell_volume   442.99033761
_cell_formula_units_Z   1
loop_
 _symmetry_equiv_pos_site_id
 _symmetry_equiv_pos_as_xyz
  1  'x, y, z'
loop_
 _atom_site_type_symbol
 _atom_site_label
 _atom_site_symmetry_multiplicity
 _atom_site_fract_x
 _atom_site_fract_y
 _atom_site_fract_z
 _atom_site_occupancy
  Ho  Ho0  1  0.443223  0.247679  0.195549  1
  Ho  Ho1  1  0.571705  0.767570  0.804136  1
  Ho  Ho2  1  0.036566  0.232430  0.804133  1
  Ho  Ho3  1  0.947871  0.752321  0.195544  1
  Ho  Ho4  1  0.186879  0.282669  0.469601  1
  Ho  Ho5  1  0.823307  0.719617  0.542880  1
  Ho  Ho6  1  0.186932  0.717331  0.904210  1
  Ho  Ho7  1  0.823264  0.280383  0.103688  1
  Ho  Ho8  1  0.323495  0.636119  0.306989  1
  Ho  Ho9  1  0.670871  0.363881  0.687377  1
  Ho  Ho10  1  0.323426  0.016399  0.687338  1
  Ho  Ho11  1  0.670939  0.983601  0.307026  1
  Al  Al12  1  0.493967  0.500000  0.993967  1
  Al  Al13  1  0.017977  0.000000  0.017977  1
  Tc  Tc14  1  0.322156  0.000000  0.322156  1
  Ni  Ni15  1  0.658402  0.000000  0.658402  1
  Ni  Ni16  1  0.117780  0.618181  0.499421  1
  Ni  Ni17  1  0.881240  0.381819  0.499600  1
