# generated using pymatgen
data_Sr3CeBi3
_symmetry_space_group_name_H-M   'P 1'
_cell_length_a   8.78703219
_cell_length_b   8.74327818
_cell_length_c   8.79327311
_cell_angle_alpha   109.47656458
_cell_angle_beta   109.70564779
_cell_angle_gamma   109.44756504
_symmetry_Int_Tables_number   1
_chemical_formula_structural   Sr3CeBi3
_chemical_formula_sum   'Sr6 Ce2 Bi6'
_cell_volume   518.65604229
_cell_formula_units_Z   2
loop_
 _symmetry_equiv_pos_site_id
 _symmetry_equiv_pos_as_xyz
  1  'x, y, z'
loop_
 _atom_site_type_symbol
 _atom_site_label
 _atom_site_symmetry_multiplicity
 _atom_site_fract_x
 _atom_site_fract_y
 _atom_site_fract_z
 _atom_site_occupancy
  Sr  Sr0  1  0.638766  0.640130  0.642615  1
  Sr  Sr1  1  0.855556  0.497596  0.996497  1
  Sr  Sr2  1  0.502873  0.000591  0.858568  1
  Sr  Sr3  1  0.502282  0.999409  0.357977  1
  Sr  Sr4  1  0.357961  0.502404  0.998901  1
  Sr  Sr5  1  0.998635  0.359870  0.502485  1
  Ce  Ce6  1  0.143893  0.143655  0.143605  1
  Ce  Ce7  1  0.000238  0.856345  0.499950  1
  Bi  Bi8  1  0.764781  0.880386  0.133961  1
  Bi  Bi9  1  0.361374  0.237315  0.612646  1
  Bi  Bi10  1  0.242906  0.620627  0.372257  1
  Bi  Bi11  1  0.884395  0.119614  0.753576  1
  Bi  Bi12  1  0.622280  0.379373  0.251631  1
  Bi  Bi13  1  0.124059  0.762685  0.875332  1
