# generated using pymatgen
data_Li2ZnSiSe4
_symmetry_space_group_name_H-M   'P 1'
_cell_length_a   6.61408900
_cell_length_b   7.19370400
_cell_length_c   7.83481800
_cell_angle_alpha   90.00000000
_cell_angle_beta   90.00000000
_cell_angle_gamma   90.00000000
_symmetry_Int_Tables_number   1
_chemical_formula_structural   Li2ZnSiSe4
_chemical_formula_sum   'Li4 Zn2 Si2 Se8'
_cell_volume   372.77906169
_cell_formula_units_Z   2
loop_
 _symmetry_equiv_pos_site_id
 _symmetry_equiv_pos_as_xyz
  1  'x, y, z'
loop_
 _atom_site_type_symbol
 _atom_site_label
 _atom_site_symmetry_multiplicity
 _atom_site_fract_x
 _atom_site_fract_y
 _atom_site_fract_z
 _atom_site_occupancy
  Li  Li0  1  0.508947  0.827705  0.251808  1
  Li  Li1  1  0.008947  0.172295  0.248192  1
  Li  Li2  1  0.008947  0.172295  0.751808  1
  Li  Li3  1  0.508947  0.827705  0.748192  1
  Zn  Zn4  1  0.504259  0.353743  0.000000  1
  Zn  Zn5  1  0.004259  0.646257  0.500000  1
  Si  Si6  1  0.005031  0.663001  0.000000  1
  Si  Si7  1  0.505031  0.336999  0.500000  1
  Se  Se8  1  0.882159  0.364879  0.000000  1
  Se  Se9  1  0.382159  0.635121  0.500000  1
  Se  Se10  1  0.894970  0.826035  0.237377  1
  Se  Se11  1  0.394970  0.173965  0.262623  1
  Se  Se12  1  0.394970  0.173965  0.737377  1
  Se  Se13  1  0.894970  0.826035  0.762623  1
  Se  Se14  1  0.353217  0.666580  0.000000  1
  Se  Se15  1  0.853217  0.333420  0.500000  1
