# generated using pymatgen
data_K16ZrSnAs8
_symmetry_space_group_name_H-M   'P 1'
_cell_length_a   11.06099445
_cell_length_b   11.06099298
_cell_length_c   11.05916517
_cell_angle_alpha   60.07649017
_cell_angle_beta   60.07608323
_cell_angle_gamma   60.08170197
_symmetry_Int_Tables_number   1
_chemical_formula_structural   K16ZrSnAs8
_chemical_formula_sum   'K16 Zr1 Sn1 As8'
_cell_volume   958.43686577
_cell_formula_units_Z   1
loop_
 _symmetry_equiv_pos_site_id
 _symmetry_equiv_pos_as_xyz
  1  'x, y, z'
loop_
 _atom_site_type_symbol
 _atom_site_label
 _atom_site_symmetry_multiplicity
 _atom_site_fract_x
 _atom_site_fract_y
 _atom_site_fract_z
 _atom_site_occupancy
  K  K0  1  0.623304  0.130148  0.623308  1
  K  K1  1  0.623303  0.623302  0.130165  1
  K  K2  1  0.130148  0.623307  0.623306  1
  K  K3  1  0.623272  0.623276  0.623272  1
  K  K4  1  0.022760  0.022757  0.477296  1
  K  K5  1  0.777739  0.222211  0.222138  1
  K  K6  1  0.222209  0.777778  0.777855  1
  K  K7  1  0.777808  0.777808  0.222183  1
  K  K8  1  0.777772  0.222211  0.777853  1
  K  K9  1  0.222207  0.777742  0.222135  1
  K  K10  1  0.477165  0.022837  0.477065  1
  K  K11  1  0.477323  0.022757  0.022812  1
  K  K12  1  0.022836  0.477166  0.477063  1
  K  K13  1  0.022758  0.477325  0.022811  1
  K  K14  1  0.222173  0.222175  0.777779  1
  K  K15  1  0.477117  0.477111  0.022864  1
  Zr  Zr16  1  0.749989  0.749984  0.749977  1
  Sn  Sn17  1  0.500163  0.500162  0.500156  1
  As  As18  1  0.398300  0.804946  0.398327  1
  As  As19  1  0.849405  0.849408  0.451933  1
  As  As20  1  0.452022  0.849378  0.849373  1
  As  As21  1  0.849338  0.849332  0.849324  1
  As  As22  1  0.804945  0.398298  0.398329  1
  As  As23  1  0.398272  0.398274  0.398305  1
  As  As24  1  0.398291  0.398290  0.804998  1
  As  As25  1  0.849380  0.452021  0.849372  1
