# generated using pymatgen
data_Y3ErGa7Ag5
_symmetry_space_group_name_H-M   'P 1'
_cell_length_a   4.35923900
_cell_length_b   7.02188301
_cell_length_c   10.34027335
_cell_angle_alpha   90.01176715
_cell_angle_beta   90.00000000
_cell_angle_gamma   90.00000000
_symmetry_Int_Tables_number   1
_chemical_formula_structural   Y3ErGa7Ag5
_chemical_formula_sum   'Y3 Er1 Ga7 Ag5'
_cell_volume   316.51644589
_cell_formula_units_Z   1
loop_
 _symmetry_equiv_pos_site_id
 _symmetry_equiv_pos_as_xyz
  1  'x, y, z'
loop_
 _atom_site_type_symbol
 _atom_site_label
 _atom_site_symmetry_multiplicity
 _atom_site_fract_x
 _atom_site_fract_y
 _atom_site_fract_z
 _atom_site_occupancy
  Y  Y0  1  0.500000  0.780769  0.173040  1
  Y  Y1  1  0.500000  0.277394  0.327914  1
  Y  Y2  1  0.000000  0.216329  0.828816  1
  Er  Er3  1  0.000000  0.723237  0.670384  1
  Ga  Ga4  1  0.500000  0.923204  0.846154  1
  Ga  Ga5  1  0.500000  0.427091  0.655143  1
  Ga  Ga6  1  0.000000  0.077586  0.153305  1
  Ga  Ga7  1  0.000000  0.574577  0.344432  1
  Ga  Ga8  1  0.500000  0.202449  0.035732  1
  Ga  Ga9  1  0.000000  0.300210  0.535679  1
  Ga  Ga10  1  0.000000  0.796222  0.963990  1
  Ag  Ag11  1  0.500000  0.541614  0.903552  1
  Ag  Ag12  1  0.500000  0.046182  0.600770  1
  Ag  Ag13  1  0.000000  0.457045  0.096680  1
  Ag  Ag14  1  0.000000  0.960022  0.401511  1
  Ag  Ag15  1  0.500000  0.696072  0.462897  1
