# generated using pymatgen
data_NaCa21(Ga6Pb)2
_symmetry_space_group_name_H-M   'P 1'
_cell_length_a   11.41862867
_cell_length_b   11.41862933
_cell_length_c   11.48294200
_cell_angle_alpha   59.81351084
_cell_angle_beta   59.81350891
_cell_angle_gamma   59.39559049
_symmetry_Int_Tables_number   1
_chemical_formula_structural   NaCa21(Ga6Pb)2
_chemical_formula_sum   'Na1 Ca21 Ga12 Pb2'
_cell_volume   1050.80988989
_cell_formula_units_Z   1
loop_
 _symmetry_equiv_pos_site_id
 _symmetry_equiv_pos_as_xyz
  1  'x, y, z'
loop_
 _atom_site_type_symbol
 _atom_site_label
 _atom_site_symmetry_multiplicity
 _atom_site_fract_x
 _atom_site_fract_y
 _atom_site_fract_z
 _atom_site_occupancy
  Na  Na0  1  0.500381  0.499619  0.500000  1
  Ca  Ca1  1  0.996190  0.003810  0.000000  1
  Ca  Ca2  1  0.127343  0.134880  0.127119  1
  Ca  Ca3  1  0.390945  0.874388  0.867333  1
  Ca  Ca4  1  0.870407  0.387540  0.871027  1
  Ca  Ca5  1  0.865120  0.872657  0.389341  1
  Ca  Ca6  1  0.125612  0.609055  0.132667  1
  Ca  Ca7  1  0.127343  0.134880  0.610659  1
  Ca  Ca8  1  0.612460  0.129593  0.128973  1
  Ca  Ca9  1  0.865120  0.872657  0.872881  1
  Ca  Ca10  1  0.504901  0.833392  0.494737  1
  Ca  Ca11  1  0.832554  0.499968  0.500253  1
  Ca  Ca12  1  0.504901  0.833392  0.166970  1
  Ca  Ca13  1  0.166608  0.495099  0.833030  1
  Ca  Ca14  1  0.832554  0.499968  0.167225  1
  Ca  Ca15  1  0.505582  0.494418  0.833906  1
  Ca  Ca16  1  0.166154  0.833846  0.500000  1
  Ca  Ca17  1  0.500032  0.167446  0.832775  1
  Ca  Ca18  1  0.505582  0.494418  0.166094  1
  Ca  Ca19  1  0.832766  0.167234  0.500000  1
  Ca  Ca20  1  0.166608  0.495099  0.505263  1
  Ca  Ca21  1  0.500032  0.167446  0.499747  1
  Ga  Ga22  1  0.782488  0.217512  0.218644  1
  Ga  Ga23  1  0.783232  0.781852  0.217459  1
  Ga  Ga24  1  0.218148  0.216768  0.782541  1
  Ga  Ga25  1  0.782488  0.217512  0.781356  1
  Ga  Ga26  1  0.309317  0.309496  0.309048  1
  Ga  Ga27  1  0.928877  0.691204  0.689960  1
  Ga  Ga28  1  0.690343  0.929876  0.689891  1
  Ga  Ga29  1  0.690504  0.690684  0.927862  1
  Ga  Ga30  1  0.308796  0.071123  0.310040  1
  Ga  Ga31  1  0.309316  0.309496  0.072138  1
  Ga  Ga32  1  0.070124  0.309657  0.310109  1
  Ga  Ga33  1  0.690504  0.690684  0.690951  1
  Pb  Pb34  1  0.218336  0.781664  0.217271  1
  Pb  Pb35  1  0.218336  0.781664  0.782729  1
