# generated using pymatgen
data_Nb4Al6ZnCo
_symmetry_space_group_name_H-M   'P 1'
_cell_length_a   5.15413300
_cell_length_b   5.15413265
_cell_length_c   7.99239700
_cell_angle_alpha   90.00000000
_cell_angle_beta   90.00000000
_cell_angle_gamma   119.99999581
_symmetry_Int_Tables_number   1
_chemical_formula_structural   Nb4Al6ZnCo
_chemical_formula_sum   'Nb4 Al6 Zn1 Co1'
_cell_volume   183.87340188
_cell_formula_units_Z   1
loop_
 _symmetry_equiv_pos_site_id
 _symmetry_equiv_pos_as_xyz
  1  'x, y, z'
loop_
 _atom_site_type_symbol
 _atom_site_label
 _atom_site_symmetry_multiplicity
 _atom_site_fract_x
 _atom_site_fract_y
 _atom_site_fract_z
 _atom_site_occupancy
  Nb  Nb0  1  0.666667  0.333332  0.066342  1
  Nb  Nb1  1  0.666667  0.333332  0.427853  1
  Nb  Nb2  1  0.333333  0.666667  0.572146  1
  Nb  Nb3  1  0.333333  0.666667  0.933658  1
  Al  Al4  1  0.168967  0.337933  0.262580  1
  Al  Al5  1  0.168967  0.831032  0.262580  1
  Al  Al6  1  0.662066  0.831032  0.262580  1
  Al  Al7  1  0.337932  0.168967  0.737420  1
  Al  Al8  1  0.831034  0.168967  0.737420  1
  Al  Al9  1  0.831033  0.662066  0.737420  1
  Zn  Zn10  1  0.000000  0.000000  0.000000  1
  Co  Co11  1  0.000000  0.000000  0.499999  1
