# generated using pymatgen
data_CaYbInPd2
_symmetry_space_group_name_H-M   'P 1'
_cell_length_a   5.84883184
_cell_length_b   5.84883262
_cell_length_c   8.21840723
_cell_angle_alpha   76.72036207
_cell_angle_beta   76.72036425
_cell_angle_gamma   58.82577104
_symmetry_Int_Tables_number   1
_chemical_formula_structural   CaYbInPd2
_chemical_formula_sum   'Ca2 Yb2 In2 Pd4'
_cell_volume   232.03077199
_cell_formula_units_Z   2
loop_
 _symmetry_equiv_pos_site_id
 _symmetry_equiv_pos_as_xyz
  1  'x, y, z'
loop_
 _atom_site_type_symbol
 _atom_site_label
 _atom_site_symmetry_multiplicity
 _atom_site_fract_x
 _atom_site_fract_y
 _atom_site_fract_z
 _atom_site_occupancy
  Ca  Ca0  1  0.497267  0.204501  0.650072  1
  Ca  Ca1  1  0.795499  0.502733  0.849928  1
  Yb  Yb2  1  0.500692  0.798324  0.350816  1
  Yb  Yb3  1  0.201676  0.499308  0.149184  1
  In  In4  1  0.836653  0.163347  0.250000  1
  In  In5  1  0.156046  0.843954  0.750000  1
  Pd  Pd6  1  0.729466  0.997423  0.009060  1
  Pd  Pd7  1  0.002577  0.270534  0.490940  1
  Pd  Pd8  1  0.271057  0.990934  0.002863  1
  Pd  Pd9  1  0.009066  0.728943  0.497137  1
