# generated using pymatgen
data_Yb3GeAs2Pd3
_symmetry_space_group_name_H-M   'P 1'
_cell_length_a   6.98702000
_cell_length_b   6.98702016
_cell_length_c   4.12648200
_cell_angle_alpha   90.00000000
_cell_angle_beta   90.00000000
_cell_angle_gamma   119.99999925
_symmetry_Int_Tables_number   1
_chemical_formula_structural   Yb3GeAs2Pd3
_chemical_formula_sum   'Yb3 Ge1 As2 Pd3'
_cell_volume   174.45947960
_cell_formula_units_Z   1
loop_
 _symmetry_equiv_pos_site_id
 _symmetry_equiv_pos_as_xyz
  1  'x, y, z'
loop_
 _atom_site_type_symbol
 _atom_site_label
 _atom_site_symmetry_multiplicity
 _atom_site_fract_x
 _atom_site_fract_y
 _atom_site_fract_z
 _atom_site_occupancy
  Yb  Yb0  1  0.000000  0.577632  0.500000  1
  Yb  Yb1  1  0.422368  0.422368  0.500000  1
  Yb  Yb2  1  0.577632  0.000000  0.500000  1
  Ge  Ge3  1  0.000000  0.000000  0.500000  1
  As  As4  1  0.666667  0.333333  0.000000  1
  As  As5  1  0.333333  0.666667  0.000000  1
  Pd  Pd6  1  0.237297  0.000000  0.000000  1
  Pd  Pd7  1  0.762703  0.762703  0.000000  1
  Pd  Pd8  1  0.000000  0.237297  0.000000  1
