# generated using pymatgen
data_LiNd6NiBr12
_symmetry_space_group_name_H-M   'P 1'
_cell_length_a   9.42081224
_cell_length_b   9.61871074
_cell_length_c   9.59774139
_cell_angle_alpha   108.02811743
_cell_angle_beta   107.72815942
_cell_angle_gamma   107.74937290
_symmetry_Int_Tables_number   1
_chemical_formula_structural   LiNd6NiBr12
_chemical_formula_sum   'Li1 Nd6 Ni1 Br12'
_cell_volume   707.14675417
_cell_formula_units_Z   1
loop_
 _symmetry_equiv_pos_site_id
 _symmetry_equiv_pos_as_xyz
  1  'x, y, z'
loop_
 _atom_site_type_symbol
 _atom_site_label
 _atom_site_symmetry_multiplicity
 _atom_site_fract_x
 _atom_site_fract_y
 _atom_site_fract_z
 _atom_site_occupancy
  Li  Li0  1  0.500000  0.500000  0.500000  1
  Nd  Nd1  1  0.311203  0.110597  0.031046  1
  Nd  Nd2  1  0.032024  0.323979  0.118587  1
  Nd  Nd3  1  0.118825  0.034575  0.324753  1
  Nd  Nd4  1  0.881174  0.965425  0.675247  1
  Nd  Nd5  1  0.967976  0.676021  0.881412  1
  Nd  Nd6  1  0.688797  0.889403  0.968953  1
  Ni  Ni7  1  0.000000  0.000000  0.000000  1
  Br  Br8  1  0.681142  0.215139  0.070036  1
  Br  Br9  1  0.380560  0.459496  0.174288  1
  Br  Br10  1  0.072182  0.686049  0.215379  1
  Br  Br11  1  0.782845  0.928149  0.314537  1
  Br  Br12  1  0.465015  0.175479  0.380473  1
  Br  Br13  1  0.172610  0.380054  0.462682  1
  Br  Br14  1  0.827391  0.619946  0.537319  1
  Br  Br15  1  0.534985  0.824522  0.619527  1
  Br  Br16  1  0.217154  0.071851  0.685463  1
  Br  Br17  1  0.927818  0.313951  0.784620  1
  Br  Br18  1  0.619441  0.540505  0.825712  1
  Br  Br19  1  0.318858  0.784860  0.929964  1
