# generated using pymatgen
data_CeTm15(InNi)4
_symmetry_space_group_name_H-M   'P 1'
_cell_length_a   9.50138115
_cell_length_b   9.50138160
_cell_length_c   9.50138111
_cell_angle_alpha   59.61612752
_cell_angle_beta   59.61613302
_cell_angle_gamma   59.61613134
_symmetry_Int_Tables_number   1
_chemical_formula_structural   CeTm15(InNi)4
_chemical_formula_sum   'Ce1 Tm15 In4 Ni4'
_cell_volume   601.22885243
_cell_formula_units_Z   1
loop_
 _symmetry_equiv_pos_site_id
 _symmetry_equiv_pos_as_xyz
  1  'x, y, z'
loop_
 _atom_site_type_symbol
 _atom_site_label
 _atom_site_symmetry_multiplicity
 _atom_site_fract_x
 _atom_site_fract_y
 _atom_site_fract_z
 _atom_site_occupancy
  Ce  Ce0  1  0.344279  0.344279  0.344279  1
  Tm  Tm1  1  0.347336  0.347336  0.954033  1
  Tm  Tm2  1  0.347336  0.954033  0.347336  1
  Tm  Tm3  1  0.954033  0.347336  0.347336  1
  Tm  Tm4  1  0.814385  0.187259  0.187259  1
  Tm  Tm5  1  0.189557  0.812175  0.812175  1
  Tm  Tm6  1  0.187259  0.814385  0.187259  1
  Tm  Tm7  1  0.812175  0.189557  0.812175  1
  Tm  Tm8  1  0.187259  0.187259  0.814385  1
  Tm  Tm9  1  0.812175  0.812175  0.189557  1
  Tm  Tm10  1  0.937185  0.562323  0.562323  1
  Tm  Tm11  1  0.562466  0.937069  0.937069  1
  Tm  Tm12  1  0.562323  0.937185  0.562323  1
  Tm  Tm13  1  0.937069  0.562466  0.937069  1
  Tm  Tm14  1  0.562323  0.562323  0.937185  1
  Tm  Tm15  1  0.937069  0.937069  0.562466  1
  In  In16  1  0.584619  0.584619  0.584619  1
  In  In17  1  0.583297  0.583297  0.251569  1
  In  In18  1  0.583297  0.251569  0.583297  1
  In  In19  1  0.251569  0.583297  0.583297  1
  Ni  Ni20  1  0.143032  0.143032  0.143032  1
  Ni  Ni21  1  0.143435  0.143435  0.573087  1
  Ni  Ni22  1  0.143435  0.573087  0.143435  1
  Ni  Ni23  1  0.573087  0.143435  0.143435  1
