# generated using pymatgen
data_Pr4Hf3MnF28
_symmetry_space_group_name_H-M   'P 1'
_cell_length_a   5.79353177
_cell_length_b   9.29472984
_cell_length_c   12.45312100
_cell_angle_alpha   61.98444726
_cell_angle_beta   90.00278695
_cell_angle_gamma   89.99161476
_symmetry_Int_Tables_number   1
_chemical_formula_structural   Pr4Hf3MnF28
_chemical_formula_sum   'Pr4 Hf3 Mn1 F28'
_cell_volume   592.01210652
_cell_formula_units_Z   1
loop_
 _symmetry_equiv_pos_site_id
 _symmetry_equiv_pos_as_xyz
  1  'x, y, z'
loop_
 _atom_site_type_symbol
 _atom_site_label
 _atom_site_symmetry_multiplicity
 _atom_site_fract_x
 _atom_site_fract_y
 _atom_site_fract_z
 _atom_site_occupancy
  Pr  Pr0  1  0.757869  0.815752  0.762642  1
  Pr  Pr1  1  0.258475  0.189662  0.728580  1
  Pr  Pr2  1  0.241453  0.189232  0.241464  1
  Pr  Pr3  1  0.742392  0.807822  0.267267  1
  Hf  Hf4  1  0.754988  0.273937  0.956952  1
  Hf  Hf5  1  0.254479  0.725697  0.542833  1
  Hf  Hf6  1  0.245140  0.726736  0.042294  1
  Mn  Mn7  1  0.741449  0.274307  0.456316  1
  F  F8  1  0.452759  0.710429  0.920129  1
  F  F9  1  0.929656  0.288162  0.571214  1
  F  F10  1  0.544059  0.287720  0.079791  1
  F  F11  1  0.050794  0.710532  0.419104  1
  F  F12  1  0.477251  0.282665  0.538241  1
  F  F13  1  0.957985  0.718929  0.953632  1
  F  F14  1  0.543426  0.714322  0.457211  1
  F  F15  1  0.037920  0.280767  0.049225  1
  F  F16  1  0.770042  0.517754  0.861181  1
  F  F17  1  0.263845  0.481991  0.636052  1
  F  F18  1  0.228439  0.483184  0.141113  1
  F  F19  1  0.734731  0.499335  0.366974  1
  F  F20  1  0.759853  0.030436  0.055680  1
  F  F21  1  0.263221  0.969020  0.448531  1
  F  F22  1  0.237839  0.969393  0.941847  1
  F  F23  1  0.739823  0.049718  0.545551  1
  F  F24  1  0.976953  0.732757  0.636246  1
  F  F25  1  0.484662  0.268961  0.857704  1
  F  F26  1  0.999253  0.268469  0.370582  1
  F  F27  1  0.519423  0.730191  0.139424  1
  F  F28  1  0.047980  0.745235  0.168403  1
  F  F29  1  0.556177  0.259988  0.339472  1
  F  F30  1  0.959106  0.256040  0.831876  1
  F  F31  1  0.453614  0.742673  0.668944  1
  F  F32  1  0.414239  0.968828  0.235705  1
  F  F33  1  0.915348  0.029141  0.271101  1
  F  F34  1  0.590274  0.034322  0.769655  1
  F  F35  1  0.095080  0.965892  0.727068  1
