# generated using pymatgen
data_Zr10Sn4Bi3
_symmetry_space_group_name_H-M   'P 1'
_cell_length_a   5.97973854
_cell_length_b   8.76956325
_cell_length_c   8.76203841
_cell_angle_alpha   119.97216882
_cell_angle_beta   90.04100211
_cell_angle_gamma   89.97910253
_symmetry_Int_Tables_number   1
_chemical_formula_structural   Zr10Sn4Bi3
_chemical_formula_sum   'Zr10 Sn4 Bi3'
_cell_volume   398.03160802
_cell_formula_units_Z   1
loop_
 _symmetry_equiv_pos_site_id
 _symmetry_equiv_pos_as_xyz
  1  'x, y, z'
loop_
 _atom_site_type_symbol
 _atom_site_label
 _atom_site_symmetry_multiplicity
 _atom_site_fract_x
 _atom_site_fract_y
 _atom_site_fract_z
 _atom_site_occupancy
  Zr  Zr0  1  0.497241  0.330881  0.666266  1
  Zr  Zr1  1  0.497241  0.669120  0.335394  1
  Zr  Zr2  1  0.003554  0.669349  0.335577  1
  Zr  Zr3  1  0.003556  0.330652  0.666230  1
  Zr  Zr4  1  0.779380  0.263775  0.994154  1
  Zr  Zr5  1  0.779379  0.736234  0.730387  1
  Zr  Zr6  1  0.776759  0.000000  0.271153  1
  Zr  Zr7  1  0.224497  0.730022  0.000606  1
  Zr  Zr8  1  0.224489  0.269971  0.270578  1
  Zr  Zr9  1  0.221412  0.000000  0.729453  1
  Sn  Sn10  1  0.741397  0.000002  0.611005  1
  Sn  Sn11  1  0.256510  0.385840  0.000968  1
  Sn  Sn12  1  0.256491  0.614149  0.615118  1
  Sn  Sn13  1  0.256814  0.999999  0.386785  1
  Bi  Bi14  1  0.741805  0.612164  0.999261  1
  Bi  Bi15  1  0.741811  0.387843  0.387103  1
  Bi  Bi16  1  0.497663  0.000002  0.999962  1
