# generated using pymatgen
data_Ho11TmInCo4Os
_symmetry_space_group_name_H-M   'P 1'
_cell_length_a   8.24643184
_cell_length_b   8.24871512
_cell_length_c   8.24643196
_cell_angle_alpha   111.52351677
_cell_angle_beta   110.64412567
_cell_angle_gamma   106.28260418
_symmetry_Int_Tables_number   1
_chemical_formula_structural   Ho11TmInCo4Os
_chemical_formula_sum   'Ho11 Tm1 In1 Co4 Os1'
_cell_volume   430.85127757
_cell_formula_units_Z   1
loop_
 _symmetry_equiv_pos_site_id
 _symmetry_equiv_pos_as_xyz
  1  'x, y, z'
loop_
 _atom_site_type_symbol
 _atom_site_label
 _atom_site_symmetry_multiplicity
 _atom_site_fract_x
 _atom_site_fract_y
 _atom_site_fract_z
 _atom_site_occupancy
  Ho  Ho0  1  0.415779  0.221034  0.193915  1
  Ho  Ho1  1  0.584778  0.778682  0.806918  1
  Ho  Ho2  1  0.027119  0.221034  0.805256  1
  Ho  Ho3  1  0.971764  0.778682  0.193903  1
  Ho  Ho4  1  0.180322  0.278883  0.460435  1
  Ho  Ho5  1  0.818399  0.720886  0.538708  1
  Ho  Ho6  1  0.182179  0.720886  0.902487  1
  Ho  Ho7  1  0.818447  0.278883  0.098561  1
  Ho  Ho8  1  0.315224  0.621341  0.306117  1
  Ho  Ho9  1  0.685539  0.378841  0.693302  1
  Ho  Ho10  1  0.314693  0.008512  0.693819  1
  Tm  Tm11  1  0.684763  0.992063  0.307299  1
  In  In12  1  0.500527  0.501500  0.000973  1
  Co  Co13  1  0.376618  0.999930  0.375539  1
  Co  Co14  1  0.624390  0.999930  0.623311  1
  Co  Co15  1  0.111049  0.611096  0.500046  1
  Co  Co16  1  0.888378  0.388129  0.499751  1
  Os  Os17  1  0.000031  0.999690  0.999659  1
