# generated using pymatgen
data_YbTm(CoC2)2
_symmetry_space_group_name_H-M   'P 1'
_cell_length_a   3.63633293
_cell_length_b   3.65358331
_cell_length_c   7.27877409
_cell_angle_alpha   82.49298442
_cell_angle_beta   82.60372067
_cell_angle_gamma   90.03742584
_symmetry_Int_Tables_number   1
_chemical_formula_structural   YbTm(CoC2)2
_chemical_formula_sum   'Yb1 Tm1 Co2 C4'
_cell_volume   95.06162147
_cell_formula_units_Z   1
loop_
 _symmetry_equiv_pos_site_id
 _symmetry_equiv_pos_as_xyz
  1  'x, y, z'
loop_
 _atom_site_type_symbol
 _atom_site_label
 _atom_site_symmetry_multiplicity
 _atom_site_fract_x
 _atom_site_fract_y
 _atom_site_fract_z
 _atom_site_occupancy
  Yb  Yb0  1  0.069183  0.930442  0.999175  1
  Tm  Tm1  1  0.931899  0.068922  0.499977  1
  Co  Co2  1  0.374705  0.509667  0.691975  1
  Co  Co3  1  0.509976  0.374059  0.193276  1
  C  C4  1  0.443752  0.591258  0.429182  1
  C  C5  1  0.591990  0.444672  0.929319  1
  C  C6  1  0.488979  0.860123  0.275408  1
  C  C7  1  0.856515  0.487855  0.775490  1
