# generated using pymatgen
data_YLu2Si3Os2
_symmetry_space_group_name_H-M   'P 1'
_cell_length_a   5.66878642
_cell_length_b   5.66878502
_cell_length_c   13.57066100
_cell_angle_alpha   90.00000000
_cell_angle_beta   90.00000000
_cell_angle_gamma   136.84737185
_symmetry_Int_Tables_number   1
_chemical_formula_structural   YLu2Si3Os2
_chemical_formula_sum   'Y2 Lu4 Si6 Os4'
_cell_volume   298.26461442
_cell_formula_units_Z   2
loop_
 _symmetry_equiv_pos_site_id
 _symmetry_equiv_pos_as_xyz
  1  'x, y, z'
loop_
 _atom_site_type_symbol
 _atom_site_label
 _atom_site_symmetry_multiplicity
 _atom_site_fract_x
 _atom_site_fract_y
 _atom_site_fract_z
 _atom_site_occupancy
  Y  Y0  1  0.639284  0.360716  0.250000  1
  Y  Y1  1  0.360716  0.639284  0.750000  1
  Lu  Lu2  1  0.923781  0.076219  0.114534  1
  Lu  Lu3  1  0.076219  0.923781  0.885466  1
  Lu  Lu4  1  0.076219  0.923781  0.614534  1
  Lu  Lu5  1  0.923781  0.076219  0.385466  1
  Si  Si6  1  0.330086  0.669914  0.250000  1
  Si  Si7  1  0.669914  0.330086  0.750000  1
  Si  Si8  1  0.613841  0.386159  0.037017  1
  Si  Si9  1  0.386159  0.613841  0.962983  1
  Si  Si10  1  0.386159  0.613841  0.537017  1
  Si  Si11  1  0.613841  0.386159  0.462983  1
  Os  Os12  1  0.787999  0.212001  0.581962  1
  Os  Os13  1  0.212001  0.787999  0.418038  1
  Os  Os14  1  0.212001  0.787999  0.081962  1
  Os  Os15  1  0.787999  0.212001  0.918038  1
