# generated using pymatgen
data_Tb4Mn13Fe3(MoP3)4
_symmetry_space_group_name_H-M   'P 1'
_cell_length_a   3.67175000
_cell_length_b   10.67486282
_cell_length_c   12.27076193
_cell_angle_alpha   90.31326320
_cell_angle_beta   90.00000000
_cell_angle_gamma   90.00000000
_symmetry_Int_Tables_number   1
_chemical_formula_structural   Tb4Mn13Fe3(MoP3)4
_chemical_formula_sum   'Tb4 Mn13 Fe3 Mo4 P12'
_cell_volume   480.95057165
_cell_formula_units_Z   1
loop_
 _symmetry_equiv_pos_site_id
 _symmetry_equiv_pos_as_xyz
  1  'x, y, z'
loop_
 _atom_site_type_symbol
 _atom_site_label
 _atom_site_symmetry_multiplicity
 _atom_site_fract_x
 _atom_site_fract_y
 _atom_site_fract_z
 _atom_site_occupancy
  Tb  Tb0  1  0.250000  0.587225  0.706859  1
  Tb  Tb1  1  0.250000  0.913648  0.209225  1
  Tb  Tb2  1  0.750000  0.414515  0.291568  1
  Tb  Tb3  1  0.750000  0.084805  0.790670  1
  Mn  Mn4  1  0.250000  0.410034  0.494235  1
  Mn  Mn5  1  0.250000  0.089027  0.994259  1
  Mn  Mn6  1  0.750000  0.590287  0.506032  1
  Mn  Mn7  1  0.750000  0.909184  0.006411  1
  Mn  Mn8  1  0.250000  0.214190  0.179273  1
  Mn  Mn9  1  0.250000  0.285455  0.679067  1
  Mn  Mn10  1  0.750000  0.787188  0.820365  1
  Mn  Mn11  1  0.750000  0.714465  0.321033  1
  Mn  Mn12  1  0.250000  0.880203  0.696776  1
  Mn  Mn13  1  0.250000  0.619343  0.195850  1
  Mn  Mn14  1  0.750000  0.119904  0.303870  1
  Mn  Mn15  1  0.750000  0.381369  0.804821  1
  Mn  Mn16  1  0.250000  0.464702  0.932757  1
  Fe  Fe17  1  0.250000  0.036488  0.433615  1
  Fe  Fe18  1  0.750000  0.535530  0.064597  1
  Fe  Fe19  1  0.750000  0.964082  0.565718  1
  Mo  Mo20  1  0.250000  0.707236  0.985148  1
  Mo  Mo21  1  0.250000  0.793424  0.484988  1
  Mo  Mo22  1  0.750000  0.290235  0.016835  1
  Mo  Mo23  1  0.750000  0.207131  0.515323  1
  P  P24  1  0.250000  0.421207  0.114596  1
  P  P25  1  0.250000  0.076198  0.611899  1
  P  P26  1  0.750000  0.582827  0.885052  1
  P  P27  1  0.750000  0.923390  0.387996  1
  P  P28  1  0.250000  0.263022  0.870639  1
  P  P29  1  0.250000  0.234252  0.370981  1
  P  P30  1  0.750000  0.733615  0.129118  1
  P  P31  1  0.750000  0.767315  0.629150  1
  P  P32  1  0.250000  0.592174  0.384985  1
  P  P33  1  0.250000  0.908189  0.884799  1
  P  P34  1  0.750000  0.408113  0.615564  1
  P  P35  1  0.750000  0.090029  0.115926  1
