# generated using pymatgen
data_CePrZnRu2
_symmetry_space_group_name_H-M   'P 1'
_cell_length_a   5.81700567
_cell_length_b   5.81700599
_cell_length_c   7.14531286
_cell_angle_alpha   86.10240486
_cell_angle_beta   93.89759654
_cell_angle_gamma   118.32651432
_symmetry_Int_Tables_number   1
_chemical_formula_structural   CePrZnRu2
_chemical_formula_sum   'Ce2 Pr2 Zn2 Ru4'
_cell_volume   212.16073136
_cell_formula_units_Z   2
loop_
 _symmetry_equiv_pos_site_id
 _symmetry_equiv_pos_as_xyz
  1  'x, y, z'
loop_
 _atom_site_type_symbol
 _atom_site_label
 _atom_site_symmetry_multiplicity
 _atom_site_fract_x
 _atom_site_fract_y
 _atom_site_fract_z
 _atom_site_occupancy
  Ce  Ce0  1  0.172172  0.827828  0.571943  1
  Ce  Ce1  1  0.827828  0.172172  0.428057  1
  Pr  Pr2  1  0.347273  0.652727  0.091117  1
  Pr  Pr3  1  0.652727  0.347273  0.908883  1
  Zn  Zn4  1  0.000000  0.000000  0.000000  1
  Zn  Zn5  1  0.500000  0.500000  0.500000  1
  Ru  Ru6  1  0.871678  0.639726  0.272566  1
  Ru  Ru7  1  0.639726  0.871678  0.727434  1
  Ru  Ru8  1  0.128322  0.360274  0.727434  1
  Ru  Ru9  1  0.360274  0.128322  0.272566  1
