# generated using pymatgen
data_Hf6Fe2Co21
_symmetry_space_group_name_H-M   'P 1'
_cell_length_a   8.13508822
_cell_length_b   8.14487984
_cell_length_c   8.13508800
_cell_angle_alpha   120.03982677
_cell_angle_beta   89.75197141
_cell_angle_gamma   120.03982982
_symmetry_Int_Tables_number   1
_chemical_formula_structural   Hf6Fe2Co21
_chemical_formula_sum   'Hf6 Fe2 Co21'
_cell_volume   381.50905351
_cell_formula_units_Z   1
loop_
 _symmetry_equiv_pos_site_id
 _symmetry_equiv_pos_as_xyz
  1  'x, y, z'
loop_
 _atom_site_type_symbol
 _atom_site_label
 _atom_site_symmetry_multiplicity
 _atom_site_fract_x
 _atom_site_fract_y
 _atom_site_fract_z
 _atom_site_occupancy
  Hf  Hf0  1  0.289782  0.004022  0.289782  1
  Hf  Hf1  1  0.712886  0.000000  0.287113  1
  Hf  Hf2  1  0.289782  0.575541  0.289782  1
  Hf  Hf3  1  0.287113  0.000000  0.712886  1
  Hf  Hf4  1  0.710217  0.424458  0.710217  1
  Hf  Hf5  1  0.710218  0.995978  0.710218  1
  Fe  Fe6  1  0.000000  0.000000  0.000000  1
  Fe  Fe7  1  0.000000  0.500001  0.000000  1
  Co  Co8  1  0.500001  0.000000  0.000000  1
  Co  Co9  1  0.500001  0.500001  0.000000  1
  Co  Co10  1  0.673451  0.347705  0.021958  1
  Co  Co11  1  0.878847  0.757573  0.121152  1
  Co  Co12  1  0.364541  0.242990  0.121440  1
  Co  Co13  1  0.878847  0.242426  0.121152  1
  Co  Co14  1  0.674228  0.348299  0.325773  1
  Co  Co15  1  0.674228  0.651702  0.325773  1
  Co  Co16  1  0.978043  0.652296  0.326550  1
  Co  Co17  1  0.121440  0.242990  0.364541  1
  Co  Co18  1  0.000000  0.000000  0.500001  1
  Co  Co19  1  0.000000  0.500001  0.500001  1
  Co  Co20  1  0.500001  0.500001  0.500001  1
  Co  Co21  1  0.878559  0.757009  0.635459  1
  Co  Co22  1  0.021958  0.347705  0.673451  1
  Co  Co23  1  0.325773  0.348299  0.674228  1
  Co  Co24  1  0.325773  0.651702  0.674228  1
  Co  Co25  1  0.121152  0.242426  0.878847  1
  Co  Co26  1  0.121152  0.757573  0.878847  1
  Co  Co27  1  0.635459  0.757009  0.878559  1
  Co  Co28  1  0.326550  0.652296  0.978043  1
