# generated using pymatgen
data_TiCr2Si12Mo17
_symmetry_space_group_name_H-M   'P 1'
_cell_length_a   4.85573100
_cell_length_b   7.25502499
_cell_length_c   13.67115500
_cell_angle_alpha   90.00000000
_cell_angle_beta   90.00000000
_cell_angle_gamma   109.49967942
_symmetry_Int_Tables_number   1
_chemical_formula_structural   TiCr2Si12Mo17
_chemical_formula_sum   'Ti1 Cr2 Si12 Mo17'
_cell_volume   453.98985895
_cell_formula_units_Z   1
loop_
 _symmetry_equiv_pos_site_id
 _symmetry_equiv_pos_as_xyz
  1  'x, y, z'
loop_
 _atom_site_type_symbol
 _atom_site_label
 _atom_site_symmetry_multiplicity
 _atom_site_fract_x
 _atom_site_fract_y
 _atom_site_fract_z
 _atom_site_occupancy
  Ti  Ti0  1  0.499339  0.500415  0.750000  1
  Cr  Cr1  1  0.997516  0.499326  0.750000  1
  Cr  Cr2  1  0.005274  0.499445  0.250000  1
  Si  Si3  1  0.249883  0.999707  0.000343  1
  Si  Si4  1  0.750102  0.000251  0.500089  1
  Si  Si5  1  0.750102  0.000251  0.999911  1
  Si  Si6  1  0.249883  0.999707  0.499657  1
  Si  Si7  1  0.759407  0.500090  0.086969  1
  Si  Si8  1  0.240791  0.499860  0.586525  1
  Si  Si9  1  0.759407  0.500090  0.413031  1
  Si  Si10  1  0.240791  0.499860  0.913475  1
  Si  Si11  1  0.402907  0.827294  0.250000  1
  Si  Si12  1  0.923696  0.826558  0.750000  1
  Si  Si13  1  0.077718  0.172978  0.250000  1
  Si  Si14  1  0.597142  0.173601  0.750000  1
  Mo  Mo15  1  0.926204  0.853304  0.348168  1
  Mo  Mo16  1  0.426781  0.852092  0.848101  1
  Mo  Mo17  1  0.574141  0.147033  0.151783  1
  Mo  Mo18  1  0.075221  0.147752  0.651594  1
  Mo  Mo19  1  0.149996  0.302735  0.072937  1
  Mo  Mo20  1  0.648977  0.303093  0.573681  1
  Mo  Mo21  1  0.349580  0.697062  0.427013  1
  Mo  Mo22  1  0.847882  0.696959  0.926521  1
  Mo  Mo23  1  0.349580  0.697062  0.072987  1
  Mo  Mo24  1  0.847882  0.696959  0.573479  1
  Mo  Mo25  1  0.149996  0.302735  0.427063  1
  Mo  Mo26  1  0.648977  0.303093  0.926319  1
  Mo  Mo27  1  0.574141  0.147033  0.348217  1
  Mo  Mo28  1  0.075221  0.147752  0.848406  1
  Mo  Mo29  1  0.926204  0.853304  0.151832  1
  Mo  Mo30  1  0.426781  0.852092  0.651899  1
  Mo  Mo31  1  0.498471  0.500504  0.250000  1
