# generated using pymatgen
data_Tm8Zn(Si4Ni)3
_symmetry_space_group_name_H-M   'P 1'
_cell_length_a   7.91877400
_cell_length_b   7.91877361
_cell_length_c   7.95741600
_cell_angle_alpha   90.00000000
_cell_angle_beta   90.00000000
_cell_angle_gamma   120.00000163
_symmetry_Int_Tables_number   1
_chemical_formula_structural   Tm8Zn(Si4Ni)3
_chemical_formula_sum   'Tm8 Zn1 Si12 Ni3'
_cell_volume   432.13412466
_cell_formula_units_Z   1
loop_
 _symmetry_equiv_pos_site_id
 _symmetry_equiv_pos_as_xyz
  1  'x, y, z'
loop_
 _atom_site_type_symbol
 _atom_site_label
 _atom_site_symmetry_multiplicity
 _atom_site_fract_x
 _atom_site_fract_y
 _atom_site_fract_z
 _atom_site_occupancy
  Tm  Tm0  1  0.501824  0.003648  0.253143  1
  Tm  Tm1  1  0.501441  0.002882  0.746898  1
  Tm  Tm2  1  0.996352  0.498176  0.253143  1
  Tm  Tm3  1  0.997118  0.498559  0.746898  1
  Tm  Tm4  1  0.501824  0.498176  0.253143  1
  Tm  Tm5  1  0.501441  0.498559  0.746898  1
  Tm  Tm6  1  0.000000  0.000000  0.252744  1
  Tm  Tm7  1  0.000000  0.000000  0.747086  1
  Zn  Zn8  1  0.333333  0.666667  0.001524  1
  Si  Si9  1  0.163970  0.327941  0.999742  1
  Si  Si10  1  0.826546  0.653091  0.999982  1
  Si  Si11  1  0.672059  0.836030  0.999742  1
  Si  Si12  1  0.829249  0.658498  0.500216  1
  Si  Si13  1  0.346909  0.173454  0.999982  1
  Si  Si14  1  0.171400  0.342799  0.499797  1
  Si  Si15  1  0.163970  0.836030  0.999742  1
  Si  Si16  1  0.341502  0.170751  0.500216  1
  Si  Si17  1  0.826546  0.173454  0.999982  1
  Si  Si18  1  0.657201  0.828600  0.499797  1
  Si  Si19  1  0.829249  0.170751  0.500216  1
  Si  Si20  1  0.171400  0.828600  0.499797  1
  Ni  Ni21  1  0.666667  0.333333  0.999064  1
  Ni  Ni22  1  0.666667  0.333333  0.501260  1
  Ni  Ni23  1  0.333333  0.666667  0.498990  1
