# generated using pymatgen
data_SrPr5NdOsBr12
_symmetry_space_group_name_H-M   'P 1'
_cell_length_a   9.62045573
_cell_length_b   9.60481882
_cell_length_c   9.74092604
_cell_angle_alpha   106.27513664
_cell_angle_beta   106.70122505
_cell_angle_gamma   105.99416824
_symmetry_Int_Tables_number   1
_chemical_formula_structural   SrPr5NdOsBr12
_chemical_formula_sum   'Sr1 Pr5 Nd1 Os1 Br12'
_cell_volume   762.98967136
_cell_formula_units_Z   1
loop_
 _symmetry_equiv_pos_site_id
 _symmetry_equiv_pos_as_xyz
  1  'x, y, z'
loop_
 _atom_site_type_symbol
 _atom_site_label
 _atom_site_symmetry_multiplicity
 _atom_site_fract_x
 _atom_site_fract_y
 _atom_site_fract_z
 _atom_site_occupancy
  Sr  Sr0  1  0.500085  0.499937  0.500175  1
  Pr  Pr1  1  0.101247  0.307315  0.019132  1
  Pr  Pr2  1  0.308336  0.019635  0.101984  1
  Pr  Pr3  1  0.019962  0.105821  0.318198  1
  Pr  Pr4  1  0.979788  0.893184  0.681479  1
  Pr  Pr5  1  0.691576  0.980212  0.898094  1
  Nd  Nd6  1  0.898967  0.694294  0.980706  1
  Os  Os7  1  0.999988  0.000132  0.999785  1
  Br  Br8  1  0.216917  0.680450  0.070810  1
  Br  Br9  1  0.449831  0.368251  0.153961  1
  Br  Br10  1  0.680432  0.071476  0.218033  1
  Br  Br11  1  0.927839  0.779170  0.315586  1
  Br  Br12  1  0.151613  0.448835  0.365896  1
  Br  Br13  1  0.366940  0.151322  0.447798  1
  Br  Br14  1  0.633046  0.848582  0.552143  1
  Br  Br15  1  0.848688  0.551362  0.636255  1
  Br  Br16  1  0.071696  0.219442  0.682018  1
  Br  Br17  1  0.319590  0.928478  0.781998  1
  Br  Br18  1  0.552540  0.631756  0.847304  1
  Br  Br19  1  0.780917  0.320348  0.928645  1
