# generated using pymatgen
data_Tb3ErAl18NiRh5
_symmetry_space_group_name_H-M   'P 1'
_cell_length_a   7.55041227
_cell_length_b   7.55365980
_cell_length_c   9.45765631
_cell_angle_alpha   90.15533329
_cell_angle_beta   90.17586358
_cell_angle_gamma   119.65198072
_symmetry_Int_Tables_number   1
_chemical_formula_structural   Tb3ErAl18NiRh5
_chemical_formula_sum   'Tb3 Er1 Al18 Ni1 Rh5'
_cell_volume   468.75662166
_cell_formula_units_Z   1
loop_
 _symmetry_equiv_pos_site_id
 _symmetry_equiv_pos_as_xyz
  1  'x, y, z'
loop_
 _atom_site_type_symbol
 _atom_site_label
 _atom_site_symmetry_multiplicity
 _atom_site_fract_x
 _atom_site_fract_y
 _atom_site_fract_z
 _atom_site_occupancy
  Tb  Tb0  1  0.994642  0.669235  0.749409  1
  Tb  Tb1  1  0.005572  0.330804  0.250482  1
  Tb  Tb2  1  0.669096  0.994535  0.749458  1
  Er  Er3  1  0.330774  0.005254  0.250517  1
  Al  Al4  1  0.124869  0.124693  0.747183  1
  Al  Al5  1  0.876070  0.875412  0.252805  1
  Al  Al6  1  0.000387  0.332595  0.574878  1
  Al  Al7  1  0.000439  0.668302  0.424788  1
  Al  Al8  1  0.999821  0.666763  0.075517  1
  Al  Al9  1  0.334153  0.000971  0.925646  1
  Al  Al10  1  0.001051  0.334154  0.924833  1
  Al  Al11  1  0.665085  0.998999  0.075574  1
  Al  Al12  1  0.666576  0.999644  0.424667  1
  Al  Al13  1  0.332533  0.000320  0.574015  1
  Al  Al14  1  0.333567  0.332900  0.051118  1
  Al  Al15  1  0.666501  0.666454  0.949546  1
  Al  Al16  1  0.668753  0.668734  0.548870  1
  Al  Al17  1  0.331240  0.330535  0.450421  1
  Al  Al18  1  0.338873  0.547755  0.749563  1
  Al  Al19  1  0.660387  0.451356  0.250399  1
  Al  Al20  1  0.547604  0.338731  0.749530  1
  Al  Al21  1  0.452206  0.661838  0.250421  1
  Ni  Ni22  1  0.000015  0.000056  0.499993  1
  Rh  Rh23  1  0.671490  0.327775  0.499531  1
  Rh  Rh24  1  0.328087  0.672046  0.499637  1
  Rh  Rh25  1  0.327985  0.672203  0.000342  1
  Rh  Rh26  1  0.671662  0.327705  0.000393  1
  Rh  Rh27  1  0.000561  0.000232  0.000463  1
