# generated using pymatgen
data_Rb(V3S4)4
_symmetry_space_group_name_H-M   'P 1'
_cell_length_a   9.79315042
_cell_length_b   9.79315045
_cell_length_c   9.24646992
_cell_angle_alpha   61.65213372
_cell_angle_beta   61.65213462
_cell_angle_gamma   38.43709967
_symmetry_Int_Tables_number   1
_chemical_formula_structural   Rb(V3S4)4
_chemical_formula_sum   'Rb1 V12 S16'
_cell_volume   476.51066242
_cell_formula_units_Z   1
loop_
 _symmetry_equiv_pos_site_id
 _symmetry_equiv_pos_as_xyz
  1  'x, y, z'
loop_
 _atom_site_type_symbol
 _atom_site_label
 _atom_site_symmetry_multiplicity
 _atom_site_fract_x
 _atom_site_fract_y
 _atom_site_fract_z
 _atom_site_occupancy
  Rb  Rb0  1  0.374907  0.374907  0.999522  1
  V  V1  1  0.932868  0.932868  0.510933  1
  V  V2  1  0.432758  0.432758  0.515384  1
  V  V3  1  0.131069  0.131069  0.374114  1
  V  V4  1  0.632875  0.632875  0.367984  1
  V  V5  1  0.059000  0.059000  0.115849  1
  V  V6  1  0.562231  0.562231  0.114260  1
  V  V7  1  0.065202  0.569402  0.491906  1
  V  V8  1  0.569402  0.065202  0.491906  1
  V  V9  1  0.876264  0.364661  0.623699  1
  V  V10  1  0.364661  0.876264  0.623699  1
  V  V11  1  0.931726  0.442057  0.885136  1
  V  V12  1  0.442057  0.931726  0.885136  1
  S  S13  1  0.526876  0.526876  0.642055  1
  S  S14  1  0.022075  0.022075  0.651828  1
  S  S15  1  0.700969  0.700969  0.053332  1
  S  S16  1  0.195556  0.195556  0.055477  1
  S  S17  1  0.402798  0.402798  0.302596  1
  S  S18  1  0.901307  0.901307  0.296434  1
  S  S19  1  0.478788  0.978666  0.346724  1
  S  S20  1  0.978666  0.478788  0.346724  1
  S  S21  1  0.298258  0.798897  0.945575  1
  S  S22  1  0.798897  0.298258  0.945575  1
  S  S23  1  0.600266  0.095598  0.707046  1
  S  S24  1  0.095598  0.600266  0.707046  1
  S  S25  1  0.707628  0.707628  0.666041  1
  S  S26  1  0.208744  0.208744  0.667698  1
  S  S27  1  0.291410  0.792143  0.333159  1
  S  S28  1  0.792143  0.291410  0.333159  1
