# generated using pymatgen
data_K2PrNd3(CuSe4)2
_symmetry_space_group_name_H-M   'P 1'
_cell_length_a   7.53384175
_cell_length_b   7.53384164
_cell_length_c   14.68388001
_cell_angle_alpha   89.99659845
_cell_angle_beta   90.00340087
_cell_angle_gamma   147.37534231
_symmetry_Int_Tables_number   1
_chemical_formula_structural   K2PrNd3(CuSe4)2
_chemical_formula_sum   'K2 Pr1 Nd3 Cu2 Se8'
_cell_volume   449.33469846
_cell_formula_units_Z   1
loop_
 _symmetry_equiv_pos_site_id
 _symmetry_equiv_pos_as_xyz
  1  'x, y, z'
loop_
 _atom_site_type_symbol
 _atom_site_label
 _atom_site_symmetry_multiplicity
 _atom_site_fract_x
 _atom_site_fract_y
 _atom_site_fract_z
 _atom_site_occupancy
  K  K0  1  0.109278  0.890722  0.250021  1
  K  K1  1  0.890721  0.109279  0.749978  1
  Pr  Pr2  1  0.634821  0.365179  0.936027  1
  Nd  Nd3  1  0.364992  0.635008  0.435754  1
  Nd  Nd4  1  0.635009  0.364991  0.564171  1
  Nd  Nd5  1  0.364958  0.635042  0.064305  1
  Cu  Cu6  1  0.161012  0.838988  0.749953  1
  Cu  Cu7  1  0.839004  0.160996  0.249978  1
  Se  Se8  1  0.000000  0.000000  0.499998  1
  Se  Se9  1  0.999350  0.000650  0.000311  1
  Se  Se10  1  0.734465  0.265535  0.116203  1
  Se  Se11  1  0.266547  0.733453  0.883901  1
  Se  Se12  1  0.565521  0.434479  0.749369  1
  Se  Se13  1  0.734222  0.265778  0.384218  1
  Se  Se14  1  0.434318  0.565682  0.250017  1
  Se  Se15  1  0.265783  0.734217  0.615797  1
