# generated using pymatgen
data_Yb3SbPd2(PtO7)2
_symmetry_space_group_name_H-M   'P 1'
_cell_length_a   7.14277609
_cell_length_b   7.21326463
_cell_length_c   7.13617849
_cell_angle_alpha   60.26332917
_cell_angle_beta   59.96939979
_cell_angle_gamma   60.32273032
_symmetry_Int_Tables_number   1
_chemical_formula_structural   Yb3SbPd2(PtO7)2
_chemical_formula_sum   'Yb3 Sb1 Pd2 Pt2 O14'
_cell_volume   261.07024612
_cell_formula_units_Z   1
loop_
 _symmetry_equiv_pos_site_id
 _symmetry_equiv_pos_as_xyz
  1  'x, y, z'
loop_
 _atom_site_type_symbol
 _atom_site_label
 _atom_site_symmetry_multiplicity
 _atom_site_fract_x
 _atom_site_fract_y
 _atom_site_fract_z
 _atom_site_occupancy
  Yb  Yb0  1  0.125000  0.125000  0.125000  1
  Yb  Yb1  1  0.625000  0.125000  0.125000  1
  Yb  Yb2  1  0.125000  0.125000  0.625000  1
  Sb  Sb3  1  0.125000  0.625000  0.125000  1
  Pd  Pd4  1  0.625000  0.625000  0.625000  1
  Pd  Pd5  1  0.125000  0.625000  0.625000  1
  Pt  Pt6  1  0.625000  0.625000  0.125000  1
  Pt  Pt7  1  0.625000  0.125000  0.625000  1
  O  O8  1  0.015051  0.954201  0.015697  1
  O  O9  1  0.234949  0.295799  0.234303  1
  O  O10  1  0.521243  0.546562  0.966760  1
  O  O11  1  0.285658  0.287174  0.714054  1
  O  O12  1  0.965436  0.546562  0.966760  1
  O  O13  1  0.966430  0.547032  0.520108  1
  O  O14  1  0.536805  0.961083  0.965306  1
  O  O15  1  0.536886  0.962826  0.535946  1
  O  O16  1  0.964342  0.962826  0.535946  1
  O  O17  1  0.713195  0.288917  0.284694  1
  O  O18  1  0.283570  0.702968  0.729892  1
  O  O19  1  0.728757  0.703438  0.283240  1
  O  O20  1  0.713114  0.287174  0.714054  1
  O  O21  1  0.284564  0.703438  0.283240  1
