# generated using pymatgen
data_Yb4Si8Tc5W
_symmetry_space_group_name_H-M   'P 1'
_cell_length_a   6.80061579
_cell_length_b   6.70605948
_cell_length_c   6.77638219
_cell_angle_alpha   70.50242912
_cell_angle_beta   90.11322320
_cell_angle_gamma   90.46281933
_symmetry_Int_Tables_number   1
_chemical_formula_structural   Yb4Si8Tc5W
_chemical_formula_sum   'Yb4 Si8 Tc5 W1'
_cell_volume   291.30793122
_cell_formula_units_Z   1
loop_
 _symmetry_equiv_pos_site_id
 _symmetry_equiv_pos_as_xyz
  1  'x, y, z'
loop_
 _atom_site_type_symbol
 _atom_site_label
 _atom_site_symmetry_multiplicity
 _atom_site_fract_x
 _atom_site_fract_y
 _atom_site_fract_z
 _atom_site_occupancy
  Yb  Yb0  1  0.335369  0.556593  0.815837  1
  Yb  Yb1  1  0.837741  0.943371  0.181742  1
  Yb  Yb2  1  0.662130  0.444120  0.184242  1
  Yb  Yb3  1  0.163016  0.055811  0.817198  1
  Si  Si4  1  0.546978  0.872590  0.906329  1
  Si  Si5  1  0.046383  0.619328  0.101849  1
  Si  Si6  1  0.454301  0.119963  0.101829  1
  Si  Si7  1  0.953982  0.377675  0.904390  1
  Si  Si8  1  0.137770  0.865845  0.496631  1
  Si  Si9  1  0.635571  0.638258  0.503721  1
  Si  Si10  1  0.870726  0.128991  0.498322  1
  Si  Si11  1  0.357682  0.372556  0.494237  1
  Tc  Tc12  1  0.499556  0.009507  0.502758  1
  Tc  Tc13  1  0.997720  0.496339  0.501226  1
  Tc  Tc14  1  0.839531  0.753937  0.756094  1
  Tc  Tc15  1  0.338461  0.747149  0.245638  1
  Tc  Tc16  1  0.160247  0.246024  0.246616  1
  W  W17  1  0.662836  0.251942  0.741339  1
