# generated using pymatgen
data_Ti6Al8Co7Si8
_symmetry_space_group_name_H-M   'P 1'
_cell_length_a   8.12254671
_cell_length_b   8.12254706
_cell_length_c   8.12254800
_cell_angle_alpha   60.00000431
_cell_angle_beta   60.00000289
_cell_angle_gamma   59.99999864
_symmetry_Int_Tables_number   1
_chemical_formula_structural   Ti6Al8Co7Si8
_chemical_formula_sum   'Ti6 Al8 Co7 Si8'
_cell_volume   378.93241825
_cell_formula_units_Z   1
loop_
 _symmetry_equiv_pos_site_id
 _symmetry_equiv_pos_as_xyz
  1  'x, y, z'
loop_
 _atom_site_type_symbol
 _atom_site_label
 _atom_site_symmetry_multiplicity
 _atom_site_fract_x
 _atom_site_fract_y
 _atom_site_fract_z
 _atom_site_occupancy
  Ti  Ti0  1  0.691818  0.308182  0.308182  1
  Ti  Ti1  1  0.308182  0.691818  0.691818  1
  Ti  Ti2  1  0.308182  0.691818  0.308182  1
  Ti  Ti3  1  0.308182  0.308182  0.691818  1
  Ti  Ti4  1  0.691818  0.308182  0.691818  1
  Ti  Ti5  1  0.691818  0.691818  0.308182  1
  Al  Al6  1  0.119984  0.119984  0.119984  1
  Al  Al7  1  0.119984  0.119984  0.640048  1
  Al  Al8  1  0.640048  0.119984  0.119984  1
  Al  Al9  1  0.119984  0.640048  0.119984  1
  Al  Al10  1  0.880016  0.880016  0.880016  1
  Al  Al11  1  0.880016  0.880016  0.359954  1
  Al  Al12  1  0.880016  0.359954  0.880016  1
  Al  Al13  1  0.359954  0.880016  0.880016  1
  Co  Co14  1  0.000000  0.000000  0.000000  1
  Co  Co15  1  0.500001  0.000000  0.000000  1
  Co  Co16  1  0.000002  0.500000  0.500000  1
  Co  Co17  1  0.000000  0.500001  0.000000  1
  Co  Co18  1  0.000000  0.000000  0.500001  1
  Co  Co19  1  0.500000  0.000002  0.500000  1
  Co  Co20  1  0.500000  0.500000  0.000002  1
  Si  Si21  1  0.342897  0.342897  0.342897  1
  Si  Si22  1  0.342897  0.342897  0.971308  1
  Si  Si23  1  0.971308  0.342897  0.342897  1
  Si  Si24  1  0.342897  0.971308  0.342897  1
  Si  Si25  1  0.657102  0.657102  0.657102  1
  Si  Si26  1  0.657102  0.657102  0.028693  1
  Si  Si27  1  0.657102  0.028693  0.657102  1
  Si  Si28  1  0.028693  0.657102  0.657102  1
