# generated using pymatgen
data_Nd2PaGa6(CoNi2)3
_symmetry_space_group_name_H-M   'P 1'
_cell_length_a   8.73353300
_cell_length_b   8.73353323
_cell_length_c   4.24340100
_cell_angle_alpha   90.00000000
_cell_angle_beta   90.00000000
_cell_angle_gamma   119.99999533
_symmetry_Int_Tables_number   1
_chemical_formula_structural   Nd2PaGa6(CoNi2)3
_chemical_formula_sum   'Nd2 Pa1 Ga6 Co3 Ni6'
_cell_volume   280.30101427
_cell_formula_units_Z   1
loop_
 _symmetry_equiv_pos_site_id
 _symmetry_equiv_pos_as_xyz
  1  'x, y, z'
loop_
 _atom_site_type_symbol
 _atom_site_label
 _atom_site_symmetry_multiplicity
 _atom_site_fract_x
 _atom_site_fract_y
 _atom_site_fract_z
 _atom_site_occupancy
  Nd  Nd0  1  0.333333  0.666667  0.500000  1
  Nd  Nd1  1  0.666667  0.333333  0.500000  1
  Pa  Pa2  1  0.000000  0.000000  0.000000  1
  Ga  Ga3  1  0.485591  0.994090  0.000000  1
  Ga  Ga4  1  0.005910  0.491501  0.000000  1
  Ga  Ga5  1  0.508499  0.514409  0.000000  1
  Ga  Ga6  1  0.726122  0.999721  0.500000  1
  Ga  Ga7  1  0.000279  0.726400  0.500000  1
  Ga  Ga8  1  0.273600  0.273878  0.500000  1
  Co  Co9  1  0.176213  0.341839  0.000000  1
  Co  Co10  1  0.658161  0.834375  0.000000  1
  Co  Co11  1  0.165625  0.823787  0.000000  1
  Ni  Ni12  1  0.824208  0.639067  0.000000  1
  Ni  Ni13  1  0.814860  0.175792  0.000000  1
  Ni  Ni14  1  0.360933  0.185140  0.000000  1
  Ni  Ni15  1  0.291103  0.001458  0.500000  1
  Ni  Ni16  1  0.998542  0.289645  0.500000  1
  Ni  Ni17  1  0.710355  0.708897  0.500000  1
