# generated using pymatgen
data_TmPa3Co3NiSn2
_symmetry_space_group_name_H-M   'P 1'
_cell_length_a   7.37171413
_cell_length_b   7.37171364
_cell_length_c   3.53633900
_cell_angle_alpha   90.00000000
_cell_angle_beta   90.00000000
_cell_angle_gamma   92.29210575
_symmetry_Int_Tables_number   1
_chemical_formula_structural   TmPa3Co3NiSn2
_chemical_formula_sum   'Tm1 Pa3 Co3 Ni1 Sn2'
_cell_volume   192.01856559
_cell_formula_units_Z   1
loop_
 _symmetry_equiv_pos_site_id
 _symmetry_equiv_pos_as_xyz
  1  'x, y, z'
loop_
 _atom_site_type_symbol
 _atom_site_label
 _atom_site_symmetry_multiplicity
 _atom_site_fract_x
 _atom_site_fract_y
 _atom_site_fract_z
 _atom_site_occupancy
  Tm  Tm0  1  0.830086  0.669914  0.500000  1
  Pa  Pa1  1  0.671855  0.180285  0.500000  1
  Pa  Pa2  1  0.319715  0.828145  0.500000  1
  Pa  Pa3  1  0.169796  0.330204  0.500000  1
  Co  Co4  1  0.877298  0.349328  0.000000  1
  Co  Co5  1  0.150672  0.622702  0.000000  1
  Co  Co6  1  0.367335  0.132665  0.000000  1
  Ni  Ni7  1  0.614629  0.885371  0.000000  1
  Sn  Sn8  1  0.505953  0.507339  0.000000  1
  Sn  Sn9  1  0.992661  0.994047  0.000000  1
