# generated using pymatgen
data_Cs12Ga(SbTe4)3
_symmetry_space_group_name_H-M   'P 1'
_cell_length_a   11.54496743
_cell_length_b   11.65438778
_cell_length_c   10.64043660
_cell_angle_alpha   82.22699960
_cell_angle_beta   83.69595770
_cell_angle_gamma   78.43668745
_symmetry_Int_Tables_number   1
_chemical_formula_structural   Cs12Ga(SbTe4)3
_chemical_formula_sum   'Cs12 Ga1 Sb3 Te12'
_cell_volume   1384.66876107
_cell_formula_units_Z   1
loop_
 _symmetry_equiv_pos_site_id
 _symmetry_equiv_pos_as_xyz
  1  'x, y, z'
loop_
 _atom_site_type_symbol
 _atom_site_label
 _atom_site_symmetry_multiplicity
 _atom_site_fract_x
 _atom_site_fract_y
 _atom_site_fract_z
 _atom_site_occupancy
  Cs  Cs0  1  0.600477  0.403843  0.253245  1
  Cs  Cs1  1  0.395978  0.602260  0.742255  1
  Cs  Cs2  1  0.922397  0.089701  0.255000  1
  Cs  Cs3  1  0.080414  0.911734  0.745370  1
  Cs  Cs4  1  0.793907  0.399415  0.863944  1
  Cs  Cs5  1  0.606862  0.210721  0.653024  1
  Cs  Cs6  1  0.211643  0.603571  0.132601  1
  Cs  Cs7  1  0.401608  0.794313  0.349454  1
  Cs  Cs8  1  0.749278  0.808010  0.681964  1
  Cs  Cs9  1  0.205790  0.243867  0.808300  1
  Cs  Cs10  1  0.248698  0.199421  0.324465  1
  Cs  Cs11  1  0.800344  0.751733  0.202718  1
  Ga  Ga12  1  0.893570  0.413709  0.444268  1
  Sb  Sb13  1  0.565754  0.079686  0.080542  1
  Sb  Sb14  1  0.066755  0.552876  0.534796  1
  Sb  Sb15  1  0.435593  0.922692  0.923121  1
  Te  Te16  1  0.047989  0.576937  0.797308  1
  Te  Te17  1  0.406328  0.942191  0.657440  1
  Te  Te18  1  0.953499  0.422637  0.200798  1
  Te  Te19  1  0.595992  0.064272  0.345373  1
  Te  Te20  1  0.049537  0.785577  0.420375  1
  Te  Te21  1  0.210449  0.947779  0.058723  1
  Te  Te22  1  0.959810  0.216361  0.582002  1
  Te  Te23  1  0.790423  0.050759  0.944555  1
  Te  Te24  1  0.695145  0.546521  0.521657  1
  Te  Te25  1  0.458015  0.313989  0.989714  1
  Te  Te26  1  0.309744  0.457271  0.478495  1
  Te  Te27  1  0.544003  0.688152  0.008496  1
