# generated using pymatgen
data_Er4TcB12Rh
_symmetry_space_group_name_H-M   'P 1'
_cell_length_a   3.65285900
_cell_length_b   9.10156810
_cell_length_c   11.48815476
_cell_angle_alpha   90.36758162
_cell_angle_beta   90.00000000
_cell_angle_gamma   90.00000000
_symmetry_Int_Tables_number   1
_chemical_formula_structural   Er4TcB12Rh
_chemical_formula_sum   'Er8 Tc2 B24 Rh2'
_cell_volume   381.93589109
_cell_formula_units_Z   2
loop_
 _symmetry_equiv_pos_site_id
 _symmetry_equiv_pos_as_xyz
  1  'x, y, z'
loop_
 _atom_site_type_symbol
 _atom_site_label
 _atom_site_symmetry_multiplicity
 _atom_site_fract_x
 _atom_site_fract_y
 _atom_site_fract_z
 _atom_site_occupancy
  Er  Er0  1  0.500000  0.318775  0.410853  1
  Er  Er1  1  0.500000  0.681225  0.589147  1
  Er  Er2  1  0.500000  0.173196  0.917004  1
  Er  Er3  1  0.500000  0.826804  0.082996  1
  Er  Er4  1  0.500000  0.442193  0.126569  1
  Er  Er5  1  0.500000  0.557807  0.873431  1
  Er  Er6  1  0.500000  0.053534  0.628327  1
  Er  Er7  1  0.500000  0.946466  0.371673  1
  Tc  Tc8  1  0.500000  0.139413  0.179861  1
  Tc  Tc9  1  0.500000  0.860587  0.820139  1
  B  B10  1  0.000000  0.108323  0.470859  1
  B  B11  1  0.000000  0.891677  0.529141  1
  B  B12  1  0.000000  0.393041  0.970127  1
  B  B13  1  0.000000  0.606959  0.029873  1
  B  B14  1  0.000000  0.132857  0.314907  1
  B  B15  1  0.000000  0.867143  0.685093  1
  B  B16  1  0.000000  0.366970  0.816472  1
  B  B17  1  0.000000  0.633030  0.183528  1
  B  B18  1  0.000000  0.052947  0.067236  1
  B  B19  1  0.000000  0.947053  0.932764  1
  B  B20  1  0.000000  0.445782  0.565651  1
  B  B21  1  0.000000  0.554218  0.434349  1
  B  B22  1  0.000000  0.483416  0.287752  1
  B  B23  1  0.000000  0.516584  0.712248  1
  B  B24  1  0.000000  0.016665  0.786888  1
  B  B25  1  0.000000  0.983335  0.213112  1
  B  B26  1  0.000000  0.248367  0.080741  1
  B  B27  1  0.000000  0.751633  0.919259  1
  B  B28  1  0.000000  0.250791  0.578407  1
  B  B29  1  0.000000  0.749209  0.421593  1
  B  B30  1  0.000000  0.293530  0.234615  1
  B  B31  1  0.000000  0.706470  0.765385  1
  B  B32  1  0.000000  0.207526  0.734853  1
  B  B33  1  0.000000  0.792474  0.265147  1
  Rh  Rh34  1  0.500000  0.361369  0.678341  1
  Rh  Rh35  1  0.500000  0.638631  0.321659  1
