# generated using pymatgen
data_Li2PrY2Al7
_symmetry_space_group_name_H-M   'P 1'
_cell_length_a   9.37188284
_cell_length_b   9.37188336
_cell_length_c   9.37188152
_cell_angle_alpha   34.62571633
_cell_angle_beta   34.62572397
_cell_angle_gamma   34.62571595
_symmetry_Int_Tables_number   1
_chemical_formula_structural   Li2PrY2Al7
_chemical_formula_sum   'Li2 Pr1 Y2 Al7'
_cell_volume   237.14837504
_cell_formula_units_Z   1
loop_
 _symmetry_equiv_pos_site_id
 _symmetry_equiv_pos_as_xyz
  1  'x, y, z'
loop_
 _atom_site_type_symbol
 _atom_site_label
 _atom_site_symmetry_multiplicity
 _atom_site_fract_x
 _atom_site_fract_y
 _atom_site_fract_z
 _atom_site_occupancy
  Li  Li0  1  0.664878  0.664878  0.664878  1
  Li  Li1  1  0.335122  0.335122  0.335122  1
  Pr  Pr2  1  0.000000  0.000000  0.000000  1
  Y  Y3  1  0.859066  0.859066  0.859066  1
  Y  Y4  1  0.140934  0.140934  0.140934  1
  Al  Al5  1  0.413846  0.413846  0.922488  1
  Al  Al6  1  0.922488  0.413846  0.413846  1
  Al  Al7  1  0.413846  0.922488  0.413846  1
  Al  Al8  1  0.500000  0.500000  0.500000  1
  Al  Al9  1  0.586154  0.077512  0.586154  1
  Al  Al10  1  0.077512  0.586154  0.586154  1
  Al  Al11  1  0.586154  0.586154  0.077512  1
