# generated using pymatgen
data_Dy5Tm3P12(Ir3Rh5)2
_symmetry_space_group_name_H-M   'P 1'
_cell_length_a   12.97584124
_cell_length_b   12.96975296
_cell_length_c   3.96500400
_cell_angle_alpha   90.00000000
_cell_angle_beta   90.00000000
_cell_angle_gamma   120.03751695
_symmetry_Int_Tables_number   1
_chemical_formula_structural   Dy5Tm3P12(Ir3Rh5)2
_chemical_formula_sum   'Dy5 Tm3 P12 Ir6 Rh10'
_cell_volume   577.66649845
_cell_formula_units_Z   1
loop_
 _symmetry_equiv_pos_site_id
 _symmetry_equiv_pos_as_xyz
  1  'x, y, z'
loop_
 _atom_site_type_symbol
 _atom_site_label
 _atom_site_symmetry_multiplicity
 _atom_site_fract_x
 _atom_site_fract_y
 _atom_site_fract_z
 _atom_site_occupancy
  Dy  Dy0  1  0.333426  0.666766  0.500000  1
  Dy  Dy1  1  0.666630  0.333152  0.500000  1
  Dy  Dy2  1  0.000428  0.813246  0.000000  1
  Dy  Dy3  1  0.187489  0.187339  0.000000  1
  Dy  Dy4  1  0.812788  0.999994  0.000000  1
  Tm  Tm5  1  0.000997  0.445961  0.500000  1
  Tm  Tm6  1  0.554021  0.554858  0.500000  1
  Tm  Tm7  1  0.444762  0.999856  0.500000  1
  P  P8  1  0.999610  0.651453  0.500000  1
  P  P9  1  0.348616  0.348523  0.500000  1
  P  P10  1  0.651317  0.000335  0.500000  1
  P  P11  1  0.517211  0.689687  0.000000  1
  P  P12  1  0.310393  0.827794  0.000000  1
  P  P13  1  0.172463  0.482754  0.000000  1
  P  P14  1  0.482610  0.172400  0.000000  1
  P  P15  1  0.690193  0.517497  0.000000  1
  P  P16  1  0.827469  0.309794  0.000000  1
  P  P17  1  0.999583  0.176194  0.500000  1
  P  P18  1  0.823698  0.823421  0.500000  1
  P  P19  1  0.176521  0.999949  0.500000  1
  Ir  Ir20  1  0.000613  0.274087  0.000000  1
  Ir  Ir21  1  0.725944  0.726382  0.000000  1
  Ir  Ir22  1  0.274059  0.000057  0.000000  1
  Ir  Ir23  1  0.806473  0.627537  0.500000  1
  Ir  Ir24  1  0.821135  0.193396  0.500000  1
  Ir  Ir25  1  0.999964  0.000052  0.500000  1
  Rh  Rh26  1  0.513382  0.869505  0.000000  1
  Rh  Rh27  1  0.130751  0.643946  0.000000  1
  Rh  Rh28  1  0.355760  0.485942  0.000000  1
  Rh  Rh29  1  0.487014  0.356683  0.000000  1
  Rh  Rh30  1  0.869007  0.511577  0.000000  1
  Rh  Rh31  1  0.643244  0.130793  0.000000  1
  Rh  Rh32  1  0.627970  0.806744  0.500000  1
  Rh  Rh33  1  0.193476  0.821367  0.500000  1
  Rh  Rh34  1  0.178605  0.372314  0.500000  1
  Rh  Rh35  1  0.372379  0.178645  0.500000  1
