# generated using pymatgen
data_Yb10Cu3NiAg2
_symmetry_space_group_name_H-M   'P 1'
_cell_length_a   8.86908431
_cell_length_b   8.86908382
_cell_length_c   8.84968803
_cell_angle_alpha   129.25274390
_cell_angle_beta   129.25274547
_cell_angle_gamma   74.76864021
_symmetry_Int_Tables_number   1
_chemical_formula_structural   Yb10Cu3NiAg2
_chemical_formula_sum   'Yb10 Cu3 Ni1 Ag2'
_cell_volume   406.27439456
_cell_formula_units_Z   1
loop_
 _symmetry_equiv_pos_site_id
 _symmetry_equiv_pos_as_xyz
  1  'x, y, z'
loop_
 _atom_site_type_symbol
 _atom_site_label
 _atom_site_symmetry_multiplicity
 _atom_site_fract_x
 _atom_site_fract_y
 _atom_site_fract_z
 _atom_site_occupancy
  Yb  Yb0  1  0.497191  0.501407  0.998597  1
  Yb  Yb1  1  0.001407  0.997191  0.998597  1
  Yb  Yb2  1  0.530712  0.030712  0.838846  1
  Yb  Yb3  1  0.188005  0.688005  0.149119  1
  Yb  Yb4  1  0.031859  0.197714  0.505369  1
  Yb  Yb5  1  0.697714  0.531859  0.505369  1
  Yb  Yb6  1  0.461116  0.961116  0.149119  1
  Yb  Yb7  1  0.808134  0.308134  0.838846  1
  Yb  Yb8  1  0.973511  0.807656  0.505369  1
  Yb  Yb9  1  0.307656  0.473511  0.505369  1
  Cu  Cu10  1  0.883350  0.383350  0.266699  1
  Cu  Cu11  1  0.617983  0.880666  0.498649  1
  Cu  Cu12  1  0.380666  0.117983  0.498649  1
  Ni  Ni13  1  0.118355  0.618355  0.736711  1
  Ag  Ag14  1  0.251173  0.251173  0.002346  1
  Ag  Ag15  1  0.751173  0.751173  0.002346  1
