# generated using pymatgen
data_CeB3Mo
_symmetry_space_group_name_H-M   'P 1'
_cell_length_a   3.14145400
_cell_length_b   5.55617042
_cell_length_c   6.92240891
_cell_angle_alpha   75.59219909
_cell_angle_beta   90.00000000
_cell_angle_gamma   90.00000000
_symmetry_Int_Tables_number   1
_chemical_formula_structural   CeB3Mo
_chemical_formula_sum   'Ce2 B6 Mo2'
_cell_volume   117.02677603
_cell_formula_units_Z   2
loop_
 _symmetry_equiv_pos_site_id
 _symmetry_equiv_pos_as_xyz
  1  'x, y, z'
loop_
 _atom_site_type_symbol
 _atom_site_label
 _atom_site_symmetry_multiplicity
 _atom_site_fract_x
 _atom_site_fract_y
 _atom_site_fract_z
 _atom_site_occupancy
  Ce  Ce0  1  0.250000  0.342513  0.690880  1
  Ce  Ce1  1  0.750000  0.657487  0.309120  1
  B  B2  1  0.250000  0.922534  0.528786  1
  B  B3  1  0.750000  0.077466  0.471214  1
  B  B4  1  0.250000  0.911061  0.007403  1
  B  B5  1  0.750000  0.088939  0.992597  1
  B  B6  1  0.250000  0.581981  0.007573  1
  B  B7  1  0.750000  0.418019  0.992427  1
  Mo  Mo8  1  0.250000  0.183994  0.214242  1
  Mo  Mo9  1  0.750000  0.816006  0.785758  1
