# generated using pymatgen
data_Y2Sc3Ge7Pt9
_symmetry_space_group_name_H-M   'P 1'
_cell_length_a   10.31325200
_cell_length_b   10.31325130
_cell_length_c   4.02887300
_cell_angle_alpha   90.00000000
_cell_angle_beta   90.00000000
_cell_angle_gamma   119.99999582
_symmetry_Int_Tables_number   1
_chemical_formula_structural   Y2Sc3Ge7Pt9
_chemical_formula_sum   'Y2 Sc3 Ge7 Pt9'
_cell_volume   371.11239305
_cell_formula_units_Z   1
loop_
 _symmetry_equiv_pos_site_id
 _symmetry_equiv_pos_as_xyz
  1  'x, y, z'
loop_
 _atom_site_type_symbol
 _atom_site_label
 _atom_site_symmetry_multiplicity
 _atom_site_fract_x
 _atom_site_fract_y
 _atom_site_fract_z
 _atom_site_occupancy
  Y  Y0  1  0.000000  0.000000  0.000000  1
  Y  Y1  1  0.333333  0.666667  0.500000  1
  Sc  Sc2  1  0.895153  0.456794  0.500000  1
  Sc  Sc3  1  0.561641  0.104847  0.500000  1
  Sc  Sc4  1  0.543206  0.438359  0.500000  1
  Ge  Ge5  1  0.244096  0.195413  0.500000  1
  Ge  Ge6  1  0.804587  0.048685  0.500000  1
  Ge  Ge7  1  0.951315  0.755904  0.500000  1
  Ge  Ge8  1  0.555269  0.645980  0.000000  1
  Ge  Ge9  1  0.354020  0.909288  0.000000  1
  Ge  Ge10  1  0.090712  0.444731  0.000000  1
  Ge  Ge11  1  0.666667  0.333333  0.000000  1
  Pt  Pt12  1  0.221323  0.937531  0.500000  1
  Pt  Pt13  1  0.062469  0.283792  0.500000  1
  Pt  Pt14  1  0.716208  0.778677  0.500000  1
  Pt  Pt15  1  0.313923  0.410437  0.000000  1
  Pt  Pt16  1  0.589563  0.903485  0.000000  1
  Pt  Pt17  1  0.096515  0.686077  0.000000  1
  Pt  Pt18  1  0.384550  0.172570  0.000000  1
  Pt  Pt19  1  0.827430  0.211979  0.000000  1
  Pt  Pt20  1  0.788021  0.615450  0.000000  1
