# generated using pymatgen
data_Hf12Ti4Mo3Os5
_symmetry_space_group_name_H-M   'P 1'
_cell_length_a   8.61816897
_cell_length_b   8.61816898
_cell_length_c   8.61816863
_cell_angle_alpha   59.92683936
_cell_angle_beta   59.92683616
_cell_angle_gamma   59.92684148
_symmetry_Int_Tables_number   1
_chemical_formula_structural   Hf12Ti4Mo3Os5
_chemical_formula_sum   'Hf12 Ti4 Mo3 Os5'
_cell_volume   451.86498323
_cell_formula_units_Z   1
loop_
 _symmetry_equiv_pos_site_id
 _symmetry_equiv_pos_as_xyz
  1  'x, y, z'
loop_
 _atom_site_type_symbol
 _atom_site_label
 _atom_site_symmetry_multiplicity
 _atom_site_fract_x
 _atom_site_fract_y
 _atom_site_fract_z
 _atom_site_occupancy
  Hf  Hf0  1  0.809221  0.809221  0.191425  1
  Hf  Hf1  1  0.191067  0.191067  0.809654  1
  Hf  Hf2  1  0.809221  0.191425  0.809221  1
  Hf  Hf3  1  0.191067  0.809654  0.191067  1
  Hf  Hf4  1  0.191425  0.809221  0.809221  1
  Hf  Hf5  1  0.809654  0.191067  0.191067  1
  Hf  Hf6  1  0.443491  0.443491  0.058231  1
  Hf  Hf7  1  0.056132  0.056132  0.443543  1
  Hf  Hf8  1  0.443491  0.058231  0.443491  1
  Hf  Hf9  1  0.056132  0.443543  0.056132  1
  Hf  Hf10  1  0.058231  0.443491  0.443491  1
  Hf  Hf11  1  0.443543  0.056132  0.056132  1
  Ti  Ti12  1  0.121537  0.625264  0.625264  1
  Ti  Ti13  1  0.625264  0.121537  0.625264  1
  Ti  Ti14  1  0.625264  0.625264  0.121537  1
  Ti  Ti15  1  0.627064  0.627064  0.627064  1
  Mo  Mo16  1  0.753554  0.415143  0.415143  1
  Mo  Mo17  1  0.415143  0.753554  0.415143  1
  Mo  Mo18  1  0.415143  0.415143  0.753554  1
  Os  Os19  1  0.413222  0.413222  0.413222  1
  Os  Os20  1  0.495880  0.835034  0.835034  1
  Os  Os21  1  0.835034  0.495880  0.835034  1
  Os  Os22  1  0.835034  0.835034  0.495880  1
  Os  Os23  1  0.835184  0.835184  0.835184  1
