# generated using pymatgen
data_K(OsO3)6
_symmetry_space_group_name_H-M   'P 1'
_cell_length_a   7.36869400
_cell_length_b   7.36869470
_cell_length_c   7.49518500
_cell_angle_alpha   90.00000000
_cell_angle_beta   90.00000000
_cell_angle_gamma   119.99999688
_symmetry_Int_Tables_number   1
_chemical_formula_structural   K(OsO3)6
_chemical_formula_sum   'K1 Os6 O18'
_cell_volume   352.44721813
_cell_formula_units_Z   1
loop_
 _symmetry_equiv_pos_site_id
 _symmetry_equiv_pos_as_xyz
  1  'x, y, z'
loop_
 _atom_site_type_symbol
 _atom_site_label
 _atom_site_symmetry_multiplicity
 _atom_site_fract_x
 _atom_site_fract_y
 _atom_site_fract_z
 _atom_site_occupancy
  K  K0  1  0.000000  0.000000  0.500000  1
  Os  Os1  1  0.000000  0.500000  0.249391  1
  Os  Os2  1  0.500000  0.000000  0.249391  1
  Os  Os3  1  0.500000  0.000000  0.750609  1
  Os  Os4  1  0.500000  0.500000  0.750609  1
  Os  Os5  1  0.500000  0.500000  0.249391  1
  Os  Os6  1  0.000000  0.500000  0.750609  1
  O  O7  1  0.000000  0.500000  0.500000  1
  O  O8  1  0.000000  0.500000  0.000000  1
  O  O9  1  0.207812  0.792188  0.251712  1
  O  O10  1  0.207812  0.792188  0.748288  1
  O  O11  1  0.207812  0.415625  0.251712  1
  O  O12  1  0.207812  0.415625  0.748288  1
  O  O13  1  0.500000  0.000000  0.500000  1
  O  O14  1  0.584375  0.792188  0.251712  1
  O  O15  1  0.584375  0.792188  0.748288  1
  O  O16  1  0.500000  0.500000  0.500000  1
  O  O17  1  0.500000  0.500000  0.000000  1
  O  O18  1  0.415625  0.207812  0.251712  1
  O  O19  1  0.415625  0.207812  0.748288  1
  O  O20  1  0.500000  0.000000  0.000000  1
  O  O21  1  0.792188  0.584375  0.748288  1
  O  O22  1  0.792188  0.584375  0.251712  1
  O  O23  1  0.792188  0.207812  0.251712  1
  O  O24  1  0.792188  0.207812  0.748288  1
