# generated using pymatgen
data_Yb2Eu(H6Ir)2
_symmetry_space_group_name_H-M   'P 1'
_cell_length_a   4.94392500
_cell_length_b   4.94392506
_cell_length_c   8.22374600
_cell_angle_alpha   90.00000000
_cell_angle_beta   90.00000000
_cell_angle_gamma   119.99999292
_symmetry_Int_Tables_number   1
_chemical_formula_structural   Yb2Eu(H6Ir)2
_chemical_formula_sum   'Yb2 Eu1 H12 Ir2'
_cell_volume   174.07808625
_cell_formula_units_Z   1
loop_
 _symmetry_equiv_pos_site_id
 _symmetry_equiv_pos_as_xyz
  1  'x, y, z'
loop_
 _atom_site_type_symbol
 _atom_site_label
 _atom_site_symmetry_multiplicity
 _atom_site_fract_x
 _atom_site_fract_y
 _atom_site_fract_z
 _atom_site_occupancy
  Yb  Yb0  1  0.666667  0.333333  0.367437  1
  Yb  Yb1  1  0.333333  0.666667  0.632563  1
  Eu  Eu2  1  0.000000  0.000000  0.000000  1
  H  H3  1  0.171382  0.828618  0.372886  1
  H  H4  1  0.657236  0.828618  0.372886  1
  H  H5  1  0.171382  0.342764  0.372886  1
  H  H6  1  0.828618  0.171382  0.627114  1
  H  H7  1  0.342764  0.171382  0.627114  1
  H  H8  1  0.828618  0.657236  0.627114  1
  H  H9  1  0.508508  0.017015  0.863849  1
  H  H10  1  0.508508  0.491492  0.863849  1
  H  H11  1  0.982985  0.491492  0.863849  1
  H  H12  1  0.491492  0.982985  0.136151  1
  H  H13  1  0.491492  0.508508  0.136151  1
  H  H14  1  0.017015  0.508508  0.136151  1
  Ir  Ir15  1  0.666667  0.333333  0.743029  1
  Ir  Ir16  1  0.333333  0.666667  0.256971  1
