# generated using pymatgen
data_Ho2Ta3Ni9P7
_symmetry_space_group_name_H-M   'P 1'
_cell_length_a   9.29567500
_cell_length_b   9.29567515
_cell_length_c   3.69559000
_cell_angle_alpha   90.00000000
_cell_angle_beta   90.00000000
_cell_angle_gamma   120.00001015
_symmetry_Int_Tables_number   1
_chemical_formula_structural   Ho2Ta3Ni9P7
_chemical_formula_sum   'Ho2 Ta3 Ni9 P7'
_cell_volume   276.55164114
_cell_formula_units_Z   1
loop_
 _symmetry_equiv_pos_site_id
 _symmetry_equiv_pos_as_xyz
  1  'x, y, z'
loop_
 _atom_site_type_symbol
 _atom_site_label
 _atom_site_symmetry_multiplicity
 _atom_site_fract_x
 _atom_site_fract_y
 _atom_site_fract_z
 _atom_site_occupancy
  Ho  Ho0  1  0.333333  0.666667  0.000000  1
  Ho  Ho1  1  0.666667  0.333333  0.500000  1
  Ta  Ta2  1  0.225506  0.119588  0.500000  1
  Ta  Ta3  1  0.880412  0.105919  0.500000  1
  Ta  Ta4  1  0.894081  0.774494  0.500000  1
  Ni  Ni5  1  0.128764  0.283791  0.000000  1
  Ni  Ni6  1  0.716209  0.844973  0.000000  1
  Ni  Ni7  1  0.155027  0.871236  0.000000  1
  Ni  Ni8  1  0.433319  0.368492  0.000000  1
  Ni  Ni9  1  0.631508  0.064828  0.000000  1
  Ni  Ni10  1  0.935172  0.566681  0.000000  1
  Ni  Ni11  1  0.059284  0.444158  0.500000  1
  Ni  Ni12  1  0.555842  0.615127  0.500000  1
  Ni  Ni13  1  0.384873  0.940716  0.500000  1
  P  P14  1  0.291291  0.411317  0.500000  1
  P  P15  1  0.588683  0.879974  0.500000  1
  P  P16  1  0.120026  0.708709  0.500000  1
  P  P17  1  0.415916  0.111666  0.000000  1
  P  P18  1  0.888334  0.304250  0.000000  1
  P  P19  1  0.695750  0.584084  0.000000  1
  P  P20  1  0.000000  0.000000  0.000000  1
