# generated using pymatgen
data_Yb2ZnAu3
_symmetry_space_group_name_H-M   'P 1'
_cell_length_a   5.91714008
_cell_length_b   5.82622833
_cell_length_c   5.82622938
_cell_angle_alpha   134.87965882
_cell_angle_beta   105.73502183
_cell_angle_gamma   91.06966481
_symmetry_Int_Tables_number   1
_chemical_formula_structural   Yb2ZnAu3
_chemical_formula_sum   'Yb2 Zn1 Au3'
_cell_volume   130.33497102
_cell_formula_units_Z   1
loop_
 _symmetry_equiv_pos_site_id
 _symmetry_equiv_pos_as_xyz
  1  'x, y, z'
loop_
 _atom_site_type_symbol
 _atom_site_label
 _atom_site_symmetry_multiplicity
 _atom_site_fract_x
 _atom_site_fract_y
 _atom_site_fract_z
 _atom_site_occupancy
  Yb  Yb0  1  0.700030  0.458064  0.241965  1
  Yb  Yb1  1  0.295104  0.547835  0.747269  1
  Zn  Zn2  1  0.893002  0.833420  0.059582  1
  Au  Au3  1  0.710780  0.177777  0.533003  1
  Au  Au4  1  0.299060  0.845431  0.453629  1
  Au  Au5  1  0.102024  0.137473  0.964552  1
