# generated using pymatgen
data_Nd4As3(PIr2)4
_symmetry_space_group_name_H-M   'P 1'
_cell_length_a   4.05478000
_cell_length_b   13.04543834
_cell_length_c   13.37936779
_cell_angle_alpha   81.48752399
_cell_angle_beta   90.00000000
_cell_angle_gamma   90.00000000
_symmetry_Int_Tables_number   1
_chemical_formula_structural   Nd4As3(PIr2)4
_chemical_formula_sum   'Nd8 As6 P8 Ir16'
_cell_volume   699.92366642
_cell_formula_units_Z   2
loop_
 _symmetry_equiv_pos_site_id
 _symmetry_equiv_pos_as_xyz
  1  'x, y, z'
loop_
 _atom_site_type_symbol
 _atom_site_label
 _atom_site_symmetry_multiplicity
 _atom_site_fract_x
 _atom_site_fract_y
 _atom_site_fract_z
 _atom_site_occupancy
  Nd  Nd0  1  0.250000  0.102377  0.792345  1
  Nd  Nd1  1  0.750000  0.897623  0.207655  1
  Nd  Nd2  1  0.250000  0.278907  0.103128  1
  Nd  Nd3  1  0.750000  0.721093  0.896872  1
  Nd  Nd4  1  0.250000  0.516534  0.296237  1
  Nd  Nd5  1  0.750000  0.483466  0.703763  1
  Nd  Nd6  1  0.250000  0.210613  0.437123  1
  Nd  Nd7  1  0.750000  0.789387  0.562877  1
  As  As8  1  0.750000  0.253549  0.916540  1
  As  As9  1  0.250000  0.746451  0.083460  1
  As  As10  1  0.750000  0.095815  0.590510  1
  As  As11  1  0.250000  0.904185  0.409490  1
  As  As12  1  0.750000  0.467757  0.132189  1
  As  As13  1  0.250000  0.532243  0.867811  1
  P  P14  1  0.250000  0.053932  0.098610  1
  P  P15  1  0.750000  0.946068  0.901390  1
  P  P16  1  0.250000  0.314160  0.686461  1
  P  P17  1  0.750000  0.685840  0.313539  1
  P  P18  1  0.250000  0.607186  0.561456  1
  P  P19  1  0.750000  0.392814  0.438544  1
  P  P20  1  0.250000  0.847489  0.716869  1
  P  P21  1  0.750000  0.152511  0.283131  1
  Ir  Ir22  1  0.250000  0.985458  0.577991  1
  Ir  Ir23  1  0.750000  0.014542  0.422009  1
  Ir  Ir24  1  0.250000  0.671075  0.722333  1
  Ir  Ir25  1  0.750000  0.328925  0.277667  1
  Ir  Ir26  1  0.250000  0.556988  0.045927  1
  Ir  Ir27  1  0.750000  0.443012  0.954073  1
  Ir  Ir28  1  0.250000  0.062452  0.269788  1
  Ir  Ir29  1  0.750000  0.937548  0.730212  1
  Ir  Ir30  1  0.250000  0.424901  0.526630  1
  Ir  Ir31  1  0.750000  0.575099  0.473370  1
  Ir  Ir32  1  0.250000  0.923659  0.992570  1
  Ir  Ir33  1  0.750000  0.076341  0.007430  1
  Ir  Ir34  1  0.250000  0.718353  0.396119  1
  Ir  Ir35  1  0.750000  0.281647  0.603881  1
  Ir  Ir36  1  0.250000  0.343421  0.851974  1
  Ir  Ir37  1  0.750000  0.656579  0.148026  1
