# generated using pymatgen
data_Zn(ClO4)2
_symmetry_space_group_name_H-M   'P 1'
_cell_length_a   4.90752557
_cell_length_b   7.17017687
_cell_length_c   8.57284600
_cell_angle_alpha   90.00000000
_cell_angle_beta   90.00000000
_cell_angle_gamma   97.79442662
_symmetry_Int_Tables_number   1
_chemical_formula_structural   Zn(ClO4)2
_chemical_formula_sum   'Zn2 Cl4 O16'
_cell_volume   298.87279216
_cell_formula_units_Z   2
loop_
 _symmetry_equiv_pos_site_id
 _symmetry_equiv_pos_as_xyz
  1  'x, y, z'
loop_
 _atom_site_type_symbol
 _atom_site_label
 _atom_site_symmetry_multiplicity
 _atom_site_fract_x
 _atom_site_fract_y
 _atom_site_fract_z
 _atom_site_occupancy
  Zn  Zn0  1  0.500000  0.500000  0.500000  1
  Zn  Zn1  1  0.000000  0.000000  0.000000  1
  Cl  Cl2  1  0.562910  0.252271  0.167016  1
  Cl  Cl3  1  0.937090  0.247729  0.667016  1
  Cl  Cl4  1  0.437090  0.747729  0.832984  1
  Cl  Cl5  1  0.062910  0.752271  0.332984  1
  O  O6  1  0.562534  0.284468  0.336394  1
  O  O7  1  0.937466  0.215532  0.836394  1
  O  O8  1  0.437466  0.715532  0.663606  1
  O  O9  1  0.062534  0.784468  0.163606  1
  O  O10  1  0.274717  0.214818  0.114577  1
  O  O11  1  0.225283  0.285182  0.614577  1
  O  O12  1  0.725283  0.785182  0.885423  1
  O  O13  1  0.774717  0.714818  0.385423  1
  O  O14  1  0.689175  0.076839  0.144692  1
  O  O15  1  0.810825  0.423161  0.644692  1
  O  O16  1  0.310825  0.923161  0.855308  1
  O  O17  1  0.189175  0.576839  0.355308  1
  O  O18  1  0.709095  0.407882  0.086097  1
  O  O19  1  0.790905  0.092118  0.586097  1
  O  O20  1  0.290905  0.592118  0.913903  1
  O  O21  1  0.209095  0.907882  0.413903  1
