# generated using pymatgen
data_DyHo19(GeBi2)4
_symmetry_space_group_name_H-M   'P 1'
_cell_length_a   8.06251770
_cell_length_b   9.21037100
_cell_length_c   11.99647205
_cell_angle_alpha   90.00000000
_cell_angle_beta   90.04786728
_cell_angle_gamma   90.00000000
_symmetry_Int_Tables_number   1
_chemical_formula_structural   DyHo19(GeBi2)4
_chemical_formula_sum   'Dy1 Ho19 Ge4 Bi8'
_cell_volume   890.84305851
_cell_formula_units_Z   1
loop_
 _symmetry_equiv_pos_site_id
 _symmetry_equiv_pos_as_xyz
  1  'x, y, z'
loop_
 _atom_site_type_symbol
 _atom_site_label
 _atom_site_symmetry_multiplicity
 _atom_site_fract_x
 _atom_site_fract_y
 _atom_site_fract_z
 _atom_site_occupancy
  Dy  Dy0  1  0.168019  0.750000  0.214687  1
  Ho  Ho1  1  0.819815  0.554471  0.062653  1
  Ho  Ho2  1  0.680225  0.945529  0.562800  1
  Ho  Ho3  1  0.180235  0.054536  0.937274  1
  Ho  Ho4  1  0.319752  0.445237  0.437323  1
  Ho  Ho5  1  0.180235  0.445464  0.937274  1
  Ho  Ho6  1  0.319752  0.054763  0.437323  1
  Ho  Ho7  1  0.819815  0.945529  0.062653  1
  Ho  Ho8  1  0.680225  0.554471  0.562800  1
  Ho  Ho9  1  0.332106  0.750000  0.714364  1
  Ho  Ho10  1  0.832183  0.250000  0.785676  1
  Ho  Ho11  1  0.667780  0.250000  0.285810  1
  Ho  Ho12  1  0.464259  0.750000  0.001968  1
  Ho  Ho13  1  0.035638  0.750000  0.502149  1
  Ho  Ho14  1  0.535972  0.250000  0.997812  1
  Ho  Ho15  1  0.964055  0.250000  0.497975  1
  Ho  Ho16  1  0.640603  0.750000  0.293869  1
  Ho  Ho17  1  0.859684  0.750000  0.793587  1
  Ho  Ho18  1  0.359747  0.250000  0.706183  1
  Ho  Ho19  1  0.140198  0.250000  0.206283  1
  Ge  Ge20  1  0.408519  0.750000  0.476858  1
  Ge  Ge21  1  0.091260  0.750000  0.976460  1
  Ge  Ge22  1  0.591390  0.250000  0.523051  1
  Ge  Ge23  1  0.908632  0.250000  0.022981  1
  Bi  Bi24  1  0.932625  0.510248  0.325737  1
  Bi  Bi25  1  0.566839  0.989344  0.825467  1
  Bi  Bi26  1  0.066872  0.010672  0.674486  1
  Bi  Bi27  1  0.433614  0.489101  0.174402  1
  Bi  Bi28  1  0.066872  0.489328  0.674486  1
  Bi  Bi29  1  0.433614  0.010899  0.174402  1
  Bi  Bi30  1  0.932625  0.989752  0.325737  1
  Bi  Bi31  1  0.566839  0.510656  0.825467  1
