# generated using pymatgen
data_Th3(AlPt2)2
_symmetry_space_group_name_H-M   'P 1'
_cell_length_a   7.29489058
_cell_length_b   7.29489052
_cell_length_c   4.04311200
_cell_angle_alpha   90.00000000
_cell_angle_beta   90.00000000
_cell_angle_gamma   116.29347577
_symmetry_Int_Tables_number   1
_chemical_formula_structural   Th3(AlPt2)2
_chemical_formula_sum   'Th3 Al2 Pt4'
_cell_volume   192.89523093
_cell_formula_units_Z   1
loop_
 _symmetry_equiv_pos_site_id
 _symmetry_equiv_pos_as_xyz
  1  'x, y, z'
loop_
 _atom_site_type_symbol
 _atom_site_label
 _atom_site_symmetry_multiplicity
 _atom_site_fract_x
 _atom_site_fract_y
 _atom_site_fract_z
 _atom_site_occupancy
  Th  Th0  1  0.422391  0.422391  0.500000  1
  Th  Th1  1  0.602467  0.981780  0.500000  1
  Th  Th2  1  0.981780  0.602467  0.500000  1
  Al  Al3  1  0.243595  0.002793  0.000000  1
  Al  Al4  1  0.002793  0.243595  0.000000  1
  Pt  Pt5  1  0.751112  0.751112  0.000000  1
  Pt  Pt6  1  0.655610  0.298508  0.000000  1
  Pt  Pt7  1  0.298508  0.655610  0.000000  1
  Pt  Pt8  1  0.041744  0.041744  0.500000  1
