# generated using pymatgen
data_Zr5Ti6NbSi6
_symmetry_space_group_name_H-M   'P 1'
_cell_length_a   7.91946565
_cell_length_b   7.91954344
_cell_length_c   7.91946416
_cell_angle_alpha   127.41570261
_cell_angle_beta   124.55393997
_cell_angle_gamma   79.93416793
_symmetry_Int_Tables_number   1
_chemical_formula_structural   Zr5Ti6NbSi6
_chemical_formula_sum   'Zr5 Ti6 Nb1 Si6'
_cell_volume   313.76596284
_cell_formula_units_Z   1
loop_
 _symmetry_equiv_pos_site_id
 _symmetry_equiv_pos_as_xyz
  1  'x, y, z'
loop_
 _atom_site_type_symbol
 _atom_site_label
 _atom_site_symmetry_multiplicity
 _atom_site_fract_x
 _atom_site_fract_y
 _atom_site_fract_z
 _atom_site_occupancy
  Zr  Zr0  1  0.952574  0.910997  0.458423  1
  Zr  Zr1  1  0.045598  0.500423  0.954825  1
  Zr  Zr2  1  0.547172  0.505852  0.458678  1
  Zr  Zr3  1  0.454628  0.909862  0.955234  1
  Zr  Zr4  1  0.750180  0.097030  0.846850  1
  Ti  Ti5  1  0.494738  0.752294  0.247301  1
  Ti  Ti6  1  0.004993  0.752294  0.757556  1
  Ti  Ti7  1  0.875563  0.253101  0.378256  1
  Ti  Ti8  1  0.125088  0.502512  0.377740  1
  Ti  Ti9  1  0.374845  0.253101  0.877536  1
  Ti  Ti10  1  0.624771  0.502512  0.877425  1
  Nb  Nb11  1  0.249736  0.098058  0.348323  1
  Si  Si12  1  0.749932  0.504996  0.255063  1
  Si  Si13  1  0.250357  0.496249  0.745892  1
  Si  Si14  1  0.659838  0.168846  0.499820  1
  Si  Si15  1  0.331105  0.840414  0.500558  1
  Si  Si16  1  0.169026  0.168846  0.009009  1
  Si  Si17  1  0.839856  0.840414  0.009309  1
