# generated using pymatgen
data_Ba4SmTl(FeO5)2
_symmetry_space_group_name_H-M   'P 1'
_cell_length_a   6.14887200
_cell_length_b   8.04751422
_cell_length_c   12.81764220
_cell_angle_alpha   91.66578693
_cell_angle_beta   90.00000000
_cell_angle_gamma   90.00000000
_symmetry_Int_Tables_number   1
_chemical_formula_structural   Ba4SmTl(FeO5)2
_chemical_formula_sum   'Ba8 Sm2 Tl2 Fe4 O20'
_cell_volume   633.98907846
_cell_formula_units_Z   2
loop_
 _symmetry_equiv_pos_site_id
 _symmetry_equiv_pos_as_xyz
  1  'x, y, z'
loop_
 _atom_site_type_symbol
 _atom_site_label
 _atom_site_symmetry_multiplicity
 _atom_site_fract_x
 _atom_site_fract_y
 _atom_site_fract_z
 _atom_site_occupancy
  Ba  Ba0  1  0.766036  0.480896  0.342228  1
  Ba  Ba1  1  0.733964  0.980896  0.842228  1
  Ba  Ba2  1  0.227632  0.515548  0.654804  1
  Ba  Ba3  1  0.272368  0.015548  0.154804  1
  Ba  Ba4  1  0.761785  0.993605  0.378637  1
  Ba  Ba5  1  0.738215  0.493605  0.878637  1
  Ba  Ba6  1  0.233213  0.008816  0.621391  1
  Ba  Ba7  1  0.266787  0.508816  0.121391  1
  Sm  Sm8  1  0.250396  0.731072  0.374096  1
  Sm  Sm9  1  0.249604  0.231072  0.874096  1
  Tl  Tl10  1  0.746028  0.268331  0.626465  1
  Tl  Tl11  1  0.753972  0.768331  0.126465  1
  Fe  Fe12  1  0.730403  0.741804  0.583060  1
  Fe  Fe13  1  0.769597  0.241804  0.083060  1
  Fe  Fe14  1  0.266974  0.256474  0.416922  1
  Fe  Fe15  1  0.233026  0.756474  0.916922  1
  O  O16  1  0.773824  0.963426  0.632703  1
  O  O17  1  0.726176  0.463426  0.132703  1
  O  O18  1  0.232691  0.029908  0.371135  1
  O  O19  1  0.267309  0.529908  0.871135  1
  O  O20  1  0.724063  0.075223  0.181655  1
  O  O21  1  0.775937  0.575223  0.681655  1
  O  O22  1  0.269407  0.934838  0.825134  1
  O  O23  1  0.230593  0.434838  0.325134  1
  O  O24  1  0.546768  0.746689  0.271312  1
  O  O25  1  0.953232  0.246689  0.771312  1
  O  O26  1  0.450866  0.254870  0.723087  1
  O  O27  1  0.049134  0.754870  0.223087  1
  O  O28  1  0.566409  0.218013  0.970763  1
  O  O29  1  0.933591  0.718013  0.470763  1
  O  O30  1  0.442257  0.780552  0.026188  1
  O  O31  1  0.057743  0.280552  0.526188  1
  O  O32  1  0.059563  0.232830  0.029330  1
  O  O33  1  0.440437  0.732830  0.529330  1
  O  O34  1  0.942754  0.767105  0.971088  1
  O  O35  1  0.557246  0.267105  0.471088  1
