# generated using pymatgen
data_CaTb5SmFeI12
_symmetry_space_group_name_H-M   'P 1'
_cell_length_a   9.90033453
_cell_length_b   9.80554135
_cell_length_c   9.78625305
_cell_angle_alpha   106.72321604
_cell_angle_beta   106.80335707
_cell_angle_gamma   107.17222580
_symmetry_Int_Tables_number   1
_chemical_formula_structural   CaTb5SmFeI12
_chemical_formula_sum   'Ca1 Tb5 Sm1 Fe1 I12'
_cell_volume   793.34131782
_cell_formula_units_Z   1
loop_
 _symmetry_equiv_pos_site_id
 _symmetry_equiv_pos_as_xyz
  1  'x, y, z'
loop_
 _atom_site_type_symbol
 _atom_site_label
 _atom_site_symmetry_multiplicity
 _atom_site_fract_x
 _atom_site_fract_y
 _atom_site_fract_z
 _atom_site_occupancy
  Ca  Ca0  1  0.500026  0.499841  0.500173  1
  Tb  Tb1  1  0.023446  0.092489  0.286782  1
  Tb  Tb2  1  0.299059  0.024658  0.096318  1
  Tb  Tb3  1  0.907339  0.713992  0.975978  1
  Tb  Tb4  1  0.976114  0.906262  0.713030  1
  Tb  Tb5  1  0.700523  0.975109  0.903554  1
  Sm  Sm6  1  0.093609  0.289846  0.023914  1
  Fe  Fe7  1  0.000319  0.000992  0.000089  1
  I  I8  1  0.458167  0.378149  0.151241  1
  I  I9  1  0.151281  0.455371  0.381284  1
  I  I10  1  0.375401  0.148867  0.454696  1
  I  I11  1  0.546329  0.622001  0.851038  1
  I  I12  1  0.849451  0.545081  0.623121  1
  I  I13  1  0.624585  0.850655  0.545131  1
  I  I14  1  0.773269  0.316721  0.926083  1
  I  I15  1  0.926838  0.775582  0.315912  1
  I  I16  1  0.316376  0.926330  0.774525  1
  I  I17  1  0.222483  0.683597  0.072795  1
  I  I18  1  0.071967  0.221309  0.678964  1
  I  I19  1  0.683417  0.073146  0.225373  1
