# generated using pymatgen
data_Er5P12Ir11Os8
_symmetry_space_group_name_H-M   'P 1'
_cell_length_a   12.61268800
_cell_length_b   12.58112758
_cell_length_c   3.96476500
_cell_angle_alpha   90.00000000
_cell_angle_beta   90.00000000
_cell_angle_gamma   120.04216322
_symmetry_Int_Tables_number   1
_chemical_formula_structural   Er5P12Ir11Os8
_chemical_formula_sum   'Er5 P12 Ir11 Os8'
_cell_volume   544.61629148
_cell_formula_units_Z   1
loop_
 _symmetry_equiv_pos_site_id
 _symmetry_equiv_pos_as_xyz
  1  'x, y, z'
loop_
 _atom_site_type_symbol
 _atom_site_label
 _atom_site_symmetry_multiplicity
 _atom_site_fract_x
 _atom_site_fract_y
 _atom_site_fract_z
 _atom_site_occupancy
  Er  Er0  1  0.666328  0.330287  0.000000  1
  Er  Er1  1  0.335618  0.669568  0.000000  1
  Er  Er2  1  0.812675  0.000613  0.500000  1
  Er  Er3  1  0.183797  0.185435  0.500000  1
  Er  Er4  1  0.998917  0.814221  0.500000  1
  P  P5  1  0.636564  0.998815  0.000000  1
  P  P6  1  0.360779  0.360582  0.000000  1
  P  P7  1  0.000019  0.638372  0.000000  1
  P  P8  1  0.689682  0.515472  0.500000  1
  P  P9  1  0.827202  0.306683  0.500000  1
  P  P10  1  0.316965  0.832701  0.500000  1
  P  P11  1  0.517944  0.690808  0.500000  1
  P  P12  1  0.177178  0.000199  0.000000  1
  P  P13  1  0.821062  0.820522  0.000000  1
  P  P14  1  0.996167  0.179198  0.000000  1
  P  P15  1  0.480615  0.169423  0.500000  1
  P  P16  1  0.172944  0.484662  0.500000  1
  Ir  Ir17  1  0.626719  0.805127  0.000000  1
  Ir  Ir18  1  0.183239  0.376274  0.000000  1
  Ir  Ir19  1  0.374069  0.181138  0.000000  1
  Ir  Ir20  1  0.190700  0.819319  0.000000  1
  Ir  Ir21  1  0.805276  0.622449  0.000000  1
  Ir  Ir22  1  0.870688  0.505712  0.500000  1
  Ir  Ir23  1  0.492638  0.360693  0.500000  1
  Ir  Ir24  1  0.635176  0.130320  0.500000  1
  Ir  Ir25  1  0.134189  0.641348  0.500000  1
  Ir  Ir26  1  0.362974  0.493049  0.500000  1
  Ir  Ir27  1  0.999088  0.000797  0.000000  1
  Os  Os28  1  0.510758  0.870610  0.500000  1
  Os  Os29  1  0.709317  0.707130  0.500000  1
  Os  Os30  1  0.002575  0.292801  0.500000  1
  Os  Os31  1  0.452067  0.999208  0.000000  1
  Os  Os32  1  0.545541  0.544182  0.000000  1
  Os  Os33  1  0.003590  0.456423  0.000000  1
  Os  Os34  1  0.818411  0.196586  0.000000  1
  Os  Os35  1  0.288529  0.999271  0.500000  1
