# generated using pymatgen
data_Y4Co9Si4Mo
_symmetry_space_group_name_H-M   'P 1'
_cell_length_a   5.20040200
_cell_length_b   5.20040129
_cell_length_c   22.01753300
_cell_angle_alpha   90.00000000
_cell_angle_beta   90.00000000
_cell_angle_gamma   119.99999179
_symmetry_Int_Tables_number   1
_chemical_formula_structural   Y4Co9Si4Mo
_chemical_formula_sum   'Y8 Co18 Si8 Mo2'
_cell_volume   515.67146200
_cell_formula_units_Z   2
loop_
 _symmetry_equiv_pos_site_id
 _symmetry_equiv_pos_as_xyz
  1  'x, y, z'
loop_
 _atom_site_type_symbol
 _atom_site_label
 _atom_site_symmetry_multiplicity
 _atom_site_fract_x
 _atom_site_fract_y
 _atom_site_fract_z
 _atom_site_occupancy
  Y  Y0  1  0.333333  0.666667  0.528846  1
  Y  Y1  1  0.666667  0.333333  0.471154  1
  Y  Y2  1  0.666667  0.333333  0.028846  1
  Y  Y3  1  0.333333  0.666667  0.971154  1
  Y  Y4  1  0.333333  0.666667  0.674982  1
  Y  Y5  1  0.666667  0.333333  0.325018  1
  Y  Y6  1  0.666667  0.333333  0.174982  1
  Y  Y7  1  0.333333  0.666667  0.825018  1
  Co  Co8  1  0.168341  0.336681  0.089553  1
  Co  Co9  1  0.831659  0.663319  0.910447  1
  Co  Co10  1  0.663319  0.831659  0.089553  1
  Co  Co11  1  0.831659  0.663319  0.589553  1
  Co  Co12  1  0.336681  0.168341  0.910447  1
  Co  Co13  1  0.168341  0.336681  0.410447  1
  Co  Co14  1  0.168341  0.831659  0.089553  1
  Co  Co15  1  0.336681  0.168341  0.589553  1
  Co  Co16  1  0.831659  0.168341  0.910447  1
  Co  Co17  1  0.663319  0.831659  0.410447  1
  Co  Co18  1  0.831659  0.168341  0.589553  1
  Co  Co19  1  0.168341  0.831659  0.410447  1
  Co  Co20  1  0.165496  0.330991  0.250000  1
  Co  Co21  1  0.834504  0.669009  0.750000  1
  Co  Co22  1  0.669009  0.834504  0.250000  1
  Co  Co23  1  0.330991  0.165496  0.750000  1
  Co  Co24  1  0.165496  0.834504  0.250000  1
  Co  Co25  1  0.834504  0.165496  0.750000  1
  Si  Si26  1  0.333333  0.666667  0.170712  1
  Si  Si27  1  0.666667  0.333333  0.829288  1
  Si  Si28  1  0.666667  0.333333  0.670712  1
  Si  Si29  1  0.333333  0.666667  0.329288  1
  Si  Si30  1  0.000000  0.000000  0.168728  1
  Si  Si31  1  0.000000  0.000000  0.831272  1
  Si  Si32  1  0.000000  0.000000  0.668728  1
  Si  Si33  1  0.000000  0.000000  0.331272  1
  Mo  Mo34  1  0.000000  0.000000  0.000000  1
  Mo  Mo35  1  0.000000  0.000000  0.500000  1
