# generated using pymatgen
data_Ho4VRe(B8Mo)2
_symmetry_space_group_name_H-M   'P 1'
_cell_length_a   3.58020700
_cell_length_b   5.99912019
_cell_length_c   11.58648562
_cell_angle_alpha   90.07592020
_cell_angle_beta   90.00000000
_cell_angle_gamma   90.00000000
_symmetry_Int_Tables_number   1
_chemical_formula_structural   Ho4VRe(B8Mo)2
_chemical_formula_sum   'Ho4 V1 Re1 B16 Mo2'
_cell_volume   248.85538663
_cell_formula_units_Z   1
loop_
 _symmetry_equiv_pos_site_id
 _symmetry_equiv_pos_as_xyz
  1  'x, y, z'
loop_
 _atom_site_type_symbol
 _atom_site_label
 _atom_site_symmetry_multiplicity
 _atom_site_fract_x
 _atom_site_fract_y
 _atom_site_fract_z
 _atom_site_occupancy
  Ho  Ho0  1  0.500000  0.126123  0.648042  1
  Ho  Ho1  1  0.500000  0.874759  0.351743  1
  Ho  Ho2  1  0.500000  0.626833  0.849016  1
  Ho  Ho3  1  0.500000  0.372632  0.152479  1
  V  V4  1  0.500000  0.371250  0.418227  1
  Re  Re5  1  0.500000  0.628097  0.582747  1
  B  B6  1  0.000000  0.477153  0.691651  1
  B  B7  1  0.000000  0.522569  0.308187  1
  B  B8  1  0.000000  0.974765  0.805039  1
  B  B9  1  0.000000  0.024986  0.194872  1
  B  B10  1  0.000000  0.287806  0.812195  1
  B  B11  1  0.000000  0.712378  0.187577  1
  B  B12  1  0.000000  0.784483  0.684073  1
  B  B13  1  0.000000  0.215476  0.315751  1
  B  B14  1  0.000000  0.367571  0.967962  1
  B  B15  1  0.000000  0.632410  0.032263  1
  B  B16  1  0.000000  0.864588  0.531642  1
  B  B17  1  0.000000  0.135508  0.468170  1
  B  B18  1  0.000000  0.386617  0.547139  1
  B  B19  1  0.000000  0.613718  0.452655  1
  B  B20  1  0.000000  0.885437  0.952010  1
  B  B21  1  0.000000  0.115219  0.047647  1
  Mo  Mo22  1  0.500000  0.129521  0.914949  1
  Mo  Mo23  1  0.500000  0.870101  0.083966  1
