# generated using pymatgen
data_Zn3Sn(BiO3)8
_symmetry_space_group_name_H-M   'P 1'
_cell_length_a   4.97536087
_cell_length_b   9.95183241
_cell_length_c   10.07334000
_cell_angle_alpha   90.00002298
_cell_angle_beta   90.00002290
_cell_angle_gamma   89.76768419
_symmetry_Int_Tables_number   1
_chemical_formula_structural   Zn3Sn(BiO3)8
_chemical_formula_sum   'Zn3 Sn1 Bi8 O24'
_cell_volume   498.76682902
_cell_formula_units_Z   1
loop_
 _symmetry_equiv_pos_site_id
 _symmetry_equiv_pos_as_xyz
  1  'x, y, z'
loop_
 _atom_site_type_symbol
 _atom_site_label
 _atom_site_symmetry_multiplicity
 _atom_site_fract_x
 _atom_site_fract_y
 _atom_site_fract_z
 _atom_site_occupancy
  Zn  Zn0  1  0.000838  0.501245  0.000000  1
  Zn  Zn1  1  0.499999  0.749998  0.500000  1
  Zn  Zn2  1  0.999162  0.998758  0.999999  1
  Sn  Sn3  1  0.500001  0.250001  0.500000  1
  Bi  Bi4  1  0.996521  0.994444  0.330561  1
  Bi  Bi5  1  0.003479  0.505556  0.330561  1
  Bi  Bi6  1  0.996522  0.994444  0.669439  1
  Bi  Bi7  1  0.003480  0.505556  0.669439  1
  Bi  Bi8  1  0.499999  0.250002  0.163406  1
  Bi  Bi9  1  0.500001  0.750000  0.165671  1
  Bi  Bi10  1  0.499999  0.250002  0.836593  1
  Bi  Bi11  1  0.500003  0.750001  0.834329  1
  O  O12  1  0.199394  0.398629  0.500000  1
  O  O13  1  0.196155  0.903681  0.500000  1
  O  O14  1  0.299893  0.149943  0.000000  1
  O  O15  1  0.301836  0.650838  0.000000  1
  O  O16  1  0.700103  0.350062  0.000000  1
  O  O17  1  0.698173  0.849158  0.000000  1
  O  O18  1  0.800604  0.101370  0.500000  1
  O  O19  1  0.803841  0.596316  0.500000  1
  O  O20  1  0.189904  0.402888  0.165617  1
  O  O21  1  0.193738  0.904943  0.163187  1
  O  O22  1  0.189904  0.402887  0.834383  1
  O  O23  1  0.193739  0.904943  0.836813  1
  O  O24  1  0.308767  0.154570  0.338404  1
  O  O25  1  0.312655  0.655567  0.336172  1
  O  O26  1  0.308768  0.154570  0.661596  1
  O  O27  1  0.312656  0.655567  0.663828  1
  O  O28  1  0.691229  0.345434  0.338404  1
  O  O29  1  0.687352  0.844429  0.336173  1
  O  O30  1  0.691229  0.345434  0.661596  1
  O  O31  1  0.687352  0.844428  0.663827  1
  O  O32  1  0.810095  0.097115  0.165617  1
  O  O33  1  0.806256  0.595053  0.163188  1
  O  O34  1  0.810094  0.097115  0.834382  1
  O  O35  1  0.806258  0.595053  0.836812  1
