# generated using pymatgen
data_Ta3Nb9Al4(IrN)4
_symmetry_space_group_name_H-M   'P 1'
_cell_length_a   7.02904939
_cell_length_b   7.03681414
_cell_length_c   7.03291843
_cell_angle_alpha   90.01890955
_cell_angle_beta   90.03571618
_cell_angle_gamma   90.01332517
_symmetry_Int_Tables_number   1
_chemical_formula_structural   Ta3Nb9Al4(IrN)4
_chemical_formula_sum   'Ta3 Nb9 Al4 Ir4 N4'
_cell_volume   347.86291864
_cell_formula_units_Z   1
loop_
 _symmetry_equiv_pos_site_id
 _symmetry_equiv_pos_as_xyz
  1  'x, y, z'
loop_
 _atom_site_type_symbol
 _atom_site_label
 _atom_site_symmetry_multiplicity
 _atom_site_fract_x
 _atom_site_fract_y
 _atom_site_fract_z
 _atom_site_occupancy
  Ta  Ta0  1  0.795527  0.956116  0.376288  1
  Ta  Ta1  1  0.705043  0.044272  0.875657  1
  Ta  Ta2  1  0.204264  0.455957  0.124463  1
  Nb  Nb3  1  0.294341  0.544926  0.623970  1
  Nb  Nb4  1  0.955045  0.375833  0.792586  1
  Nb  Nb5  1  0.045559  0.874549  0.707608  1
  Nb  Nb6  1  0.454684  0.123379  0.207014  1
  Nb  Nb7  1  0.544726  0.624507  0.292913  1
  Nb  Nb8  1  0.376986  0.793809  0.955714  1
  Nb  Nb9  1  0.875713  0.704861  0.044359  1
  Nb  Nb10  1  0.123741  0.205462  0.456443  1
  Nb  Nb11  1  0.622340  0.295747  0.543701  1
  Al  Al12  1  0.571267  0.430122  0.929018  1
  Al  Al13  1  0.428752  0.929790  0.570275  1
  Al  Al14  1  0.928715  0.569974  0.429457  1
  Al  Al15  1  0.071269  0.070046  0.070168  1
  Ir  Ir16  1  0.175452  0.821409  0.322358  1
  Ir  Ir17  1  0.324060  0.178240  0.823915  1
  Ir  Ir18  1  0.824029  0.320245  0.176650  1
  Ir  Ir19  1  0.678267  0.680667  0.677005  1
  N  N20  1  0.871993  0.122769  0.625621  1
  N  N21  1  0.628304  0.877409  0.125658  1
  N  N22  1  0.126712  0.623736  0.877210  1
  N  N23  1  0.373212  0.376176  0.371949  1
