# generated using pymatgen
data_Lu2TiB2Ir5
_symmetry_space_group_name_H-M   'P 1'
_cell_length_a   9.50327300
_cell_length_b   9.50327300
_cell_length_c   3.19805400
_cell_angle_alpha   90.00000000
_cell_angle_beta   90.00000000
_cell_angle_gamma   90.00000000
_symmetry_Int_Tables_number   1
_chemical_formula_structural   Lu2TiB2Ir5
_chemical_formula_sum   'Lu4 Ti2 B4 Ir10'
_cell_volume   288.82328514
_cell_formula_units_Z   2
loop_
 _symmetry_equiv_pos_site_id
 _symmetry_equiv_pos_as_xyz
  1  'x, y, z'
loop_
 _atom_site_type_symbol
 _atom_site_label
 _atom_site_symmetry_multiplicity
 _atom_site_fract_x
 _atom_site_fract_y
 _atom_site_fract_z
 _atom_site_occupancy
  Lu  Lu0  1  0.175980  0.675980  0.000000  1
  Lu  Lu1  1  0.675980  0.824020  0.000000  1
  Lu  Lu2  1  0.324020  0.175980  0.000000  1
  Lu  Lu3  1  0.824020  0.324020  0.000000  1
  Ti  Ti4  1  0.000000  0.000000  0.000000  1
  Ti  Ti5  1  0.500000  0.500000  0.000000  1
  B  B6  1  0.378982  0.878982  0.000000  1
  B  B7  1  0.878982  0.621018  0.000000  1
  B  B8  1  0.121018  0.378982  0.000000  1
  B  B9  1  0.621018  0.121018  0.000000  1
  Ir  Ir10  1  0.000000  0.500000  0.500000  1
  Ir  Ir11  1  0.500000  0.000000  0.500000  1
  Ir  Ir12  1  0.281522  0.430154  0.500000  1
  Ir  Ir13  1  0.718479  0.569846  0.500000  1
  Ir  Ir14  1  0.569846  0.281522  0.500000  1
  Ir  Ir15  1  0.430154  0.718479  0.500000  1
  Ir  Ir16  1  0.930154  0.781521  0.500000  1
  Ir  Ir17  1  0.781521  0.069846  0.500000  1
  Ir  Ir18  1  0.218478  0.930154  0.500000  1
  Ir  Ir19  1  0.069846  0.218478  0.500000  1
