# generated using pymatgen
data_Lu3Be2Rh5
_symmetry_space_group_name_H-M   'P 1'
_cell_length_a   9.70685400
_cell_length_b   9.70685400
_cell_length_c   3.31459500
_cell_angle_alpha   90.00000000
_cell_angle_beta   90.00000000
_cell_angle_gamma   90.00000000
_symmetry_Int_Tables_number   1
_chemical_formula_structural   Lu3Be2Rh5
_chemical_formula_sum   'Lu6 Be4 Rh10'
_cell_volume   312.31113300
_cell_formula_units_Z   2
loop_
 _symmetry_equiv_pos_site_id
 _symmetry_equiv_pos_as_xyz
  1  'x, y, z'
loop_
 _atom_site_type_symbol
 _atom_site_label
 _atom_site_symmetry_multiplicity
 _atom_site_fract_x
 _atom_site_fract_y
 _atom_site_fract_z
 _atom_site_occupancy
  Lu  Lu0  1  0.825457  0.325457  0.000000  1
  Lu  Lu1  1  0.325457  0.174543  0.000000  1
  Lu  Lu2  1  0.674543  0.825457  0.000000  1
  Lu  Lu3  1  0.174543  0.674543  0.000000  1
  Lu  Lu4  1  0.000000  0.000000  0.000000  1
  Lu  Lu5  1  0.500000  0.500000  0.000000  1
  Be  Be6  1  0.621784  0.121784  0.000000  1
  Be  Be7  1  0.121784  0.378216  0.000000  1
  Be  Be8  1  0.878216  0.621784  0.000000  1
  Be  Be9  1  0.378216  0.878216  0.000000  1
  Rh  Rh10  1  0.071469  0.219113  0.500000  1
  Rh  Rh11  1  0.219113  0.928531  0.500000  1
  Rh  Rh12  1  0.780887  0.071469  0.500000  1
  Rh  Rh13  1  0.928531  0.780887  0.500000  1
  Rh  Rh14  1  0.428531  0.719113  0.500000  1
  Rh  Rh15  1  0.571469  0.280887  0.500000  1
  Rh  Rh16  1  0.719113  0.571469  0.500000  1
  Rh  Rh17  1  0.280887  0.428531  0.500000  1
  Rh  Rh18  1  0.500000  0.000000  0.500000  1
  Rh  Rh19  1  0.000000  0.500000  0.500000  1
