# generated using pymatgen
data_LaBeGeH
_symmetry_space_group_name_H-M   'P 1'
_cell_length_a   4.09438300
_cell_length_b   4.09438352
_cell_length_c   4.36840000
_cell_angle_alpha   90.00000000
_cell_angle_beta   90.00000000
_cell_angle_gamma   120.00000390
_symmetry_Int_Tables_number   1
_chemical_formula_structural   LaBeGeH
_chemical_formula_sum   'La1 Be1 Ge1 H1'
_cell_volume   63.42054922
_cell_formula_units_Z   1
loop_
 _symmetry_equiv_pos_site_id
 _symmetry_equiv_pos_as_xyz
  1  'x, y, z'
loop_
 _atom_site_type_symbol
 _atom_site_label
 _atom_site_symmetry_multiplicity
 _atom_site_fract_x
 _atom_site_fract_y
 _atom_site_fract_z
 _atom_site_occupancy
  La  La0  1  0.000000  0.000000  0.005253  1
  Be  Be1  1  0.333334  0.666667  0.460351  1
  Ge  Ge2  1  0.666667  0.333332  0.529391  1
  H  H3  1  0.333334  0.666667  0.111798  1
