# generated using pymatgen
data_Lu3ZnIn3CuNi
_symmetry_space_group_name_H-M   'P 1'
_cell_length_a   7.61291400
_cell_length_b   7.61291457
_cell_length_c   3.66754300
_cell_angle_alpha   90.00000000
_cell_angle_beta   90.00000000
_cell_angle_gamma   119.99999869
_symmetry_Int_Tables_number   1
_chemical_formula_structural   Lu3ZnIn3CuNi
_chemical_formula_sum   'Lu3 Zn1 In3 Cu1 Ni1'
_cell_volume   184.08047733
_cell_formula_units_Z   1
loop_
 _symmetry_equiv_pos_site_id
 _symmetry_equiv_pos_as_xyz
  1  'x, y, z'
loop_
 _atom_site_type_symbol
 _atom_site_label
 _atom_site_symmetry_multiplicity
 _atom_site_fract_x
 _atom_site_fract_y
 _atom_site_fract_z
 _atom_site_occupancy
  Lu  Lu0  1  0.611058  0.027024  0.000000  1
  Lu  Lu1  1  0.972976  0.584036  0.000000  1
  Lu  Lu2  1  0.415964  0.388942  0.000000  1
  Zn  Zn3  1  0.333333  0.666667  0.500000  1
  In  In4  1  0.259354  0.991980  0.500000  1
  In  In5  1  0.008020  0.267374  0.500000  1
  In  In6  1  0.732626  0.740646  0.500000  1
  Cu  Cu7  1  0.000000  0.000000  0.000000  1
  Ni  Ni8  1  0.666667  0.333333  0.500000  1
