# generated using pymatgen
data_Ho5FeCo15(P4Ru)3
_symmetry_space_group_name_H-M   'P 1'
_cell_length_a   12.02515500
_cell_length_b   12.02442439
_cell_length_c   3.70362200
_cell_angle_alpha   90.00000000
_cell_angle_beta   90.00000000
_cell_angle_gamma   120.00396411
_symmetry_Int_Tables_number   1
_chemical_formula_structural   Ho5FeCo15(P4Ru)3
_chemical_formula_sum   'Ho5 Fe1 Co15 P12 Ru3'
_cell_volume   463.76173960
_cell_formula_units_Z   1
loop_
 _symmetry_equiv_pos_site_id
 _symmetry_equiv_pos_as_xyz
  1  'x, y, z'
loop_
 _atom_site_type_symbol
 _atom_site_label
 _atom_site_symmetry_multiplicity
 _atom_site_fract_x
 _atom_site_fract_y
 _atom_site_fract_z
 _atom_site_occupancy
  Ho  Ho0  1  0.666505  0.333629  0.000000  1
  Ho  Ho1  1  0.333087  0.666367  0.000000  1
  Ho  Ho2  1  0.815663  0.815702  0.500000  1
  Ho  Ho3  1  0.184840  0.000172  0.500000  1
  Ho  Ho4  1  0.999691  0.184928  0.500000  1
  Fe  Fe5  1  0.801883  0.178106  0.000000  1
  Co  Co6  1  0.874706  0.358908  0.500000  1
  Co  Co7  1  0.642274  0.516188  0.500000  1
  Co  Co8  1  0.484548  0.125733  0.500000  1
  Co  Co9  1  0.357543  0.873937  0.500000  1
  Co  Co10  1  0.516427  0.642560  0.500000  1
  Co  Co11  1  0.126101  0.483938  0.500000  1
  Co  Co12  1  0.820158  0.624175  0.000000  1
  Co  Co13  1  0.375981  0.196025  0.000000  1
  Co  Co14  1  0.180079  0.804042  0.000000  1
  Co  Co15  1  0.624959  0.820301  0.000000  1
  Co  Co16  1  0.196077  0.376199  0.000000  1
  Co  Co17  1  0.282584  0.282804  0.500000  1
  Co  Co18  1  0.717000  0.000023  0.500000  1
  Co  Co19  1  0.000357  0.717389  0.500000  1
  Co  Co20  1  0.999825  0.999874  0.000000  1
  P  P21  1  0.689010  0.167688  0.500000  1
  P  P22  1  0.834145  0.521433  0.500000  1
  P  P23  1  0.478653  0.312483  0.500000  1
  P  P24  1  0.166051  0.687100  0.500000  1
  P  P25  1  0.520834  0.833814  0.500000  1
  P  P26  1  0.312936  0.478952  0.500000  1
  P  P27  1  0.179697  0.179908  0.000000  1
  P  P28  1  0.820566  0.001628  0.000000  1
  P  P29  1  0.000243  0.820212  0.000000  1
  P  P30  1  0.636822  0.636557  0.000000  1
  P  P31  1  0.363682  0.000193  0.000000  1
  P  P32  1  0.998249  0.361790  0.000000  1
  Ru  Ru33  1  0.446314  0.446291  0.000000  1
  Ru  Ru34  1  0.552803  0.998037  0.000000  1
  Ru  Ru35  1  0.999707  0.552913  0.000000  1
