# generated using pymatgen
data_Ho2PdPbAu
_symmetry_space_group_name_H-M   'P 1'
_cell_length_a   8.09726700
_cell_length_b   8.06594300
_cell_length_c   3.57288400
_cell_angle_alpha   90.00000000
_cell_angle_beta   90.00000000
_cell_angle_gamma   90.00000000
_symmetry_Int_Tables_number   1
_chemical_formula_structural   Ho2PdPbAu
_chemical_formula_sum   'Ho4 Pd2 Pb2 Au2'
_cell_volume   233.35253594
_cell_formula_units_Z   2
loop_
 _symmetry_equiv_pos_site_id
 _symmetry_equiv_pos_as_xyz
  1  'x, y, z'
loop_
 _atom_site_type_symbol
 _atom_site_label
 _atom_site_symmetry_multiplicity
 _atom_site_fract_x
 _atom_site_fract_y
 _atom_site_fract_z
 _atom_site_occupancy
  Ho  Ho0  1  0.675030  0.166847  0.500000  1
  Ho  Ho1  1  0.159127  0.330745  0.500000  1
  Ho  Ho2  1  0.824970  0.666847  0.500000  1
  Ho  Ho3  1  0.340873  0.830745  0.500000  1
  Pd  Pd4  1  0.627385  0.874093  0.000000  1
  Pd  Pd5  1  0.872615  0.374093  0.000000  1
  Pb  Pb6  1  0.993995  0.002637  0.000000  1
  Pb  Pb7  1  0.506005  0.502637  0.000000  1
  Au  Au8  1  0.376040  0.125678  0.000000  1
  Au  Au9  1  0.123960  0.625678  0.000000  1
