# generated using pymatgen
data_Sm3PuO8
_symmetry_space_group_name_H-M   'P 1'
_cell_length_a   6.34146500
_cell_length_b   7.49150220
_cell_length_c   7.49590700
_cell_angle_alpha   70.73699080
_cell_angle_beta   90.00000000
_cell_angle_gamma   90.00000000
_symmetry_Int_Tables_number   1
_chemical_formula_structural   Sm3PuO8
_chemical_formula_sum   'Sm6 Pu2 O16'
_cell_volume   336.17173842
_cell_formula_units_Z   2
loop_
 _symmetry_equiv_pos_site_id
 _symmetry_equiv_pos_as_xyz
  1  'x, y, z'
loop_
 _atom_site_type_symbol
 _atom_site_label
 _atom_site_symmetry_multiplicity
 _atom_site_fract_x
 _atom_site_fract_y
 _atom_site_fract_z
 _atom_site_occupancy
  Sm  Sm0  1  0.750000  0.110718  0.671274  1
  Sm  Sm1  1  0.250000  0.889282  0.328726  1
  Sm  Sm2  1  0.250000  0.402178  0.400804  1
  Sm  Sm3  1  0.750000  0.597822  0.599196  1
  Sm  Sm4  1  0.250000  0.326726  0.888610  1
  Sm  Sm5  1  0.750000  0.673274  0.111390  1
  Pu  Pu6  1  0.250000  0.815288  0.816960  1
  Pu  Pu7  1  0.750000  0.184712  0.183040  1
  O  O8  1  0.999652  0.335976  0.663517  1
  O  O9  1  0.499652  0.664024  0.336483  1
  O  O10  1  0.000348  0.664024  0.336483  1
  O  O11  1  0.500348  0.335976  0.663517  1
  O  O12  1  0.940062  0.808645  0.809271  1
  O  O13  1  0.440062  0.191355  0.190729  1
  O  O14  1  0.059938  0.191355  0.190729  1
  O  O15  1  0.559938  0.808645  0.809271  1
  O  O16  1  0.750000  0.961093  0.431616  1
  O  O17  1  0.250000  0.038907  0.568384  1
  O  O18  1  0.750000  0.347171  0.345981  1
  O  O19  1  0.250000  0.652829  0.654019  1
  O  O20  1  0.750000  0.433960  0.960431  1
  O  O21  1  0.250000  0.566040  0.039569  1
  O  O22  1  0.750000  0.021718  0.019006  1
  O  O23  1  0.250000  0.978282  0.980994  1
