# generated using pymatgen
data_Dy2Lu6Ga3Co
_symmetry_space_group_name_H-M   'P 1'
_cell_length_a   9.81825253
_cell_length_b   9.81836091
_cell_length_c   6.86216400
_cell_angle_alpha   90.00245769
_cell_angle_beta   89.99759163
_cell_angle_gamma   119.96205096
_symmetry_Int_Tables_number   1
_chemical_formula_structural   Dy2Lu6Ga3Co
_chemical_formula_sum   'Dy4 Lu12 Ga6 Co2'
_cell_volume   573.10059807
_cell_formula_units_Z   2
loop_
 _symmetry_equiv_pos_site_id
 _symmetry_equiv_pos_as_xyz
  1  'x, y, z'
loop_
 _atom_site_type_symbol
 _atom_site_label
 _atom_site_symmetry_multiplicity
 _atom_site_fract_x
 _atom_site_fract_y
 _atom_site_fract_z
 _atom_site_occupancy
  Dy  Dy0  1  0.929022  0.464797  0.708044  1
  Dy  Dy1  1  0.535191  0.070956  0.708053  1
  Dy  Dy2  1  0.999903  0.000095  0.231378  1
  Dy  Dy3  1  0.999971  0.000006  0.731389  1
  Lu  Lu4  1  0.174208  0.825793  0.509687  1
  Lu  Lu5  1  0.651019  0.824687  0.510552  1
  Lu  Lu6  1  0.175321  0.349023  0.510547  1
  Lu  Lu7  1  0.826005  0.173995  0.013252  1
  Lu  Lu8  1  0.348589  0.174896  0.012448  1
  Lu  Lu9  1  0.825083  0.651420  0.012406  1
  Lu  Lu10  1  0.333753  0.666218  0.827341  1
  Lu  Lu11  1  0.666202  0.333773  0.326102  1
  Lu  Lu12  1  0.463343  0.536736  0.207463  1
  Lu  Lu13  1  0.074051  0.537024  0.207655  1
  Lu  Lu14  1  0.462958  0.925943  0.207636  1
  Lu  Lu15  1  0.536232  0.463909  0.707360  1
  Ga  Ga16  1  0.164009  0.835961  0.960254  1
  Ga  Ga17  1  0.671781  0.835890  0.959464  1
  Ga  Ga18  1  0.164082  0.328193  0.959501  1
  Ga  Ga19  1  0.836728  0.163263  0.457641  1
  Ga  Ga20  1  0.327577  0.164242  0.458530  1
  Ga  Ga21  1  0.835746  0.672416  0.458538  1
  Co  Co22  1  0.333389  0.666614  0.444148  1
  Co  Co23  1  0.665837  0.334149  0.945445  1
