# generated using pymatgen
data_Nd10Os3Au
_symmetry_space_group_name_H-M   'P 1'
_cell_length_a   8.95503201
_cell_length_b   9.02449301
_cell_length_c   7.45615317
_cell_angle_alpha   83.53130717
_cell_angle_beta   83.49143689
_cell_angle_gamma   43.80424474
_symmetry_Int_Tables_number   1
_chemical_formula_structural   Nd10Os3Au
_chemical_formula_sum   'Nd10 Os3 Au1'
_cell_volume   413.98887504
_cell_formula_units_Z   1
loop_
 _symmetry_equiv_pos_site_id
 _symmetry_equiv_pos_as_xyz
  1  'x, y, z'
loop_
 _atom_site_type_symbol
 _atom_site_label
 _atom_site_symmetry_multiplicity
 _atom_site_fract_x
 _atom_site_fract_y
 _atom_site_fract_z
 _atom_site_occupancy
  Nd  Nd0  1  0.015161  0.804414  0.934049  1
  Nd  Nd1  1  0.203072  0.985544  0.585046  1
  Nd  Nd2  1  0.982792  0.200085  0.086591  1
  Nd  Nd3  1  0.779240  0.039186  0.410646  1
  Nd  Nd4  1  0.366042  0.192319  0.821048  1
  Nd  Nd5  1  0.780885  0.644980  0.684937  1
  Nd  Nd6  1  0.649997  0.785524  0.185944  1
  Nd  Nd7  1  0.210401  0.344915  0.305921  1
  Nd  Nd8  1  0.576419  0.426031  0.753418  1
  Nd  Nd9  1  0.436393  0.574432  0.237881  1
  Os  Os10  1  0.399484  0.823684  0.923655  1
  Os  Os11  1  0.821571  0.397523  0.429655  1
  Os  Os12  1  0.596578  0.182328  0.073491  1
  Au  Au13  1  0.181965  0.599035  0.567717  1
