# generated using pymatgen
data_Rb2LaNpO6
_symmetry_space_group_name_H-M   'P 1'
_cell_length_a   6.20082080
_cell_length_b   6.20082106
_cell_length_c   6.19815200
_cell_angle_alpha   60.10072772
_cell_angle_beta   60.10071567
_cell_angle_gamma   90.19911556
_symmetry_Int_Tables_number   1
_chemical_formula_structural   Rb2LaNpO6
_chemical_formula_sum   'Rb2 La1 Np1 O6'
_cell_volume   168.73710072
_cell_formula_units_Z   1
loop_
 _symmetry_equiv_pos_site_id
 _symmetry_equiv_pos_as_xyz
  1  'x, y, z'
loop_
 _atom_site_type_symbol
 _atom_site_label
 _atom_site_symmetry_multiplicity
 _atom_site_fract_x
 _atom_site_fract_y
 _atom_site_fract_z
 _atom_site_occupancy
  Rb  Rb0  1  0.250002  0.750001  0.499998  1
  Rb  Rb1  1  0.749999  0.249999  0.500002  1
  La  La2  1  0.500000  0.500003  0.000002  1
  Np  Np3  1  0.000002  0.999997  0.000002  1
  O  O4  1  0.230430  0.230432  0.000001  1
  O  O5  1  0.769800  0.230202  0.999997  1
  O  O6  1  0.230206  0.769794  0.999999  1
  O  O7  1  0.769569  0.769572  0.999999  1
  O  O8  1  0.769722  0.769724  0.460554  1
  O  O9  1  0.230274  0.230275  0.539450  1
