# generated using pymatgen
data_Hf3Co4Si4Mo
_symmetry_space_group_name_H-M   'P 1'
_cell_length_a   3.77568700
_cell_length_b   6.31841756
_cell_length_c   7.11406235
_cell_angle_alpha   89.54909136
_cell_angle_beta   90.00000000
_cell_angle_gamma   90.00000000
_symmetry_Int_Tables_number   1
_chemical_formula_structural   Hf3Co4Si4Mo
_chemical_formula_sum   'Hf3 Co4 Si4 Mo1'
_cell_volume   169.71042711
_cell_formula_units_Z   1
loop_
 _symmetry_equiv_pos_site_id
 _symmetry_equiv_pos_as_xyz
  1  'x, y, z'
loop_
 _atom_site_type_symbol
 _atom_site_label
 _atom_site_symmetry_multiplicity
 _atom_site_fract_x
 _atom_site_fract_y
 _atom_site_fract_z
 _atom_site_occupancy
  Hf  Hf0  1  0.250000  0.513283  0.194267  1
  Hf  Hf1  1  0.750000  0.985885  0.683671  1
  Hf  Hf2  1  0.750000  0.478816  0.811379  1
  Co  Co3  1  0.250000  0.146325  0.939272  1
  Co  Co4  1  0.250000  0.648939  0.566780  1
  Co  Co5  1  0.750000  0.849174  0.060872  1
  Co  Co6  1  0.750000  0.363809  0.431613  1
  Si  Si7  1  0.250000  0.277024  0.597802  1
  Si  Si8  1  0.250000  0.777759  0.889434  1
  Si  Si9  1  0.750000  0.737009  0.381868  1
  Si  Si10  1  0.750000  0.204370  0.125117  1
  Mo  Mo11  1  0.250000  0.017607  0.317924  1
