# generated using pymatgen
data_Cd2FeRu3(PbO7)2
_symmetry_space_group_name_H-M   'P 1'
_cell_length_a   7.27778749
_cell_length_b   7.29017146
_cell_length_c   7.31940426
_cell_angle_alpha   60.51295099
_cell_angle_beta   60.18791141
_cell_angle_gamma   60.05618049
_symmetry_Int_Tables_number   1
_chemical_formula_structural   Cd2FeRu3(PbO7)2
_chemical_formula_sum   'Cd2 Fe1 Ru3 Pb2 O14'
_cell_volume   276.15761199
_cell_formula_units_Z   1
loop_
 _symmetry_equiv_pos_site_id
 _symmetry_equiv_pos_as_xyz
  1  'x, y, z'
loop_
 _atom_site_type_symbol
 _atom_site_label
 _atom_site_symmetry_multiplicity
 _atom_site_fract_x
 _atom_site_fract_y
 _atom_site_fract_z
 _atom_site_occupancy
  Cd  Cd0  1  0.625000  0.125000  0.125000  1
  Cd  Cd1  1  0.125000  0.125000  0.125000  1
  Fe  Fe2  1  0.625000  0.125000  0.625000  1
  Ru  Ru3  1  0.625000  0.625000  0.125000  1
  Ru  Ru4  1  0.125000  0.625000  0.625000  1
  Ru  Ru5  1  0.625000  0.625000  0.625000  1
  Pb  Pb6  1  0.125000  0.625000  0.125000  1
  Pb  Pb7  1  0.125000  0.125000  0.625000  1
  O  O8  1  0.707796  0.681140  0.306892  1
  O  O9  1  0.952077  0.551677  0.544168  1
  O  O10  1  0.554326  0.936737  0.954612  1
  O  O11  1  0.954563  0.939991  0.554240  1
  O  O12  1  0.945829  0.568860  0.943108  1
  O  O13  1  0.551206  0.939991  0.554240  1
  O  O14  1  0.304171  0.681140  0.306892  1
  O  O15  1  0.297923  0.698323  0.705832  1
  O  O16  1  0.695674  0.313263  0.295388  1
  O  O17  1  0.698794  0.310009  0.695760  1
  O  O18  1  0.542204  0.568860  0.943108  1
  O  O19  1  0.295437  0.310009  0.695760  1
  O  O20  1  0.262314  0.237494  0.237878  1
  O  O21  1  0.987686  0.012506  0.012122  1
