# generated using pymatgen
data_Ta6Nb4Ga5GeB2
_symmetry_space_group_name_H-M   'P 1'
_cell_length_a   7.79663616
_cell_length_b   7.80626091
_cell_length_c   5.33386100
_cell_angle_alpha   90.00000000
_cell_angle_beta   90.00000000
_cell_angle_gamma   120.04084358
_symmetry_Int_Tables_number   1
_chemical_formula_structural   Ta6Nb4Ga5GeB2
_chemical_formula_sum   'Ta6 Nb4 Ga5 Ge1 B2'
_cell_volume   281.02423072
_cell_formula_units_Z   1
loop_
 _symmetry_equiv_pos_site_id
 _symmetry_equiv_pos_as_xyz
  1  'x, y, z'
loop_
 _atom_site_type_symbol
 _atom_site_label
 _atom_site_symmetry_multiplicity
 _atom_site_fract_x
 _atom_site_fract_y
 _atom_site_fract_z
 _atom_site_occupancy
  Ta  Ta0  1  0.758366  0.757794  0.250000  1
  Ta  Ta1  1  0.241634  0.999428  0.250000  1
  Ta  Ta2  1  0.000000  0.242452  0.250000  1
  Ta  Ta3  1  0.240799  0.241649  0.750000  1
  Ta  Ta4  1  0.759201  0.000851  0.750000  1
  Ta  Ta5  1  0.000000  0.758697  0.750000  1
  Nb  Nb6  1  0.667422  0.333271  0.499648  1
  Nb  Nb7  1  0.332578  0.665851  0.499648  1
  Nb  Nb8  1  0.332578  0.665851  0.000352  1
  Nb  Nb9  1  0.667422  0.333271  0.000352  1
  Ga  Ga10  1  0.402095  0.401274  0.250000  1
  Ga  Ga11  1  0.597905  0.999178  0.250000  1
  Ga  Ga12  1  0.000000  0.600030  0.250000  1
  Ga  Ga13  1  0.598308  0.598174  0.750000  1
  Ga  Ga14  1  0.401692  0.999866  0.750000  1
  Ge  Ge15  1  0.000000  0.403034  0.750000  1
  B  B16  1  0.000000  0.999663  0.499384  1
  B  B17  1  0.000000  0.999663  0.000616  1
