# generated using pymatgen
data_P3Ru4
_symmetry_space_group_name_H-M   'P 1'
_cell_length_a   2.96285600
_cell_length_b   10.54936400
_cell_length_c   12.38966500
_cell_angle_alpha   90.00000000
_cell_angle_beta   90.00000000
_cell_angle_gamma   90.00000000
_symmetry_Int_Tables_number   1
_chemical_formula_structural   P3Ru4
_chemical_formula_sum   'P12 Ru16'
_cell_volume   387.25442235
_cell_formula_units_Z   4
loop_
 _symmetry_equiv_pos_site_id
 _symmetry_equiv_pos_as_xyz
  1  'x, y, z'
loop_
 _atom_site_type_symbol
 _atom_site_label
 _atom_site_symmetry_multiplicity
 _atom_site_fract_x
 _atom_site_fract_y
 _atom_site_fract_z
 _atom_site_occupancy
  P  P0  1  0.750000  0.914694  0.620425  1
  P  P1  1  0.750000  0.070817  0.877458  1
  P  P2  1  0.750000  0.241950  0.638157  1
  P  P3  1  0.250000  0.085306  0.379575  1
  P  P4  1  0.250000  0.741950  0.861843  1
  P  P5  1  0.250000  0.570817  0.622542  1
  P  P6  1  0.250000  0.929183  0.122542  1
  P  P7  1  0.750000  0.585306  0.120425  1
  P  P8  1  0.250000  0.414694  0.879575  1
  P  P9  1  0.750000  0.258050  0.138157  1
  P  P10  1  0.750000  0.429183  0.377458  1
  P  P11  1  0.250000  0.758050  0.361843  1
  Ru  Ru12  1  0.250000  0.935084  0.770728  1
  Ru  Ru13  1  0.250000  0.407746  0.066630  1
  Ru  Ru14  1  0.750000  0.878723  0.973062  1
  Ru  Ru15  1  0.750000  0.592254  0.933370  1
  Ru  Ru16  1  0.250000  0.287922  0.296507  1
  Ru  Ru17  1  0.250000  0.378723  0.526938  1
  Ru  Ru18  1  0.750000  0.064916  0.229272  1
  Ru  Ru19  1  0.250000  0.092254  0.566630  1
  Ru  Ru20  1  0.250000  0.564916  0.270728  1
  Ru  Ru21  1  0.750000  0.621277  0.473062  1
  Ru  Ru22  1  0.750000  0.907746  0.433370  1
  Ru  Ru23  1  0.750000  0.435084  0.729272  1
  Ru  Ru24  1  0.250000  0.121277  0.026938  1
  Ru  Ru25  1  0.750000  0.787922  0.203493  1
  Ru  Ru26  1  0.750000  0.712078  0.703493  1
  Ru  Ru27  1  0.250000  0.212078  0.796507  1
