# generated using pymatgen
data_Cs4MnCdS4
_symmetry_space_group_name_H-M   'P 1'
_cell_length_a   8.61516772
_cell_length_b   8.61516765
_cell_length_c   8.61516873
_cell_angle_alpha   134.51540638
_cell_angle_beta   128.12776506
_cell_angle_gamma   71.42667169
_symmetry_Int_Tables_number   1
_chemical_formula_structural   Cs4MnCdS4
_chemical_formula_sum   'Cs4 Mn1 Cd1 S4'
_cell_volume   351.13511536
_cell_formula_units_Z   1
loop_
 _symmetry_equiv_pos_site_id
 _symmetry_equiv_pos_as_xyz
  1  'x, y, z'
loop_
 _atom_site_type_symbol
 _atom_site_label
 _atom_site_symmetry_multiplicity
 _atom_site_fract_x
 _atom_site_fract_y
 _atom_site_fract_z
 _atom_site_occupancy
  Cs  Cs0  1  0.810521  0.147857  0.662722  1
  Cs  Cs1  1  0.189479  0.852201  0.337336  1
  Cs  Cs2  1  0.485135  0.647798  0.837278  1
  Cs  Cs3  1  0.514865  0.352142  0.162664  1
  Mn  Mn4  1  0.000000  0.250000  0.250000  1
  Cd  Cd5  1  0.000000  0.750000  0.750000  1
  S  S6  1  0.082759  0.387497  0.662904  1
  S  S7  1  0.917241  0.580145  0.304738  1
  S  S8  1  0.724593  0.919855  0.837096  1
  S  S9  1  0.275407  0.112503  0.195262  1
