# generated using pymatgen
data_Dy2Mn5(PRh)7
_symmetry_space_group_name_H-M   'P 1'
_cell_length_a   9.43625041
_cell_length_b   9.42979735
_cell_length_c   3.80001300
_cell_angle_alpha   90.00000000
_cell_angle_beta   90.00000000
_cell_angle_gamma   119.98859493
_symmetry_Int_Tables_number   1
_chemical_formula_structural   Dy2Mn5(PRh)7
_chemical_formula_sum   'Dy2 Mn5 P7 Rh7'
_cell_volume   292.86497176
_cell_formula_units_Z   1
loop_
 _symmetry_equiv_pos_site_id
 _symmetry_equiv_pos_as_xyz
  1  'x, y, z'
loop_
 _atom_site_type_symbol
 _atom_site_label
 _atom_site_symmetry_multiplicity
 _atom_site_fract_x
 _atom_site_fract_y
 _atom_site_fract_z
 _atom_site_occupancy
  Dy  Dy0  1  0.667139  0.333412  0.000000  1
  Dy  Dy1  1  0.333014  0.666337  0.500000  1
  Mn  Mn2  1  0.886580  0.730757  0.000000  1
  Mn  Mn3  1  0.269504  0.156950  0.000000  1
  Mn  Mn4  1  0.841608  0.110461  0.000000  1
  Mn  Mn5  1  0.102178  0.223917  0.500000  1
  Mn  Mn6  1  0.776291  0.878225  0.500000  1
  P  P7  1  0.108825  0.701729  0.000000  1
  P  P8  1  0.296111  0.405387  0.000000  1
  P  P9  1  0.591672  0.888778  0.000000  1
  P  P10  1  0.722072  0.601980  0.500000  1
  P  P11  1  0.396997  0.121680  0.500000  1
  P  P12  1  0.882286  0.276068  0.500000  1
  P  P13  1  0.002107  0.002617  0.000000  1
  Rh  Rh14  1  0.365072  0.936391  0.000000  1
  Rh  Rh15  1  0.063840  0.428044  0.000000  1
  Rh  Rh16  1  0.570675  0.634909  0.000000  1
  Rh  Rh17  1  0.944699  0.556160  0.500000  1
  Rh  Rh18  1  0.441892  0.387542  0.500000  1
  Rh  Rh19  1  0.611156  0.054473  0.500000  1
  Rh  Rh20  1  0.126282  0.904186  0.500000  1
