# generated using pymatgen
data_Y2Ho18Co3Bi8Os
_symmetry_space_group_name_H-M   'P 1'
_cell_length_a   7.97099791
_cell_length_b   8.91176000
_cell_length_c   12.41008504
_cell_angle_alpha   90.00000000
_cell_angle_beta   89.74044387
_cell_angle_gamma   90.00000000
_symmetry_Int_Tables_number   1
_chemical_formula_structural   Y2Ho18Co3Bi8Os
_chemical_formula_sum   'Y2 Ho18 Co3 Bi8 Os1'
_cell_volume   881.54904413
_cell_formula_units_Z   1
loop_
 _symmetry_equiv_pos_site_id
 _symmetry_equiv_pos_as_xyz
  1  'x, y, z'
loop_
 _atom_site_type_symbol
 _atom_site_label
 _atom_site_symmetry_multiplicity
 _atom_site_fract_x
 _atom_site_fract_y
 _atom_site_fract_z
 _atom_site_occupancy
  Y  Y0  1  0.653754  0.250000  0.299798  1
  Y  Y1  1  0.846682  0.250000  0.798879  1
  Ho  Ho2  1  0.345954  0.750000  0.700536  1
  Ho  Ho3  1  0.155168  0.750000  0.206031  1
  Ho  Ho4  1  0.881088  0.750000  0.805680  1
  Ho  Ho5  1  0.114721  0.250000  0.189222  1
  Ho  Ho6  1  0.384898  0.250000  0.688145  1
  Ho  Ho7  1  0.614763  0.750000  0.312958  1
  Ho  Ho8  1  0.674688  0.537076  0.563008  1
  Ho  Ho9  1  0.324504  0.461576  0.437237  1
  Ho  Ho10  1  0.176297  0.457417  0.935727  1
  Ho  Ho11  1  0.324504  0.038424  0.437237  1
  Ho  Ho12  1  0.824907  0.537409  0.063579  1
  Ho  Ho13  1  0.674688  0.962924  0.563008  1
  Ho  Ho14  1  0.824907  0.962591  0.063579  1
  Ho  Ho15  1  0.176297  0.042583  0.935727  1
  Ho  Ho16  1  0.052809  0.750000  0.498066  1
  Ho  Ho17  1  0.947382  0.250000  0.502381  1
  Ho  Ho18  1  0.554617  0.250000  0.002819  1
  Ho  Ho19  1  0.443882  0.750000  0.996903  1
  Co  Co20  1  0.930871  0.250000  0.009882  1
  Co  Co21  1  0.564590  0.250000  0.508794  1
  Co  Co22  1  0.433771  0.750000  0.492429  1
  Bi  Bi23  1  0.571363  0.508904  0.826439  1
  Bi  Bi24  1  0.429352  0.491071  0.173184  1
  Bi  Bi25  1  0.072171  0.490622  0.672039  1
  Bi  Bi26  1  0.429352  0.008929  0.173184  1
  Bi  Bi27  1  0.928111  0.509114  0.327527  1
  Bi  Bi28  1  0.571363  0.991096  0.826439  1
  Bi  Bi29  1  0.928111  0.990886  0.327527  1
  Bi  Bi30  1  0.072171  0.009378  0.672039  1
  Os  Os31  1  0.072264  0.750000  0.989996  1
