# generated using pymatgen
data_Lu6Re3Si6Os
_symmetry_space_group_name_H-M   'P 1'
_cell_length_a   5.66330932
_cell_length_b   5.66330783
_cell_length_c   13.61754219
_cell_angle_alpha   89.76101109
_cell_angle_beta   90.23898995
_cell_angle_gamma   136.93290463
_symmetry_Int_Tables_number   1
_chemical_formula_structural   Lu6Re3Si6Os
_chemical_formula_sum   'Lu6 Re3 Si6 Os1'
_cell_volume   298.23793521
_cell_formula_units_Z   1
loop_
 _symmetry_equiv_pos_site_id
 _symmetry_equiv_pos_as_xyz
  1  'x, y, z'
loop_
 _atom_site_type_symbol
 _atom_site_label
 _atom_site_symmetry_multiplicity
 _atom_site_fract_x
 _atom_site_fract_y
 _atom_site_fract_z
 _atom_site_occupancy
  Lu  Lu0  1  0.639990  0.360010  0.249925  1
  Lu  Lu1  1  0.360166  0.639834  0.750433  1
  Lu  Lu2  1  0.924463  0.075537  0.114903  1
  Lu  Lu3  1  0.074712  0.925288  0.884434  1
  Lu  Lu4  1  0.074248  0.925752  0.615256  1
  Lu  Lu5  1  0.926587  0.073413  0.384821  1
  Re  Re6  1  0.785142  0.214858  0.585152  1
  Re  Re7  1  0.214861  0.785139  0.416053  1
  Re  Re8  1  0.214640  0.785360  0.082780  1
  Si  Si9  1  0.327096  0.672904  0.249842  1
  Si  Si10  1  0.673384  0.326616  0.751373  1
  Si  Si11  1  0.613397  0.386603  0.037472  1
  Si  Si12  1  0.385869  0.614131  0.960218  1
  Si  Si13  1  0.387872  0.612128  0.538496  1
  Si  Si14  1  0.612034  0.387966  0.461907  1
  Os  Os15  1  0.785537  0.214463  0.916935  1
