# generated using pymatgen
data_CeGd5(GaC3)2
_symmetry_space_group_name_H-M   'P 1'
_cell_length_a   3.60301900
_cell_length_b   7.19386200
_cell_length_c   9.99043200
_cell_angle_alpha   90.00000000
_cell_angle_beta   90.00000000
_cell_angle_gamma   90.00000000
_symmetry_Int_Tables_number   1
_chemical_formula_structural   CeGd5(GaC3)2
_chemical_formula_sum   'Ce1 Gd5 Ga2 C6'
_cell_volume   258.94821576
_cell_formula_units_Z   1
loop_
 _symmetry_equiv_pos_site_id
 _symmetry_equiv_pos_as_xyz
  1  'x, y, z'
loop_
 _atom_site_type_symbol
 _atom_site_label
 _atom_site_symmetry_multiplicity
 _atom_site_fract_x
 _atom_site_fract_y
 _atom_site_fract_z
 _atom_site_occupancy
  Ce  Ce0  1  0.000000  0.750000  0.461160  1
  Gd  Gd1  1  0.500000  0.510189  0.195161  1
  Gd  Gd2  1  0.500000  0.487088  0.803303  1
  Gd  Gd3  1  0.500000  0.989811  0.195161  1
  Gd  Gd4  1  0.500000  0.012912  0.803303  1
  Gd  Gd5  1  0.000000  0.250000  0.539105  1
  Ga  Ga6  1  0.000000  0.750000  0.002953  1
  Ga  Ga7  1  0.000000  0.250000  0.998173  1
  C  C8  1  0.500000  0.504055  0.566089  1
  C  C9  1  0.500000  0.488371  0.433001  1
  C  C10  1  0.500000  0.995945  0.566089  1
  C  C11  1  0.500000  0.011629  0.433001  1
  C  C12  1  0.000000  0.750000  0.211895  1
  C  C13  1  0.000000  0.250000  0.791604  1
