# generated using pymatgen
data_Tb3YAl4(IrPd)2
_symmetry_space_group_name_H-M   'P 1'
_cell_length_a   4.36677700
_cell_length_b   6.88131648
_cell_length_c   7.87490200
_cell_angle_alpha   90.15621022
_cell_angle_beta   90.00000000
_cell_angle_gamma   90.00000000
_symmetry_Int_Tables_number   1
_chemical_formula_structural   Tb3YAl4(IrPd)2
_chemical_formula_sum   'Tb3 Y1 Al4 Ir2 Pd2'
_cell_volume   236.63342525
_cell_formula_units_Z   1
loop_
 _symmetry_equiv_pos_site_id
 _symmetry_equiv_pos_as_xyz
  1  'x, y, z'
loop_
 _atom_site_type_symbol
 _atom_site_label
 _atom_site_symmetry_multiplicity
 _atom_site_fract_x
 _atom_site_fract_y
 _atom_site_fract_z
 _atom_site_occupancy
  Tb  Tb0  1  0.750000  0.464144  0.184051  1
  Tb  Tb1  1  0.250000  0.027554  0.677426  1
  Tb  Tb2  1  0.750000  0.972272  0.322715  1
  Y  Y3  1  0.250000  0.535782  0.815588  1
  Al  Al4  1  0.250000  0.638125  0.440262  1
  Al  Al5  1  0.750000  0.361966  0.559992  1
  Al  Al6  1  0.250000  0.144450  0.064363  1
  Al  Al7  1  0.750000  0.855430  0.935428  1
  Ir  Ir8  1  0.750000  0.731604  0.619401  1
  Ir  Ir9  1  0.250000  0.268528  0.380607  1
  Pd  Pd10  1  0.750000  0.227379  0.881802  1
  Pd  Pd11  1  0.250000  0.772767  0.118365  1
