# generated using pymatgen
data_TbY2Mg3Ag2Ru
_symmetry_space_group_name_H-M   'P 1'
_cell_length_a   7.74606944
_cell_length_b   7.73661427
_cell_length_c   3.98703800
_cell_angle_alpha   90.00000000
_cell_angle_beta   90.00000000
_cell_angle_gamma   119.87115351
_symmetry_Int_Tables_number   1
_chemical_formula_structural   TbY2Mg3Ag2Ru
_chemical_formula_sum   'Tb1 Y2 Mg3 Ag2 Ru1'
_cell_volume   207.19331394
_cell_formula_units_Z   1
loop_
 _symmetry_equiv_pos_site_id
 _symmetry_equiv_pos_as_xyz
  1  'x, y, z'
loop_
 _atom_site_type_symbol
 _atom_site_label
 _atom_site_symmetry_multiplicity
 _atom_site_fract_x
 _atom_site_fract_y
 _atom_site_fract_z
 _atom_site_occupancy
  Tb  Tb0  1  0.398209  0.433602  0.000000  1
  Y  Y1  1  0.567308  0.965886  0.000000  1
  Y  Y2  1  0.034392  0.602008  0.000000  1
  Mg  Mg3  1  0.253567  0.998354  0.500000  1
  Mg  Mg4  1  0.000855  0.254952  0.500000  1
  Mg  Mg5  1  0.745443  0.746856  0.500000  1
  Ag  Ag6  1  0.666521  0.333313  0.500000  1
  Ag  Ag7  1  0.999998  0.999982  0.000000  1
  Ru  Ru8  1  0.333707  0.665047  0.500000  1
