# generated using pymatgen
data_Dy3Sn3Ru2Au
_symmetry_space_group_name_H-M   'P 1'
_cell_length_a   7.73147500
_cell_length_b   7.73147496
_cell_length_c   3.81128200
_cell_angle_alpha   90.00000000
_cell_angle_beta   90.00000000
_cell_angle_gamma   119.99999590
_symmetry_Int_Tables_number   1
_chemical_formula_structural   Dy3Sn3Ru2Au
_chemical_formula_sum   'Dy3 Sn3 Ru2 Au1'
_cell_volume   197.29970821
_cell_formula_units_Z   1
loop_
 _symmetry_equiv_pos_site_id
 _symmetry_equiv_pos_as_xyz
  1  'x, y, z'
loop_
 _atom_site_type_symbol
 _atom_site_label
 _atom_site_symmetry_multiplicity
 _atom_site_fract_x
 _atom_site_fract_y
 _atom_site_fract_z
 _atom_site_occupancy
  Dy  Dy0  1  0.393753  0.411992  0.500000  1
  Dy  Dy1  1  0.588008  0.981762  0.500000  1
  Dy  Dy2  1  0.018238  0.606247  0.500000  1
  Sn  Sn3  1  0.736912  0.744101  0.000000  1
  Sn  Sn4  1  0.255899  0.992812  0.000000  1
  Sn  Sn5  1  0.007188  0.263088  0.000000  1
  Ru  Ru6  1  0.333333  0.666667  0.000000  1
  Ru  Ru7  1  0.000000  0.000000  0.500000  1
  Au  Au8  1  0.666667  0.333333  0.000000  1
