# generated using pymatgen
data_Y2Er14MgHg3Ir4
_symmetry_space_group_name_H-M   'P 1'
_cell_length_a   9.56505308
_cell_length_b   9.54414497
_cell_length_c   9.53966500
_cell_angle_alpha   60.01552278
_cell_angle_beta   60.08775977
_cell_angle_gamma   60.01788527
_symmetry_Int_Tables_number   1
_chemical_formula_structural   Y2Er14MgHg3Ir4
_chemical_formula_sum   'Y2 Er14 Mg1 Hg3 Ir4'
_cell_volume   616.36717776
_cell_formula_units_Z   1
loop_
 _symmetry_equiv_pos_site_id
 _symmetry_equiv_pos_as_xyz
  1  'x, y, z'
loop_
 _atom_site_type_symbol
 _atom_site_label
 _atom_site_symmetry_multiplicity
 _atom_site_fract_x
 _atom_site_fract_y
 _atom_site_fract_z
 _atom_site_occupancy
  Y  Y0  1  0.811662  0.813469  0.187434  1
  Y  Y1  1  0.186243  0.188286  0.812736  1
  Er  Er2  1  0.599783  0.597807  0.598050  1
  Er  Er3  1  0.599783  0.597807  0.204358  1
  Er  Er4  1  0.600052  0.204405  0.597771  1
  Er  Er5  1  0.193608  0.602193  0.602099  1
  Er  Er6  1  0.058760  0.440888  0.440963  1
  Er  Er7  1  0.437283  0.062044  0.062054  1
  Er  Er8  1  0.437283  0.062044  0.438619  1
  Er  Er9  1  0.058760  0.440888  0.059388  1
  Er  Er10  1  0.437352  0.438839  0.061905  1
  Er  Er11  1  0.058691  0.059250  0.441029  1
  Er  Er12  1  0.186929  0.811409  0.811447  1
  Er  Er13  1  0.810623  0.188601  0.188475  1
  Er  Er14  1  0.810623  0.188601  0.812302  1
  Er  Er15  1  0.186929  0.811409  0.190215  1
  Mg  Mg16  1  0.535891  0.821350  0.821380  1
  Hg  Hg17  1  0.832254  0.836946  0.836043  1
  Hg  Hg18  1  0.832254  0.836946  0.494759  1
  Hg  Hg19  1  0.831584  0.494588  0.836915  1
  Ir  Ir20  1  0.389763  0.393519  0.392483  1
  Ir  Ir21  1  0.389763  0.393519  0.824234  1
  Ir  Ir22  1  0.388868  0.824186  0.393473  1
  Ir  Ir23  1  0.825260  0.391006  0.391867  1
