# generated using pymatgen
data_DySc3(SiMo)4
_symmetry_space_group_name_H-M   'P 1'
_cell_length_a   3.57004700
_cell_length_b   7.12585079
_cell_length_c   8.28059180
_cell_angle_alpha   89.87990316
_cell_angle_beta   90.00000000
_cell_angle_gamma   90.00000000
_symmetry_Int_Tables_number   1
_chemical_formula_structural   DySc3(SiMo)4
_chemical_formula_sum   'Dy1 Sc3 Si4 Mo4'
_cell_volume   210.65466457
_cell_formula_units_Z   1
loop_
 _symmetry_equiv_pos_site_id
 _symmetry_equiv_pos_as_xyz
  1  'x, y, z'
loop_
 _atom_site_type_symbol
 _atom_site_label
 _atom_site_symmetry_multiplicity
 _atom_site_fract_x
 _atom_site_fract_y
 _atom_site_fract_z
 _atom_site_occupancy
  Dy  Dy0  1  0.750000  0.457096  0.835621  1
  Sc  Sc1  1  0.250000  0.042034  0.333827  1
  Sc  Sc2  1  0.250000  0.543760  0.169413  1
  Sc  Sc3  1  0.750000  0.955561  0.664874  1
  Si  Si4  1  0.250000  0.252245  0.630032  1
  Si  Si5  1  0.250000  0.766234  0.863473  1
  Si  Si6  1  0.750000  0.742605  0.362548  1
  Si  Si7  1  0.750000  0.239927  0.141057  1
  Mo  Mo8  1  0.250000  0.123153  0.943606  1
  Mo  Mo9  1  0.250000  0.626923  0.556364  1
  Mo  Mo10  1  0.750000  0.875784  0.060766  1
  Mo  Mo11  1  0.750000  0.374679  0.438421  1
