# generated using pymatgen
data_Dy7Ho9CdHg3Ir4
_symmetry_space_group_name_H-M   'P 1'
_cell_length_a   9.58018472
_cell_length_b   9.58205695
_cell_length_c   9.58428500
_cell_angle_alpha   59.99230446
_cell_angle_beta   59.98583754
_cell_angle_gamma   60.00359539
_symmetry_Int_Tables_number   1
_chemical_formula_structural   Dy7Ho9CdHg3Ir4
_chemical_formula_sum   'Dy7 Ho9 Cd1 Hg3 Ir4'
_cell_volume   622.03866903
_cell_formula_units_Z   1
loop_
 _symmetry_equiv_pos_site_id
 _symmetry_equiv_pos_as_xyz
  1  'x, y, z'
loop_
 _atom_site_type_symbol
 _atom_site_label
 _atom_site_symmetry_multiplicity
 _atom_site_fract_x
 _atom_site_fract_y
 _atom_site_fract_z
 _atom_site_occupancy
  Dy  Dy0  1  0.059844  0.060065  0.440046  1
  Dy  Dy1  1  0.187819  0.811524  0.812086  1
  Dy  Dy2  1  0.811011  0.188843  0.187980  1
  Dy  Dy3  1  0.811011  0.188843  0.812167  1
  Dy  Dy4  1  0.187819  0.811524  0.188573  1
  Dy  Dy5  1  0.811311  0.811951  0.188370  1
  Dy  Dy6  1  0.187418  0.189055  0.811764  1
  Ho  Ho7  1  0.600322  0.599856  0.599210  1
  Ho  Ho8  1  0.600322  0.599856  0.200613  1
  Ho  Ho9  1  0.600464  0.200155  0.599691  1
  Ho  Ho10  1  0.197522  0.600962  0.600757  1
  Ho  Ho11  1  0.059680  0.439693  0.440425  1
  Ho  Ho12  1  0.438584  0.060520  0.060843  1
  Ho  Ho13  1  0.438584  0.060520  0.440053  1
  Ho  Ho14  1  0.059680  0.439693  0.060202  1
  Ho  Ho15  1  0.438907  0.439554  0.060770  1
  Cd  Cd16  1  0.510054  0.829999  0.829973  1
  Hg  Hg17  1  0.833288  0.835039  0.835134  1
  Hg  Hg18  1  0.833288  0.835039  0.496539  1
  Hg  Hg19  1  0.833540  0.496000  0.835230  1
  Ir  Ir20  1  0.391771  0.392484  0.392000  1
  Ir  Ir21  1  0.391771  0.392484  0.823745  1
  Ir  Ir22  1  0.392387  0.823525  0.392044  1
  Ir  Ir23  1  0.823607  0.392818  0.391788  1
