# generated using pymatgen
data_LaCe(CoH4)2
_symmetry_space_group_name_H-M   'P 1'
_cell_length_a   6.27336914
_cell_length_b   6.27336935
_cell_length_c   4.87197400
_cell_angle_alpha   90.00000000
_cell_angle_beta   90.00000000
_cell_angle_gamma   144.61749546
_symmetry_Int_Tables_number   1
_chemical_formula_structural   LaCe(CoH4)2
_chemical_formula_sum   'La1 Ce1 Co2 H8'
_cell_volume   111.02209323
_cell_formula_units_Z   1
loop_
 _symmetry_equiv_pos_site_id
 _symmetry_equiv_pos_as_xyz
  1  'x, y, z'
loop_
 _atom_site_type_symbol
 _atom_site_label
 _atom_site_symmetry_multiplicity
 _atom_site_fract_x
 _atom_site_fract_y
 _atom_site_fract_z
 _atom_site_occupancy
  La  La0  1  0.867922  0.132078  0.750000  1
  Ce  Ce1  1  0.130093  0.869907  0.250000  1
  Co  Co2  1  0.594389  0.405611  0.750000  1
  Co  Co3  1  0.407177  0.592823  0.250000  1
  H  H4  1  0.089142  0.910858  0.750000  1
  H  H5  1  0.916449  0.083551  0.250000  1
  H  H6  1  0.687475  0.312525  0.507227  1
  H  H7  1  0.308777  0.691223  0.480268  1
  H  H8  1  0.687475  0.312525  0.992773  1
  H  H9  1  0.308777  0.691223  0.019732  1
  H  H10  1  0.501163  0.498837  0.000729  1
  H  H11  1  0.501163  0.498837  0.499271  1
