# generated using pymatgen
data_Lu12Fe2TcHg2
_symmetry_space_group_name_H-M   'P 1'
_cell_length_a   8.15897681
_cell_length_b   8.15897775
_cell_length_c   8.15897665
_cell_angle_alpha   108.64488778
_cell_angle_beta   108.64488915
_cell_angle_gamma   111.13682354
_symmetry_Int_Tables_number   1
_chemical_formula_structural   Lu12Fe2TcHg2
_chemical_formula_sum   'Lu12 Fe2 Tc1 Hg2'
_cell_volume   417.83907804
_cell_formula_units_Z   1
loop_
 _symmetry_equiv_pos_site_id
 _symmetry_equiv_pos_as_xyz
  1  'x, y, z'
loop_
 _atom_site_type_symbol
 _atom_site_label
 _atom_site_symmetry_multiplicity
 _atom_site_fract_x
 _atom_site_fract_y
 _atom_site_fract_z
 _atom_site_occupancy
  Lu  Lu0  1  0.309321  0.309321  0.618640  1
  Lu  Lu1  1  0.690679  0.690679  0.381360  1
  Lu  Lu2  1  0.690679  0.309321  0.000000  1
  Lu  Lu3  1  0.309321  0.690679  0.000000  1
  Lu  Lu4  1  0.190937  0.431072  0.240135  1
  Lu  Lu5  1  0.809063  0.568928  0.759865  1
  Lu  Lu6  1  0.190937  0.950801  0.759865  1
  Lu  Lu7  1  0.950801  0.190937  0.759865  1
  Lu  Lu8  1  0.809063  0.049199  0.240135  1
  Lu  Lu9  1  0.049199  0.809063  0.240135  1
  Lu  Lu10  1  0.431072  0.190937  0.240135  1
  Lu  Lu11  1  0.568928  0.809063  0.759865  1
  Fe  Fe12  1  0.381318  0.381318  0.000000  1
  Fe  Fe13  1  0.618682  0.618682  0.000000  1
  Tc  Tc14  1  0.000000  0.000000  0.000000  1
  Hg  Hg15  1  0.000000  0.500000  0.500000  1
  Hg  Hg16  1  0.500000  0.000000  0.500000  1
