# generated using pymatgen
data_Tm5LuTh2(CdIr)2
_symmetry_space_group_name_H-M   'P 1'
_cell_length_a   9.64047254
_cell_length_b   9.64660027
_cell_length_c   9.66312483
_cell_angle_alpha   59.90449164
_cell_angle_beta   59.96467473
_cell_angle_gamma   59.92164638
_symmetry_Int_Tables_number   1
_chemical_formula_structural   Tm5LuTh2(CdIr)2
_chemical_formula_sum   'Tm10 Lu2 Th4 Cd4 Ir4'
_cell_volume   634.43554563
_cell_formula_units_Z   2
loop_
 _symmetry_equiv_pos_site_id
 _symmetry_equiv_pos_as_xyz
  1  'x, y, z'
loop_
 _atom_site_type_symbol
 _atom_site_label
 _atom_site_symmetry_multiplicity
 _atom_site_fract_x
 _atom_site_fract_y
 _atom_site_fract_z
 _atom_site_occupancy
  Tm  Tm0  1  0.436760  0.063101  0.436970  1
  Tm  Tm1  1  0.063107  0.436752  0.063175  1
  Tm  Tm2  1  0.437345  0.437358  0.062650  1
  Tm  Tm3  1  0.063572  0.063566  0.436443  1
  Tm  Tm4  1  0.185441  0.815782  0.815080  1
  Tm  Tm5  1  0.815789  0.185444  0.183699  1
  Tm  Tm6  1  0.815789  0.185448  0.815097  1
  Tm  Tm7  1  0.185434  0.815818  0.183668  1
  Tm  Tm8  1  0.815813  0.815835  0.184173  1
  Tm  Tm9  1  0.184929  0.184928  0.815079  1
  Lu  Lu10  1  0.062823  0.437051  0.437170  1
  Lu  Lu11  1  0.437070  0.062825  0.062918  1
  Th  Th12  1  0.601133  0.600619  0.599821  1
  Th  Th13  1  0.600614  0.601132  0.198408  1
  Th  Th14  1  0.601520  0.196671  0.601149  1
  Th  Th15  1  0.196669  0.601519  0.600652  1
  Cd  Cd16  1  0.833019  0.833118  0.834869  1
  Cd  Cd17  1  0.833116  0.833018  0.499012  1
  Cd  Cd18  1  0.832659  0.498747  0.834262  1
  Cd  Cd19  1  0.498743  0.832666  0.834337  1
  Ir  Ir20  1  0.391413  0.392187  0.393438  1
  Ir  Ir21  1  0.392192  0.391404  0.822952  1
  Ir  Ir22  1  0.391798  0.823234  0.392083  1
  Ir  Ir23  1  0.823251  0.391775  0.392893  1
