# generated using pymatgen
data_Hf4Sn3MoN
_symmetry_space_group_name_H-M   'P 1'
_cell_length_a   8.29937500
_cell_length_b   8.29937561
_cell_length_c   5.60624400
_cell_angle_alpha   90.00000000
_cell_angle_beta   90.00000000
_cell_angle_gamma   120.00000156
_symmetry_Int_Tables_number   1
_chemical_formula_structural   Hf4Sn3MoN
_chemical_formula_sum   'Hf8 Sn6 Mo2 N2'
_cell_volume   334.42091348
_cell_formula_units_Z   2
loop_
 _symmetry_equiv_pos_site_id
 _symmetry_equiv_pos_as_xyz
  1  'x, y, z'
loop_
 _atom_site_type_symbol
 _atom_site_label
 _atom_site_symmetry_multiplicity
 _atom_site_fract_x
 _atom_site_fract_y
 _atom_site_fract_z
 _atom_site_occupancy
  Hf  Hf0  1  0.221026  0.000000  0.249462  1
  Hf  Hf1  1  0.000000  0.221026  0.249462  1
  Hf  Hf2  1  0.778974  0.778974  0.249462  1
  Hf  Hf3  1  0.666667  0.333333  0.500000  1
  Hf  Hf4  1  0.333333  0.666667  0.500000  1
  Hf  Hf5  1  0.778974  0.000000  0.750538  1
  Hf  Hf6  1  0.000000  0.778974  0.750538  1
  Hf  Hf7  1  0.221026  0.221026  0.750538  1
  Sn  Sn8  1  0.592975  0.000000  0.238470  1
  Sn  Sn9  1  0.000000  0.592975  0.238470  1
  Sn  Sn10  1  0.407025  0.407025  0.238470  1
  Sn  Sn11  1  0.407025  0.000000  0.761530  1
  Sn  Sn12  1  0.000000  0.407025  0.761530  1
  Sn  Sn13  1  0.592975  0.592975  0.761530  1
  Mo  Mo14  1  0.666667  0.333333  0.000000  1
  Mo  Mo15  1  0.333333  0.666667  0.000000  1
  N  N16  1  0.000000  0.000000  0.000000  1
  N  N17  1  0.000000  0.000000  0.500000  1
