# generated using pymatgen
data_KRb2Cu3F12
_symmetry_space_group_name_H-M   'P 1'
_cell_length_a   7.77414159
_cell_length_b   7.77414114
_cell_length_c   12.12551161
_cell_angle_alpha   73.28241228
_cell_angle_beta   73.28241275
_cell_angle_gamma   59.67335351
_symmetry_Int_Tables_number   1
_chemical_formula_structural   KRb2Cu3F12
_chemical_formula_sum   'K2 Rb4 Cu6 F24'
_cell_volume   596.76051895
_cell_formula_units_Z   2
loop_
 _symmetry_equiv_pos_site_id
 _symmetry_equiv_pos_as_xyz
  1  'x, y, z'
loop_
 _atom_site_type_symbol
 _atom_site_label
 _atom_site_symmetry_multiplicity
 _atom_site_fract_x
 _atom_site_fract_y
 _atom_site_fract_z
 _atom_site_occupancy
  K  K0  1  0.227331  0.772669  0.750000  1
  K  K1  1  0.772669  0.227331  0.250000  1
  Rb  Rb2  1  0.890328  0.486333  0.682481  1
  Rb  Rb3  1  0.109672  0.513667  0.317519  1
  Rb  Rb4  1  0.513667  0.109672  0.817519  1
  Rb  Rb5  1  0.486333  0.890328  0.182481  1
  Cu  Cu6  1  0.500000  0.000000  0.500000  1
  Cu  Cu7  1  0.000000  0.500000  0.000000  1
  Cu  Cu8  1  0.000000  0.000000  0.500000  1
  Cu  Cu9  1  0.000000  0.000000  0.000000  1
  Cu  Cu10  1  0.500000  0.500000  0.500000  1
  Cu  Cu11  1  0.500000  0.500000  0.000000  1
  F  F12  1  0.887253  0.953189  0.650516  1
  F  F13  1  0.519597  0.888352  0.651548  1
  F  F14  1  0.246468  0.399801  0.035732  1
  F  F15  1  0.655554  0.232598  0.043293  1
  F  F16  1  0.888352  0.519597  0.151548  1
  F  F17  1  0.111648  0.480403  0.848452  1
  F  F18  1  0.480403  0.111648  0.348452  1
  F  F19  1  0.767402  0.344446  0.456707  1
  F  F20  1  0.112747  0.046811  0.349484  1
  F  F21  1  0.600199  0.753532  0.464268  1
  F  F22  1  0.441624  0.532315  0.149027  1
  F  F23  1  0.399801  0.246468  0.535732  1
  F  F24  1  0.532315  0.441624  0.649027  1
  F  F25  1  0.854024  0.920692  0.453629  1
  F  F26  1  0.145976  0.079308  0.546371  1
  F  F27  1  0.558376  0.467685  0.850973  1
  F  F28  1  0.920692  0.854024  0.953629  1
  F  F29  1  0.467685  0.558376  0.350973  1
  F  F30  1  0.753532  0.600199  0.964268  1
  F  F31  1  0.953189  0.887253  0.150516  1
  F  F32  1  0.079308  0.145976  0.046371  1
  F  F33  1  0.344446  0.767402  0.956707  1
  F  F34  1  0.046811  0.112747  0.849484  1
  F  F35  1  0.232598  0.655554  0.543293  1
