# generated using pymatgen
data_DyEr2MoO7
_symmetry_space_group_name_H-M   'P 1'
_cell_length_a   6.41287388
_cell_length_b   6.41287437
_cell_length_c   7.45644800
_cell_angle_alpha   90.00000000
_cell_angle_beta   90.00000000
_cell_angle_gamma   109.16162869
_symmetry_Int_Tables_number   1
_chemical_formula_structural   DyEr2MoO7
_chemical_formula_sum   'Dy2 Er4 Mo2 O14'
_cell_volume   289.65678843
_cell_formula_units_Z   2
loop_
 _symmetry_equiv_pos_site_id
 _symmetry_equiv_pos_as_xyz
  1  'x, y, z'
loop_
 _atom_site_type_symbol
 _atom_site_label
 _atom_site_symmetry_multiplicity
 _atom_site_fract_x
 _atom_site_fract_y
 _atom_site_fract_z
 _atom_site_occupancy
  Dy  Dy0  1  0.516470  0.516470  0.500000  1
  Dy  Dy1  1  0.483530  0.483530  0.000000  1
  Er  Er2  1  0.998823  0.465034  0.747165  1
  Er  Er3  1  0.001177  0.534966  0.247165  1
  Er  Er4  1  0.534966  0.001177  0.752835  1
  Er  Er5  1  0.465034  0.998823  0.252835  1
  Mo  Mo6  1  0.001246  0.001246  0.500000  1
  Mo  Mo7  1  0.998754  0.998754  0.000000  1
  O  O8  1  0.637790  0.362210  0.750000  1
  O  O9  1  0.362210  0.637790  0.250000  1
  O  O10  1  0.924487  0.075513  0.750000  1
  O  O11  1  0.075513  0.924487  0.250000  1
  O  O12  1  0.919726  0.673064  0.528428  1
  O  O13  1  0.080274  0.326936  0.028428  1
  O  O14  1  0.326936  0.080274  0.971572  1
  O  O15  1  0.673064  0.919726  0.471572  1
  O  O16  1  0.367523  0.632477  0.750000  1
  O  O17  1  0.632477  0.367523  0.250000  1
  O  O18  1  0.932247  0.680566  0.966117  1
  O  O19  1  0.067753  0.319434  0.466117  1
  O  O20  1  0.319434  0.067753  0.533883  1
  O  O21  1  0.680566  0.932247  0.033883  1
