# generated using pymatgen
data_Er10CoPd3
_symmetry_space_group_name_H-M   'P 1'
_cell_length_a   9.33105100
_cell_length_b   9.33105057
_cell_length_c   9.05897900
_cell_angle_alpha   90.00000000
_cell_angle_beta   90.00000000
_cell_angle_gamma   119.99999799
_symmetry_Int_Tables_number   1
_chemical_formula_structural   Er10CoPd3
_chemical_formula_sum   'Er20 Co2 Pd6'
_cell_volume   683.07910318
_cell_formula_units_Z   2
loop_
 _symmetry_equiv_pos_site_id
 _symmetry_equiv_pos_as_xyz
  1  'x, y, z'
loop_
 _atom_site_type_symbol
 _atom_site_label
 _atom_site_symmetry_multiplicity
 _atom_site_fract_x
 _atom_site_fract_y
 _atom_site_fract_z
 _atom_site_occupancy
  Er  Er0  1  0.000000  0.000000  0.500000  1
  Er  Er1  1  0.000000  0.000000  0.000000  1
  Er  Er2  1  0.542080  0.457920  0.250000  1
  Er  Er3  1  0.542080  0.084161  0.250000  1
  Er  Er4  1  0.915839  0.457920  0.250000  1
  Er  Er5  1  0.457920  0.542080  0.750000  1
  Er  Er6  1  0.457920  0.915839  0.750000  1
  Er  Er7  1  0.084161  0.542080  0.750000  1
  Er  Er8  1  0.207768  0.792232  0.439617  1
  Er  Er9  1  0.207768  0.415537  0.439617  1
  Er  Er10  1  0.584463  0.792232  0.439617  1
  Er  Er11  1  0.792232  0.207768  0.560383  1
  Er  Er12  1  0.792232  0.584463  0.560383  1
  Er  Er13  1  0.415537  0.207768  0.560383  1
  Er  Er14  1  0.792232  0.207768  0.939617  1
  Er  Er15  1  0.792232  0.584463  0.939617  1
  Er  Er16  1  0.415537  0.207768  0.939617  1
  Er  Er17  1  0.207768  0.792232  0.060383  1
  Er  Er18  1  0.207768  0.415537  0.060383  1
  Er  Er19  1  0.584463  0.792232  0.060383  1
  Co  Co20  1  0.333333  0.666667  0.250000  1
  Co  Co21  1  0.666667  0.333333  0.750000  1
  Pd  Pd22  1  0.879192  0.120808  0.250000  1
  Pd  Pd23  1  0.879192  0.758385  0.250000  1
  Pd  Pd24  1  0.241615  0.120808  0.250000  1
  Pd  Pd25  1  0.120808  0.879192  0.750000  1
  Pd  Pd26  1  0.120808  0.241615  0.750000  1
  Pd  Pd27  1  0.758385  0.879192  0.750000  1
