# generated using pymatgen
data_Li4LaYb2DySi8
_symmetry_space_group_name_H-M   'P 1'
_cell_length_a   3.83429100
_cell_length_b   7.81778266
_cell_length_c   10.52070201
_cell_angle_alpha   89.88350015
_cell_angle_beta   90.00000000
_cell_angle_gamma   90.00000000
_symmetry_Int_Tables_number   1
_chemical_formula_structural   Li4LaYb2DySi8
_chemical_formula_sum   'Li4 La1 Yb2 Dy1 Si8'
_cell_volume   315.36426795
_cell_formula_units_Z   1
loop_
 _symmetry_equiv_pos_site_id
 _symmetry_equiv_pos_as_xyz
  1  'x, y, z'
loop_
 _atom_site_type_symbol
 _atom_site_label
 _atom_site_symmetry_multiplicity
 _atom_site_fract_x
 _atom_site_fract_y
 _atom_site_fract_z
 _atom_site_occupancy
  Li  Li0  1  0.250000  0.997250  0.387353  1
  Li  Li1  1  0.750000  0.003127  0.609495  1
  Li  Li2  1  0.250000  0.497162  0.108896  1
  Li  Li3  1  0.750000  0.508272  0.892085  1
  La  La4  1  0.250000  0.633851  0.636467  1
  Yb  Yb5  1  0.750000  0.867206  0.133840  1
  Yb  Yb6  1  0.750000  0.362764  0.365021  1
  Dy  Dy7  1  0.250000  0.129608  0.866916  1
  Si  Si8  1  0.750000  0.266634  0.062605  1
  Si  Si9  1  0.250000  0.741507  0.934601  1
  Si  Si10  1  0.750000  0.767821  0.428558  1
  Si  Si11  1  0.250000  0.228141  0.572483  1
  Si  Si12  1  0.750000  0.843870  0.823337  1
  Si  Si13  1  0.250000  0.162656  0.170855  1
  Si  Si14  1  0.750000  0.328793  0.684578  1
  Si  Si15  1  0.250000  0.661340  0.322909  1
