# generated using pymatgen
data_SmSi2PtAu
_symmetry_space_group_name_H-M   'P 1'
_cell_length_a   4.28803000
_cell_length_b   4.28803000
_cell_length_c   10.04659300
_cell_angle_alpha   90.00000000
_cell_angle_beta   90.00000000
_cell_angle_gamma   90.00000000
_symmetry_Int_Tables_number   1
_chemical_formula_structural   SmSi2PtAu
_chemical_formula_sum   'Sm2 Si4 Pt2 Au2'
_cell_volume   184.72872768
_cell_formula_units_Z   2
loop_
 _symmetry_equiv_pos_site_id
 _symmetry_equiv_pos_as_xyz
  1  'x, y, z'
loop_
 _atom_site_type_symbol
 _atom_site_label
 _atom_site_symmetry_multiplicity
 _atom_site_fract_x
 _atom_site_fract_y
 _atom_site_fract_z
 _atom_site_occupancy
  Sm  Sm0  1  0.000000  0.500000  0.743195  1
  Sm  Sm1  1  0.500000  0.000000  0.256805  1
  Si  Si2  1  0.000000  0.500000  0.145883  1
  Si  Si3  1  0.500000  0.500000  0.500000  1
  Si  Si4  1  0.500000  0.000000  0.854117  1
  Si  Si5  1  0.000000  0.000000  0.500000  1
  Pt  Pt6  1  0.500000  0.000000  0.616460  1
  Pt  Pt7  1  0.000000  0.500000  0.383540  1
  Au  Au8  1  0.000000  0.000000  0.000000  1
  Au  Au9  1  0.500000  0.500000  0.000000  1
