# generated using pymatgen
data_Zr10CuSn3Bi3Sb
_symmetry_space_group_name_H-M   'P 1'
_cell_length_a   8.84460700
_cell_length_b   8.84460781
_cell_length_c   5.96151100
_cell_angle_alpha   90.00000000
_cell_angle_beta   90.00000000
_cell_angle_gamma   120.00000069
_symmetry_Int_Tables_number   1
_chemical_formula_structural   Zr10CuSn3Bi3Sb
_chemical_formula_sum   'Zr10 Cu1 Sn3 Bi3 Sb1'
_cell_volume   403.87232902
_cell_formula_units_Z   1
loop_
 _symmetry_equiv_pos_site_id
 _symmetry_equiv_pos_as_xyz
  1  'x, y, z'
loop_
 _atom_site_type_symbol
 _atom_site_label
 _atom_site_symmetry_multiplicity
 _atom_site_fract_x
 _atom_site_fract_y
 _atom_site_fract_z
 _atom_site_occupancy
  Zr  Zr0  1  0.727522  0.000000  0.234105  1
  Zr  Zr1  1  0.000000  0.727522  0.234105  1
  Zr  Zr2  1  0.272478  0.272478  0.234105  1
  Zr  Zr3  1  0.269783  0.000000  0.766906  1
  Zr  Zr4  1  0.000000  0.269783  0.766906  1
  Zr  Zr5  1  0.730217  0.730217  0.766906  1
  Zr  Zr6  1  0.333333  0.666667  0.495322  1
  Zr  Zr7  1  0.666667  0.333333  0.495322  1
  Zr  Zr8  1  0.666667  0.333333  0.004209  1
  Zr  Zr9  1  0.333333  0.666667  0.004209  1
  Cu  Cu10  1  0.000000  0.000000  0.004274  1
  Sn  Sn11  1  0.385680  0.000000  0.252484  1
  Sn  Sn12  1  0.000000  0.385680  0.252484  1
  Sn  Sn13  1  0.614320  0.614320  0.252484  1
  Bi  Bi14  1  0.611267  0.000000  0.746207  1
  Bi  Bi15  1  0.000000  0.611267  0.746207  1
  Bi  Bi16  1  0.388733  0.388733  0.746207  1
  Sb  Sb17  1  0.000000  0.000000  0.497561  1
