# generated using pymatgen
data_Li3Ca3SmSi8Ag
_symmetry_space_group_name_H-M   'P 1'
_cell_length_a   3.82418600
_cell_length_b   7.83550907
_cell_length_c   10.52278725
_cell_angle_alpha   90.22262568
_cell_angle_beta   90.00000000
_cell_angle_gamma   90.00000000
_symmetry_Int_Tables_number   1
_chemical_formula_structural   Li3Ca3SmSi8Ag
_chemical_formula_sum   'Li3 Ca3 Sm1 Si8 Ag1'
_cell_volume   315.30708970
_cell_formula_units_Z   1
loop_
 _symmetry_equiv_pos_site_id
 _symmetry_equiv_pos_as_xyz
  1  'x, y, z'
loop_
 _atom_site_type_symbol
 _atom_site_label
 _atom_site_symmetry_multiplicity
 _atom_site_fract_x
 _atom_site_fract_y
 _atom_site_fract_z
 _atom_site_occupancy
  Li  Li0  1  0.750000  0.999681  0.609045  1
  Li  Li1  1  0.250000  0.498312  0.109631  1
  Li  Li2  1  0.750000  0.506850  0.888590  1
  Ca  Ca3  1  0.750000  0.866015  0.135470  1
  Ca  Ca4  1  0.250000  0.636259  0.635692  1
  Ca  Ca5  1  0.750000  0.363894  0.365613  1
  Sm  Sm6  1  0.250000  0.129082  0.865595  1
  Si  Si7  1  0.750000  0.269551  0.066391  1
  Si  Si8  1  0.250000  0.735988  0.931710  1
  Si  Si9  1  0.750000  0.762790  0.435258  1
  Si  Si10  1  0.250000  0.227461  0.570975  1
  Si  Si11  1  0.750000  0.838777  0.823058  1
  Si  Si12  1  0.250000  0.165505  0.172279  1
  Si  Si13  1  0.750000  0.328687  0.678872  1
  Si  Si14  1  0.250000  0.664589  0.323579  1
  Ag  Ag15  1  0.250000  0.006558  0.388242  1
