# generated using pymatgen
data_Nd6AlGaRh6
_symmetry_space_group_name_H-M   'P 1'
_cell_length_a   5.72275130
_cell_length_b   5.72275158
_cell_length_c   14.13547763
_cell_angle_alpha   90.23626576
_cell_angle_beta   89.76373458
_cell_angle_gamma   137.59624463
_symmetry_Int_Tables_number   1
_chemical_formula_structural   Nd6AlGaRh6
_chemical_formula_sum   'Nd6 Al1 Ga1 Rh6'
_cell_volume   312.17769920
_cell_formula_units_Z   1
loop_
 _symmetry_equiv_pos_site_id
 _symmetry_equiv_pos_as_xyz
  1  'x, y, z'
loop_
 _atom_site_type_symbol
 _atom_site_label
 _atom_site_symmetry_multiplicity
 _atom_site_fract_x
 _atom_site_fract_y
 _atom_site_fract_z
 _atom_site_occupancy
  Nd  Nd0  1  0.792241  0.207759  0.393284  1
  Nd  Nd1  1  0.207759  0.792241  0.606716  1
  Nd  Nd2  1  0.792197  0.207803  0.106361  1
  Nd  Nd3  1  0.207803  0.792197  0.893639  1
  Nd  Nd4  1  0.515583  0.484417  0.249787  1
  Nd  Nd5  1  0.484417  0.515583  0.750213  1
  Al  Al6  1  0.500000  0.500000  0.500000  1
  Ga  Ga7  1  0.500000  0.500000  0.000000  1
  Rh  Rh8  1  0.076071  0.923929  0.413050  1
  Rh  Rh9  1  0.923929  0.076071  0.586950  1
  Rh  Rh10  1  0.077241  0.922759  0.088144  1
  Rh  Rh11  1  0.922759  0.077241  0.911856  1
  Rh  Rh12  1  0.236850  0.763150  0.249978  1
  Rh  Rh13  1  0.763150  0.236850  0.750022  1
