# generated using pymatgen
data_V3As(SeO3)8
_symmetry_space_group_name_H-M   'P 1'
_cell_length_a   8.07110916
_cell_length_b   8.07110882
_cell_length_c   8.07110942
_cell_angle_alpha   89.25035644
_cell_angle_beta   90.74964395
_cell_angle_gamma   90.74964168
_symmetry_Int_Tables_number   1
_chemical_formula_structural   V3As(SeO3)8
_chemical_formula_sum   'V3 As1 Se8 O24'
_cell_volume   525.64083064
_cell_formula_units_Z   1
loop_
 _symmetry_equiv_pos_site_id
 _symmetry_equiv_pos_as_xyz
  1  'x, y, z'
loop_
 _atom_site_type_symbol
 _atom_site_label
 _atom_site_symmetry_multiplicity
 _atom_site_fract_x
 _atom_site_fract_y
 _atom_site_fract_z
 _atom_site_occupancy
  V  V0  1  0.500000  0.500000  0.500000  1
  V  V1  1  0.500000  0.000000  0.000000  1
  V  V2  1  0.000000  0.500000  0.000000  1
  As  As3  1  0.000000  0.000000  0.500000  1
  Se  Se4  1  0.838110  0.685299  0.318483  1
  Se  Se5  1  0.181517  0.161890  0.185299  1
  Se  Se6  1  0.672902  0.327098  0.827098  1
  Se  Se7  1  0.314701  0.818483  0.661890  1
  Se  Se8  1  0.161890  0.314701  0.681517  1
  Se  Se9  1  0.818483  0.838110  0.814701  1
  Se  Se10  1  0.327098  0.672902  0.172902  1
  Se  Se11  1  0.685299  0.181517  0.338110  1
  O  O12  1  0.736057  0.546468  0.443003  1
  O  O13  1  0.260965  0.017702  0.052869  1
  O  O14  1  0.765750  0.432934  0.990987  1
  O  O15  1  0.229680  0.977554  0.526713  1
  O  O16  1  0.447131  0.739035  0.517702  1
  O  O17  1  0.056997  0.263943  0.046468  1
  O  O18  1  0.973287  0.770320  0.477554  1
  O  O19  1  0.509013  0.234250  0.932934  1
  O  O20  1  0.567066  0.490987  0.734250  1
  O  O21  1  0.022446  0.026713  0.270320  1
  O  O22  1  0.453532  0.943003  0.763943  1
  O  O23  1  0.982298  0.552869  0.239035  1
  O  O24  1  0.263943  0.453532  0.556997  1
  O  O25  1  0.739035  0.982298  0.947131  1
  O  O26  1  0.234250  0.567066  0.009013  1
  O  O27  1  0.770320  0.022446  0.473287  1
  O  O28  1  0.552869  0.260965  0.482298  1
  O  O29  1  0.943003  0.736057  0.953532  1
  O  O30  1  0.026713  0.229680  0.522446  1
  O  O31  1  0.490987  0.765750  0.067066  1
  O  O32  1  0.432934  0.509013  0.265750  1
  O  O33  1  0.977554  0.973287  0.729680  1
  O  O34  1  0.546468  0.056997  0.236057  1
  O  O35  1  0.017702  0.447131  0.760965  1
