# generated using pymatgen
data_Yb2Si13GeIr6
_symmetry_space_group_name_H-M   'P 1'
_cell_length_a   8.03503454
_cell_length_b   8.04797054
_cell_length_c   8.02958961
_cell_angle_alpha   56.72414846
_cell_angle_beta   57.01343477
_cell_angle_gamma   57.00306386
_symmetry_Int_Tables_number   1
_chemical_formula_structural   Yb2Si13GeIr6
_chemical_formula_sum   'Yb2 Si13 Ge1 Ir6'
_cell_volume   341.01096735
_cell_formula_units_Z   1
loop_
 _symmetry_equiv_pos_site_id
 _symmetry_equiv_pos_as_xyz
  1  'x, y, z'
loop_
 _atom_site_type_symbol
 _atom_site_label
 _atom_site_symmetry_multiplicity
 _atom_site_fract_x
 _atom_site_fract_y
 _atom_site_fract_z
 _atom_site_occupancy
  Yb  Yb0  1  0.499426  0.499102  0.499919  1
  Yb  Yb1  1  0.000111  0.000191  0.999241  1
  Si  Si2  1  0.568370  0.351762  0.169793  1
  Si  Si3  1  0.171053  0.569802  0.348762  1
  Si  Si4  1  0.064950  0.673644  0.851355  1
  Si  Si5  1  0.850613  0.064936  0.673337  1
  Si  Si6  1  0.673926  0.849712  0.065005  1
  Si  Si7  1  0.651998  0.824355  0.432709  1
  Si  Si8  1  0.434517  0.648908  0.826098  1
  Si  Si9  1  0.825964  0.435367  0.650312  1
  Si  Si10  1  0.934034  0.327964  0.149708  1
  Si  Si11  1  0.150953  0.932353  0.326223  1
  Si  Si12  1  0.323164  0.152158  0.939548  1
  Si  Si13  1  0.249320  0.249146  0.248490  1
  Si  Si14  1  0.749196  0.751422  0.749913  1
  Ge  Ge15  1  0.350623  0.170219  0.572573  1
  Ir  Ir16  1  0.929488  0.570000  0.250103  1
  Ir  Ir17  1  0.249537  0.924888  0.570101  1
  Ir  Ir18  1  0.571954  0.249659  0.928276  1
  Ir  Ir19  1  0.756537  0.069042  0.425442  1
  Ir  Ir20  1  0.429004  0.751100  0.069475  1
  Ir  Ir21  1  0.065262  0.434269  0.753617  1
