# generated using pymatgen
data_LiSn15Pd8
_symmetry_space_group_name_H-M   'P 1'
_cell_length_a   6.57481774
_cell_length_b   6.57481841
_cell_length_c   13.10143960
_cell_angle_alpha   104.14624338
_cell_angle_beta   104.39841778
_cell_angle_gamma   91.00231845
_symmetry_Int_Tables_number   1
_chemical_formula_structural   LiSn15Pd8
_chemical_formula_sum   'Li1 Sn15 Pd8'
_cell_volume   530.07777963
_cell_formula_units_Z   1
loop_
 _symmetry_equiv_pos_site_id
 _symmetry_equiv_pos_as_xyz
  1  'x, y, z'
loop_
 _atom_site_type_symbol
 _atom_site_label
 _atom_site_symmetry_multiplicity
 _atom_site_fract_x
 _atom_site_fract_y
 _atom_site_fract_z
 _atom_site_occupancy
  Li  Li0  1  0.814416  0.314416  0.000000  1
  Sn  Sn1  1  0.340609  0.163341  0.999892  1
  Sn  Sn2  1  0.143514  0.643514  0.000000  1
  Sn  Sn3  1  0.663449  0.840716  0.000108  1
  Sn  Sn4  1  0.871904  0.366973  0.239020  1
  Sn  Sn5  1  0.376554  0.383150  0.251829  1
  Sn  Sn6  1  0.877424  0.872094  0.251438  1
  Sn  Sn7  1  0.378752  0.881592  0.249271  1
  Sn  Sn8  1  0.090286  0.090286  0.500000  1
  Sn  Sn9  1  0.412387  0.412387  0.500000  1
  Sn  Sn10  1  0.909527  0.589935  0.497639  1
  Sn  Sn11  1  0.592296  0.911888  0.502361  1
  Sn  Sn12  1  0.120655  0.125985  0.748562  1
  Sn  Sn13  1  0.627953  0.132883  0.760980  1
  Sn  Sn14  1  0.132321  0.629481  0.750729  1
  Sn  Sn15  1  0.631321  0.624725  0.748171  1
  Pd  Pd16  1  0.066190  0.056433  0.118293  1
  Pd  Pd17  1  0.556297  0.564979  0.118601  1
  Pd  Pd18  1  0.694264  0.194033  0.378609  1
  Pd  Pd19  1  0.190984  0.691093  0.382136  1
  Pd  Pd20  1  0.808957  0.308848  0.617864  1
  Pd  Pd21  1  0.315424  0.815655  0.621391  1
  Pd  Pd22  1  0.438139  0.447897  0.881707  1
  Pd  Pd23  1  0.946378  0.937695  0.881399  1
