# generated using pymatgen
data_Dy10Co4RhAu
_symmetry_space_group_name_H-M   'P 1'
_cell_length_a   8.66317756
_cell_length_b   8.66317840
_cell_length_c   8.66317784
_cell_angle_alpha   130.50553223
_cell_angle_beta   130.50552880
_cell_angle_gamma   72.59987085
_symmetry_Int_Tables_number   1
_chemical_formula_structural   Dy10Co4RhAu
_chemical_formula_sum   'Dy10 Co4 Rh1 Au1'
_cell_volume   367.29913565
_cell_formula_units_Z   1
loop_
 _symmetry_equiv_pos_site_id
 _symmetry_equiv_pos_as_xyz
  1  'x, y, z'
loop_
 _atom_site_type_symbol
 _atom_site_label
 _atom_site_symmetry_multiplicity
 _atom_site_fract_x
 _atom_site_fract_y
 _atom_site_fract_z
 _atom_site_occupancy
  Dy  Dy0  1  0.988562  0.988562  0.000000  1
  Dy  Dy1  1  0.511438  0.511438  0.000000  1
  Dy  Dy2  1  0.822590  0.302629  0.847585  1
  Dy  Dy3  1  0.197371  0.677410  0.152416  1
  Dy  Dy4  1  0.455045  0.975006  0.152416  1
  Dy  Dy5  1  0.302629  0.455045  0.480039  1
  Dy  Dy6  1  0.044955  0.197371  0.519961  1
  Dy  Dy7  1  0.524994  0.044955  0.847584  1
  Dy  Dy8  1  0.677410  0.524994  0.480039  1
  Dy  Dy9  1  0.975006  0.822590  0.519961  1
  Co  Co10  1  0.113429  0.613429  0.726859  1
  Co  Co11  1  0.886571  0.386571  0.273141  1
  Co  Co12  1  0.613429  0.886571  0.500000  1
  Co  Co13  1  0.386571  0.113429  0.500000  1
  Rh  Rh14  1  0.250000  0.250000  0.000000  1
  Au  Au15  1  0.750000  0.750000  0.000000  1
