# generated using pymatgen
data_Sr2Y2PtRh3O14
_symmetry_space_group_name_H-M   'P 1'
_cell_length_a   7.34232365
_cell_length_b   7.37664391
_cell_length_c   7.35788286
_cell_angle_alpha   59.81081837
_cell_angle_beta   60.06991610
_cell_angle_gamma   60.15378623
_symmetry_Int_Tables_number   1
_chemical_formula_structural   Sr2Y2PtRh3O14
_chemical_formula_sum   'Sr2 Y2 Pt1 Rh3 O14'
_cell_volume   281.86104238
_cell_formula_units_Z   1
loop_
 _symmetry_equiv_pos_site_id
 _symmetry_equiv_pos_as_xyz
  1  'x, y, z'
loop_
 _atom_site_type_symbol
 _atom_site_label
 _atom_site_symmetry_multiplicity
 _atom_site_fract_x
 _atom_site_fract_y
 _atom_site_fract_z
 _atom_site_occupancy
  Sr  Sr0  1  0.125000  0.625000  0.125000  1
  Sr  Sr1  1  0.125000  0.125000  0.625000  1
  Y  Y2  1  0.625000  0.125000  0.125000  1
  Y  Y3  1  0.125000  0.125000  0.125000  1
  Pt  Pt4  1  0.625000  0.625000  0.125000  1
  Rh  Rh5  1  0.625000  0.625000  0.625000  1
  Rh  Rh6  1  0.125000  0.625000  0.625000  1
  Rh  Rh7  1  0.625000  0.125000  0.625000  1
  O  O8  1  0.303750  0.697625  0.694874  1
  O  O9  1  0.543990  0.956397  0.955622  1
  O  O10  1  0.691251  0.717834  0.295118  1
  O  O11  1  0.299830  0.297572  0.712602  1
  O  O12  1  0.984397  0.015425  0.015781  1
  O  O13  1  0.295797  0.717834  0.295118  1
  O  O14  1  0.689996  0.297572  0.712602  1
  O  O15  1  0.954203  0.532166  0.954882  1
  O  O16  1  0.558749  0.532166  0.954882  1
  O  O17  1  0.950170  0.952428  0.537398  1
  O  O18  1  0.265603  0.234575  0.234219  1
  O  O19  1  0.560004  0.952428  0.537398  1
  O  O20  1  0.706010  0.293603  0.294378  1
  O  O21  1  0.946250  0.552375  0.555126  1
