# generated using pymatgen
data_HoAs3Rh5
_symmetry_space_group_name_H-M   'P 1'
_cell_length_a   4.00370900
_cell_length_b   12.87659700
_cell_length_c   11.34607700
_cell_angle_alpha   90.00000000
_cell_angle_beta   90.00000000
_cell_angle_gamma   90.00000000
_symmetry_Int_Tables_number   1
_chemical_formula_structural   HoAs3Rh5
_chemical_formula_sum   'Ho4 As12 Rh20'
_cell_volume   584.93732492
_cell_formula_units_Z   4
loop_
 _symmetry_equiv_pos_site_id
 _symmetry_equiv_pos_as_xyz
  1  'x, y, z'
loop_
 _atom_site_type_symbol
 _atom_site_label
 _atom_site_symmetry_multiplicity
 _atom_site_fract_x
 _atom_site_fract_y
 _atom_site_fract_z
 _atom_site_occupancy
  Ho  Ho0  1  0.750000  0.701382  0.080777  1
  Ho  Ho1  1  0.250000  0.298618  0.919223  1
  Ho  Ho2  1  0.250000  0.798618  0.580777  1
  Ho  Ho3  1  0.750000  0.201382  0.419223  1
  As  As4  1  0.750000  0.614726  0.583072  1
  As  As5  1  0.250000  0.385274  0.416928  1
  As  As6  1  0.250000  0.885274  0.083072  1
  As  As7  1  0.750000  0.114726  0.916928  1
  As  As8  1  0.750000  0.889159  0.400294  1
  As  As9  1  0.250000  0.110841  0.599706  1
  As  As10  1  0.250000  0.610841  0.900294  1
  As  As11  1  0.750000  0.389159  0.099706  1
  As  As12  1  0.750000  0.869597  0.766444  1
  As  As13  1  0.250000  0.130403  0.233556  1
  As  As14  1  0.250000  0.630403  0.266444  1
  As  As15  1  0.750000  0.369597  0.733556  1
  Rh  Rh16  1  0.750000  0.701064  0.384844  1
  Rh  Rh17  1  0.250000  0.298936  0.615156  1
  Rh  Rh18  1  0.250000  0.798936  0.884844  1
  Rh  Rh19  1  0.750000  0.201064  0.115156  1
  Rh  Rh20  1  0.750000  0.994825  0.222429  1
  Rh  Rh21  1  0.250000  0.005175  0.777571  1
  Rh  Rh22  1  0.250000  0.505175  0.722429  1
  Rh  Rh23  1  0.750000  0.494825  0.277571  1
  Rh  Rh24  1  0.750000  0.676541  0.780015  1
  Rh  Rh25  1  0.250000  0.323459  0.219985  1
  Rh  Rh26  1  0.250000  0.823459  0.280015  1
  Rh  Rh27  1  0.750000  0.176541  0.719985  1
  Rh  Rh28  1  0.750000  0.928586  0.968198  1
  Rh  Rh29  1  0.250000  0.071414  0.031802  1
  Rh  Rh30  1  0.250000  0.571414  0.468198  1
  Rh  Rh31  1  0.750000  0.428586  0.531802  1
  Rh  Rh32  1  0.750000  0.978995  0.590185  1
  Rh  Rh33  1  0.250000  0.021005  0.409815  1
  Rh  Rh34  1  0.250000  0.521005  0.090185  1
  Rh  Rh35  1  0.750000  0.478994  0.909815  1
