# generated using pymatgen
data_Th2ZnHg(TeO6)2
_symmetry_space_group_name_H-M   'P 1'
_cell_length_a   5.30689500
_cell_length_b   5.30231500
_cell_length_c   9.24974900
_cell_angle_alpha   90.00000000
_cell_angle_beta   90.00000000
_cell_angle_gamma   89.99519350
_symmetry_Int_Tables_number   1
_chemical_formula_structural   Th2ZnHg(TeO6)2
_chemical_formula_sum   'Th2 Zn1 Hg1 Te2 O12'
_cell_volume   260.27710459
_cell_formula_units_Z   1
loop_
 _symmetry_equiv_pos_site_id
 _symmetry_equiv_pos_as_xyz
  1  'x, y, z'
loop_
 _atom_site_type_symbol
 _atom_site_label
 _atom_site_symmetry_multiplicity
 _atom_site_fract_x
 _atom_site_fract_y
 _atom_site_fract_z
 _atom_site_occupancy
  Th  Th0  1  0.500000  0.000000  0.126766  1
  Th  Th1  1  0.000000  0.499999  0.873723  1
  Zn  Zn2  1  0.000000  0.000000  0.503048  1
  Hg  Hg3  1  0.500000  0.499999  0.498414  1
  Te  Te4  1  0.000000  0.499999  0.253948  1
  Te  Te5  1  0.500000  0.000000  0.746205  1
  O  O6  1  0.837185  0.310491  0.091450  1
  O  O7  1  0.162815  0.689507  0.091450  1
  O  O8  1  0.281893  0.273058  0.256608  1
  O  O9  1  0.718108  0.726942  0.256608  1
  O  O10  1  0.829798  0.277460  0.389768  1
  O  O11  1  0.170203  0.722540  0.389768  1
  O  O12  1  0.280664  0.174589  0.610369  1
  O  O13  1  0.719335  0.825412  0.610369  1
  O  O14  1  0.734539  0.275378  0.742256  1
  O  O15  1  0.265462  0.724622  0.742256  1
  O  O16  1  0.316289  0.168796  0.908496  1
  O  O17  1  0.683712  0.831204  0.908496  1
