# generated using pymatgen
data_TbLu5Al19Si5Os8
_symmetry_space_group_name_H-M   'P 1'
_cell_length_a   8.66623324
_cell_length_b   8.65083919
_cell_length_c   9.54289200
_cell_angle_alpha   90.00000000
_cell_angle_beta   90.00000000
_cell_angle_gamma   120.00097380
_symmetry_Int_Tables_number   1
_chemical_formula_structural   TbLu5Al19Si5Os8
_chemical_formula_sum   'Tb1 Lu5 Al19 Si5 Os8'
_cell_volume   619.57657731
_cell_formula_units_Z   1
loop_
 _symmetry_equiv_pos_site_id
 _symmetry_equiv_pos_as_xyz
  1  'x, y, z'
loop_
 _atom_site_type_symbol
 _atom_site_label
 _atom_site_symmetry_multiplicity
 _atom_site_fract_x
 _atom_site_fract_y
 _atom_site_fract_z
 _atom_site_occupancy
  Tb  Tb0  1  0.803672  0.192292  0.750000  1
  Lu  Lu1  1  0.196199  0.393327  0.250000  1
  Lu  Lu2  1  0.802747  0.605846  0.750000  1
  Lu  Lu3  1  0.606053  0.803114  0.250000  1
  Lu  Lu4  1  0.396254  0.195922  0.750000  1
  Lu  Lu5  1  0.196061  0.803225  0.250000  1
  Al  Al6  1  0.165937  0.330644  0.578184  1
  Al  Al7  1  0.835379  0.671423  0.420749  1
  Al  Al8  1  0.670751  0.833939  0.577984  1
  Al  Al9  1  0.835379  0.671423  0.079251  1
  Al  Al10  1  0.329174  0.164499  0.421844  1
  Al  Al11  1  0.165937  0.330644  0.921816  1
  Al  Al12  1  0.163384  0.834912  0.578353  1
  Al  Al13  1  0.329174  0.164499  0.078156  1
  Al  Al14  1  0.834561  0.164492  0.420667  1
  Al  Al15  1  0.670751  0.833939  0.922016  1
  Al  Al16  1  0.834561  0.164492  0.079333  1
  Al  Al17  1  0.163384  0.834912  0.921647  1
  Al  Al18  1  0.561917  0.125153  0.250000  1
  Al  Al19  1  0.872847  0.436560  0.250000  1
  Al  Al20  1  0.127239  0.567082  0.750000  1
  Al  Al21  1  0.562517  0.436386  0.250000  1
  Al  Al22  1  0.439770  0.565782  0.750000  1
  Al  Al23  1  0.999464  0.999806  0.250000  1
  Al  Al24  1  0.002936  0.997216  0.750000  1
  Si  Si25  1  0.332546  0.665840  0.040565  1
  Si  Si26  1  0.667159  0.335038  0.962231  1
  Si  Si27  1  0.667159  0.335038  0.537769  1
  Si  Si28  1  0.332546  0.665840  0.459435  1
  Si  Si29  1  0.435371  0.872637  0.750000  1
  Os  Os30  1  0.498293  0.998140  0.994641  1
  Os  Os31  1  0.001492  0.501843  0.000376  1
  Os  Os32  1  0.498293  0.998140  0.505359  1
  Os  Os33  1  0.499774  0.501113  0.999678  1
  Os  Os34  1  0.001492  0.501843  0.499624  1
  Os  Os35  1  0.499774  0.501113  0.500322  1
  Os  Os36  1  0.000025  0.000944  0.000057  1
  Os  Os37  1  0.000025  0.000944  0.499943  1
