# generated using pymatgen
data_LiLa6Pt4Rh13
_symmetry_space_group_name_H-M   'P 1'
_cell_length_a   5.41038579
_cell_length_b   5.42846721
_cell_length_c   17.67505510
_cell_angle_alpha   89.98322465
_cell_angle_beta   90.08927950
_cell_angle_gamma   120.06224187
_symmetry_Int_Tables_number   1
_chemical_formula_structural   LiLa6Pt4Rh13
_chemical_formula_sum   'Li1 La6 Pt4 Rh13'
_cell_volume   449.28667352
_cell_formula_units_Z   1
loop_
 _symmetry_equiv_pos_site_id
 _symmetry_equiv_pos_as_xyz
  1  'x, y, z'
loop_
 _atom_site_type_symbol
 _atom_site_label
 _atom_site_symmetry_multiplicity
 _atom_site_fract_x
 _atom_site_fract_y
 _atom_site_fract_z
 _atom_site_occupancy
  Li  Li0  1  0.000489  0.999355  0.250598  1
  La  La1  1  0.334258  0.668108  0.538880  1
  La  La2  1  0.667310  0.332612  0.041085  1
  La  La3  1  0.666403  0.333516  0.456384  1
  La  La4  1  0.332619  0.667018  0.958222  1
  La  La5  1  0.333466  0.666703  0.749078  1
  La  La6  1  0.666289  0.334652  0.252464  1
  Pt  Pt7  1  0.166909  0.332014  0.127054  1
  Pt  Pt8  1  0.831447  0.662667  0.625868  1
  Pt  Pt9  1  0.667767  0.832953  0.127080  1
  Pt  Pt10  1  0.331281  0.668118  0.251733  1
  Rh  Rh11  1  0.167345  0.831843  0.125327  1
  Rh  Rh12  1  0.832669  0.165206  0.626216  1
  Rh  Rh13  1  0.332276  0.165353  0.626157  1
  Rh  Rh14  1  0.833136  0.666158  0.873259  1
  Rh  Rh15  1  0.831926  0.166424  0.873357  1
  Rh  Rh16  1  0.334645  0.166846  0.873756  1
  Rh  Rh17  1  0.665526  0.832411  0.374275  1
  Rh  Rh18  1  0.165777  0.831805  0.374033  1
  Rh  Rh19  1  0.166853  0.334711  0.374883  1
  Rh  Rh20  1  0.004525  0.012124  0.750892  1
  Rh  Rh21  1  0.663659  0.325996  0.751166  1
  Rh  Rh22  1  0.001098  0.998578  0.000666  1
  Rh  Rh23  1  0.002331  0.004825  0.497567  1
