# generated using pymatgen
data_Tb2Tm4TcIr
_symmetry_space_group_name_H-M   'P 1'
_cell_length_a   6.29497600
_cell_length_b   7.33274300
_cell_length_c   9.04037800
_cell_angle_alpha   90.00000000
_cell_angle_beta   90.00000000
_cell_angle_gamma   90.00000000
_symmetry_Int_Tables_number   1
_chemical_formula_structural   Tb2Tm4TcIr
_chemical_formula_sum   'Tb4 Tm8 Tc2 Ir2'
_cell_volume   417.29879671
_cell_formula_units_Z   2
loop_
 _symmetry_equiv_pos_site_id
 _symmetry_equiv_pos_as_xyz
  1  'x, y, z'
loop_
 _atom_site_type_symbol
 _atom_site_label
 _atom_site_symmetry_multiplicity
 _atom_site_fract_x
 _atom_site_fract_y
 _atom_site_fract_z
 _atom_site_occupancy
  Tb  Tb0  1  0.875257  0.538161  0.250000  1
  Tb  Tb1  1  0.624743  0.038161  0.250000  1
  Tb  Tb2  1  0.133433  0.460644  0.750000  1
  Tb  Tb3  1  0.366567  0.960644  0.750000  1
  Tm  Tm4  1  0.332054  0.676539  0.065929  1
  Tm  Tm5  1  0.167946  0.176539  0.434071  1
  Tm  Tm6  1  0.665645  0.323825  0.561466  1
  Tm  Tm7  1  0.834355  0.823825  0.938534  1
  Tm  Tm8  1  0.665645  0.323825  0.938534  1
  Tm  Tm9  1  0.834355  0.823825  0.561466  1
  Tm  Tm10  1  0.332054  0.676539  0.434071  1
  Tm  Tm11  1  0.167946  0.176539  0.065929  1
  Tc  Tc12  1  0.038095  0.885167  0.250000  1
  Tc  Tc13  1  0.461905  0.385167  0.250000  1
  Ir  Ir14  1  0.950757  0.115298  0.750000  1
  Ir  Ir15  1  0.549243  0.615298  0.750000  1
