# generated using pymatgen
data_Na4DyCr3(P3Ir4)4
_symmetry_space_group_name_H-M   'P 1'
_cell_length_a   12.61238300
_cell_length_b   12.61238268
_cell_length_c   3.95934100
_cell_angle_alpha   90.00000000
_cell_angle_beta   90.00000000
_cell_angle_gamma   119.99999822
_symmetry_Int_Tables_number   1
_chemical_formula_structural   Na4DyCr3(P3Ir4)4
_chemical_formula_sum   'Na4 Dy1 Cr3 P12 Ir16'
_cell_volume   545.44107101
_cell_formula_units_Z   1
loop_
 _symmetry_equiv_pos_site_id
 _symmetry_equiv_pos_as_xyz
  1  'x, y, z'
loop_
 _atom_site_type_symbol
 _atom_site_label
 _atom_site_symmetry_multiplicity
 _atom_site_fract_x
 _atom_site_fract_y
 _atom_site_fract_z
 _atom_site_occupancy
  Na  Na0  1  0.333333  0.666667  0.500000  1
  Na  Na1  1  0.999478  0.816470  0.000000  1
  Na  Na2  1  0.183530  0.183008  0.000000  1
  Na  Na3  1  0.816992  0.000522  0.000000  1
  Dy  Dy4  1  0.666667  0.333333  0.500000  1
  Cr  Cr5  1  0.998007  0.452966  0.500000  1
  Cr  Cr6  1  0.547034  0.545041  0.500000  1
  Cr  Cr7  1  0.454959  0.001993  0.500000  1
  P  P8  1  0.002272  0.636157  0.500000  1
  P  P9  1  0.363843  0.366114  0.500000  1
  P  P10  1  0.633886  0.997728  0.500000  1
  P  P11  1  0.515079  0.686634  0.000000  1
  P  P12  1  0.313366  0.828444  0.000000  1
  P  P13  1  0.171556  0.484921  0.000000  1
  P  P14  1  0.479358  0.168621  0.000000  1
  P  P15  1  0.689262  0.520642  0.000000  1
  P  P16  1  0.831379  0.310738  0.000000  1
  P  P17  1  0.001538  0.179712  0.500000  1
  P  P18  1  0.820288  0.821825  0.500000  1
  P  P19  1  0.178175  0.998462  0.500000  1
  Ir  Ir20  1  0.511904  0.873501  0.000000  1
  Ir  Ir21  1  0.126499  0.638404  0.000000  1
  Ir  Ir22  1  0.361596  0.488096  0.000000  1
  Ir  Ir23  1  0.495357  0.362879  0.000000  1
  Ir  Ir24  1  0.867523  0.504643  0.000000  1
  Ir  Ir25  1  0.637121  0.132477  0.000000  1
  Ir  Ir26  1  0.001039  0.285469  0.000000  1
  Ir  Ir27  1  0.714531  0.715570  0.000000  1
  Ir  Ir28  1  0.284430  0.998961  0.000000  1
  Ir  Ir29  1  0.620837  0.801049  0.500000  1
  Ir  Ir30  1  0.198951  0.819788  0.500000  1
  Ir  Ir31  1  0.180212  0.379163  0.500000  1
  Ir  Ir32  1  0.376477  0.181638  0.500000  1
  Ir  Ir33  1  0.805161  0.623523  0.500000  1
  Ir  Ir34  1  0.818362  0.194839  0.500000  1
  Ir  Ir35  1  0.000000  0.000000  0.500000  1
