# generated using pymatgen
data_NdTeRhO6
_symmetry_space_group_name_H-M   'P 1'
_cell_length_a   5.30338500
_cell_length_b   5.30342872
_cell_length_c   10.15975300
_cell_angle_alpha   90.00015476
_cell_angle_beta   89.99992783
_cell_angle_gamma   120.00051856
_symmetry_Int_Tables_number   1
_chemical_formula_structural   NdTeRhO6
_chemical_formula_sum   'Nd2 Te2 Rh2 O12'
_cell_volume   247.46934239
_cell_formula_units_Z   2
loop_
 _symmetry_equiv_pos_site_id
 _symmetry_equiv_pos_as_xyz
  1  'x, y, z'
loop_
 _atom_site_type_symbol
 _atom_site_label
 _atom_site_symmetry_multiplicity
 _atom_site_fract_x
 _atom_site_fract_y
 _atom_site_fract_z
 _atom_site_occupancy
  Nd  Nd0  1  0.000001  0.000000  0.000000  1
  Nd  Nd1  1  0.999998  0.000000  0.500000  1
  Te  Te2  1  0.666669  0.333336  0.249999  1
  Te  Te3  1  0.333334  0.666667  0.750003  1
  Rh  Rh4  1  0.333340  0.666667  0.249997  1
  Rh  Rh5  1  0.666661  0.333329  0.750002  1
  O  O6  1  0.643090  0.631350  0.142204  1
  O  O7  1  0.988270  0.356916  0.142204  1
  O  O8  1  0.368651  0.011734  0.142206  1
  O  O9  1  0.368650  0.356923  0.357793  1
  O  O10  1  0.988275  0.631357  0.357792  1
  O  O11  1  0.643086  0.011736  0.357795  1
  O  O12  1  0.356912  0.988267  0.642206  1
  O  O13  1  0.011723  0.368641  0.642207  1
  O  O14  1  0.631350  0.643078  0.642208  1
  O  O15  1  0.631347  0.988267  0.857794  1
  O  O16  1  0.011729  0.643083  0.857794  1
  O  O17  1  0.356912  0.368651  0.857794  1
