# generated using pymatgen
data_Pu4Mn3FeB16
_symmetry_space_group_name_H-M   'P 1'
_cell_length_a   3.37249000
_cell_length_b   5.92574737
_cell_length_c   11.47744051
_cell_angle_alpha   89.99666969
_cell_angle_beta   90.00000000
_cell_angle_gamma   90.00000000
_symmetry_Int_Tables_number   1
_chemical_formula_structural   Pu4Mn3FeB16
_chemical_formula_sum   'Pu4 Mn3 Fe1 B16'
_cell_volume   229.37118213
_cell_formula_units_Z   1
loop_
 _symmetry_equiv_pos_site_id
 _symmetry_equiv_pos_as_xyz
  1  'x, y, z'
loop_
 _atom_site_type_symbol
 _atom_site_label
 _atom_site_symmetry_multiplicity
 _atom_site_fract_x
 _atom_site_fract_y
 _atom_site_fract_z
 _atom_site_occupancy
  Pu  Pu0  1  0.000000  0.125613  0.650208  1
  Pu  Pu1  1  0.000000  0.874334  0.349427  1
  Pu  Pu2  1  0.000000  0.625291  0.849316  1
  Pu  Pu3  1  0.000000  0.374628  0.151123  1
  Mn  Mn4  1  0.000000  0.130385  0.913162  1
  Mn  Mn5  1  0.000000  0.869777  0.087156  1
  Mn  Mn6  1  0.000000  0.630465  0.586767  1
  Fe  Fe7  1  0.000000  0.368814  0.412394  1
  B  B8  1  0.500000  0.361632  0.967130  1
  B  B9  1  0.500000  0.638199  0.032836  1
  B  B10  1  0.500000  0.861513  0.532646  1
  B  B11  1  0.500000  0.138560  0.467088  1
  B  B12  1  0.500000  0.474622  0.690337  1
  B  B13  1  0.500000  0.524897  0.309637  1
  B  B14  1  0.500000  0.974613  0.809687  1
  B  B15  1  0.500000  0.025585  0.190590  1
  B  B16  1  0.500000  0.280807  0.815561  1
  B  B17  1  0.500000  0.719137  0.184460  1
  B  B18  1  0.500000  0.780978  0.684524  1
  B  B19  1  0.500000  0.220066  0.316005  1
  B  B20  1  0.500000  0.387425  0.546102  1
  B  B21  1  0.500000  0.612367  0.453841  1
  B  B22  1  0.500000  0.887441  0.953979  1
  B  B23  1  0.500000  0.112852  0.046026  1
