# generated using pymatgen
data_Cd3Bi(Ir2O7)2
_symmetry_space_group_name_H-M   'P 1'
_cell_length_a   7.24906623
_cell_length_b   7.30838348
_cell_length_c   7.24906600
_cell_angle_alpha   60.26811681
_cell_angle_beta   59.99999193
_cell_angle_gamma   60.26811947
_symmetry_Int_Tables_number   1
_chemical_formula_structural   Cd3Bi(Ir2O7)2
_chemical_formula_sum   'Cd3 Bi1 Ir4 O14'
_cell_volume   272.65823018
_cell_formula_units_Z   1
loop_
 _symmetry_equiv_pos_site_id
 _symmetry_equiv_pos_as_xyz
  1  'x, y, z'
loop_
 _atom_site_type_symbol
 _atom_site_label
 _atom_site_symmetry_multiplicity
 _atom_site_fract_x
 _atom_site_fract_y
 _atom_site_fract_z
 _atom_site_occupancy
  Cd  Cd0  1  0.625000  0.125000  0.125000  1
  Cd  Cd1  1  0.125000  0.125000  0.625000  1
  Cd  Cd2  1  0.125000  0.125000  0.125000  1
  Bi  Bi3  1  0.125000  0.625000  0.125000  1
  Ir  Ir4  1  0.125000  0.625000  0.625000  1
  Ir  Ir5  1  0.625000  0.125000  0.625000  1
  Ir  Ir6  1  0.625000  0.625000  0.125000  1
  Ir  Ir7  1  0.625000  0.625000  0.625000  1
  O  O8  1  0.711252  0.697676  0.295536  1
  O  O9  1  0.300999  0.303831  0.697585  1
  O  O10  1  0.697585  0.303831  0.697585  1
  O  O11  1  0.295536  0.697676  0.295536  1
  O  O12  1  0.295536  0.697676  0.711252  1
  O  O13  1  0.697585  0.303831  0.300999  1
  O  O14  1  0.538748  0.552324  0.954464  1
  O  O15  1  0.949001  0.946169  0.552415  1
  O  O16  1  0.552415  0.946169  0.552415  1
  O  O17  1  0.954464  0.552324  0.954464  1
  O  O18  1  0.954464  0.552324  0.538748  1
  O  O19  1  0.552415  0.946169  0.949001  1
  O  O20  1  0.251976  0.244072  0.251976  1
  O  O21  1  0.998024  0.005928  0.998024  1
