# generated using pymatgen
data_Sr5Ca(Sn4Sb)2
_symmetry_space_group_name_H-M   'P 1'
_cell_length_a   8.94540728
_cell_length_b   8.94540652
_cell_length_c   8.94540669
_cell_angle_alpha   119.93274821
_cell_angle_beta   119.93274353
_cell_angle_gamma   90.11652740
_symmetry_Int_Tables_number   1
_chemical_formula_structural   Sr5Ca(Sn4Sb)2
_chemical_formula_sum   'Sr5 Ca1 Sn8 Sb2'
_cell_volume   506.67044739
_cell_formula_units_Z   1
loop_
 _symmetry_equiv_pos_site_id
 _symmetry_equiv_pos_as_xyz
  1  'x, y, z'
loop_
 _atom_site_type_symbol
 _atom_site_label
 _atom_site_symmetry_multiplicity
 _atom_site_fract_x
 _atom_site_fract_y
 _atom_site_fract_z
 _atom_site_occupancy
  Sr  Sr0  1  0.750000  0.750000  0.000000  1
  Sr  Sr1  1  0.161816  0.661816  0.823633  1
  Sr  Sr2  1  0.838184  0.338184  0.176367  1
  Sr  Sr3  1  0.661816  0.838184  0.500000  1
  Sr  Sr4  1  0.338184  0.161816  0.500000  1
  Ca  Ca5  1  0.250000  0.250000  0.000000  1
  Sn  Sn6  1  0.834148  0.330097  0.788404  1
  Sn  Sn7  1  0.169903  0.665852  0.211596  1
  Sn  Sn8  1  0.541695  0.045744  0.211596  1
  Sn  Sn9  1  0.330097  0.541695  0.495950  1
  Sn  Sn10  1  0.958305  0.169903  0.504050  1
  Sn  Sn11  1  0.454256  0.958305  0.788404  1
  Sn  Sn12  1  0.665852  0.454256  0.495950  1
  Sn  Sn13  1  0.045744  0.834148  0.504050  1
  Sb  Sb14  1  0.006100  0.006100  0.000000  1
  Sb  Sb15  1  0.493900  0.493900  0.000000  1
