# generated using pymatgen
data_Sr5ReTcN7
_symmetry_space_group_name_H-M   'P 1'
_cell_length_a   6.44940875
_cell_length_b   9.26137060
_cell_length_c   9.36448491
_cell_angle_alpha   114.62776707
_cell_angle_beta   98.49780159
_cell_angle_gamma   90.14807703
_symmetry_Int_Tables_number   1
_chemical_formula_structural   Sr5ReTcN7
_chemical_formula_sum   'Sr10 Re2 Tc2 N14'
_cell_volume   501.59847667
_cell_formula_units_Z   2
loop_
 _symmetry_equiv_pos_site_id
 _symmetry_equiv_pos_as_xyz
  1  'x, y, z'
loop_
 _atom_site_type_symbol
 _atom_site_label
 _atom_site_symmetry_multiplicity
 _atom_site_fract_x
 _atom_site_fract_y
 _atom_site_fract_z
 _atom_site_occupancy
  Sr  Sr0  1  0.854128  0.595854  0.333020  1
  Sr  Sr1  1  0.268350  0.981352  0.562406  1
  Sr  Sr2  1  0.697670  0.409768  0.849514  1
  Sr  Sr3  1  0.302330  0.590232  0.150486  1
  Sr  Sr4  1  0.398647  0.790188  0.907961  1
  Sr  Sr5  1  0.601353  0.209812  0.092039  1
  Sr  Sr6  1  0.145872  0.404146  0.666980  1
  Sr  Sr7  1  0.880058  0.843858  0.754264  1
  Sr  Sr8  1  0.119942  0.156142  0.245736  1
  Sr  Sr9  1  0.731650  0.018648  0.437594  1
  Re  Re10  1  0.120600  0.219138  0.916665  1
  Re  Re11  1  0.879400  0.780862  0.083335  1
  Tc  Tc12  1  0.582261  0.362573  0.477675  1
  Tc  Tc13  1  0.417739  0.637427  0.522325  1
  N  N14  1  0.538838  0.554246  0.674782  1
  N  N15  1  0.461162  0.445754  0.325218  1
  N  N16  1  0.159567  0.713444  0.577167  1
  N  N17  1  0.840433  0.286556  0.422833  1
  N  N18  1  0.418426  0.199973  0.490456  1
  N  N19  1  0.581574  0.800027  0.509544  1
  N  N20  1  0.954438  0.144506  0.717192  1
  N  N21  1  0.045562  0.855494  0.282808  1
  N  N22  1  0.223910  0.052824  0.960837  1
  N  N23  1  0.776090  0.947176  0.039163  1
  N  N24  1  0.353695  0.331905  0.910139  1
  N  N25  1  0.973319  0.347825  0.074213  1
  N  N26  1  0.026681  0.652175  0.925787  1
  N  N27  1  0.646305  0.668095  0.089861  1
