# generated using pymatgen
data_Tm10Si5Sn
_symmetry_space_group_name_H-M   'P 1'
_cell_length_a   8.40794755
_cell_length_b   8.40794681
_cell_length_c   6.27261800
_cell_angle_alpha   90.00000000
_cell_angle_beta   90.00000000
_cell_angle_gamma   120.18156359
_symmetry_Int_Tables_number   1
_chemical_formula_structural   Tm10Si5Sn
_chemical_formula_sum   'Tm10 Si5 Sn1'
_cell_volume   383.32041066
_cell_formula_units_Z   1
loop_
 _symmetry_equiv_pos_site_id
 _symmetry_equiv_pos_as_xyz
  1  'x, y, z'
loop_
 _atom_site_type_symbol
 _atom_site_label
 _atom_site_symmetry_multiplicity
 _atom_site_fract_x
 _atom_site_fract_y
 _atom_site_fract_z
 _atom_site_occupancy
  Tm  Tm0  1  0.673603  0.331662  0.502994  1
  Tm  Tm1  1  0.331662  0.673603  0.502994  1
  Tm  Tm2  1  0.331662  0.673603  0.997006  1
  Tm  Tm3  1  0.673603  0.331662  0.997006  1
  Tm  Tm4  1  0.765620  0.765620  0.250000  1
  Tm  Tm5  1  0.240003  0.989327  0.250000  1
  Tm  Tm6  1  0.989327  0.240003  0.250000  1
  Tm  Tm7  1  0.240580  0.240580  0.750000  1
  Tm  Tm8  1  0.756657  0.998891  0.750000  1
  Tm  Tm9  1  0.998891  0.756657  0.750000  1
  Si  Si10  1  0.604268  0.998687  0.250000  1
  Si  Si11  1  0.998687  0.604268  0.250000  1
  Si  Si12  1  0.605791  0.605791  0.750000  1
  Si  Si13  1  0.393761  0.001279  0.750000  1
  Si  Si14  1  0.001279  0.393761  0.750000  1
  Sn  Sn15  1  0.394607  0.394607  0.250000  1
