# generated using pymatgen
data_K2SbAs3Se8
_symmetry_space_group_name_H-M   'P 1'
_cell_length_a   6.96846448
_cell_length_b   6.69076426
_cell_length_c   9.37075844
_cell_angle_alpha   80.22331577
_cell_angle_beta   85.51162156
_cell_angle_gamma   76.37126505
_symmetry_Int_Tables_number   1
_chemical_formula_structural   K2SbAs3Se8
_chemical_formula_sum   'K2 Sb1 As3 Se8'
_cell_volume   418.10333326
_cell_formula_units_Z   1
loop_
 _symmetry_equiv_pos_site_id
 _symmetry_equiv_pos_as_xyz
  1  'x, y, z'
loop_
 _atom_site_type_symbol
 _atom_site_label
 _atom_site_symmetry_multiplicity
 _atom_site_fract_x
 _atom_site_fract_y
 _atom_site_fract_z
 _atom_site_occupancy
  K  K0  1  0.788228  0.828109  0.423943  1
  K  K1  1  0.195699  0.178169  0.572488  1
  Sb  Sb2  1  0.154034  0.195623  0.036743  1
  As  As3  1  0.610125  0.397641  0.826588  1
  As  As4  1  0.393423  0.597516  0.184608  1
  As  As5  1  0.862212  0.826525  0.948015  1
  Se  Se6  1  0.199031  0.843096  0.881653  1
  Se  Se7  1  0.798797  0.146787  0.104005  1
  Se  Se8  1  0.085882  0.483660  0.237542  1
  Se  Se9  1  0.911577  0.523031  0.767930  1
  Se  Se10  1  0.587445  0.409799  0.403271  1
  Se  Se11  1  0.412945  0.577045  0.603524  1
  Se  Se12  1  0.687985  0.063297  0.737290  1
  Se  Se13  1  0.312616  0.929702  0.272399  1
