# generated using pymatgen
data_Tm3Zn2Si2AgHg
_symmetry_space_group_name_H-M   'P 1'
_cell_length_a   6.92803592
_cell_length_b   7.02453985
_cell_length_c   4.26911200
_cell_angle_alpha   90.00000000
_cell_angle_beta   90.00000000
_cell_angle_gamma   120.46187955
_symmetry_Int_Tables_number   1
_chemical_formula_structural   Tm3Zn2Si2AgHg
_chemical_formula_sum   'Tm3 Zn2 Si2 Ag1 Hg1'
_cell_volume   179.08368495
_cell_formula_units_Z   1
loop_
 _symmetry_equiv_pos_site_id
 _symmetry_equiv_pos_as_xyz
  1  'x, y, z'
loop_
 _atom_site_type_symbol
 _atom_site_label
 _atom_site_symmetry_multiplicity
 _atom_site_fract_x
 _atom_site_fract_y
 _atom_site_fract_z
 _atom_site_occupancy
  Tm  Tm0  1  0.426390  0.428926  0.500000  1
  Tm  Tm1  1  0.573610  0.002536  0.500000  1
  Tm  Tm2  1  0.000000  0.568985  0.500000  1
  Zn  Zn3  1  0.741577  0.741847  0.000000  1
  Zn  Zn4  1  0.258423  0.000270  0.000000  1
  Si  Si5  1  0.658670  0.332926  0.000000  1
  Si  Si6  1  0.341330  0.674257  0.000000  1
  Ag  Ag7  1  0.000000  0.263702  0.000000  1
  Hg  Hg8  1  0.000000  0.986551  0.500000  1
