# generated using pymatgen
data_Nd4Cd3In5
_symmetry_space_group_name_H-M   'P 1'
_cell_length_a   4.99415200
_cell_length_b   7.61216600
_cell_length_c   8.57689871
_cell_angle_alpha   89.97871726
_cell_angle_beta   90.00000000
_cell_angle_gamma   90.00000000
_symmetry_Int_Tables_number   1
_chemical_formula_structural   Nd4Cd3In5
_chemical_formula_sum   'Nd4 Cd3 In5'
_cell_volume   326.06205251
_cell_formula_units_Z   1
loop_
 _symmetry_equiv_pos_site_id
 _symmetry_equiv_pos_as_xyz
  1  'x, y, z'
loop_
 _atom_site_type_symbol
 _atom_site_label
 _atom_site_symmetry_multiplicity
 _atom_site_fract_x
 _atom_site_fract_y
 _atom_site_fract_z
 _atom_site_occupancy
  Nd  Nd0  1  0.500000  0.499446  0.749976  1
  Nd  Nd1  1  0.500000  0.993845  0.749233  1
  Nd  Nd2  1  0.000000  0.502350  0.249776  1
  Nd  Nd3  1  0.000000  0.997019  0.251389  1
  Cd  Cd4  1  0.500000  0.782637  0.417443  1
  Cd  Cd5  1  0.000000  0.783806  0.916149  1
  Cd  Cd6  1  0.000000  0.293938  0.581250  1
  In  In7  1  0.500000  0.724671  0.083336  1
  In  In8  1  0.500000  0.213216  0.420626  1
  In  In9  1  0.000000  0.209301  0.911918  1
  In  In10  1  0.000000  0.715808  0.583843  1
  In  In11  1  0.500000  0.283966  0.085062  1
