# generated using pymatgen
data_NpPaTeN2
_symmetry_space_group_name_H-M   'P 1'
_cell_length_a   6.89869606
_cell_length_b   6.89869542
_cell_length_c   6.89869487
_cell_angle_alpha   146.76108789
_cell_angle_beta   146.76107668
_cell_angle_gamma   47.71766412
_symmetry_Int_Tables_number   1
_chemical_formula_structural   NpPaTeN2
_chemical_formula_sum   'Np1 Pa1 Te1 N2'
_cell_volume   98.25166847
_cell_formula_units_Z   1
loop_
 _symmetry_equiv_pos_site_id
 _symmetry_equiv_pos_as_xyz
  1  'x, y, z'
loop_
 _atom_site_type_symbol
 _atom_site_label
 _atom_site_symmetry_multiplicity
 _atom_site_fract_x
 _atom_site_fract_y
 _atom_site_fract_z
 _atom_site_occupancy
  Np  Np0  1  0.343099  0.343099  0.000000  1
  Pa  Pa1  1  0.663390  0.663390  0.000000  1
  Te  Te2  1  0.001167  0.001167  0.000000  1
  N  N3  1  0.746172  0.246172  0.500000  1
  N  N4  1  0.246172  0.746172  0.500000  1
