# generated using pymatgen
data_YEr2Si2Ni
_symmetry_space_group_name_H-M   'P 1'
_cell_length_a   4.10255100
_cell_length_b   11.21636600
_cell_length_c   11.19225000
_cell_angle_alpha   90.00000000
_cell_angle_beta   90.00000000
_cell_angle_gamma   90.00000000
_symmetry_Int_Tables_number   1
_chemical_formula_structural   YEr2Si2Ni
_chemical_formula_sum   'Y4 Er8 Si8 Ni4'
_cell_volume   515.01936998
_cell_formula_units_Z   4
loop_
 _symmetry_equiv_pos_site_id
 _symmetry_equiv_pos_as_xyz
  1  'x, y, z'
loop_
 _atom_site_type_symbol
 _atom_site_label
 _atom_site_symmetry_multiplicity
 _atom_site_fract_x
 _atom_site_fract_y
 _atom_site_fract_z
 _atom_site_occupancy
  Y  Y0  1  0.250000  0.375025  0.057267  1
  Y  Y1  1  0.750000  0.624975  0.942733  1
  Y  Y2  1  0.750000  0.875025  0.442733  1
  Y  Y3  1  0.250000  0.124975  0.557267  1
  Er  Er4  1  0.250000  0.695158  0.215557  1
  Er  Er5  1  0.750000  0.304842  0.784443  1
  Er  Er6  1  0.750000  0.195158  0.284443  1
  Er  Er7  1  0.250000  0.804842  0.715557  1
  Er  Er8  1  0.250000  0.440477  0.382760  1
  Er  Er9  1  0.750000  0.559523  0.617240  1
  Er  Er10  1  0.750000  0.940477  0.117240  1
  Er  Er11  1  0.250000  0.059523  0.882760  1
  Si  Si12  1  0.250000  0.685481  0.476265  1
  Si  Si13  1  0.750000  0.314519  0.523735  1
  Si  Si14  1  0.750000  0.185481  0.023735  1
  Si  Si15  1  0.250000  0.814519  0.976265  1
  Si  Si16  1  0.250000  0.004235  0.302535  1
  Si  Si17  1  0.750000  0.995765  0.697465  1
  Si  Si18  1  0.750000  0.504235  0.197465  1
  Si  Si19  1  0.250000  0.495765  0.802535  1
  Ni  Ni20  1  0.250000  0.132666  0.129523  1
  Ni  Ni21  1  0.750000  0.867334  0.870477  1
  Ni  Ni22  1  0.750000  0.632666  0.370477  1
  Ni  Ni23  1  0.250000  0.367334  0.629523  1
