# generated using pymatgen
data_Tb2Dy4Al24Os3Ru5
_symmetry_space_group_name_H-M   'P 1'
_cell_length_a   8.82336056
_cell_length_b   8.81175747
_cell_length_c   9.60122400
_cell_angle_alpha   89.96871629
_cell_angle_beta   89.95757409
_cell_angle_gamma   120.34112538
_symmetry_Int_Tables_number   1
_chemical_formula_structural   Tb2Dy4Al24Os3Ru5
_chemical_formula_sum   'Tb2 Dy4 Al24 Os3 Ru5'
_cell_volume   644.24387315
_cell_formula_units_Z   1
loop_
 _symmetry_equiv_pos_site_id
 _symmetry_equiv_pos_as_xyz
  1  'x, y, z'
loop_
 _atom_site_type_symbol
 _atom_site_label
 _atom_site_symmetry_multiplicity
 _atom_site_fract_x
 _atom_site_fract_y
 _atom_site_fract_z
 _atom_site_occupancy
  Tb  Tb0  1  0.192247  0.805107  0.250831  1
  Tb  Tb1  1  0.195484  0.387966  0.250639  1
  Dy  Dy2  1  0.612175  0.803179  0.250215  1
  Dy  Dy3  1  0.807638  0.195172  0.749107  1
  Dy  Dy4  1  0.804166  0.611567  0.749299  1
  Dy  Dy5  1  0.387704  0.196708  0.749795  1
  Al  Al6  1  0.562177  0.437480  0.249821  1
  Al  Al7  1  0.561997  0.121666  0.249861  1
  Al  Al8  1  0.875584  0.436502  0.249431  1
  Al  Al9  1  0.438169  0.562643  0.750176  1
  Al  Al10  1  0.438402  0.878569  0.750147  1
  Al  Al11  1  0.123928  0.563193  0.750645  1
  Al  Al12  1  0.325976  0.163063  0.423117  1
  Al  Al13  1  0.837315  0.162329  0.424276  1
  Al  Al14  1  0.836677  0.673598  0.423937  1
  Al  Al15  1  0.674296  0.837091  0.577363  1
  Al  Al16  1  0.162510  0.837562  0.576301  1
  Al  Al17  1  0.163227  0.326371  0.576702  1
  Al  Al18  1  0.674350  0.837266  0.922770  1
  Al  Al19  1  0.162640  0.837832  0.923634  1
  Al  Al20  1  0.163315  0.326225  0.922992  1
  Al  Al21  1  0.325969  0.162898  0.076730  1
  Al  Al22  1  0.837187  0.162072  0.075783  1
  Al  Al23  1  0.836601  0.673743  0.076356  1
  Al  Al24  1  0.665766  0.332992  0.516249  1
  Al  Al25  1  0.334323  0.667038  0.484311  1
  Al  Al26  1  0.333843  0.666799  0.015905  1
  Al  Al27  1  0.666390  0.333273  0.983481  1
  Al  Al28  1  0.999934  0.999063  0.249999  1
  Al  Al29  1  0.999516  0.000620  0.750026  1
  Os  Os30  1  0.500229  0.500069  0.500170  1
  Os  Os31  1  0.999785  0.499929  0.500302  1
  Os  Os32  1  0.500244  0.500045  0.999817  1
  Ru  Ru33  1  0.000038  0.000056  0.500084  1
  Ru  Ru34  1  0.000044  0.000072  0.999943  1
  Ru  Ru35  1  0.500143  0.000128  0.500173  1
  Ru  Ru36  1  0.500163  0.000143  0.999834  1
  Ru  Ru37  1  0.999845  0.499973  0.999778  1
