# generated using pymatgen
data_V6RhS12
_symmetry_space_group_name_H-M   'P 1'
_cell_length_a   5.53991368
_cell_length_b   5.53991554
_cell_length_c   12.32000327
_cell_angle_alpha   85.71120210
_cell_angle_beta   85.71120204
_cell_angle_gamma   120.00623251
_symmetry_Int_Tables_number   1
_chemical_formula_structural   V6RhS12
_chemical_formula_sum   'V6 Rh1 S12'
_cell_volume   323.74758884
_cell_formula_units_Z   1
loop_
 _symmetry_equiv_pos_site_id
 _symmetry_equiv_pos_as_xyz
  1  'x, y, z'
loop_
 _atom_site_type_symbol
 _atom_site_label
 _atom_site_symmetry_multiplicity
 _atom_site_fract_x
 _atom_site_fract_y
 _atom_site_fract_z
 _atom_site_occupancy
  V  V0  1  0.080125  0.080125  0.759281  1
  V  V1  1  0.413565  0.746843  0.759197  1
  V  V2  1  0.746843  0.413565  0.759197  1
  V  V3  1  0.253157  0.586435  0.240803  1
  V  V4  1  0.586435  0.253157  0.240803  1
  V  V5  1  0.919875  0.919875  0.240719  1
  Rh  Rh6  1  0.000000  0.000000  0.000000  1
  S  S7  1  0.296665  0.296665  0.122179  1
  S  S8  1  0.622046  0.959242  0.122275  1
  S  S9  1  0.959242  0.622046  0.122275  1
  S  S10  1  0.040758  0.377954  0.877725  1
  S  S11  1  0.377954  0.040758  0.877725  1
  S  S12  1  0.703335  0.703335  0.877821  1
  S  S13  1  0.213114  0.213114  0.362601  1
  S  S14  1  0.545476  0.879274  0.362628  1
  S  S15  1  0.879274  0.545476  0.362628  1
  S  S16  1  0.120726  0.454524  0.637372  1
  S  S17  1  0.454524  0.120726  0.637372  1
  S  S18  1  0.786886  0.786886  0.637399  1
