# generated using pymatgen
data_TmCdCuPt3
_symmetry_space_group_name_H-M   'P 1'
_cell_length_a   5.16956321
_cell_length_b   5.44783489
_cell_length_c   5.44783600
_cell_angle_alpha   60.00000540
_cell_angle_beta   58.20279455
_cell_angle_gamma   58.20279744
_symmetry_Int_Tables_number   1
_chemical_formula_structural   TmCdCuPt3
_chemical_formula_sum   'Tm1 Cd1 Cu1 Pt3'
_cell_volume   105.44815440
_cell_formula_units_Z   1
loop_
 _symmetry_equiv_pos_site_id
 _symmetry_equiv_pos_as_xyz
  1  'x, y, z'
loop_
 _atom_site_type_symbol
 _atom_site_label
 _atom_site_symmetry_multiplicity
 _atom_site_fract_x
 _atom_site_fract_y
 _atom_site_fract_z
 _atom_site_occupancy
  Tm  Tm0  1  0.997737  0.000754  0.000754  1
  Cd  Cd1  1  0.246616  0.251128  0.251128  1
  Cu  Cu2  1  0.126453  0.624516  0.624516  1
  Pt  Pt3  1  0.626398  0.623885  0.623885  1
  Pt  Pt4  1  0.626398  0.623885  0.125832  1
  Pt  Pt5  1  0.626398  0.125832  0.623885  1
