# generated using pymatgen
data_La7Nd2Th5Ir6
_symmetry_space_group_name_H-M   'P 1'
_cell_length_a   6.47122586
_cell_length_b   10.20920581
_cell_length_c   10.13281889
_cell_angle_alpha   120.25106896
_cell_angle_beta   90.24841336
_cell_angle_gamma   89.99991847
_symmetry_Int_Tables_number   1
_chemical_formula_structural   La7Nd2Th5Ir6
_chemical_formula_sum   'La7 Nd2 Th5 Ir6'
_cell_volume   578.26865732
_cell_formula_units_Z   1
loop_
 _symmetry_equiv_pos_site_id
 _symmetry_equiv_pos_as_xyz
  1  'x, y, z'
loop_
 _atom_site_type_symbol
 _atom_site_label
 _atom_site_symmetry_multiplicity
 _atom_site_fract_x
 _atom_site_fract_y
 _atom_site_fract_z
 _atom_site_occupancy
  La  La0  1  0.742984  0.875777  0.751553  1
  La  La1  1  0.434830  0.534177  0.461453  1
  La  La2  1  0.434764  0.927281  0.461456  1
  La  La3  1  0.438231  0.537175  0.074363  1
  La  La4  1  0.935041  0.462432  0.537951  1
  La  La5  1  0.934967  0.075518  0.537969  1
  La  La6  1  0.937138  0.463002  0.925983  1
  Nd  Nd7  1  0.460901  0.333285  0.666557  1
  Nd  Nd8  1  0.962994  0.665804  0.331613  1
  Th  Th9  1  0.250621  0.124162  0.874210  1
  Th  Th10  1  0.250632  0.750036  0.874207  1
  Th  Th11  1  0.247643  0.124089  0.248186  1
  Th  Th12  1  0.748406  0.873551  0.125577  1
  Th  Th13  1  0.748414  0.252038  0.125580  1
  Ir  Ir14  1  0.194214  0.818664  0.179869  1
  Ir  Ir15  1  0.194225  0.361208  0.179885  1
  Ir  Ir16  1  0.207744  0.818576  0.637160  1
  Ir  Ir17  1  0.690449  0.190077  0.823215  1
  Ir  Ir18  1  0.690491  0.633137  0.823197  1
  Ir  Ir19  1  0.697308  0.180012  0.360017  1
