# generated using pymatgen
data_Sm12Si3PCl12
_symmetry_space_group_name_H-M   'P 1'
_cell_length_a   10.00155742
_cell_length_b   10.00155848
_cell_length_c   10.00155800
_cell_angle_alpha   109.52088998
_cell_angle_beta   109.52089215
_cell_angle_gamma   109.52088355
_symmetry_Int_Tables_number   1
_chemical_formula_structural   Sm12Si3PCl12
_chemical_formula_sum   'Sm12 Si3 P1 Cl12'
_cell_volume   768.74069832
_cell_formula_units_Z   1
loop_
 _symmetry_equiv_pos_site_id
 _symmetry_equiv_pos_as_xyz
  1  'x, y, z'
loop_
 _atom_site_type_symbol
 _atom_site_label
 _atom_site_symmetry_multiplicity
 _atom_site_fract_x
 _atom_site_fract_y
 _atom_site_fract_z
 _atom_site_occupancy
  Sm  Sm0  1  0.479264  0.487701  0.240871  1
  Sm  Sm1  1  0.750000  0.241948  0.258052  1
  Sm  Sm2  1  0.750000  0.008003  0.491997  1
  Sm  Sm3  1  0.240871  0.479264  0.487701  1
  Sm  Sm4  1  0.258052  0.750000  0.241948  1
  Sm  Sm5  1  0.020736  0.259129  0.012299  1
  Sm  Sm6  1  0.012299  0.020736  0.259129  1
  Sm  Sm7  1  0.491997  0.750000  0.008003  1
  Sm  Sm8  1  0.487701  0.240871  0.479264  1
  Sm  Sm9  1  0.008003  0.491997  0.750000  1
  Sm  Sm10  1  0.259129  0.012299  0.020736  1
  Sm  Sm11  1  0.241948  0.258052  0.750000  1
  Si  Si12  1  0.499932  0.000068  0.250000  1
  Si  Si13  1  0.000068  0.250000  0.499932  1
  Si  Si14  1  0.250000  0.499932  0.000068  1
  P  P15  1  0.250000  0.250000  0.250000  1
  Cl  Cl16  1  0.250000  0.751257  0.748743  1
  Cl  Cl17  1  0.501031  0.500451  0.749217  1
  Cl  Cl18  1  0.998968  0.750783  0.999549  1
  Cl  Cl19  1  0.748743  0.250000  0.751257  1
  Cl  Cl20  1  0.999549  0.998968  0.750783  1
  Cl  Cl21  1  0.250000  0.000170  0.499830  1
  Cl  Cl22  1  0.749217  0.501031  0.500451  1
  Cl  Cl23  1  0.499830  0.250000  0.000170  1
  Cl  Cl24  1  0.751257  0.748743  0.250000  1
  Cl  Cl25  1  0.750783  0.999549  0.998969  1
  Cl  Cl26  1  0.000170  0.499830  0.250000  1
  Cl  Cl27  1  0.500451  0.749217  0.501031  1
