# generated using pymatgen
data_Sm2Al3Pt4
_symmetry_space_group_name_H-M   'P 1'
_cell_length_a   5.64749508
_cell_length_b   7.63099300
_cell_length_c   8.25298165
_cell_angle_alpha   90.00000000
_cell_angle_beta   69.99214819
_cell_angle_gamma   90.00000000
_symmetry_Int_Tables_number   1
_chemical_formula_structural   Sm2Al3Pt4
_chemical_formula_sum   'Sm4 Al6 Pt8'
_cell_volume   334.20423232
_cell_formula_units_Z   2
loop_
 _symmetry_equiv_pos_site_id
 _symmetry_equiv_pos_as_xyz
  1  'x, y, z'
loop_
 _atom_site_type_symbol
 _atom_site_label
 _atom_site_symmetry_multiplicity
 _atom_site_fract_x
 _atom_site_fract_y
 _atom_site_fract_z
 _atom_site_occupancy
  Sm  Sm0  1  0.392292  0.090857  0.215416  1
  Sm  Sm1  1  0.892293  0.409143  0.215416  1
  Sm  Sm2  1  0.107707  0.590857  0.784584  1
  Sm  Sm3  1  0.607708  0.909142  0.784584  1
  Al  Al4  1  0.000000  0.000000  0.000000  1
  Al  Al5  1  0.499999  0.500000  0.000000  1
  Al  Al6  1  0.024081  0.750000  0.451837  1
  Al  Al7  1  0.524082  0.750000  0.451837  1
  Al  Al8  1  0.475919  0.250001  0.548164  1
  Al  Al9  1  0.975918  0.250001  0.548164  1
  Pt  Pt10  1  0.190303  0.750000  0.119393  1
  Pt  Pt11  1  0.690304  0.750000  0.119393  1
  Pt  Pt12  1  0.814856  0.027894  0.370287  1
  Pt  Pt13  1  0.314855  0.472107  0.370287  1
  Pt  Pt14  1  0.685144  0.527894  0.629713  1
  Pt  Pt15  1  0.185143  0.972107  0.629713  1
  Pt  Pt16  1  0.309698  0.250001  0.880606  1
  Pt  Pt17  1  0.809697  0.250001  0.880606  1
