# generated using pymatgen
data_Rb2Zr(GeO3)3
_symmetry_space_group_name_H-M   'P 1'
_cell_length_a   7.32058500
_cell_length_b   7.32058525
_cell_length_c   10.84061100
_cell_angle_alpha   90.00000000
_cell_angle_beta   90.00000000
_cell_angle_gamma   120.00000461
_symmetry_Int_Tables_number   1
_chemical_formula_structural   Rb2Zr(GeO3)3
_chemical_formula_sum   'Rb4 Zr2 Ge6 O18'
_cell_volume   503.12507459
_cell_formula_units_Z   2
loop_
 _symmetry_equiv_pos_site_id
 _symmetry_equiv_pos_as_xyz
  1  'x, y, z'
loop_
 _atom_site_type_symbol
 _atom_site_label
 _atom_site_symmetry_multiplicity
 _atom_site_fract_x
 _atom_site_fract_y
 _atom_site_fract_z
 _atom_site_occupancy
  Rb  Rb0  1  0.333333  0.666667  0.438250  1
  Rb  Rb1  1  0.666667  0.333333  0.938250  1
  Rb  Rb2  1  0.666667  0.333333  0.561750  1
  Rb  Rb3  1  0.333333  0.666667  0.061750  1
  Zr  Zr4  1  0.000000  0.000000  0.500000  1
  Zr  Zr5  1  0.000000  0.000000  0.000000  1
  Ge  Ge6  1  0.622586  0.754940  0.750000  1
  Ge  Ge7  1  0.867646  0.622586  0.250000  1
  Ge  Ge8  1  0.754940  0.132354  0.250000  1
  Ge  Ge9  1  0.245060  0.867646  0.750000  1
  Ge  Ge10  1  0.132354  0.377414  0.750000  1
  Ge  Ge11  1  0.377414  0.245060  0.250000  1
  O  O12  1  0.249297  0.223204  0.389101  1
  O  O13  1  0.026094  0.249297  0.889101  1
  O  O14  1  0.223204  0.973906  0.889101  1
  O  O15  1  0.776796  0.026094  0.389101  1
  O  O16  1  0.973906  0.750703  0.389101  1
  O  O17  1  0.750703  0.776796  0.889101  1
  O  O18  1  0.750703  0.776796  0.610899  1
  O  O19  1  0.973906  0.750703  0.110899  1
  O  O20  1  0.776796  0.026094  0.110899  1
  O  O21  1  0.223204  0.973906  0.610899  1
  O  O22  1  0.026094  0.249297  0.610899  1
  O  O23  1  0.249297  0.223204  0.110899  1
  O  O24  1  0.482831  0.070482  0.250000  1
  O  O25  1  0.412349  0.482831  0.750000  1
  O  O26  1  0.070482  0.587651  0.750000  1
  O  O27  1  0.929518  0.412349  0.250000  1
  O  O28  1  0.587651  0.517169  0.250000  1
  O  O29  1  0.517169  0.929518  0.750000  1
