# generated using pymatgen
data_Sr4CdPd4Pb
_symmetry_space_group_name_H-M   'P 1'
_cell_length_a   6.11890670
_cell_length_b   6.11890663
_cell_length_c   8.54899721
_cell_angle_alpha   77.67562042
_cell_angle_beta   77.67562034
_cell_angle_gamma   59.04305279
_symmetry_Int_Tables_number   1
_chemical_formula_structural   Sr4CdPd4Pb
_chemical_formula_sum   'Sr4 Cd1 Pd4 Pb1'
_cell_volume   266.10276776
_cell_formula_units_Z   1
loop_
 _symmetry_equiv_pos_site_id
 _symmetry_equiv_pos_as_xyz
  1  'x, y, z'
loop_
 _atom_site_type_symbol
 _atom_site_label
 _atom_site_symmetry_multiplicity
 _atom_site_fract_x
 _atom_site_fract_y
 _atom_site_fract_z
 _atom_site_occupancy
  Sr  Sr0  1  0.502388  0.794610  0.353883  1
  Sr  Sr1  1  0.205390  0.497612  0.146117  1
  Sr  Sr2  1  0.492453  0.210722  0.649926  1
  Sr  Sr3  1  0.789278  0.507547  0.850074  1
  Cd  Cd4  1  0.863614  0.136386  0.250000  1
  Pd  Pd5  1  0.724992  0.002791  0.006815  1
  Pd  Pd6  1  0.997209  0.275008  0.493185  1
  Pd  Pd7  1  0.276659  0.998179  0.001188  1
  Pd  Pd8  1  0.001821  0.723341  0.498812  1
  Pb  Pb9  1  0.146197  0.853803  0.750000  1
