# generated using pymatgen
data_Li3LuCo16(TcP3)4
_symmetry_space_group_name_H-M   'P 1'
_cell_length_a   3.62233800
_cell_length_b   10.20256681
_cell_length_c   11.70154519
_cell_angle_alpha   89.84131332
_cell_angle_beta   90.00000000
_cell_angle_gamma   90.00000000
_symmetry_Int_Tables_number   1
_chemical_formula_structural   Li3LuCo16(TcP3)4
_chemical_formula_sum   'Li3 Lu1 Co16 Tc4 P12'
_cell_volume   432.45404894
_cell_formula_units_Z   1
loop_
 _symmetry_equiv_pos_site_id
 _symmetry_equiv_pos_as_xyz
  1  'x, y, z'
loop_
 _atom_site_type_symbol
 _atom_site_label
 _atom_site_symmetry_multiplicity
 _atom_site_fract_x
 _atom_site_fract_y
 _atom_site_fract_z
 _atom_site_occupancy
  Li  Li0  1  0.250000  0.581682  0.703632  1
  Li  Li1  1  0.250000  0.917398  0.203424  1
  Li  Li2  1  0.750000  0.418175  0.296618  1
  Lu  Lu3  1  0.750000  0.083700  0.794657  1
  Co  Co4  1  0.250000  0.407540  0.487982  1
  Co  Co5  1  0.250000  0.092906  0.987025  1
  Co  Co6  1  0.750000  0.591299  0.512849  1
  Co  Co7  1  0.750000  0.908031  0.013477  1
  Co  Co8  1  0.250000  0.218594  0.176479  1
  Co  Co9  1  0.250000  0.279018  0.677373  1
  Co  Co10  1  0.750000  0.781056  0.822548  1
  Co  Co11  1  0.750000  0.718819  0.323674  1
  Co  Co12  1  0.250000  0.885211  0.699529  1
  Co  Co13  1  0.250000  0.615445  0.201798  1
  Co  Co14  1  0.750000  0.116199  0.298880  1
  Co  Co15  1  0.750000  0.386444  0.798810  1
  Co  Co16  1  0.250000  0.466577  0.934474  1
  Co  Co17  1  0.250000  0.034564  0.431113  1
  Co  Co18  1  0.750000  0.535630  0.067216  1
  Co  Co19  1  0.750000  0.962318  0.564851  1
  Tc  Tc20  1  0.250000  0.709175  0.989288  1
  Tc  Tc21  1  0.250000  0.788627  0.488249  1
  Tc  Tc22  1  0.750000  0.289907  0.013956  1
  Tc  Tc23  1  0.750000  0.210357  0.513070  1
  P  P24  1  0.250000  0.420042  0.121648  1
  P  P25  1  0.250000  0.079959  0.613533  1
  P  P26  1  0.750000  0.581259  0.879751  1
  P  P27  1  0.750000  0.919317  0.377614  1
  P  P28  1  0.250000  0.268893  0.865919  1
  P  P29  1  0.250000  0.239480  0.362915  1
  P  P30  1  0.750000  0.738571  0.137728  1
  P  P31  1  0.750000  0.758746  0.635802  1
  P  P32  1  0.250000  0.591305  0.388583  1
  P  P33  1  0.250000  0.904025  0.890565  1
  P  P34  1  0.750000  0.408849  0.611837  1
  P  P35  1  0.750000  0.090882  0.113132  1
