# generated using pymatgen
data_LiNd6OsBr12
_symmetry_space_group_name_H-M   'P 1'
_cell_length_a   9.56932280
_cell_length_b   9.59126892
_cell_length_c   9.59133596
_cell_angle_alpha   108.03625510
_cell_angle_beta   108.06412870
_cell_angle_gamma   107.66374620
_symmetry_Int_Tables_number   1
_chemical_formula_structural   LiNd6OsBr12
_chemical_formula_sum   'Li1 Nd6 Os1 Br12'
_cell_volume   713.89578688
_cell_formula_units_Z   1
loop_
 _symmetry_equiv_pos_site_id
 _symmetry_equiv_pos_as_xyz
  1  'x, y, z'
loop_
 _atom_site_type_symbol
 _atom_site_label
 _atom_site_symmetry_multiplicity
 _atom_site_fract_x
 _atom_site_fract_y
 _atom_site_fract_z
 _atom_site_occupancy
  Li  Li0  1  0.500000  0.500000  0.500000  1
  Nd  Nd1  1  0.322782  0.118129  0.037641  1
  Nd  Nd2  1  0.035235  0.322620  0.118667  1
  Nd  Nd3  1  0.118900  0.036800  0.323407  1
  Nd  Nd4  1  0.881100  0.963200  0.676594  1
  Nd  Nd5  1  0.964765  0.677381  0.881334  1
  Nd  Nd6  1  0.677219  0.881871  0.962360  1
  Os  Os7  1  0.000000  0.000000  0.000000  1
  Br  Br8  1  0.685949  0.215543  0.068955  1
  Br  Br9  1  0.383082  0.463841  0.178234  1
  Br  Br10  1  0.070910  0.687913  0.214701  1
  Br  Br11  1  0.785590  0.930907  0.312695  1
  Br  Br12  1  0.466607  0.176490  0.384942  1
  Br  Br13  1  0.174704  0.382230  0.465014  1
  Br  Br14  1  0.825296  0.617771  0.534986  1
  Br  Br15  1  0.533393  0.823511  0.615058  1
  Br  Br16  1  0.214411  0.069094  0.687305  1
  Br  Br17  1  0.929090  0.312087  0.785300  1
  Br  Br18  1  0.616919  0.536159  0.821766  1
  Br  Br19  1  0.314052  0.784457  0.931045  1
