# generated using pymatgen
data_MgAg2(PSe3)2
_symmetry_space_group_name_H-M   'P 1'
_cell_length_a   6.68347365
_cell_length_b   6.68347342
_cell_length_c   14.95759275
_cell_angle_alpha   85.67749041
_cell_angle_beta   85.67749160
_cell_angle_gamma   119.92031360
_symmetry_Int_Tables_number   1
_chemical_formula_structural   MgAg2(PSe3)2
_chemical_formula_sum   'Mg2 Ag4 P4 Se12'
_cell_volume   572.48746662
_cell_formula_units_Z   2
loop_
 _symmetry_equiv_pos_site_id
 _symmetry_equiv_pos_as_xyz
  1  'x, y, z'
loop_
 _atom_site_type_symbol
 _atom_site_label
 _atom_site_symmetry_multiplicity
 _atom_site_fract_x
 _atom_site_fract_y
 _atom_site_fract_z
 _atom_site_occupancy
  Mg  Mg0  1  0.422109  0.577891  0.250000  1
  Mg  Mg1  1  0.577891  0.422109  0.750000  1
  Ag  Ag2  1  0.054332  0.877331  0.351896  1
  Ag  Ag3  1  0.945668  0.122669  0.648104  1
  Ag  Ag4  1  0.122669  0.945668  0.148104  1
  Ag  Ag5  1  0.877331  0.054332  0.851896  1
  P  P6  1  0.218127  0.728897  0.828000  1
  P  P7  1  0.781873  0.271103  0.172000  1
  P  P8  1  0.271103  0.781873  0.672000  1
  P  P9  1  0.728897  0.218127  0.328000  1
  Se  Se10  1  0.486930  0.655620  0.874618  1
  Se  Se11  1  0.513070  0.344380  0.125382  1
  Se  Se12  1  0.344380  0.513070  0.625382  1
  Se  Se13  1  0.655620  0.486930  0.374618  1
  Se  Se14  1  0.053991  0.260389  0.375736  1
  Se  Se15  1  0.946009  0.739611  0.624264  1
  Se  Se16  1  0.739611  0.946009  0.124264  1
  Se  Se17  1  0.260389  0.053991  0.875736  1
  Se  Se18  1  0.138005  0.569860  0.125058  1
  Se  Se19  1  0.861995  0.430140  0.874942  1
  Se  Se20  1  0.430140  0.861995  0.374942  1
  Se  Se21  1  0.569860  0.138005  0.625058  1
