# generated using pymatgen
data_Pa2Nb8Al4Ir
_symmetry_space_group_name_H-M   'P 1'
_cell_length_a   9.98753800
_cell_length_b   9.98753800
_cell_length_c   5.43000200
_cell_angle_alpha   90.00000000
_cell_angle_beta   90.00000000
_cell_angle_gamma   90.00000000
_symmetry_Int_Tables_number   1
_chemical_formula_structural   Pa2Nb8Al4Ir
_chemical_formula_sum   'Pa4 Nb16 Al8 Ir2'
_cell_volume   541.64766959
_cell_formula_units_Z   2
loop_
 _symmetry_equiv_pos_site_id
 _symmetry_equiv_pos_as_xyz
  1  'x, y, z'
loop_
 _atom_site_type_symbol
 _atom_site_label
 _atom_site_symmetry_multiplicity
 _atom_site_fract_x
 _atom_site_fract_y
 _atom_site_fract_z
 _atom_site_occupancy
  Pa  Pa0  1  0.398988  0.398988  0.000000  1
  Pa  Pa1  1  0.898988  0.101012  0.500000  1
  Pa  Pa2  1  0.101012  0.898988  0.500000  1
  Pa  Pa3  1  0.601012  0.601012  0.000000  1
  Nb  Nb4  1  0.132786  0.462130  0.000000  1
  Nb  Nb5  1  0.962130  0.367214  0.500000  1
  Nb  Nb6  1  0.037870  0.632786  0.500000  1
  Nb  Nb7  1  0.867214  0.537870  0.000000  1
  Nb  Nb8  1  0.367214  0.962130  0.500000  1
  Nb  Nb9  1  0.632786  0.037870  0.500000  1
  Nb  Nb10  1  0.462130  0.132786  0.000000  1
  Nb  Nb11  1  0.537870  0.867214  0.000000  1
  Nb  Nb12  1  0.184183  0.184183  0.249642  1
  Nb  Nb13  1  0.684183  0.315817  0.749642  1
  Nb  Nb14  1  0.315817  0.684183  0.749642  1
  Nb  Nb15  1  0.815817  0.815817  0.249642  1
  Nb  Nb16  1  0.315817  0.684183  0.250358  1
  Nb  Nb17  1  0.684183  0.315817  0.250358  1
  Nb  Nb18  1  0.184183  0.184183  0.750358  1
  Nb  Nb19  1  0.815817  0.815817  0.750358  1
  Al  Al20  1  0.262448  0.936639  0.000000  1
  Al  Al21  1  0.436639  0.237552  0.500000  1
  Al  Al22  1  0.563361  0.762448  0.500000  1
  Al  Al23  1  0.737552  0.063361  0.000000  1
  Al  Al24  1  0.237552  0.436639  0.500000  1
  Al  Al25  1  0.762448  0.563361  0.500000  1
  Al  Al26  1  0.936639  0.262448  0.000000  1
  Al  Al27  1  0.063361  0.737552  0.000000  1
  Ir  Ir28  1  0.000000  0.000000  0.000000  1
  Ir  Ir29  1  0.500000  0.500000  0.500000  1
