# generated using pymatgen
data_Tb5Dy5Si5Sn
_symmetry_space_group_name_H-M   'P 1'
_cell_length_a   8.54828709
_cell_length_b   8.57512573
_cell_length_c   6.42039800
_cell_angle_alpha   90.00000000
_cell_angle_beta   90.00000000
_cell_angle_gamma   119.88024145
_symmetry_Int_Tables_number   1
_chemical_formula_structural   Tb5Dy5Si5Sn
_chemical_formula_sum   'Tb5 Dy5 Si5 Sn1'
_cell_volume   408.07031770
_cell_formula_units_Z   1
loop_
 _symmetry_equiv_pos_site_id
 _symmetry_equiv_pos_as_xyz
  1  'x, y, z'
loop_
 _atom_site_type_symbol
 _atom_site_label
 _atom_site_symmetry_multiplicity
 _atom_site_fract_x
 _atom_site_fract_y
 _atom_site_fract_z
 _atom_site_occupancy
  Tb  Tb0  1  0.989427  0.748643  0.750000  1
  Tb  Tb1  1  0.998973  0.242986  0.250000  1
  Tb  Tb2  1  0.755906  0.756963  0.250000  1
  Tb  Tb3  1  0.764730  0.000025  0.750000  1
  Tb  Tb4  1  0.241573  0.000035  0.250000  1
  Dy  Dy5  1  0.240830  0.251448  0.750000  1
  Dy  Dy6  1  0.673347  0.341789  0.003166  1
  Dy  Dy7  1  0.331574  0.658165  0.496847  1
  Dy  Dy8  1  0.331574  0.658165  0.003153  1
  Dy  Dy9  1  0.673347  0.341789  0.496834  1
  Si  Si10  1  0.393650  0.392396  0.250000  1
  Si  Si11  1  0.001266  0.607631  0.250000  1
  Si  Si12  1  0.998831  0.394293  0.750000  1
  Si  Si13  1  0.604295  0.605569  0.750000  1
  Si  Si14  1  0.605709  0.000008  0.250000  1
  Sn  Sn15  1  0.394966  0.000096  0.750000  1
