# generated using pymatgen
data_MnZn22NiIr
_symmetry_space_group_name_H-M   'P 1'
_cell_length_a   7.75520732
_cell_length_b   7.75520963
_cell_length_c   7.75403498
_cell_angle_alpha   72.13674437
_cell_angle_beta   72.13674333
_cell_angle_gamma   57.86191173
_symmetry_Int_Tables_number   1
_chemical_formula_structural   MnZn22NiIr
_chemical_formula_sum   'Mn1 Zn22 Ni1 Ir1'
_cell_volume   369.84413400
_cell_formula_units_Z   1
loop_
 _symmetry_equiv_pos_site_id
 _symmetry_equiv_pos_as_xyz
  1  'x, y, z'
loop_
 _atom_site_type_symbol
 _atom_site_label
 _atom_site_symmetry_multiplicity
 _atom_site_fract_x
 _atom_site_fract_y
 _atom_site_fract_z
 _atom_site_occupancy
  Mn  Mn0  1  0.000028  0.000028  0.500388  1
  Zn  Zn1  1  0.338505  0.743839  0.315743  1
  Zn  Zn2  1  0.654898  0.259189  0.690257  1
  Zn  Zn3  1  0.259189  0.654898  0.690257  1
  Zn  Zn4  1  0.743839  0.338505  0.315743  1
  Zn  Zn5  1  0.675133  0.322111  0.000056  1
  Zn  Zn6  1  0.322111  0.675133  0.000056  1
  Zn  Zn7  1  0.832391  0.832391  0.778435  1
  Zn  Zn8  1  0.169656  0.169656  0.216326  1
  Zn  Zn9  1  0.977465  0.977465  0.175990  1
  Zn  Zn10  1  0.022205  0.022205  0.824862  1
  Zn  Zn11  1  0.349112  0.349112  0.274658  1
  Zn  Zn12  1  0.648799  0.648799  0.720318  1
  Zn  Zn13  1  0.686749  0.686749  0.376409  1
  Zn  Zn14  1  0.315581  0.315581  0.622357  1
  Zn  Zn15  1  0.660593  0.024675  0.463850  1
  Zn  Zn16  1  0.336869  0.977469  0.536696  1
  Zn  Zn17  1  0.977469  0.336869  0.536696  1
  Zn  Zn18  1  0.024675  0.660593  0.463850  1
  Zn  Zn19  1  0.614279  0.004196  0.098912  1
  Zn  Zn20  1  0.375874  0.009633  0.900121  1
  Zn  Zn21  1  0.009633  0.375874  0.900121  1
  Zn  Zn22  1  0.004196  0.614279  0.098912  1
  Ni  Ni23  1  0.343171  0.343171  0.945742  1
  Ir  Ir24  1  0.657578  0.657578  0.053247  1
