# generated using pymatgen
data_Rb4NbTlBr12
_symmetry_space_group_name_H-M   'P 1'
_cell_length_a   13.47839008
_cell_length_b   13.47838893
_cell_length_c   13.47839000
_cell_angle_alpha   132.05915402
_cell_angle_beta   132.05915532
_cell_angle_gamma   70.13561721
_symmetry_Int_Tables_number   1
_chemical_formula_structural   Rb4NbTlBr12
_chemical_formula_sum   'Rb8 Nb2 Tl2 Br24'
_cell_volume   1323.11319297
_cell_formula_units_Z   2
loop_
 _symmetry_equiv_pos_site_id
 _symmetry_equiv_pos_as_xyz
  1  'x, y, z'
loop_
 _atom_site_type_symbol
 _atom_site_label
 _atom_site_symmetry_multiplicity
 _atom_site_fract_x
 _atom_site_fract_y
 _atom_site_fract_z
 _atom_site_occupancy
  Rb  Rb0  1  0.374743  0.341935  0.464893  1
  Rb  Rb1  1  0.090151  0.625257  0.967192  1
  Rb  Rb2  1  0.877042  0.909849  0.535107  1
  Rb  Rb3  1  0.091935  0.127042  0.467192  1
  Rb  Rb4  1  0.375257  0.908065  0.035107  1
  Rb  Rb5  1  0.659849  0.624743  0.532808  1
  Rb  Rb6  1  0.658065  0.122958  0.032808  1
  Rb  Rb7  1  0.872958  0.340151  0.964893  1
  Nb  Nb8  1  0.250000  0.750000  0.500000  1
  Nb  Nb9  1  0.500000  0.500000  0.000000  1
  Tl  Tl10  1  0.750000  0.250000  0.500000  1
  Tl  Tl11  1  0.000000  0.000000  0.000000  1
  Br  Br12  1  0.015437  0.769552  0.289490  1
  Br  Br13  1  0.019754  0.260121  0.270562  1
  Br  Br14  1  0.274053  0.984563  0.754115  1
  Br  Br15  1  0.010121  0.239559  0.740367  1
  Br  Br16  1  0.134376  0.634376  0.500000  1
  Br  Br17  1  0.269938  0.524053  0.789490  1
  Br  Br18  1  0.480062  0.725947  0.710510  1
  Br  Br19  1  0.499192  0.269754  0.259633  1
  Br  Br20  1  0.475947  0.265437  0.745885  1
  Br  Br21  1  0.615624  0.615624  0.000000  1
  Br  Br22  1  0.519552  0.730062  0.254115  1
  Br  Br23  1  0.127341  0.127341  0.000000  1
  Br  Br24  1  0.872659  0.872659  0.000000  1
  Br  Br25  1  0.989559  0.749192  0.729438  1
  Br  Br26  1  0.739879  0.010441  0.759633  1
  Br  Br27  1  0.250808  0.980246  0.240367  1
  Br  Br28  1  0.734563  0.480448  0.210510  1
  Br  Br29  1  0.230448  0.519938  0.245885  1
  Br  Br30  1  0.365624  0.865624  0.500000  1
  Br  Br31  1  0.877341  0.377341  0.500000  1
  Br  Br32  1  0.384376  0.384376  0.000000  1
  Br  Br33  1  0.622659  0.122659  0.500000  1
  Br  Br34  1  0.760441  0.500808  0.770562  1
  Br  Br35  1  0.730246  0.989879  0.229438  1
