# generated using pymatgen
data_Ho3In3IrRuAu
_symmetry_space_group_name_H-M   'P 1'
_cell_length_a   7.88037400
_cell_length_b   7.88037480
_cell_length_c   3.65225500
_cell_angle_alpha   90.00000000
_cell_angle_beta   90.00000000
_cell_angle_gamma   119.99999664
_symmetry_Int_Tables_number   1
_chemical_formula_structural   Ho3In3IrRuAu
_chemical_formula_sum   'Ho3 In3 Ir1 Ru1 Au1'
_cell_volume   196.41988017
_cell_formula_units_Z   1
loop_
 _symmetry_equiv_pos_site_id
 _symmetry_equiv_pos_as_xyz
  1  'x, y, z'
loop_
 _atom_site_type_symbol
 _atom_site_label
 _atom_site_symmetry_multiplicity
 _atom_site_fract_x
 _atom_site_fract_y
 _atom_site_fract_z
 _atom_site_occupancy
  Ho  Ho0  1  0.409196  0.385338  0.500000  1
  Ho  Ho1  1  0.614662  0.023858  0.500000  1
  Ho  Ho2  1  0.976142  0.590804  0.500000  1
  In  In3  1  0.733903  0.736647  0.000000  1
  In  In4  1  0.263353  0.997256  0.000000  1
  In  In5  1  0.002744  0.266097  0.000000  1
  Ir  Ir6  1  0.666667  0.333333  0.000000  1
  Ru  Ru7  1  0.000000  0.000000  0.500000  1
  Au  Au8  1  0.333333  0.666667  0.000000  1
