# generated using pymatgen
data_Tb7ThSnPd24
_symmetry_space_group_name_H-M   'P 1'
_cell_length_a   8.43818349
_cell_length_b   8.43818349
_cell_length_c   8.43818349
_cell_angle_alpha   90.06220722
_cell_angle_beta   90.06220722
_cell_angle_gamma   90.06220722
_symmetry_Int_Tables_number   1
_chemical_formula_structural   Tb7ThSnPd24
_chemical_formula_sum   'Tb7 Th1 Sn1 Pd24'
_cell_volume   600.82241435
_cell_formula_units_Z   1
loop_
 _symmetry_equiv_pos_site_id
 _symmetry_equiv_pos_as_xyz
  1  'x, y, z'
loop_
 _atom_site_type_symbol
 _atom_site_label
 _atom_site_symmetry_multiplicity
 _atom_site_fract_x
 _atom_site_fract_y
 _atom_site_fract_z
 _atom_site_occupancy
  Tb  Tb0  1  0.747325  0.747325  0.747325  1
  Tb  Tb1  1  0.747289  0.747289  0.252663  1
  Tb  Tb2  1  0.747289  0.252663  0.747289  1
  Tb  Tb3  1  0.252582  0.252582  0.747572  1
  Tb  Tb4  1  0.252582  0.747572  0.252582  1
  Tb  Tb5  1  0.252663  0.747289  0.747289  1
  Tb  Tb6  1  0.747572  0.252582  0.252582  1
  Th  Th7  1  0.253154  0.253154  0.253154  1
  Sn  Sn8  1  0.999418  0.999418  0.999418  1
  Pd  Pd9  1  0.265120  0.499955  0.999984  1
  Pd  Pd10  1  0.734916  0.500041  0.000036  1
  Pd  Pd11  1  0.999984  0.265120  0.499955  1
  Pd  Pd12  1  0.499955  0.265120  0.999984  1
  Pd  Pd13  1  0.000036  0.734916  0.500041  1
  Pd  Pd14  1  0.500041  0.734916  0.000036  1
  Pd  Pd15  1  0.499955  0.999984  0.265120  1
  Pd  Pd16  1  0.265120  0.999984  0.499955  1
  Pd  Pd17  1  0.500041  0.000036  0.734916  1
  Pd  Pd18  1  0.734916  0.000036  0.500041  1
  Pd  Pd19  1  0.999984  0.499955  0.265120  1
  Pd  Pd20  1  0.000036  0.500041  0.734916  1
  Pd  Pd21  1  0.254711  0.500152  0.500152  1
  Pd  Pd22  1  0.745387  0.499981  0.499981  1
  Pd  Pd23  1  0.500152  0.254711  0.500152  1
  Pd  Pd24  1  0.499981  0.745387  0.499981  1
  Pd  Pd25  1  0.500152  0.500152  0.254711  1
  Pd  Pd26  1  0.499981  0.499981  0.745387  1
  Pd  Pd27  1  0.308597  0.999619  0.999619  1
  Pd  Pd28  1  0.691719  0.000051  0.000051  1
  Pd  Pd29  1  0.999619  0.308597  0.999619  1
  Pd  Pd30  1  0.000051  0.691719  0.000051  1
  Pd  Pd31  1  0.999619  0.999619  0.308597  1
  Pd  Pd32  1  0.000051  0.000051  0.691719  1
