# generated using pymatgen
data_Tb3Nd6Dy7(CdPt)4
_symmetry_space_group_name_H-M   'P 1'
_cell_length_a   9.81865528
_cell_length_b   9.81057022
_cell_length_c   9.81057000
_cell_angle_alpha   60.00000075
_cell_angle_beta   60.02723613
_cell_angle_gamma   60.02723397
_symmetry_Int_Tables_number   1
_chemical_formula_structural   Tb3Nd6Dy7(CdPt)4
_chemical_formula_sum   'Tb3 Nd6 Dy7 Cd4 Pt4'
_cell_volume   668.50424145
_cell_formula_units_Z   1
loop_
 _symmetry_equiv_pos_site_id
 _symmetry_equiv_pos_as_xyz
  1  'x, y, z'
loop_
 _atom_site_type_symbol
 _atom_site_label
 _atom_site_symmetry_multiplicity
 _atom_site_fract_x
 _atom_site_fract_y
 _atom_site_fract_z
 _atom_site_occupancy
  Tb  Tb0  1  0.350098  0.350388  0.350388  1
  Tb  Tb1  1  0.350098  0.350388  0.949126  1
  Tb  Tb2  1  0.350098  0.949126  0.350388  1
  Nd  Nd3  1  0.936982  0.562923  0.562923  1
  Nd  Nd4  1  0.562856  0.937162  0.937162  1
  Nd  Nd5  1  0.562856  0.937162  0.562819  1
  Nd  Nd6  1  0.936982  0.562923  0.937171  1
  Nd  Nd7  1  0.562856  0.562819  0.937162  1
  Nd  Nd8  1  0.936982  0.937171  0.562923  1
  Dy  Dy9  1  0.949869  0.350043  0.350043  1
  Dy  Dy10  1  0.811849  0.188248  0.188248  1
  Dy  Dy11  1  0.188088  0.811942  0.811942  1
  Dy  Dy12  1  0.188088  0.811942  0.188028  1
  Dy  Dy13  1  0.811849  0.188248  0.811656  1
  Dy  Dy14  1  0.188088  0.188028  0.811942  1
  Dy  Dy15  1  0.811849  0.811656  0.188248  1
  Cd  Cd16  1  0.580325  0.579852  0.579852  1
  Cd  Cd17  1  0.580325  0.579852  0.259973  1
  Cd  Cd18  1  0.580325  0.259973  0.579852  1
  Cd  Cd19  1  0.260201  0.579933  0.579933  1
  Pt  Pt20  1  0.141959  0.142489  0.142489  1
  Pt  Pt21  1  0.141959  0.142489  0.573061  1
  Pt  Pt22  1  0.141959  0.573061  0.142489  1
  Pt  Pt23  1  0.573458  0.142180  0.142180  1
