# generated using pymatgen
data_Cs2Nb6PbBr18
_symmetry_space_group_name_H-M   'P 1'
_cell_length_a   11.08300401
_cell_length_b   11.08300417
_cell_length_c   11.08300333
_cell_angle_alpha   54.97523739
_cell_angle_beta   54.97523643
_cell_angle_gamma   54.97523664
_symmetry_Int_Tables_number   1
_chemical_formula_structural   Cs2Nb6PbBr18
_chemical_formula_sum   'Cs2 Nb6 Pb1 Br18'
_cell_volume   850.07266210
_cell_formula_units_Z   1
loop_
 _symmetry_equiv_pos_site_id
 _symmetry_equiv_pos_as_xyz
  1  'x, y, z'
loop_
 _atom_site_type_symbol
 _atom_site_label
 _atom_site_symmetry_multiplicity
 _atom_site_fract_x
 _atom_site_fract_y
 _atom_site_fract_z
 _atom_site_occupancy
  Cs  Cs0  1  0.276783  0.276783  0.276783  1
  Cs  Cs1  1  0.723217  0.723217  0.723217  1
  Nb  Nb2  1  0.422582  0.307882  0.639968  1
  Nb  Nb3  1  0.360032  0.577418  0.692118  1
  Nb  Nb4  1  0.692118  0.360032  0.577418  1
  Nb  Nb5  1  0.639968  0.422582  0.307882  1
  Nb  Nb6  1  0.577418  0.692118  0.360032  1
  Nb  Nb7  1  0.307882  0.639968  0.422582  1
  Pb  Pb8  1  0.000000  0.000000  0.000000  1
  Br  Br9  1  0.638905  0.095530  0.767256  1
  Br  Br10  1  0.767256  0.638905  0.095530  1
  Br  Br11  1  0.095530  0.767256  0.638905  1
  Br  Br12  1  0.827371  0.321221  0.041850  1
  Br  Br13  1  0.169915  0.435446  0.577067  1
  Br  Br14  1  0.678779  0.958150  0.172629  1
  Br  Br15  1  0.904470  0.232744  0.361095  1
  Br  Br16  1  0.564554  0.422933  0.830085  1
  Br  Br17  1  0.422933  0.830085  0.564554  1
  Br  Br18  1  0.958150  0.172629  0.678779  1
  Br  Br19  1  0.172629  0.678779  0.958150  1
  Br  Br20  1  0.041850  0.827371  0.321221  1
  Br  Br21  1  0.321221  0.041850  0.827371  1
  Br  Br22  1  0.232744  0.361095  0.904470  1
  Br  Br23  1  0.577067  0.169915  0.435446  1
  Br  Br24  1  0.435446  0.577067  0.169915  1
  Br  Br25  1  0.361095  0.904470  0.232744  1
  Br  Br26  1  0.830085  0.564554  0.422933  1
