# generated using pymatgen
data_Lu2Re7Si4Os
_symmetry_space_group_name_H-M   'P 1'
_cell_length_a   7.26415646
_cell_length_b   7.51166941
_cell_length_c   4.10570100
_cell_angle_alpha   90.00000000
_cell_angle_beta   90.00000000
_cell_angle_gamma   89.54046299
_symmetry_Int_Tables_number   1
_chemical_formula_structural   Lu2Re7Si4Os
_chemical_formula_sum   'Lu2 Re7 Si4 Os1'
_cell_volume   224.02423643
_cell_formula_units_Z   1
loop_
 _symmetry_equiv_pos_site_id
 _symmetry_equiv_pos_as_xyz
  1  'x, y, z'
loop_
 _atom_site_type_symbol
 _atom_site_label
 _atom_site_symmetry_multiplicity
 _atom_site_fract_x
 _atom_site_fract_y
 _atom_site_fract_z
 _atom_site_occupancy
  Lu  Lu0  1  0.498424  0.500731  0.000000  1
  Lu  Lu1  1  0.998499  0.999177  0.500000  1
  Re  Re2  1  0.414063  0.843499  0.500000  1
  Re  Re3  1  0.082377  0.336642  0.000000  1
  Re  Re4  1  0.915849  0.660168  0.000000  1
  Re  Re5  1  0.158211  0.601348  0.500000  1
  Re  Re6  1  0.849478  0.401340  0.500000  1
  Re  Re7  1  0.341909  0.097806  0.000000  1
  Re  Re8  1  0.657613  0.899115  0.000000  1
  Si  Si9  1  0.714785  0.699866  0.500000  1
  Si  Si10  1  0.285385  0.297596  0.500000  1
  Si  Si11  1  0.214266  0.800641  0.000000  1
  Si  Si12  1  0.780273  0.198488  0.000000  1
  Os  Os13  1  0.588868  0.163581  0.500000  1
