# generated using pymatgen
data_Nd2FeSi2Rh
_symmetry_space_group_name_H-M   'P 1'
_cell_length_a   4.10064400
_cell_length_b   4.10064400
_cell_length_c   7.11073700
_cell_angle_alpha   90.00000000
_cell_angle_beta   90.00000000
_cell_angle_gamma   90.00000000
_symmetry_Int_Tables_number   1
_chemical_formula_structural   Nd2FeSi2Rh
_chemical_formula_sum   'Nd2 Fe1 Si2 Rh1'
_cell_volume   119.56904230
_cell_formula_units_Z   1
loop_
 _symmetry_equiv_pos_site_id
 _symmetry_equiv_pos_as_xyz
  1  'x, y, z'
loop_
 _atom_site_type_symbol
 _atom_site_label
 _atom_site_symmetry_multiplicity
 _atom_site_fract_x
 _atom_site_fract_y
 _atom_site_fract_z
 _atom_site_occupancy
  Nd  Nd0  1  0.500000  0.000000  0.679633  1
  Nd  Nd1  1  0.000000  0.500000  0.320367  1
  Fe  Fe2  1  0.500000  0.500000  0.000000  1
  Si  Si3  1  0.000000  0.500000  0.824557  1
  Si  Si4  1  0.500000  0.000000  0.175443  1
  Rh  Rh5  1  0.000000  0.000000  0.000000  1
