# generated using pymatgen
data_KRbBa2Cr4(PO4)6
_symmetry_space_group_name_H-M   'P 1'
_cell_length_a   9.96085600
_cell_length_b   9.96085600
_cell_length_c   9.96085600
_cell_angle_alpha   90.00000000
_cell_angle_beta   90.00000000
_cell_angle_gamma   90.00000000
_symmetry_Int_Tables_number   1
_chemical_formula_structural   KRbBa2Cr4(PO4)6
_chemical_formula_sum   'K2 Rb2 Ba4 Cr8 P12 O48'
_cell_volume   988.30270760
_cell_formula_units_Z   2
loop_
 _symmetry_equiv_pos_site_id
 _symmetry_equiv_pos_as_xyz
  1  'x, y, z'
loop_
 _atom_site_type_symbol
 _atom_site_label
 _atom_site_symmetry_multiplicity
 _atom_site_fract_x
 _atom_site_fract_y
 _atom_site_fract_z
 _atom_site_occupancy
  K  K0  1  0.798508  0.201471  0.701423  1
  K  K1  1  0.298508  0.298529  0.298577  1
  Rb  Rb2  1  0.203604  0.703636  0.796320  1
  Rb  Rb3  1  0.703604  0.796364  0.203680  1
  Ba  Ba4  1  0.432647  0.932823  0.567273  1
  Ba  Ba5  1  0.932647  0.567177  0.432727  1
  Ba  Ba6  1  0.567431  0.432389  0.932469  1
  Ba  Ba7  1  0.067431  0.067611  0.067531  1
  Cr  Cr8  1  0.913560  0.413490  0.086358  1
  Cr  Cr9  1  0.413560  0.086510  0.913642  1
  Cr  Cr10  1  0.086422  0.913685  0.413544  1
  Cr  Cr11  1  0.586422  0.586315  0.586456  1
  Cr  Cr12  1  0.648101  0.148438  0.352111  1
  Cr  Cr13  1  0.148101  0.351562  0.647889  1
  Cr  Cr14  1  0.351849  0.647818  0.148397  1
  Cr  Cr15  1  0.851849  0.852182  0.851603  1
  P  P16  1  0.226024  0.372355  0.959868  1
  P  P17  1  0.040699  0.726005  0.127336  1
  P  P18  1  0.872403  0.540106  0.773942  1
  P  P19  1  0.726024  0.127645  0.040132  1
  P  P20  1  0.540699  0.773995  0.872664  1
  P  P21  1  0.372403  0.959894  0.226058  1
  P  P22  1  0.774101  0.873413  0.540854  1
  P  P23  1  0.959721  0.225924  0.373083  1
  P  P24  1  0.126626  0.040884  0.725881  1
  P  P25  1  0.274101  0.626587  0.459146  1
  P  P26  1  0.459721  0.274076  0.626917  1
  P  P27  1  0.626626  0.459116  0.274119  1
  O  O28  1  0.300533  0.237489  0.986403  1
  O  O29  1  0.014751  0.800639  0.262203  1
  O  O30  1  0.737496  0.513523  0.699457  1
  O  O31  1  0.800533  0.262511  0.013597  1
  O  O32  1  0.514751  0.699361  0.737797  1
  O  O33  1  0.237496  0.986477  0.300543  1
  O  O34  1  0.699490  0.738301  0.515812  1
  O  O35  1  0.985296  0.300422  0.237976  1
  O  O36  1  0.261694  0.015905  0.800514  1
  O  O37  1  0.199490  0.761699  0.484188  1
  O  O38  1  0.485296  0.199578  0.762024  1
  O  O39  1  0.761694  0.484095  0.199486  1
  O  O40  1  0.077979  0.345721  0.996037  1
  O  O41  1  0.003738  0.578165  0.154292  1
  O  O42  1  0.845771  0.504155  0.922046  1
  O  O43  1  0.577979  0.154279  0.003963  1
  O  O44  1  0.503738  0.921835  0.845708  1
  O  O45  1  0.345771  0.995845  0.077954  1
  O  O46  1  0.921873  0.845892  0.504030  1
  O  O47  1  0.995751  0.077944  0.345898  1
  O  O48  1  0.154172  0.003856  0.578170  1
  O  O49  1  0.421873  0.654108  0.495970  1
  O  O50  1  0.495751  0.422056  0.654102  1
  O  O51  1  0.654172  0.496144  0.421830  1
  O  O52  1  0.241365  0.418409  0.812189  1
  O  O53  1  0.188275  0.741003  0.081121  1
  O  O54  1  0.918621  0.687739  0.758399  1
  O  O55  1  0.741365  0.081591  0.187811  1
  O  O56  1  0.688275  0.758997  0.918879  1
  O  O57  1  0.418621  0.812261  0.241601  1
  O  O58  1  0.759440  0.921786  0.687968  1
  O  O59  1  0.812514  0.240919  0.421343  1
  O  O60  1  0.078404  0.188036  0.740321  1
  O  O61  1  0.259440  0.578214  0.312032  1
  O  O62  1  0.312514  0.259081  0.578657  1
  O  O63  1  0.578404  0.311964  0.259679  1
  O  O64  1  0.297998  0.476276  0.049541  1
  O  O65  1  0.951623  0.798047  0.022930  1
  O  O66  1  0.976310  0.450312  0.701961  1
  O  O67  1  0.797998  0.023724  0.950459  1
  O  O68  1  0.451623  0.701953  0.977070  1
  O  O69  1  0.476310  0.049688  0.298039  1
  O  O70  1  0.701834  0.976904  0.450922  1
  O  O71  1  0.050251  0.298108  0.476094  1
  O  O72  1  0.023123  0.951068  0.798125  1
  O  O73  1  0.201834  0.523096  0.549078  1
  O  O74  1  0.550251  0.201892  0.523906  1
  O  O75  1  0.523123  0.548932  0.201875  1
