# generated using pymatgen
data_Tb5Er7Ni4
_symmetry_space_group_name_H-M   'P 1'
_cell_length_a   6.33050371
_cell_length_b   6.80194815
_cell_length_c   9.50092107
_cell_angle_alpha   90.01667247
_cell_angle_beta   90.05161562
_cell_angle_gamma   89.98305142
_symmetry_Int_Tables_number   1
_chemical_formula_structural   Tb5Er7Ni4
_chemical_formula_sum   'Tb5 Er7 Ni4'
_cell_volume   409.10716047
_cell_formula_units_Z   1
loop_
 _symmetry_equiv_pos_site_id
 _symmetry_equiv_pos_as_xyz
  1  'x, y, z'
loop_
 _atom_site_type_symbol
 _atom_site_label
 _atom_site_symmetry_multiplicity
 _atom_site_fract_x
 _atom_site_fract_y
 _atom_site_fract_z
 _atom_site_occupancy
  Tb  Tb0  1  0.320665  0.678282  0.065499  1
  Tb  Tb1  1  0.861785  0.532054  0.250429  1
  Tb  Tb2  1  0.638483  0.032508  0.250152  1
  Tb  Tb3  1  0.138005  0.467418  0.749739  1
  Tb  Tb4  1  0.362076  0.967745  0.749831  1
  Er  Er5  1  0.179089  0.178255  0.433995  1
  Er  Er6  1  0.679161  0.321687  0.565996  1
  Er  Er7  1  0.821125  0.822017  0.933629  1
  Er  Er8  1  0.679370  0.321662  0.933838  1
  Er  Er9  1  0.820888  0.821826  0.566000  1
  Er  Er10  1  0.320868  0.678308  0.434453  1
  Er  Er11  1  0.178792  0.178236  0.065974  1
  Ni  Ni12  1  0.056276  0.892512  0.250374  1
  Ni  Ni13  1  0.443234  0.391543  0.250372  1
  Ni  Ni14  1  0.943070  0.107990  0.750045  1
  Ni  Ni15  1  0.557113  0.607959  0.749676  1
