# generated using pymatgen
data_Sc2Mn7Nb2Si
_symmetry_space_group_name_H-M   'P 1'
_cell_length_a   4.85284900
_cell_length_b   4.85284794
_cell_length_c   7.99300900
_cell_angle_alpha   90.00000000
_cell_angle_beta   90.00000000
_cell_angle_gamma   120.00001405
_symmetry_Int_Tables_number   1
_chemical_formula_structural   Sc2Mn7Nb2Si
_chemical_formula_sum   'Sc2 Mn7 Nb2 Si1'
_cell_volume   163.01753934
_cell_formula_units_Z   1
loop_
 _symmetry_equiv_pos_site_id
 _symmetry_equiv_pos_as_xyz
  1  'x, y, z'
loop_
 _atom_site_type_symbol
 _atom_site_label
 _atom_site_symmetry_multiplicity
 _atom_site_fract_x
 _atom_site_fract_y
 _atom_site_fract_z
 _atom_site_occupancy
  Sc  Sc0  1  0.333333  0.666667  0.437254  1
  Sc  Sc1  1  0.666667  0.333333  0.935747  1
  Mn  Mn2  1  0.171806  0.343611  0.747808  1
  Mn  Mn3  1  0.829376  0.170624  0.250986  1
  Mn  Mn4  1  0.341247  0.170624  0.250986  1
  Mn  Mn5  1  0.656389  0.828194  0.747808  1
  Mn  Mn6  1  0.000000  0.000000  0.499660  1
  Mn  Mn7  1  0.829376  0.658753  0.250986  1
  Mn  Mn8  1  0.171806  0.828194  0.747808  1
  Nb  Nb9  1  0.666667  0.333333  0.562292  1
  Nb  Nb10  1  0.333333  0.666667  0.071098  1
  Si  Si11  1  0.000000  0.000000  0.997568  1
