# generated using pymatgen
data_CaPr6OsBr12
_symmetry_space_group_name_H-M   'P 1'
_cell_length_a   9.65778731
_cell_length_b   9.69379499
_cell_length_c   9.65980565
_cell_angle_alpha   107.18278387
_cell_angle_beta   107.04095119
_cell_angle_gamma   107.18751440
_symmetry_Int_Tables_number   1
_chemical_formula_structural   CaPr6OsBr12
_chemical_formula_sum   'Ca1 Pr6 Os1 Br12'
_cell_volume   750.32163137
_cell_formula_units_Z   1
loop_
 _symmetry_equiv_pos_site_id
 _symmetry_equiv_pos_as_xyz
  1  'x, y, z'
loop_
 _atom_site_type_symbol
 _atom_site_label
 _atom_site_symmetry_multiplicity
 _atom_site_fract_x
 _atom_site_fract_y
 _atom_site_fract_z
 _atom_site_occupancy
  Ca  Ca0  1  0.500000  0.500000  0.500000  1
  Pr  Pr1  1  0.315289  0.108407  0.025578  1
  Pr  Pr2  1  0.025433  0.316304  0.109608  1
  Pr  Pr3  1  0.107587  0.025167  0.314630  1
  Pr  Pr4  1  0.892413  0.974833  0.685371  1
  Pr  Pr5  1  0.974567  0.683697  0.890393  1
  Pr  Pr6  1  0.684712  0.891593  0.974423  1
  Os  Os7  1  0.000000  0.000000  0.000000  1
  Br  Br8  1  0.681213  0.215550  0.066975  1
  Br  Br9  1  0.378769  0.459104  0.168979  1
  Br  Br10  1  0.066862  0.681798  0.215021  1
  Br  Br11  1  0.783313  0.932976  0.318200  1
  Br  Br12  1  0.459425  0.169899  0.379255  1
  Br  Br13  1  0.168922  0.378484  0.460009  1
  Br  Br14  1  0.831078  0.621517  0.539991  1
  Br  Br15  1  0.540575  0.830102  0.620745  1
  Br  Br16  1  0.216688  0.067025  0.681800  1
  Br  Br17  1  0.933138  0.318202  0.784980  1
  Br  Br18  1  0.621232  0.540896  0.831021  1
  Br  Br19  1  0.318788  0.784450  0.933025  1
