# generated using pymatgen
data_ZrPa3SnSb4
_symmetry_space_group_name_H-M   'P 1'
_cell_length_a   9.28422300
_cell_length_b   9.28422414
_cell_length_c   6.18998100
_cell_angle_alpha   90.00000000
_cell_angle_beta   90.00000000
_cell_angle_gamma   119.99999950
_symmetry_Int_Tables_number   1
_chemical_formula_structural   ZrPa3SnSb4
_chemical_formula_sum   'Zr2 Pa6 Sn2 Sb8'
_cell_volume   462.07357178
_cell_formula_units_Z   2
loop_
 _symmetry_equiv_pos_site_id
 _symmetry_equiv_pos_as_xyz
  1  'x, y, z'
loop_
 _atom_site_type_symbol
 _atom_site_label
 _atom_site_symmetry_multiplicity
 _atom_site_fract_x
 _atom_site_fract_y
 _atom_site_fract_z
 _atom_site_occupancy
  Zr  Zr0  1  0.000000  0.000000  0.000000  1
  Zr  Zr1  1  0.000000  0.000000  0.500000  1
  Pa  Pa2  1  0.385832  0.000000  0.750000  1
  Pa  Pa3  1  0.385832  0.385832  0.250000  1
  Pa  Pa4  1  0.000000  0.614168  0.250000  1
  Pa  Pa5  1  0.000000  0.385832  0.750000  1
  Pa  Pa6  1  0.614168  0.614168  0.750000  1
  Pa  Pa7  1  0.614168  0.000000  0.250000  1
  Sn  Sn8  1  0.666667  0.333333  0.500000  1
  Sn  Sn9  1  0.333333  0.666667  0.000000  1
  Sb  Sb10  1  0.726551  0.000000  0.750000  1
  Sb  Sb11  1  0.726551  0.726551  0.250000  1
  Sb  Sb12  1  0.333333  0.666667  0.500000  1
  Sb  Sb13  1  0.666667  0.333333  0.000000  1
  Sb  Sb14  1  0.273449  0.000000  0.250000  1
  Sb  Sb15  1  0.273449  0.273449  0.750000  1
  Sb  Sb16  1  0.000000  0.726551  0.750000  1
  Sb  Sb17  1  0.000000  0.273449  0.250000  1
