# generated using pymatgen
data_YSc(Cd2Sn)2
_symmetry_space_group_name_H-M   'P 1'
_cell_length_a   4.80346900
_cell_length_b   4.38697400
_cell_length_c   8.88683800
_cell_angle_alpha   90.00000000
_cell_angle_beta   90.00000000
_cell_angle_gamma   90.00000000
_symmetry_Int_Tables_number   1
_chemical_formula_structural   YSc(Cd2Sn)2
_chemical_formula_sum   'Y1 Sc1 Cd4 Sn2'
_cell_volume   187.26961436
_cell_formula_units_Z   1
loop_
 _symmetry_equiv_pos_site_id
 _symmetry_equiv_pos_as_xyz
  1  'x, y, z'
loop_
 _atom_site_type_symbol
 _atom_site_label
 _atom_site_symmetry_multiplicity
 _atom_site_fract_x
 _atom_site_fract_y
 _atom_site_fract_z
 _atom_site_occupancy
  Y  Y0  1  0.000000  0.000000  0.500000  1
  Sc  Sc1  1  0.000000  0.000000  0.000000  1
  Cd  Cd2  1  0.500000  0.500000  0.000000  1
  Cd  Cd3  1  0.500000  0.500000  0.500000  1
  Cd  Cd4  1  0.500000  0.000000  0.244033  1
  Cd  Cd5  1  0.500000  0.000000  0.755967  1
  Sn  Sn6  1  0.000000  0.500000  0.240661  1
  Sn  Sn7  1  0.000000  0.500000  0.759339  1
