# generated using pymatgen
data_Zr6Al21Fe8Si3
_symmetry_space_group_name_H-M   'P 1'
_cell_length_a   8.41319100
_cell_length_b   8.41318977
_cell_length_c   9.15462900
_cell_angle_alpha   90.00000000
_cell_angle_beta   90.00000000
_cell_angle_gamma   120.00000091
_symmetry_Int_Tables_number   1
_chemical_formula_structural   Zr6Al21Fe8Si3
_chemical_formula_sum   'Zr6 Al21 Fe8 Si3'
_cell_volume   561.16788659
_cell_formula_units_Z   1
loop_
 _symmetry_equiv_pos_site_id
 _symmetry_equiv_pos_as_xyz
  1  'x, y, z'
loop_
 _atom_site_type_symbol
 _atom_site_label
 _atom_site_symmetry_multiplicity
 _atom_site_fract_x
 _atom_site_fract_y
 _atom_site_fract_z
 _atom_site_occupancy
  Zr  Zr0  1  0.804720  0.195280  0.750907  1
  Zr  Zr1  1  0.197050  0.802950  0.249385  1
  Zr  Zr2  1  0.390560  0.195280  0.750907  1
  Zr  Zr3  1  0.605901  0.802950  0.249385  1
  Zr  Zr4  1  0.804720  0.609440  0.750907  1
  Zr  Zr5  1  0.197050  0.394099  0.249385  1
  Al  Al6  1  0.666667  0.333333  0.522984  1
  Al  Al7  1  0.838365  0.161635  0.425848  1
  Al  Al8  1  0.162937  0.837063  0.574848  1
  Al  Al9  1  0.323270  0.161635  0.425848  1
  Al  Al10  1  0.162484  0.837516  0.925560  1
  Al  Al11  1  0.674127  0.837063  0.574848  1
  Al  Al12  1  0.837403  0.162597  0.075268  1
  Al  Al13  1  0.838365  0.676730  0.425848  1
  Al  Al14  1  0.675032  0.837516  0.925560  1
  Al  Al15  1  0.162937  0.325873  0.574848  1
  Al  Al16  1  0.325194  0.162597  0.075268  1
  Al  Al17  1  0.162484  0.324968  0.925560  1
  Al  Al18  1  0.837403  0.674806  0.075268  1
  Al  Al19  1  0.441874  0.558126  0.750195  1
  Al  Al20  1  0.558298  0.441702  0.251609  1
  Al  Al21  1  0.116251  0.558126  0.750195  1
  Al  Al22  1  0.883404  0.441702  0.251609  1
  Al  Al23  1  0.441874  0.883749  0.750195  1
  Al  Al24  1  0.558298  0.116596  0.251609  1
  Al  Al25  1  0.000000  0.000000  0.750496  1
  Al  Al26  1  0.000000  0.000000  0.249900  1
  Fe  Fe27  1  0.500122  0.499878  0.001291  1
  Fe  Fe28  1  0.999756  0.499878  0.001291  1
  Fe  Fe29  1  0.494855  0.505145  0.497673  1
  Fe  Fe30  1  0.500122  0.000244  0.001291  1
  Fe  Fe31  1  0.010290  0.505145  0.497673  1
  Fe  Fe32  1  0.494855  0.989710  0.497673  1
  Fe  Fe33  1  0.000000  0.000000  0.999906  1
  Fe  Fe34  1  0.000000  0.000000  0.500765  1
  Si  Si35  1  0.666667  0.333333  0.968473  1
  Si  Si36  1  0.333333  0.666667  0.030258  1
  Si  Si37  1  0.333333  0.666667  0.469461  1
