# generated using pymatgen
data_SrAc2(B2O5)2
_symmetry_space_group_name_H-M   'P 1'
_cell_length_a   6.90382977
_cell_length_b   6.99570589
_cell_length_c   10.13162521
_cell_angle_alpha   94.54112937
_cell_angle_beta   107.25674992
_cell_angle_gamma   102.60454172
_symmetry_Int_Tables_number   1
_chemical_formula_structural   SrAc2(B2O5)2
_chemical_formula_sum   'Sr2 Ac4 B8 O20'
_cell_volume   450.56964514
_cell_formula_units_Z   2
loop_
 _symmetry_equiv_pos_site_id
 _symmetry_equiv_pos_as_xyz
  1  'x, y, z'
loop_
 _atom_site_type_symbol
 _atom_site_label
 _atom_site_symmetry_multiplicity
 _atom_site_fract_x
 _atom_site_fract_y
 _atom_site_fract_z
 _atom_site_occupancy
  Sr  Sr0  1  0.033859  0.859366  0.171223  1
  Sr  Sr1  1  0.966141  0.140634  0.828777  1
  Ac  Ac2  1  0.719170  0.612930  0.681202  1
  Ac  Ac3  1  0.280830  0.387070  0.318798  1
  Ac  Ac4  1  0.698843  0.040464  0.397670  1
  Ac  Ac5  1  0.301157  0.959536  0.602330  1
  B  B6  1  0.396250  0.207626  0.060983  1
  B  B7  1  0.603750  0.792374  0.939017  1
  B  B8  1  0.846976  0.591791  0.366930  1
  B  B9  1  0.153024  0.408209  0.633070  1
  B  B10  1  0.388864  0.724970  0.091214  1
  B  B11  1  0.204536  0.702500  0.830034  1
  B  B12  1  0.795464  0.297500  0.169966  1
  B  B13  1  0.611136  0.275030  0.908786  1
  O  O14  1  0.060890  0.207048  0.594210  1
  O  O15  1  0.642284  0.902223  0.600565  1
  O  O16  1  0.587529  0.769205  0.072254  1
  O  O17  1  0.424768  0.768948  0.826384  1
  O  O18  1  0.575232  0.231052  0.173616  1
  O  O19  1  0.357716  0.097777  0.399435  1
  O  O20  1  0.207072  0.171758  0.078858  1
  O  O21  1  0.790599  0.306875  0.021946  1
  O  O22  1  0.209401  0.693125  0.978054  1
  O  O23  1  0.721992  0.483965  0.433745  1
  O  O24  1  0.892170  0.507191  0.250283  1
  O  O25  1  0.917748  0.170487  0.238330  1
  O  O26  1  0.618927  0.275618  0.776090  1
  O  O27  1  0.792928  0.828242  0.921142  1
  O  O28  1  0.107830  0.492809  0.749717  1
  O  O29  1  0.278008  0.516035  0.566255  1
  O  O30  1  0.082252  0.829513  0.761670  1
  O  O31  1  0.939110  0.792952  0.405790  1
  O  O32  1  0.381073  0.724382  0.223910  1
  O  O33  1  0.412471  0.230795  0.927746  1
