# generated using pymatgen
data_Tb10SnBi5C2
_symmetry_space_group_name_H-M   'P 1'
_cell_length_a   9.17717436
_cell_length_b   9.15188318
_cell_length_c   6.53459700
_cell_angle_alpha   90.00000000
_cell_angle_beta   90.00000000
_cell_angle_gamma   119.90888124
_symmetry_Int_Tables_number   1
_chemical_formula_structural   Tb10SnBi5C2
_chemical_formula_sum   'Tb10 Sn1 Bi5 C2'
_cell_volume   475.73698650
_cell_formula_units_Z   1
loop_
 _symmetry_equiv_pos_site_id
 _symmetry_equiv_pos_as_xyz
  1  'x, y, z'
loop_
 _atom_site_type_symbol
 _atom_site_label
 _atom_site_symmetry_multiplicity
 _atom_site_fract_x
 _atom_site_fract_y
 _atom_site_fract_z
 _atom_site_occupancy
  Tb  Tb0  1  0.671322  0.334220  0.501843  1
  Tb  Tb1  1  0.328678  0.662899  0.501843  1
  Tb  Tb2  1  0.328678  0.662899  0.998157  1
  Tb  Tb3  1  0.671322  0.334220  0.998157  1
  Tb  Tb4  1  0.792472  0.792442  0.250000  1
  Tb  Tb5  1  0.207528  0.999970  0.250000  1
  Tb  Tb6  1  0.000000  0.210238  0.250000  1
  Tb  Tb7  1  0.205972  0.210426  0.750000  1
  Tb  Tb8  1  0.794028  0.004454  0.750000  1
  Tb  Tb9  1  0.000000  0.790768  0.750000  1
  Sn  Sn10  1  0.000000  0.402569  0.750000  1
  Bi  Bi11  1  0.401770  0.400619  0.250000  1
  Bi  Bi12  1  0.598230  0.998849  0.250000  1
  Bi  Bi13  1  0.000000  0.597916  0.250000  1
  Bi  Bi14  1  0.599329  0.599351  0.750000  1
  Bi  Bi15  1  0.400671  0.000023  0.750000  1
  C  C16  1  0.000000  0.999068  0.499367  1
  C  C17  1  0.000000  0.999068  0.000633  1
