# generated using pymatgen
data_AcLa2(ZnNi2)2
_symmetry_space_group_name_H-M   'P 1'
_cell_length_a   5.53554821
_cell_length_b   5.53554892
_cell_length_c   8.35950409
_cell_angle_alpha   82.28425790
_cell_angle_beta   82.28425957
_cell_angle_gamma   45.66343897
_symmetry_Int_Tables_number   1
_chemical_formula_structural   AcLa2(ZnNi2)2
_chemical_formula_sum   'Ac1 La2 Zn2 Ni4'
_cell_volume   181.25930393
_cell_formula_units_Z   1
loop_
 _symmetry_equiv_pos_site_id
 _symmetry_equiv_pos_as_xyz
  1  'x, y, z'
loop_
 _atom_site_type_symbol
 _atom_site_label
 _atom_site_symmetry_multiplicity
 _atom_site_fract_x
 _atom_site_fract_y
 _atom_site_fract_z
 _atom_site_occupancy
  Ac  Ac0  1  0.000000  0.000000  0.000000  1
  La  La1  1  0.375597  0.375597  0.383678  1
  La  La2  1  0.624403  0.624403  0.616322  1
  Zn  Zn3  1  0.319489  0.319489  0.783196  1
  Zn  Zn4  1  0.680511  0.680511  0.216804  1
  Ni  Ni5  1  0.737939  0.737939  0.911222  1
  Ni  Ni6  1  0.087051  0.087051  0.364761  1
  Ni  Ni7  1  0.912949  0.912949  0.635239  1
  Ni  Ni8  1  0.262061  0.262061  0.088778  1
