# generated using pymatgen
data_Er10Tm2Tc3Ir
_symmetry_space_group_name_H-M   'P 1'
_cell_length_a   6.23413220
_cell_length_b   7.35669336
_cell_length_c   9.02734528
_cell_angle_alpha   89.99995313
_cell_angle_beta   89.97140893
_cell_angle_gamma   89.98000432
_symmetry_Int_Tables_number   1
_chemical_formula_structural   Er10Tm2Tc3Ir
_chemical_formula_sum   'Er10 Tm2 Tc3 Ir1'
_cell_volume   414.01743934
_cell_formula_units_Z   1
loop_
 _symmetry_equiv_pos_site_id
 _symmetry_equiv_pos_as_xyz
  1  'x, y, z'
loop_
 _atom_site_type_symbol
 _atom_site_label
 _atom_site_symmetry_multiplicity
 _atom_site_fract_x
 _atom_site_fract_y
 _atom_site_fract_z
 _atom_site_occupancy
  Er  Er0  1  0.663462  0.322667  0.561175  1
  Er  Er1  1  0.836691  0.825457  0.938592  1
  Er  Er2  1  0.663360  0.322799  0.938798  1
  Er  Er3  1  0.836796  0.825537  0.561449  1
  Er  Er4  1  0.334403  0.676195  0.436141  1
  Er  Er5  1  0.161817  0.175442  0.063013  1
  Er  Er6  1  0.875567  0.540054  0.249994  1
  Er  Er7  1  0.623765  0.038001  0.249993  1
  Er  Er8  1  0.130136  0.458579  0.750005  1
  Er  Er9  1  0.372653  0.960510  0.749994  1
  Tm  Tm10  1  0.334484  0.676081  0.063789  1
  Tm  Tm11  1  0.161794  0.175427  0.437069  1
  Tc  Tc12  1  0.039645  0.883661  0.249963  1
  Tc  Tc13  1  0.462551  0.385995  0.250008  1
  Tc  Tc14  1  0.960487  0.116775  0.749883  1
  Ir  Ir15  1  0.542390  0.616822  0.750134  1
