# generated using pymatgen
data_Ca9AcAu8
_symmetry_space_group_name_H-M   'P 1'
_cell_length_a   8.16792408
_cell_length_b   7.87185010
_cell_length_c   8.12713672
_cell_angle_alpha   70.22957977
_cell_angle_beta   89.49781992
_cell_angle_gamma   89.55194993
_symmetry_Int_Tables_number   1
_chemical_formula_structural   Ca9AcAu8
_chemical_formula_sum   'Ca9 Ac1 Au8'
_cell_volume   491.72111641
_cell_formula_units_Z   1
loop_
 _symmetry_equiv_pos_site_id
 _symmetry_equiv_pos_as_xyz
  1  'x, y, z'
loop_
 _atom_site_type_symbol
 _atom_site_label
 _atom_site_symmetry_multiplicity
 _atom_site_fract_x
 _atom_site_fract_y
 _atom_site_fract_z
 _atom_site_occupancy
  Ca  Ca0  1  0.177091  0.567938  0.308026  1
  Ca  Ca1  1  0.821909  0.431892  0.692111  1
  Ca  Ca2  1  0.329934  0.254248  0.743678  1
  Ca  Ca3  1  0.996662  0.999260  0.996877  1
  Ca  Ca4  1  0.680905  0.931087  0.693363  1
  Ca  Ca5  1  0.830305  0.247422  0.257326  1
  Ca  Ca6  1  0.166517  0.749120  0.747839  1
  Ca  Ca7  1  0.673255  0.743508  0.255615  1
  Ca  Ca8  1  0.502353  0.505752  0.995918  1
  Ac  Ac9  1  0.323413  0.062615  0.312083  1
  Au  Au10  1  0.867451  0.629429  0.987485  1
  Au  Au11  1  0.965344  0.854559  0.417739  1
  Au  Au12  1  0.131755  0.370686  0.012343  1
  Au  Au13  1  0.533841  0.357603  0.418357  1
  Au  Au14  1  0.366738  0.868973  0.010721  1
  Au  Au15  1  0.466170  0.648136  0.580303  1
  Au  Au16  1  0.034322  0.146211  0.582889  1
  Au  Au17  1  0.632035  0.131560  0.987326  1
