# generated using pymatgen
data_Cs4GdPaO6
_symmetry_space_group_name_H-M   'P 1'
_cell_length_a   6.52365138
_cell_length_b   6.52357216
_cell_length_c   7.35083388
_cell_angle_alpha   98.50670927
_cell_angle_beta   98.50641470
_cell_angle_gamma   119.80293157
_symmetry_Int_Tables_number   1
_chemical_formula_structural   Cs4GdPaO6
_chemical_formula_sum   'Cs4 Gd1 Pa1 O6'
_cell_volume   259.38000850
_cell_formula_units_Z   1
loop_
 _symmetry_equiv_pos_site_id
 _symmetry_equiv_pos_as_xyz
  1  'x, y, z'
loop_
 _atom_site_type_symbol
 _atom_site_label
 _atom_site_symmetry_multiplicity
 _atom_site_fract_x
 _atom_site_fract_y
 _atom_site_fract_z
 _atom_site_occupancy
  Cs  Cs0  1  0.500822  0.499196  0.999997  1
  Cs  Cs1  1  0.996229  0.003776  0.499996  1
  Cs  Cs2  1  0.659611  0.340409  0.499995  1
  Cs  Cs3  1  0.340272  0.659718  0.499991  1
  Gd  Gd4  1  0.833854  0.166165  0.999984  1
  Pa  Pa5  1  0.167159  0.832851  0.000007  1
  O  O6  1  0.983617  0.579823  0.178512  1
  O  O7  1  0.541363  0.963056  0.176583  1
  O  O8  1  0.157279  0.137347  0.172701  1
  O  O9  1  0.862681  0.842716  0.827294  1
  O  O10  1  0.036910  0.458570  0.823439  1
  O  O11  1  0.420203  0.016374  0.821501  1
