# generated using pymatgen
data_Ce2CuPtPb
_symmetry_space_group_name_H-M   'P 1'
_cell_length_a   7.84845700
_cell_length_b   7.84618800
_cell_length_c   3.82490100
_cell_angle_alpha   90.00000000
_cell_angle_beta   90.00000000
_cell_angle_gamma   90.00000000
_symmetry_Int_Tables_number   1
_chemical_formula_structural   Ce2CuPtPb
_chemical_formula_sum   'Ce4 Cu2 Pt2 Pb2'
_cell_volume   235.53919796
_cell_formula_units_Z   2
loop_
 _symmetry_equiv_pos_site_id
 _symmetry_equiv_pos_as_xyz
  1  'x, y, z'
loop_
 _atom_site_type_symbol
 _atom_site_label
 _atom_site_symmetry_multiplicity
 _atom_site_fract_x
 _atom_site_fract_y
 _atom_site_fract_z
 _atom_site_occupancy
  Ce  Ce0  1  0.675679  0.168279  0.500001  1
  Ce  Ce1  1  0.175677  0.331720  0.500001  1
  Ce  Ce2  1  0.826355  0.681497  0.500001  1
  Ce  Ce3  1  0.326355  0.818504  0.500001  1
  Cu  Cu4  1  0.375750  0.123643  0.000000  1
  Cu  Cu5  1  0.875750  0.376357  0.000000  1
  Pt  Pt6  1  0.116530  0.615615  0.000000  1
  Pt  Pt7  1  0.616530  0.884385  0.000000  1
  Pb  Pb8  1  0.005687  0.006561  0.000000  1
  Pb  Pb9  1  0.505687  0.493439  0.000000  1
