# generated using pymatgen
data_ZnSb3IF24
_symmetry_space_group_name_H-M   'P 1'
_cell_length_a   10.32557009
_cell_length_b   10.32556979
_cell_length_c   9.58327300
_cell_angle_alpha   88.47753518
_cell_angle_beta   88.47753522
_cell_angle_gamma   119.43878556
_symmetry_Int_Tables_number   1
_chemical_formula_structural   ZnSb3IF24
_chemical_formula_sum   'Zn2 Sb6 I2 F48'
_cell_volume   888.58129636
_cell_formula_units_Z   2
loop_
 _symmetry_equiv_pos_site_id
 _symmetry_equiv_pos_as_xyz
  1  'x, y, z'
loop_
 _atom_site_type_symbol
 _atom_site_label
 _atom_site_symmetry_multiplicity
 _atom_site_fract_x
 _atom_site_fract_y
 _atom_site_fract_z
 _atom_site_occupancy
  Zn  Zn0  1  0.000000  0.000000  0.500000  1
  Zn  Zn1  1  0.000000  0.000000  0.000000  1
  Sb  Sb2  1  0.334566  0.166293  0.743965  1
  Sb  Sb3  1  0.833707  0.665434  0.756035  1
  Sb  Sb4  1  0.832013  0.167987  0.750000  1
  Sb  Sb5  1  0.166293  0.334566  0.243965  1
  Sb  Sb6  1  0.167987  0.832013  0.250000  1
  Sb  Sb7  1  0.665434  0.833707  0.256035  1
  I  I8  1  0.333348  0.666652  0.750000  1
  I  I9  1  0.666652  0.333348  0.250000  1
  F  F10  1  0.310931  0.313390  0.839093  1
  F  F11  1  0.995341  0.670113  0.850770  1
  F  F12  1  0.677631  0.998570  0.850223  1
  F  F13  1  0.313390  0.310931  0.339093  1
  F  F14  1  0.998570  0.677631  0.350223  1
  F  F15  1  0.670113  0.995341  0.350770  1
  F  F16  1  0.689069  0.686610  0.160907  1
  F  F17  1  0.004659  0.329887  0.149230  1
  F  F18  1  0.322369  0.001430  0.149777  1
  F  F19  1  0.686610  0.689069  0.660907  1
  F  F20  1  0.001430  0.322369  0.649777  1
  F  F21  1  0.329887  0.004659  0.649230  1
  F  F22  1  0.477559  0.311580  0.614618  1
  F  F23  1  0.831794  0.527065  0.629284  1
  F  F24  1  0.697216  0.174538  0.623616  1
  F  F25  1  0.311580  0.477559  0.114618  1
  F  F26  1  0.174538  0.697216  0.123616  1
  F  F27  1  0.527065  0.831794  0.129284  1
  F  F28  1  0.522441  0.688420  0.385382  1
  F  F29  1  0.168206  0.472935  0.370716  1
  F  F30  1  0.302784  0.825462  0.376384  1
  F  F31  1  0.688420  0.522441  0.885382  1
  F  F32  1  0.825462  0.302784  0.876384  1
  F  F33  1  0.472935  0.168206  0.870716  1
  F  F34  1  0.184826  0.519834  0.861208  1
  F  F35  1  0.329176  0.805777  0.860456  1
  F  F36  1  0.470755  0.659965  0.861176  1
  F  F37  1  0.519834  0.184826  0.361208  1
  F  F38  1  0.659965  0.470755  0.361176  1
  F  F39  1  0.805777  0.329176  0.360456  1
  F  F40  1  0.815174  0.480166  0.138792  1
  F  F41  1  0.670824  0.194223  0.139544  1
  F  F42  1  0.529245  0.340035  0.138824  1
  F  F43  1  0.480166  0.815174  0.638792  1
  F  F44  1  0.340035  0.529245  0.638824  1
  F  F45  1  0.194223  0.670824  0.639544  1
  F  F46  1  0.173147  0.144284  0.622476  1
  F  F47  1  0.981959  0.828796  0.628429  1
  F  F48  1  0.854141  0.026334  0.629027  1
  F  F49  1  0.144284  0.173147  0.122476  1
  F  F50  1  0.026334  0.854141  0.129027  1
  F  F51  1  0.828796  0.981959  0.128429  1
  F  F52  1  0.826853  0.855716  0.377524  1
  F  F53  1  0.018041  0.171204  0.371571  1
  F  F54  1  0.145859  0.973666  0.370973  1
  F  F55  1  0.855716  0.826853  0.877524  1
  F  F56  1  0.973666  0.145859  0.870973  1
  F  F57  1  0.171204  0.018041  0.871571  1
