# generated using pymatgen
data_YEr3Al18(CuRh2)2
_symmetry_space_group_name_H-M   'P 1'
_cell_length_a   7.56578782
_cell_length_b   7.56579848
_cell_length_c   9.39388600
_cell_angle_alpha   90.00000000
_cell_angle_beta   90.00000000
_cell_angle_gamma   119.76147113
_symmetry_Int_Tables_number   1
_chemical_formula_structural   YEr3Al18(CuRh2)2
_chemical_formula_sum   'Y1 Er3 Al18 Cu2 Rh4'
_cell_volume   466.79231055
_cell_formula_units_Z   1
loop_
 _symmetry_equiv_pos_site_id
 _symmetry_equiv_pos_as_xyz
  1  'x, y, z'
loop_
 _atom_site_type_symbol
 _atom_site_label
 _atom_site_symmetry_multiplicity
 _atom_site_fract_x
 _atom_site_fract_y
 _atom_site_fract_z
 _atom_site_occupancy
  Y  Y0  1  0.326086  0.006111  0.750000  1
  Er  Er1  1  0.993601  0.673027  0.250000  1
  Er  Er2  1  0.006459  0.326515  0.750000  1
  Er  Er3  1  0.673641  0.993702  0.250000  1
  Al  Al4  1  0.127416  0.127486  0.250000  1
  Al  Al5  1  0.871839  0.872231  0.750000  1
  Al  Al6  1  0.999115  0.337868  0.076121  1
  Al  Al7  1  0.000239  0.661548  0.925008  1
  Al  Al8  1  0.000239  0.661548  0.574992  1
  Al  Al9  1  0.337944  0.998796  0.423332  1
  Al  Al10  1  0.999115  0.337868  0.423879  1
  Al  Al11  1  0.662389  0.000607  0.575296  1
  Al  Al12  1  0.662389  0.000607  0.924704  1
  Al  Al13  1  0.337944  0.998796  0.076668  1
  Al  Al14  1  0.335000  0.335178  0.552504  1
  Al  Al15  1  0.665552  0.665505  0.445825  1
  Al  Al16  1  0.665552  0.665505  0.054175  1
  Al  Al17  1  0.335000  0.335178  0.947496  1
  Al  Al18  1  0.337775  0.549335  0.250000  1
  Al  Al19  1  0.662698  0.450887  0.750000  1
  Al  Al20  1  0.549503  0.337729  0.250000  1
  Al  Al21  1  0.450689  0.661388  0.750000  1
  Cu  Cu22  1  0.999687  0.001900  0.001261  1
  Cu  Cu23  1  0.999687  0.001900  0.498739  1
  Rh  Rh24  1  0.671842  0.328276  0.000322  1
  Rh  Rh25  1  0.328378  0.671116  0.000289  1
  Rh  Rh26  1  0.328378  0.671116  0.499711  1
  Rh  Rh27  1  0.671842  0.328276  0.499678  1
