# generated using pymatgen
data_Zr4In2CoPt3
_symmetry_space_group_name_H-M   'P 1'
_cell_length_a   7.58388645
_cell_length_b   7.58388645
_cell_length_c   3.34066600
_cell_angle_alpha   90.00000000
_cell_angle_beta   90.00000000
_cell_angle_gamma   90.29098624
_symmetry_Int_Tables_number   1
_chemical_formula_structural   Zr4In2CoPt3
_chemical_formula_sum   'Zr4 In2 Co1 Pt3'
_cell_volume   192.13704188
_cell_formula_units_Z   1
loop_
 _symmetry_equiv_pos_site_id
 _symmetry_equiv_pos_as_xyz
  1  'x, y, z'
loop_
 _atom_site_type_symbol
 _atom_site_label
 _atom_site_symmetry_multiplicity
 _atom_site_fract_x
 _atom_site_fract_y
 _atom_site_fract_z
 _atom_site_occupancy
  Zr  Zr0  1  0.685946  0.185946  0.500000  1
  Zr  Zr1  1  0.147223  0.324837  0.500000  1
  Zr  Zr2  1  0.824837  0.647223  0.500000  1
  Zr  Zr3  1  0.335479  0.835479  0.500000  1
  In  In4  1  0.997809  0.000181  0.000000  1
  In  In5  1  0.500181  0.497809  0.000000  1
  Co  Co6  1  0.873278  0.373278  0.000000  1
  Pt  Pt7  1  0.373739  0.134135  0.000000  1
  Pt  Pt8  1  0.127374  0.627374  0.000000  1
  Pt  Pt9  1  0.634135  0.873739  0.000000  1
