# generated using pymatgen
data_HfSc7(IrRu)4
_symmetry_space_group_name_H-M   'P 1'
_cell_length_a   6.37076200
_cell_length_b   4.58384300
_cell_length_c   9.17821700
_cell_angle_alpha   90.00000000
_cell_angle_beta   89.99918952
_cell_angle_gamma   90.00000000
_symmetry_Int_Tables_number   1
_chemical_formula_structural   HfSc7(IrRu)4
_chemical_formula_sum   'Hf1 Sc7 Ir4 Ru4'
_cell_volume   268.02755009
_cell_formula_units_Z   1
loop_
 _symmetry_equiv_pos_site_id
 _symmetry_equiv_pos_as_xyz
  1  'x, y, z'
loop_
 _atom_site_type_symbol
 _atom_site_label
 _atom_site_symmetry_multiplicity
 _atom_site_fract_x
 _atom_site_fract_y
 _atom_site_fract_z
 _atom_site_occupancy
  Hf  Hf0  1  0.999690  0.750000  0.125000  1
  Sc  Sc1  1  0.499864  0.750000  0.125007  1
  Sc  Sc2  1  0.999877  0.250000  0.377335  1
  Sc  Sc3  1  0.499847  0.250000  0.376081  1
  Sc  Sc4  1  0.500122  0.750000  0.624996  1
  Sc  Sc5  1  0.000258  0.750000  0.625008  1
  Sc  Sc6  1  0.500118  0.250000  0.873915  1
  Sc  Sc7  1  0.000145  0.250000  0.872658  1
  Ir  Ir8  1  0.752238  0.250000  0.124998  1
  Ir  Ir9  1  0.248820  0.750000  0.373422  1
  Ir  Ir10  1  0.749982  0.250000  0.624995  1
  Ir  Ir11  1  0.249005  0.750000  0.876601  1
  Ru  Ru12  1  0.247563  0.250000  0.124996  1
  Ru  Ru13  1  0.751000  0.750000  0.373248  1
  Ru  Ru14  1  0.250314  0.250000  0.624979  1
  Ru  Ru15  1  0.751158  0.750000  0.876757  1
