# generated using pymatgen
data_Dy12Co4HgPt
_symmetry_space_group_name_H-M   'P 1'
_cell_length_a   8.28933417
_cell_length_b   8.28933329
_cell_length_c   8.28933381
_cell_angle_alpha   107.17705555
_cell_angle_beta   110.08370695
_cell_angle_gamma   111.17893492
_symmetry_Int_Tables_number   1
_chemical_formula_structural   Dy12Co4HgPt
_chemical_formula_sum   'Dy12 Co4 Hg1 Pt1'
_cell_volume   437.90075218
_cell_formula_units_Z   1
loop_
 _symmetry_equiv_pos_site_id
 _symmetry_equiv_pos_as_xyz
  1  'x, y, z'
loop_
 _atom_site_type_symbol
 _atom_site_label
 _atom_site_symmetry_multiplicity
 _atom_site_fract_x
 _atom_site_fract_y
 _atom_site_fract_z
 _atom_site_occupancy
  Dy  Dy0  1  0.476715  0.291442  0.185273  1
  Dy  Dy1  1  0.106168  0.291442  0.814727  1
  Dy  Dy2  1  0.893832  0.708558  0.185273  1
  Dy  Dy3  1  0.523285  0.708558  0.814727  1
  Dy  Dy4  1  0.303361  0.619540  0.316178  1
  Dy  Dy5  1  0.303361  0.987185  0.683822  1
  Dy  Dy6  1  0.696639  0.380460  0.683822  1
  Dy  Dy7  1  0.696639  0.012815  0.316178  1
  Dy  Dy8  1  0.198274  0.215271  0.413545  1
  Dy  Dy9  1  0.801726  0.784729  0.586455  1
  Dy  Dy10  1  0.198274  0.784729  0.983003  1
  Dy  Dy11  1  0.801726  0.215271  0.016997  1
  Co  Co12  1  0.500000  0.612790  0.112790  1
  Co  Co13  1  0.500000  0.387210  0.887210  1
  Co  Co14  1  0.378814  0.000000  0.378814  1
  Co  Co15  1  0.621186  0.000000  0.621186  1
  Hg  Hg16  1  0.000000  0.500000  0.500000  1
  Pt  Pt17  1  0.000000  0.000000  0.000000  1
