# generated using pymatgen
data_Y9Er11(SiBi2)4
_symmetry_space_group_name_H-M   'P 1'
_cell_length_a   8.02263297
_cell_length_b   9.10211700
_cell_length_c   12.10945722
_cell_angle_alpha   90.00000000
_cell_angle_beta   89.92402365
_cell_angle_gamma   90.00000000
_symmetry_Int_Tables_number   1
_chemical_formula_structural   Y9Er11(SiBi2)4
_chemical_formula_sum   'Y9 Er11 Si4 Bi8'
_cell_volume   884.26743804
_cell_formula_units_Z   1
loop_
 _symmetry_equiv_pos_site_id
 _symmetry_equiv_pos_as_xyz
  1  'x, y, z'
loop_
 _atom_site_type_symbol
 _atom_site_label
 _atom_site_symmetry_multiplicity
 _atom_site_fract_x
 _atom_site_fract_y
 _atom_site_fract_z
 _atom_site_occupancy
  Y  Y0  1  0.658519  0.750000  0.711486  1
  Y  Y1  1  0.340941  0.250000  0.288320  1
  Y  Y2  1  0.158678  0.250000  0.787647  1
  Y  Y3  1  0.841129  0.750000  0.212445  1
  Y  Y4  1  0.135179  0.750000  0.795913  1
  Y  Y5  1  0.865230  0.250000  0.204068  1
  Y  Y6  1  0.635559  0.250000  0.703800  1
  Y  Y7  1  0.364517  0.750000  0.296243  1
  Y  Y8  1  0.541300  0.750000  0.000043  1
  Er  Er9  1  0.458907  0.250000  0.999839  1
  Er  Er10  1  0.041051  0.250000  0.499869  1
  Er  Er11  1  0.958613  0.750000  0.500065  1
  Er  Er12  1  0.819413  0.448310  0.934750  1
  Er  Er13  1  0.180546  0.551200  0.065403  1
  Er  Er14  1  0.318833  0.551526  0.564998  1
  Er  Er15  1  0.180546  0.948800  0.065403  1
  Er  Er16  1  0.681039  0.448405  0.434910  1
  Er  Er17  1  0.819413  0.051690  0.934750  1
  Er  Er18  1  0.681039  0.051595  0.434910  1
  Er  Er19  1  0.318833  0.948474  0.564998  1
  Si  Si20  1  0.918831  0.750000  0.981903  1
  Si  Si21  1  0.082840  0.250000  0.018368  1
  Si  Si22  1  0.417159  0.250000  0.518770  1
  Si  Si23  1  0.582881  0.750000  0.481086  1
  Bi  Bi24  1  0.929130  0.009430  0.671675  1
  Bi  Bi25  1  0.070786  0.990479  0.328381  1
  Bi  Bi26  1  0.428617  0.991020  0.827604  1
  Bi  Bi27  1  0.070786  0.509521  0.328381  1
  Bi  Bi28  1  0.570969  0.010175  0.172344  1
  Bi  Bi29  1  0.929130  0.490570  0.671675  1
  Bi  Bi30  1  0.570969  0.489825  0.172344  1
  Bi  Bi31  1  0.428617  0.508980  0.827604  1
