# generated using pymatgen
data_Y16Tl6TcAu
_symmetry_space_group_name_H-M   'P 1'
_cell_length_a   10.53216300
_cell_length_b   10.53216486
_cell_length_c   7.05586200
_cell_angle_alpha   90.00000000
_cell_angle_beta   90.00000000
_cell_angle_gamma   120.00000357
_symmetry_Int_Tables_number   1
_chemical_formula_structural   Y16Tl6TcAu
_chemical_formula_sum   'Y16 Tl6 Tc1 Au1'
_cell_volume   677.82239658
_cell_formula_units_Z   1
loop_
 _symmetry_equiv_pos_site_id
 _symmetry_equiv_pos_as_xyz
  1  'x, y, z'
loop_
 _atom_site_type_symbol
 _atom_site_label
 _atom_site_symmetry_multiplicity
 _atom_site_fract_x
 _atom_site_fract_y
 _atom_site_fract_z
 _atom_site_occupancy
  Y  Y0  1  0.473623  0.526377  0.473999  1
  Y  Y1  1  0.052752  0.526377  0.473999  1
  Y  Y2  1  0.473623  0.947248  0.473999  1
  Y  Y3  1  0.535892  0.464108  0.978821  1
  Y  Y4  1  0.928215  0.464108  0.978821  1
  Y  Y5  1  0.535892  0.071785  0.978821  1
  Y  Y6  1  0.825681  0.174319  0.272726  1
  Y  Y7  1  0.348638  0.174319  0.272726  1
  Y  Y8  1  0.825681  0.651362  0.272726  1
  Y  Y9  1  0.172993  0.827007  0.774970  1
  Y  Y10  1  0.654015  0.827007  0.774970  1
  Y  Y11  1  0.172993  0.345985  0.774970  1
  Y  Y12  1  0.333333  0.666667  0.112805  1
  Y  Y13  1  0.666667  0.333333  0.606744  1
  Y  Y14  1  0.000000  0.000000  0.500421  1
  Y  Y15  1  0.000000  0.000000  0.996235  1
  Tl  Tl16  1  0.164679  0.835321  0.235745  1
  Tl  Tl17  1  0.670644  0.835321  0.235745  1
  Tl  Tl18  1  0.164679  0.329356  0.235745  1
  Tl  Tl19  1  0.837329  0.162671  0.732755  1
  Tl  Tl20  1  0.325342  0.162671  0.732755  1
  Tl  Tl21  1  0.837329  0.674658  0.732755  1
  Tc  Tc22  1  0.666667  0.333333  0.214562  1
  Au  Au23  1  0.333333  0.666667  0.706745  1
