# generated using pymatgen
data_Zr12Ta3Sn(Os2N)4
_symmetry_space_group_name_H-M   'P 1'
_cell_length_a   8.74820710
_cell_length_b   8.74820687
_cell_length_c   8.74820662
_cell_angle_alpha   59.84103871
_cell_angle_beta   59.84103760
_cell_angle_gamma   59.84103722
_symmetry_Int_Tables_number   1
_chemical_formula_structural   Zr12Ta3Sn(Os2N)4
_chemical_formula_sum   'Zr12 Ta3 Sn1 Os8 N4'
_cell_volume   471.70721106
_cell_formula_units_Z   1
loop_
 _symmetry_equiv_pos_site_id
 _symmetry_equiv_pos_as_xyz
  1  'x, y, z'
loop_
 _atom_site_type_symbol
 _atom_site_label
 _atom_site_symmetry_multiplicity
 _atom_site_fract_x
 _atom_site_fract_y
 _atom_site_fract_z
 _atom_site_occupancy
  Zr  Zr0  1  0.812214  0.812214  0.188154  1
  Zr  Zr1  1  0.187849  0.187849  0.813387  1
  Zr  Zr2  1  0.812214  0.188154  0.812214  1
  Zr  Zr3  1  0.187849  0.813387  0.187849  1
  Zr  Zr4  1  0.188154  0.812214  0.812214  1
  Zr  Zr5  1  0.813387  0.187849  0.187849  1
  Zr  Zr6  1  0.437786  0.437786  0.061846  1
  Zr  Zr7  1  0.062151  0.062151  0.436613  1
  Zr  Zr8  1  0.437786  0.061846  0.437786  1
  Zr  Zr9  1  0.062151  0.436613  0.062151  1
  Zr  Zr10  1  0.061846  0.437786  0.437786  1
  Zr  Zr11  1  0.436613  0.062151  0.062151  1
  Ta  Ta12  1  0.125000  0.625000  0.625000  1
  Ta  Ta13  1  0.625000  0.125000  0.625000  1
  Ta  Ta14  1  0.625000  0.625000  0.125000  1
  Sn  Sn15  1  0.625000  0.625000  0.625000  1
  Os  Os16  1  0.750072  0.413162  0.413162  1
  Os  Os17  1  0.413162  0.750072  0.413162  1
  Os  Os18  1  0.413162  0.413162  0.750072  1
  Os  Os19  1  0.416366  0.416366  0.416366  1
  Os  Os20  1  0.499928  0.836838  0.836838  1
  Os  Os21  1  0.836838  0.499928  0.836838  1
  Os  Os22  1  0.836838  0.836838  0.499928  1
  Os  Os23  1  0.833634  0.833634  0.833634  1
  N  N24  1  0.625000  0.125000  0.125000  1
  N  N25  1  0.125000  0.625000  0.125000  1
  N  N26  1  0.125000  0.125000  0.625000  1
  N  N27  1  0.125000  0.125000  0.125000  1
