# generated using pymatgen
data_Nd4Al3PtI2
_symmetry_space_group_name_H-M   'P 1'
_cell_length_a   4.39618700
_cell_length_b   4.39618808
_cell_length_c   17.03672300
_cell_angle_alpha   90.00000000
_cell_angle_beta   90.00000000
_cell_angle_gamma   120.00001447
_symmetry_Int_Tables_number   1
_chemical_formula_structural   Nd4Al3PtI2
_chemical_formula_sum   'Nd4 Al3 Pt1 I2'
_cell_volume   285.14716130
_cell_formula_units_Z   1
loop_
 _symmetry_equiv_pos_site_id
 _symmetry_equiv_pos_as_xyz
  1  'x, y, z'
loop_
 _atom_site_type_symbol
 _atom_site_label
 _atom_site_symmetry_multiplicity
 _atom_site_fract_x
 _atom_site_fract_y
 _atom_site_fract_z
 _atom_site_occupancy
  Nd  Nd0  1  0.000000  0.000000  0.395545  1
  Nd  Nd1  1  0.000000  0.000000  0.880549  1
  Nd  Nd2  1  0.000000  0.000000  0.607166  1
  Nd  Nd3  1  0.000000  0.000000  0.118872  1
  Al  Al4  1  0.333333  0.666667  0.993026  1
  Al  Al5  1  0.333333  0.666667  0.503442  1
  Al  Al6  1  0.666667  0.333333  0.006364  1
  Pt  Pt7  1  0.666667  0.333333  0.496377  1
  I  I8  1  0.333333  0.666667  0.249276  1
  I  I9  1  0.666667  0.333333  0.749382  1
