# generated using pymatgen
data_LiSi4Tc3Ni4
_symmetry_space_group_name_H-M   'P 1'
_cell_length_a   3.70070500
_cell_length_b   5.77192696
_cell_length_c   6.92474279
_cell_angle_alpha   88.99616155
_cell_angle_beta   90.00000000
_cell_angle_gamma   90.00000000
_symmetry_Int_Tables_number   1
_chemical_formula_structural   LiSi4Tc3Ni4
_chemical_formula_sum   'Li1 Si4 Tc3 Ni4'
_cell_volume   147.89118244
_cell_formula_units_Z   1
loop_
 _symmetry_equiv_pos_site_id
 _symmetry_equiv_pos_as_xyz
  1  'x, y, z'
loop_
 _atom_site_type_symbol
 _atom_site_label
 _atom_site_symmetry_multiplicity
 _atom_site_fract_x
 _atom_site_fract_y
 _atom_site_fract_z
 _atom_site_occupancy
  Li  Li0  1  0.750000  0.469474  0.812210  1
  Si  Si1  1  0.250000  0.249006  0.616458  1
  Si  Si2  1  0.250000  0.758590  0.881503  1
  Si  Si3  1  0.750000  0.742870  0.379668  1
  Si  Si4  1  0.750000  0.249155  0.122904  1
  Tc  Tc5  1  0.250000  0.031401  0.315189  1
  Tc  Tc6  1  0.250000  0.531008  0.187050  1
  Tc  Tc7  1  0.750000  0.968500  0.677836  1
  Ni  Ni8  1  0.250000  0.148963  0.939018  1
  Ni  Ni9  1  0.250000  0.641767  0.566738  1
  Ni  Ni10  1  0.750000  0.859611  0.057219  1
  Ni  Ni11  1  0.750000  0.349658  0.444208  1
