# generated using pymatgen
data_Dy4NpTaRu6
_symmetry_space_group_name_H-M   'P 1'
_cell_length_a   5.80324706
_cell_length_b   5.80324853
_cell_length_c   7.85694600
_cell_angle_alpha   89.99167702
_cell_angle_beta   90.00832299
_cell_angle_gamma   119.98822207
_symmetry_Int_Tables_number   1
_chemical_formula_structural   Dy4NpTaRu6
_chemical_formula_sum   'Dy4 Np1 Ta1 Ru6'
_cell_volume   229.18075997
_cell_formula_units_Z   1
loop_
 _symmetry_equiv_pos_site_id
 _symmetry_equiv_pos_as_xyz
  1  'x, y, z'
loop_
 _atom_site_type_symbol
 _atom_site_label
 _atom_site_symmetry_multiplicity
 _atom_site_fract_x
 _atom_site_fract_y
 _atom_site_fract_z
 _atom_site_occupancy
  Dy  Dy0  1  0.666663  0.333337  0.561604  1
  Dy  Dy1  1  0.333337  0.666663  0.438396  1
  Dy  Dy2  1  0.333342  0.666658  0.052865  1
  Dy  Dy3  1  0.666658  0.333342  0.947135  1
  Np  Np4  1  0.000000  0.000000  0.500000  1
  Ta  Ta5  1  0.000000  0.000000  0.000000  1
  Ru  Ru6  1  0.166959  0.333954  0.742082  1
  Ru  Ru7  1  0.166986  0.833014  0.742074  1
  Ru  Ru8  1  0.666046  0.833041  0.742082  1
  Ru  Ru9  1  0.833041  0.666046  0.257918  1
  Ru  Ru10  1  0.833014  0.166986  0.257926  1
  Ru  Ru11  1  0.333954  0.166959  0.257918  1
