# generated using pymatgen
data_CaY3Re2(B8W)2
_symmetry_space_group_name_H-M   'P 1'
_cell_length_a   3.61977300
_cell_length_b   6.02156432
_cell_length_c   11.63509308
_cell_angle_alpha   89.93734977
_cell_angle_beta   90.00000000
_cell_angle_gamma   90.00000000
_symmetry_Int_Tables_number   1
_chemical_formula_structural   CaY3Re2(B8W)2
_chemical_formula_sum   'Ca1 Y3 Re2 B16 W2'
_cell_volume   253.60643463
_cell_formula_units_Z   1
loop_
 _symmetry_equiv_pos_site_id
 _symmetry_equiv_pos_as_xyz
  1  'x, y, z'
loop_
 _atom_site_type_symbol
 _atom_site_label
 _atom_site_symmetry_multiplicity
 _atom_site_fract_x
 _atom_site_fract_y
 _atom_site_fract_z
 _atom_site_occupancy
  Ca  Ca0  1  0.000000  0.127254  0.149985  1
  Y  Y1  1  0.000000  0.872823  0.850788  1
  Y  Y2  1  0.000000  0.627813  0.349112  1
  Y  Y3  1  0.000000  0.373109  0.649897  1
  Re  Re4  1  0.000000  0.632654  0.083178  1
  Re  Re5  1  0.000000  0.368824  0.914897  1
  B  B6  1  0.500000  0.478464  0.191061  1
  B  B7  1  0.500000  0.522121  0.808605  1
  B  B8  1  0.500000  0.975367  0.306207  1
  B  B9  1  0.500000  0.024447  0.694145  1
  B  B10  1  0.500000  0.288110  0.313234  1
  B  B11  1  0.500000  0.711300  0.687012  1
  B  B12  1  0.500000  0.783680  0.184002  1
  B  B13  1  0.500000  0.215446  0.816204  1
  B  B14  1  0.500000  0.366439  0.468014  1
  B  B15  1  0.500000  0.633435  0.532199  1
  B  B16  1  0.500000  0.863345  0.031516  1
  B  B17  1  0.500000  0.136773  0.968401  1
  B  B18  1  0.500000  0.386064  0.047454  1
  B  B19  1  0.500000  0.612327  0.952930  1
  B  B20  1  0.500000  0.885652  0.452713  1
  B  B21  1  0.500000  0.113713  0.547643  1
  W  W22  1  0.000000  0.130809  0.415080  1
  W  W23  1  0.000000  0.870029  0.585720  1
