# generated using pymatgen
data_Hf5Zr15Si15Se
_symmetry_space_group_name_H-M   'P 1'
_cell_length_a   7.15714694
_cell_length_b   7.13959382
_cell_length_c   13.03337886
_cell_angle_alpha   90.00252354
_cell_angle_beta   89.58322385
_cell_angle_gamma   89.81941748
_symmetry_Int_Tables_number   1
_chemical_formula_structural   Hf5Zr15Si15Se
_chemical_formula_sum   'Hf5 Zr15 Si15 Se1'
_cell_volume   665.97328799
_cell_formula_units_Z   1
loop_
 _symmetry_equiv_pos_site_id
 _symmetry_equiv_pos_as_xyz
  1  'x, y, z'
loop_
 _atom_site_type_symbol
 _atom_site_label
 _atom_site_symmetry_multiplicity
 _atom_site_fract_x
 _atom_site_fract_y
 _atom_site_fract_z
 _atom_site_occupancy
  Hf  Hf0  1  0.148573  0.998935  0.376911  1
  Hf  Hf1  1  0.650661  0.501193  0.372430  1
  Hf  Hf2  1  0.347835  0.500772  0.871408  1
  Hf  Hf3  1  0.006311  0.850780  0.125621  1
  Hf  Hf4  1  0.997079  0.146114  0.622828  1
  Zr  Zr5  1  0.674784  0.325151  0.749715  1
  Zr  Zr6  1  0.326984  0.674037  0.250377  1
  Zr  Zr7  1  0.824534  0.824866  0.499966  1
  Zr  Zr8  1  0.176510  0.176888  0.999981  1
  Zr  Zr9  1  0.498987  0.150035  0.533934  1
  Zr  Zr10  1  0.495926  0.843029  0.030522  1
  Zr  Zr11  1  0.652707  0.997741  0.287351  1
  Zr  Zr12  1  0.341614  0.994882  0.780932  1
  Zr  Zr13  1  0.848914  0.506172  0.966261  1
  Zr  Zr14  1  0.153844  0.497604  0.466405  1
  Zr  Zr15  1  0.998201  0.653291  0.716085  1
  Zr  Zr16  1  0.010135  0.352574  0.220859  1
  Zr  Zr17  1  0.501018  0.351118  0.125073  1
  Zr  Zr18  1  0.500602  0.646657  0.627256  1
  Zr  Zr19  1  0.847166  0.003832  0.878568  1
  Si  Si20  1  0.204201  0.856014  0.572685  1
  Si  Si21  1  0.641986  0.705043  0.823701  1
  Si  Si22  1  0.360631  0.293259  0.324287  1
  Si  Si23  1  0.856847  0.205431  0.427171  1
  Si  Si24  1  0.140846  0.795512  0.926962  1
  Si  Si25  1  0.706381  0.646923  0.176762  1
  Si  Si26  1  0.291214  0.354986  0.675156  1
  Si  Si27  1  0.532596  0.197632  0.928022  1
  Si  Si28  1  0.449339  0.797739  0.437807  1
  Si  Si29  1  0.698310  0.950600  0.687663  1
  Si  Si30  1  0.302887  0.048967  0.188086  1
  Si  Si31  1  0.800834  0.449405  0.561764  1
  Si  Si32  1  0.202577  0.552169  0.062235  1
  Si  Si33  1  0.951421  0.701100  0.313897  1
  Si  Si34  1  0.048533  0.300445  0.811332  1
  Se  Se35  1  0.809011  0.149100  0.079988  1
