# generated using pymatgen
data_Y3TmTh6(Tl3C)2
_symmetry_space_group_name_H-M   'P 1'
_cell_length_a   9.33513400
_cell_length_b   9.33513657
_cell_length_c   6.45993500
_cell_angle_alpha   90.00000000
_cell_angle_beta   90.00000000
_cell_angle_gamma   120.00000508
_symmetry_Int_Tables_number   1
_chemical_formula_structural   Y3TmTh6(Tl3C)2
_chemical_formula_sum   'Y3 Tm1 Th6 Tl6 C2'
_cell_volume   487.52847852
_cell_formula_units_Z   1
loop_
 _symmetry_equiv_pos_site_id
 _symmetry_equiv_pos_as_xyz
  1  'x, y, z'
loop_
 _atom_site_type_symbol
 _atom_site_label
 _atom_site_symmetry_multiplicity
 _atom_site_fract_x
 _atom_site_fract_y
 _atom_site_fract_z
 _atom_site_occupancy
  Y  Y0  1  0.666667  0.333333  0.000000  1
  Y  Y1  1  0.333333  0.666667  0.000000  1
  Y  Y2  1  0.333333  0.666667  0.500000  1
  Tm  Tm3  1  0.666667  0.333333  0.500000  1
  Th  Th4  1  0.781186  0.781091  0.749890  1
  Th  Th5  1  0.218909  0.000095  0.749890  1
  Th  Th6  1  0.999905  0.218814  0.749890  1
  Th  Th7  1  0.218909  0.218814  0.250110  1
  Th  Th8  1  0.781186  0.000095  0.250110  1
  Th  Th9  1  0.999905  0.781091  0.250110  1
  Tl  Tl10  1  0.412392  0.411137  0.748599  1
  Tl  Tl11  1  0.588863  0.001256  0.748599  1
  Tl  Tl12  1  0.998744  0.587608  0.748599  1
  Tl  Tl13  1  0.588863  0.587608  0.251401  1
  Tl  Tl14  1  0.412392  0.001256  0.251401  1
  Tl  Tl15  1  0.998744  0.411137  0.251401  1
  C  C16  1  0.000000  0.000000  0.000000  1
  C  C17  1  0.000000  0.000000  0.500000  1
