# generated using pymatgen
data_Ca6Re2N7
_symmetry_space_group_name_H-M   'P 1'
_cell_length_a   6.17053091
_cell_length_b   6.17052981
_cell_length_c   6.17053009
_cell_angle_alpha   94.41416506
_cell_angle_beta   94.41416135
_cell_angle_gamma   94.41414915
_symmetry_Int_Tables_number   1
_chemical_formula_structural   Ca6Re2N7
_chemical_formula_sum   'Ca6 Re2 N7'
_cell_volume   232.74060229
_cell_formula_units_Z   1
loop_
 _symmetry_equiv_pos_site_id
 _symmetry_equiv_pos_as_xyz
  1  'x, y, z'
loop_
 _atom_site_type_symbol
 _atom_site_label
 _atom_site_symmetry_multiplicity
 _atom_site_fract_x
 _atom_site_fract_y
 _atom_site_fract_z
 _atom_site_occupancy
  Ca  Ca0  1  0.668447  0.111244  0.809657  1
  Ca  Ca1  1  0.111244  0.809657  0.668447  1
  Ca  Ca2  1  0.809657  0.668447  0.111244  1
  Ca  Ca3  1  0.331553  0.888756  0.190343  1
  Ca  Ca4  1  0.888756  0.190343  0.331553  1
  Ca  Ca5  1  0.190343  0.331553  0.888756  1
  Re  Re6  1  0.624882  0.624882  0.624882  1
  Re  Re7  1  0.375118  0.375118  0.375118  1
  N  N8  1  0.000000  0.000000  0.000000  1
  N  N9  1  0.734223  0.853994  0.470797  1
  N  N10  1  0.853994  0.470797  0.734223  1
  N  N11  1  0.470797  0.734223  0.853994  1
  N  N12  1  0.265777  0.146006  0.529203  1
  N  N13  1  0.146006  0.529203  0.265777  1
  N  N14  1  0.529203  0.265777  0.146006  1
