# generated using pymatgen
data_SrPr(Sn2Pt)2
_symmetry_space_group_name_H-M   'P 1'
_cell_length_a   9.20836664
_cell_length_b   9.20836792
_cell_length_c   9.65015900
_cell_angle_alpha   90.00000000
_cell_angle_beta   90.00000000
_cell_angle_gamma   150.16404340
_symmetry_Int_Tables_number   1
_chemical_formula_structural   SrPr(Sn2Pt)2
_chemical_formula_sum   'Sr2 Pr2 Sn8 Pt4'
_cell_volume   407.10732435
_cell_formula_units_Z   2
loop_
 _symmetry_equiv_pos_site_id
 _symmetry_equiv_pos_as_xyz
  1  'x, y, z'
loop_
 _atom_site_type_symbol
 _atom_site_label
 _atom_site_symmetry_multiplicity
 _atom_site_fract_x
 _atom_site_fract_y
 _atom_site_fract_z
 _atom_site_occupancy
  Sr  Sr0  1  0.500000  0.500000  0.500000  1
  Sr  Sr1  1  0.500000  0.500000  0.000000  1
  Pr  Pr2  1  0.298108  0.701892  0.250000  1
  Pr  Pr3  1  0.701892  0.298108  0.750000  1
  Sn  Sn4  1  0.911292  0.088708  0.750000  1
  Sn  Sn5  1  0.925919  0.074081  0.250000  1
  Sn  Sn6  1  0.088708  0.911292  0.250000  1
  Sn  Sn7  1  0.074081  0.925919  0.750000  1
  Sn  Sn8  1  0.698384  0.301616  0.407280  1
  Sn  Sn9  1  0.301616  0.698384  0.592720  1
  Sn  Sn10  1  0.301616  0.698384  0.907280  1
  Sn  Sn11  1  0.698384  0.301616  0.092720  1
  Pt  Pt12  1  0.151194  0.848806  0.507458  1
  Pt  Pt13  1  0.848806  0.151194  0.007458  1
  Pt  Pt14  1  0.151194  0.848806  0.992542  1
  Pt  Pt15  1  0.848806  0.151194  0.492542  1
