# generated using pymatgen
data_La3Pr5Se12
_symmetry_space_group_name_H-M   'P 1'
_cell_length_a   7.92603903
_cell_length_b   4.27814000
_cell_length_c   16.50294006
_cell_angle_alpha   90.00000000
_cell_angle_beta   90.01014700
_cell_angle_gamma   90.00000000
_symmetry_Int_Tables_number   1
_chemical_formula_structural   La3Pr5Se12
_chemical_formula_sum   'La3 Pr5 Se12'
_cell_volume   559.59331125
_cell_formula_units_Z   1
loop_
 _symmetry_equiv_pos_site_id
 _symmetry_equiv_pos_as_xyz
  1  'x, y, z'
loop_
 _atom_site_type_symbol
 _atom_site_label
 _atom_site_symmetry_multiplicity
 _atom_site_fract_x
 _atom_site_fract_y
 _atom_site_fract_z
 _atom_site_occupancy
  La  La0  1  0.356296  0.500000  0.703891  1
  La  La1  1  0.856143  0.500000  0.795572  1
  La  La2  1  0.266271  0.000000  0.957193  1
  Pr  Pr3  1  0.735698  0.500000  0.044316  1
  Pr  Pr4  1  0.143644  0.000000  0.205026  1
  Pr  Pr5  1  0.643907  0.000000  0.295705  1
  Pr  Pr6  1  0.234724  0.500000  0.455812  1
  Pr  Pr7  1  0.765285  0.000000  0.543452  1
  Se  Se8  1  0.125591  0.500000  0.068180  1
  Se  Se9  1  0.508931  0.000000  0.109861  1
  Se  Se10  1  0.854224  0.500000  0.218937  1
  Se  Se11  1  0.354465  0.500000  0.281022  1
  Se  Se12  1  0.008602  0.000000  0.390480  1
  Se  Se13  1  0.625541  0.500000  0.432497  1
  Se  Se14  1  0.373919  0.000000  0.566538  1
  Se  Se15  1  0.990878  0.500000  0.608671  1
  Se  Se16  1  0.646046  0.000000  0.718573  1
  Se  Se17  1  0.145274  0.000000  0.780611  1
  Se  Se18  1  0.492401  0.500000  0.890392  1
  Se  Se19  1  0.872162  0.000000  0.933270  1
