# generated using pymatgen
data_Er3RuO7
_symmetry_space_group_name_H-M   'P 1'
_cell_length_a   6.39010757
_cell_length_b   6.39010713
_cell_length_c   7.36306800
_cell_angle_alpha   90.00000000
_cell_angle_beta   90.00000000
_cell_angle_gamma   109.04447511
_symmetry_Int_Tables_number   1
_chemical_formula_structural   Er3RuO7
_chemical_formula_sum   'Er6 Ru2 O14'
_cell_volume   284.20319775
_cell_formula_units_Z   2
loop_
 _symmetry_equiv_pos_site_id
 _symmetry_equiv_pos_as_xyz
  1  'x, y, z'
loop_
 _atom_site_type_symbol
 _atom_site_label
 _atom_site_symmetry_multiplicity
 _atom_site_fract_x
 _atom_site_fract_y
 _atom_site_fract_z
 _atom_site_occupancy
  Er  Er0  1  0.521608  0.521608  0.250000  1
  Er  Er1  1  0.478392  0.478392  0.750000  1
  Er  Er2  1  0.000752  0.463617  0.497075  1
  Er  Er3  1  0.536383  0.999248  0.502925  1
  Er  Er4  1  0.999248  0.536383  0.997075  1
  Er  Er5  1  0.463617  0.000752  0.002925  1
  Ru  Ru6  1  0.000916  0.000916  0.250000  1
  Ru  Ru7  1  0.999084  0.999084  0.750000  1
  O  O8  1  0.065663  0.316826  0.215772  1
  O  O9  1  0.683174  0.934337  0.784228  1
  O  O10  1  0.934337  0.683174  0.715772  1
  O  O11  1  0.316826  0.065663  0.284228  1
  O  O12  1  0.674081  0.920347  0.221653  1
  O  O13  1  0.079653  0.325919  0.778347  1
  O  O14  1  0.325919  0.079653  0.721653  1
  O  O15  1  0.920347  0.674081  0.278347  1
  O  O16  1  0.369349  0.630651  0.500000  1
  O  O17  1  0.630651  0.369349  0.000000  1
  O  O18  1  0.362360  0.637640  0.000000  1
  O  O19  1  0.637640  0.362360  0.500000  1
  O  O20  1  0.927110  0.072890  0.500000  1
  O  O21  1  0.072890  0.927110  0.000000  1
