# generated using pymatgen
data_Sc3Be8NbRu10
_symmetry_space_group_name_H-M   'P 1'
_cell_length_a   3.18513200
_cell_length_b   8.63459758
_cell_length_c   10.11589215
_cell_angle_alpha   90.03094676
_cell_angle_beta   90.00000000
_cell_angle_gamma   90.00000000
_symmetry_Int_Tables_number   1
_chemical_formula_structural   Sc3Be8NbRu10
_chemical_formula_sum   'Sc3 Be8 Nb1 Ru10'
_cell_volume   278.21059462
_cell_formula_units_Z   1
loop_
 _symmetry_equiv_pos_site_id
 _symmetry_equiv_pos_as_xyz
  1  'x, y, z'
loop_
 _atom_site_type_symbol
 _atom_site_label
 _atom_site_symmetry_multiplicity
 _atom_site_fract_x
 _atom_site_fract_y
 _atom_site_fract_z
 _atom_site_occupancy
  Sc  Sc0  1  0.500000  0.162964  0.817956  1
  Sc  Sc1  1  0.500000  0.665375  0.683903  1
  Sc  Sc2  1  0.500000  0.341395  0.317064  1
  Be  Be3  1  0.500000  0.962928  0.593593  1
  Be  Be4  1  0.500000  0.034593  0.404971  1
  Be  Be5  1  0.500000  0.839178  0.905077  1
  Be  Be6  1  0.500000  0.155936  0.096045  1
  Be  Be7  1  0.500000  0.657899  0.404344  1
  Be  Be8  1  0.500000  0.335747  0.593717  1
  Be  Be9  1  0.500000  0.463281  0.906127  1
  Be  Be10  1  0.500000  0.534393  0.096309  1
  Nb  Nb11  1  0.500000  0.842822  0.180241  1
  Ru  Ru12  1  0.000000  0.657780  0.958359  1
  Ru  Ru13  1  0.000000  0.340275  0.047854  1
  Ru  Ru14  1  0.000000  0.841225  0.449566  1
  Ru  Ru15  1  0.000000  0.156069  0.544573  1
  Ru  Ru16  1  0.000000  0.993446  0.002701  1
  Ru  Ru17  1  0.000000  0.408478  0.753176  1
  Ru  Ru18  1  0.000000  0.608118  0.242110  1
  Ru  Ru19  1  0.000000  0.499397  0.500887  1
  Ru  Ru20  1  0.000000  0.908740  0.744488  1
  Ru  Ru21  1  0.000000  0.089962  0.256937  1
