# generated using pymatgen
data_Y16Cd3Co2Ni2Ag
_symmetry_space_group_name_H-M   'P 1'
_cell_length_a   9.56890399
_cell_length_b   9.56912925
_cell_length_c   9.58570825
_cell_angle_alpha   59.96647428
_cell_angle_beta   59.96607209
_cell_angle_gamma   59.94222209
_symmetry_Int_Tables_number   1
_chemical_formula_structural   Y16Cd3Co2Ni2Ag
_chemical_formula_sum   'Y16 Cd3 Co2 Ni2 Ag1'
_cell_volume   620.05817877
_cell_formula_units_Z   1
loop_
 _symmetry_equiv_pos_site_id
 _symmetry_equiv_pos_as_xyz
  1  'x, y, z'
loop_
 _atom_site_type_symbol
 _atom_site_label
 _atom_site_symmetry_multiplicity
 _atom_site_fract_x
 _atom_site_fract_y
 _atom_site_fract_z
 _atom_site_occupancy
  Y  Y0  1  0.595879  0.595883  0.600361  1
  Y  Y1  1  0.598634  0.598651  0.203662  1
  Y  Y2  1  0.595558  0.207876  0.599050  1
  Y  Y3  1  0.207882  0.595564  0.599041  1
  Y  Y4  1  0.063340  0.439107  0.439575  1
  Y  Y5  1  0.436828  0.064299  0.058263  1
  Y  Y6  1  0.439101  0.063327  0.439571  1
  Y  Y7  1  0.064309  0.436836  0.058243  1
  Y  Y8  1  0.438932  0.438935  0.060803  1
  Y  Y9  1  0.060321  0.060281  0.438235  1
  Y  Y10  1  0.185126  0.811345  0.814145  1
  Y  Y11  1  0.811651  0.186841  0.187038  1
  Y  Y12  1  0.811343  0.185112  0.814172  1
  Y  Y13  1  0.186857  0.811655  0.187046  1
  Y  Y14  1  0.812302  0.812334  0.186489  1
  Y  Y15  1  0.186886  0.186883  0.812796  1
  Cd  Cd16  1  0.830890  0.830889  0.508868  1
  Cd  Cd17  1  0.831391  0.508103  0.831028  1
  Cd  Cd18  1  0.508097  0.831397  0.831036  1
  Co  Co19  1  0.393068  0.393064  0.391186  1
  Co  Co20  1  0.392410  0.392406  0.825297  1
  Ni  Ni21  1  0.392653  0.824976  0.391137  1
  Ni  Ni22  1  0.824963  0.392648  0.391152  1
  Ag  Ag23  1  0.831584  0.831587  0.831807  1
