# generated using pymatgen
data_Sc4Co17(TcAs4)3
_symmetry_space_group_name_H-M   'P 1'
_cell_length_a   3.76386900
_cell_length_b   10.65714169
_cell_length_c   12.16448638
_cell_angle_alpha   89.85201213
_cell_angle_beta   90.00000000
_cell_angle_gamma   90.00000000
_symmetry_Int_Tables_number   1
_chemical_formula_structural   Sc4Co17(TcAs4)3
_chemical_formula_sum   'Sc4 Co17 Tc3 As12'
_cell_volume   487.94128700
_cell_formula_units_Z   1
loop_
 _symmetry_equiv_pos_site_id
 _symmetry_equiv_pos_as_xyz
  1  'x, y, z'
loop_
 _atom_site_type_symbol
 _atom_site_label
 _atom_site_symmetry_multiplicity
 _atom_site_fract_x
 _atom_site_fract_y
 _atom_site_fract_z
 _atom_site_occupancy
  Sc  Sc0  1  0.250000  0.576827  0.700972  1
  Sc  Sc1  1  0.250000  0.917244  0.204059  1
  Sc  Sc2  1  0.750000  0.417977  0.295961  1
  Sc  Sc3  1  0.750000  0.080599  0.795131  1
  Co  Co4  1  0.750000  0.212952  0.509861  1
  Co  Co5  1  0.250000  0.407007  0.486400  1
  Co  Co6  1  0.250000  0.093350  0.987042  1
  Co  Co7  1  0.750000  0.592861  0.513347  1
  Co  Co8  1  0.750000  0.907312  0.013457  1
  Co  Co9  1  0.250000  0.215119  0.176929  1
  Co  Co10  1  0.250000  0.283804  0.676122  1
  Co  Co11  1  0.750000  0.784393  0.823554  1
  Co  Co12  1  0.750000  0.716633  0.324516  1
  Co  Co13  1  0.250000  0.887637  0.699524  1
  Co  Co14  1  0.250000  0.613914  0.200316  1
  Co  Co15  1  0.750000  0.117005  0.302222  1
  Co  Co16  1  0.750000  0.386078  0.799419  1
  Co  Co17  1  0.250000  0.464808  0.932559  1
  Co  Co18  1  0.250000  0.034247  0.431213  1
  Co  Co19  1  0.750000  0.535585  0.068229  1
  Co  Co20  1  0.750000  0.966364  0.568713  1
  Tc  Tc21  1  0.250000  0.709497  0.989735  1
  Tc  Tc22  1  0.250000  0.790106  0.490506  1
  Tc  Tc23  1  0.750000  0.290120  0.010618  1
  As  As24  1  0.250000  0.416848  0.118678  1
  As  As25  1  0.250000  0.085023  0.615134  1
  As  As26  1  0.750000  0.582256  0.881139  1
  As  As27  1  0.750000  0.918259  0.382398  1
  As  As28  1  0.250000  0.263454  0.864151  1
  As  As29  1  0.250000  0.236210  0.367907  1
  As  As30  1  0.750000  0.736803  0.135948  1
  As  As31  1  0.750000  0.763884  0.635060  1
  As  As32  1  0.250000  0.592922  0.388820  1
  As  As33  1  0.250000  0.907592  0.888258  1
  As  As34  1  0.750000  0.402275  0.609019  1
  As  As35  1  0.750000  0.093035  0.113081  1
