# generated using pymatgen
data_Zr10AlCuPb6
_symmetry_space_group_name_H-M   'P 1'
_cell_length_a   8.84653800
_cell_length_b   8.84653917
_cell_length_c   5.95529800
_cell_angle_alpha   90.00000000
_cell_angle_beta   90.00000000
_cell_angle_gamma   119.99999561
_symmetry_Int_Tables_number   1
_chemical_formula_structural   Zr10AlCuPb6
_chemical_formula_sum   'Zr10 Al1 Cu1 Pb6'
_cell_volume   403.62764269
_cell_formula_units_Z   1
loop_
 _symmetry_equiv_pos_site_id
 _symmetry_equiv_pos_as_xyz
  1  'x, y, z'
loop_
 _atom_site_type_symbol
 _atom_site_label
 _atom_site_symmetry_multiplicity
 _atom_site_fract_x
 _atom_site_fract_y
 _atom_site_fract_z
 _atom_site_occupancy
  Zr  Zr0  1  0.666667  0.333333  0.500000  1
  Zr  Zr1  1  0.333333  0.666667  0.500000  1
  Zr  Zr2  1  0.333333  0.666667  0.000000  1
  Zr  Zr3  1  0.666667  0.333333  0.000000  1
  Zr  Zr4  1  0.738059  0.738059  0.247587  1
  Zr  Zr5  1  0.261941  0.000000  0.247587  1
  Zr  Zr6  1  0.000000  0.261941  0.247587  1
  Zr  Zr7  1  0.261941  0.261941  0.752413  1
  Zr  Zr8  1  0.738059  0.000000  0.752413  1
  Zr  Zr9  1  0.000000  0.738059  0.752413  1
  Al  Al10  1  0.000000  0.000000  0.500000  1
  Cu  Cu11  1  0.000000  0.000000  0.000000  1
  Pb  Pb12  1  0.386626  0.386626  0.250394  1
  Pb  Pb13  1  0.613374  0.000000  0.250394  1
  Pb  Pb14  1  0.000000  0.613374  0.250394  1
  Pb  Pb15  1  0.613374  0.613374  0.749606  1
  Pb  Pb16  1  0.386626  0.000000  0.749606  1
  Pb  Pb17  1  0.000000  0.386626  0.749606  1
