# generated using pymatgen
data_Sc10CdGa2Ni
_symmetry_space_group_name_H-M   'P 1'
_cell_length_a   9.02975904
_cell_length_b   9.02975973
_cell_length_c   8.64108000
_cell_angle_alpha   90.00000000
_cell_angle_beta   90.00000000
_cell_angle_gamma   119.98953399
_symmetry_Int_Tables_number   1
_chemical_formula_structural   Sc10CdGa2Ni
_chemical_formula_sum   'Sc20 Cd2 Ga4 Ni2'
_cell_volume   610.23456772
_cell_formula_units_Z   2
loop_
 _symmetry_equiv_pos_site_id
 _symmetry_equiv_pos_as_xyz
  1  'x, y, z'
loop_
 _atom_site_type_symbol
 _atom_site_label
 _atom_site_symmetry_multiplicity
 _atom_site_fract_x
 _atom_site_fract_y
 _atom_site_fract_z
 _atom_site_occupancy
  Sc  Sc0  1  0.000825  0.999175  0.468904  1
  Sc  Sc1  1  0.000825  0.999175  0.031096  1
  Sc  Sc2  1  0.543229  0.456771  0.250000  1
  Sc  Sc3  1  0.541388  0.083870  0.250000  1
  Sc  Sc4  1  0.916130  0.458612  0.250000  1
  Sc  Sc5  1  0.458537  0.541463  0.750000  1
  Sc  Sc6  1  0.456125  0.914974  0.750000  1
  Sc  Sc7  1  0.085026  0.543875  0.750000  1
  Sc  Sc8  1  0.206825  0.793175  0.438389  1
  Sc  Sc9  1  0.208060  0.416250  0.434655  1
  Sc  Sc10  1  0.583750  0.791940  0.434655  1
  Sc  Sc11  1  0.791168  0.208832  0.557797  1
  Sc  Sc12  1  0.793390  0.584388  0.559557  1
  Sc  Sc13  1  0.415612  0.206610  0.559557  1
  Sc  Sc14  1  0.791168  0.208832  0.942203  1
  Sc  Sc15  1  0.793390  0.584388  0.940443  1
  Sc  Sc16  1  0.415612  0.206610  0.940443  1
  Sc  Sc17  1  0.206825  0.793175  0.061611  1
  Sc  Sc18  1  0.208060  0.416250  0.065345  1
  Sc  Sc19  1  0.583750  0.791940  0.065345  1
  Cd  Cd20  1  0.112879  0.224445  0.750000  1
  Cd  Cd21  1  0.775555  0.887121  0.750000  1
  Ga  Ga22  1  0.867906  0.132094  0.250000  1
  Ga  Ga23  1  0.867934  0.736180  0.250000  1
  Ga  Ga24  1  0.263820  0.132066  0.250000  1
  Ga  Ga25  1  0.115554  0.884446  0.750000  1
  Ni  Ni26  1  0.330657  0.669343  0.250000  1
  Ni  Ni27  1  0.665999  0.334001  0.750000  1
