# generated using pymatgen
data_Gd3TiTcC6
_symmetry_space_group_name_H-M   'P 1'
_cell_length_a   8.45571400
_cell_length_b   8.45571398
_cell_length_c   5.10556500
_cell_angle_alpha   90.00000000
_cell_angle_beta   90.00000000
_cell_angle_gamma   119.99999482
_symmetry_Int_Tables_number   1
_chemical_formula_structural   Gd3TiTcC6
_chemical_formula_sum   'Gd6 Ti2 Tc2 C12'
_cell_volume   316.13678605
_cell_formula_units_Z   2
loop_
 _symmetry_equiv_pos_site_id
 _symmetry_equiv_pos_as_xyz
  1  'x, y, z'
loop_
 _atom_site_type_symbol
 _atom_site_label
 _atom_site_symmetry_multiplicity
 _atom_site_fract_x
 _atom_site_fract_y
 _atom_site_fract_z
 _atom_site_occupancy
  Gd  Gd0  1  0.621397  0.686286  0.750000  1
  Gd  Gd1  1  0.935112  0.621397  0.250000  1
  Gd  Gd2  1  0.686286  0.064888  0.250000  1
  Gd  Gd3  1  0.313714  0.935112  0.750000  1
  Gd  Gd4  1  0.064888  0.378603  0.750000  1
  Gd  Gd5  1  0.378603  0.313714  0.250000  1
  Ti  Ti6  1  0.000000  0.000000  0.500000  1
  Ti  Ti7  1  0.000000  0.000000  0.000000  1
  Tc  Tc8  1  0.666667  0.333333  0.750000  1
  Tc  Tc9  1  0.333333  0.666667  0.250000  1
  C  C10  1  0.962698  0.768141  0.750000  1
  C  C11  1  0.194557  0.962698  0.250000  1
  C  C12  1  0.768141  0.805443  0.250000  1
  C  C13  1  0.231859  0.194557  0.750000  1
  C  C14  1  0.805443  0.037302  0.750000  1
  C  C15  1  0.037302  0.231859  0.250000  1
  C  C16  1  0.867148  0.581897  0.750000  1
  C  C17  1  0.285250  0.867148  0.250000  1
  C  C18  1  0.581897  0.714750  0.250000  1
  C  C19  1  0.418103  0.285250  0.750000  1
  C  C20  1  0.132852  0.418103  0.250000  1
  C  C21  1  0.714750  0.132852  0.750000  1
