# generated using pymatgen
data_Ti6Ga5SbRu12
_symmetry_space_group_name_H-M   'P 1'
_cell_length_a   4.32761300
_cell_length_b   6.17288300
_cell_length_c   12.97223200
_cell_angle_alpha   90.00000000
_cell_angle_beta   90.00167764
_cell_angle_gamma   90.00000000
_symmetry_Int_Tables_number   1
_chemical_formula_structural   Ti6Ga5SbRu12
_chemical_formula_sum   'Ti6 Ga5 Sb1 Ru12'
_cell_volume   346.53824311
_cell_formula_units_Z   1
loop_
 _symmetry_equiv_pos_site_id
 _symmetry_equiv_pos_as_xyz
  1  'x, y, z'
loop_
 _atom_site_type_symbol
 _atom_site_label
 _atom_site_symmetry_multiplicity
 _atom_site_fract_x
 _atom_site_fract_y
 _atom_site_fract_z
 _atom_site_occupancy
  Ti  Ti0  1  0.000004  0.500000  0.000023  1
  Ti  Ti1  1  0.499844  0.000000  0.173684  1
  Ti  Ti2  1  0.999775  0.500000  0.335991  1
  Ti  Ti3  1  0.500001  0.000000  0.499940  1
  Ti  Ti4  1  0.000230  0.500000  0.663983  1
  Ti  Ti5  1  0.500159  0.000000  0.826368  1
  Ga  Ga6  1  0.499844  0.500000  0.167991  1
  Ga  Ga7  1  0.999623  0.000000  0.334510  1
  Ga  Ga8  1  0.500004  0.500000  0.500024  1
  Ga  Ga9  1  0.000305  0.000000  0.665489  1
  Ga  Ga10  1  0.500200  0.500000  0.832014  1
  Sb  Sb11  1  0.000005  0.000000  0.000027  1
  Ru  Ru12  1  0.500004  0.255990  0.000017  1
  Ru  Ru13  1  0.500004  0.744010  0.000017  1
  Ru  Ru14  1  0.999834  0.252181  0.169415  1
  Ru  Ru15  1  0.999834  0.747819  0.169415  1
  Ru  Ru16  1  0.499730  0.250898  0.333996  1
  Ru  Ru17  1  0.499730  0.749102  0.333996  1
  Ru  Ru18  1  0.000008  0.248734  0.499958  1
  Ru  Ru19  1  0.000008  0.751266  0.499958  1
  Ru  Ru20  1  0.500262  0.250853  0.665960  1
  Ru  Ru21  1  0.500262  0.749147  0.665960  1
  Ru  Ru22  1  0.000167  0.252183  0.830632  1
  Ru  Ru23  1  0.000167  0.747817  0.830632  1
