# generated using pymatgen
data_Tb4Al17Co6Si
_symmetry_space_group_name_H-M   'P 1'
_cell_length_a   7.37498301
_cell_length_b   7.37498370
_cell_length_c   9.25971300
_cell_angle_alpha   90.00000000
_cell_angle_beta   90.00000000
_cell_angle_gamma   119.25573091
_symmetry_Int_Tables_number   1
_chemical_formula_structural   Tb4Al17Co6Si
_chemical_formula_sum   'Tb4 Al17 Co6 Si1'
_cell_volume   439.39866494
_cell_formula_units_Z   1
loop_
 _symmetry_equiv_pos_site_id
 _symmetry_equiv_pos_as_xyz
  1  'x, y, z'
loop_
 _atom_site_type_symbol
 _atom_site_label
 _atom_site_symmetry_multiplicity
 _atom_site_fract_x
 _atom_site_fract_y
 _atom_site_fract_z
 _atom_site_occupancy
  Tb  Tb0  1  0.992788  0.676961  0.250000  1
  Tb  Tb1  1  0.005982  0.328423  0.750000  1
  Tb  Tb2  1  0.676961  0.992788  0.250000  1
  Tb  Tb3  1  0.328423  0.005982  0.750000  1
  Al  Al4  1  0.875798  0.875798  0.750000  1
  Al  Al5  1  0.331910  0.331910  0.545320  1
  Al  Al6  1  0.665335  0.665335  0.041013  1
  Al  Al7  1  0.331910  0.331910  0.954680  1
  Al  Al8  1  0.665335  0.665335  0.458987  1
  Al  Al9  1  0.336183  0.553666  0.250000  1
  Al  Al10  1  0.661292  0.446385  0.750000  1
  Al  Al11  1  0.553666  0.336183  0.250000  1
  Al  Al12  1  0.446385  0.661292  0.750000  1
  Al  Al13  1  0.999162  0.336990  0.073444  1
  Al  Al14  1  0.001798  0.665086  0.571208  1
  Al  Al15  1  0.336990  0.999162  0.426556  1
  Al  Al16  1  0.665086  0.001798  0.928792  1
  Al  Al17  1  0.001798  0.665086  0.928792  1
  Al  Al18  1  0.999162  0.336990  0.426556  1
  Al  Al19  1  0.665086  0.001798  0.571208  1
  Al  Al20  1  0.336990  0.999162  0.073444  1
  Co  Co21  1  0.000948  0.000948  0.008322  1
  Co  Co22  1  0.000948  0.000948  0.491678  1
  Co  Co23  1  0.669486  0.327881  0.000771  1
  Co  Co24  1  0.327881  0.669486  0.499229  1
  Co  Co25  1  0.327881  0.669486  0.000771  1
  Co  Co26  1  0.669486  0.327881  0.499229  1
  Si  Si27  1  0.125329  0.125329  0.250000  1
