# generated using pymatgen
data_U4V4CN7
_symmetry_space_group_name_H-M   'P 1'
_cell_length_a   5.45672326
_cell_length_b   3.16004500
_cell_length_c   10.71728033
_cell_angle_alpha   90.00000000
_cell_angle_beta   89.85691795
_cell_angle_gamma   90.00000000
_symmetry_Int_Tables_number   1
_chemical_formula_structural   U4V4CN7
_chemical_formula_sum   'U4 V4 C1 N7'
_cell_volume   184.80275146
_cell_formula_units_Z   1
loop_
 _symmetry_equiv_pos_site_id
 _symmetry_equiv_pos_as_xyz
  1  'x, y, z'
loop_
 _atom_site_type_symbol
 _atom_site_label
 _atom_site_symmetry_multiplicity
 _atom_site_fract_x
 _atom_site_fract_y
 _atom_site_fract_z
 _atom_site_occupancy
  U  U0  1  0.077437  0.250000  0.143348  1
  U  U1  1  0.421991  0.749999  0.642888  1
  U  U2  1  0.577529  0.250000  0.357320  1
  U  U3  1  0.920773  0.749999  0.855958  1
  V  V4  1  0.425653  0.250000  0.901696  1
  V  V5  1  0.074475  0.749999  0.402070  1
  V  V6  1  0.925850  0.250000  0.597855  1
  V  V7  1  0.575634  0.749999  0.098796  1
  C  C8  1  0.259378  0.749999  0.991981  1
  N  N9  1  0.165658  0.250000  0.754159  1
  N  N10  1  0.335427  0.749999  0.255197  1
  N  N11  1  0.666223  0.250000  0.744171  1
  N  N12  1  0.833999  0.749999  0.247100  1
  N  N13  1  0.739777  0.250000  0.007338  1
  N  N14  1  0.759786  0.749999  0.507412  1
  N  N15  1  0.240411  0.250000  0.492714  1
