# generated using pymatgen
data_Be8TcOs2W
_symmetry_space_group_name_H-M   'P 1'
_cell_length_a   4.38118000
_cell_length_b   4.38117898
_cell_length_c   7.14544700
_cell_angle_alpha   90.00000000
_cell_angle_beta   90.00000000
_cell_angle_gamma   120.00000771
_symmetry_Int_Tables_number   1
_chemical_formula_structural   Be8TcOs2W
_chemical_formula_sum   'Be8 Tc1 Os2 W1'
_cell_volume   118.77966388
_cell_formula_units_Z   1
loop_
 _symmetry_equiv_pos_site_id
 _symmetry_equiv_pos_as_xyz
  1  'x, y, z'
loop_
 _atom_site_type_symbol
 _atom_site_label
 _atom_site_symmetry_multiplicity
 _atom_site_fract_x
 _atom_site_fract_y
 _atom_site_fract_z
 _atom_site_occupancy
  Be  Be0  1  0.000000  0.000000  0.502259  1
  Be  Be1  1  0.000000  0.000000  0.997785  1
  Be  Be2  1  0.830325  0.169675  0.255242  1
  Be  Be3  1  0.830325  0.660651  0.255242  1
  Be  Be4  1  0.339349  0.169675  0.255242  1
  Be  Be5  1  0.168296  0.831704  0.744837  1
  Be  Be6  1  0.168296  0.336593  0.744837  1
  Be  Be7  1  0.663407  0.831704  0.744837  1
  Tc  Tc8  1  0.333333  0.666667  0.431711  1
  Os  Os9  1  0.666667  0.333333  0.557802  1
  Os  Os10  1  0.666667  0.333333  0.946516  1
  W  W11  1  0.333333  0.666667  0.063692  1
