# generated using pymatgen
data_Er6Tm4Ru3Rh
_symmetry_space_group_name_H-M   'P 1'
_cell_length_a   6.26693554
_cell_length_b   7.26453142
_cell_length_c   8.36971313
_cell_angle_alpha   96.83929030
_cell_angle_beta   111.90878926
_cell_angle_gamma   90.06199141
_symmetry_Int_Tables_number   1
_chemical_formula_structural   Er6Tm4Ru3Rh
_chemical_formula_sum   'Er6 Tm4 Ru3 Rh1'
_cell_volume   350.57884600
_cell_formula_units_Z   1
loop_
 _symmetry_equiv_pos_site_id
 _symmetry_equiv_pos_as_xyz
  1  'x, y, z'
loop_
 _atom_site_type_symbol
 _atom_site_label
 _atom_site_symmetry_multiplicity
 _atom_site_fract_x
 _atom_site_fract_y
 _atom_site_fract_z
 _atom_site_occupancy
  Er  Er0  1  0.792386  0.081799  0.814587  1
  Er  Er1  1  0.979131  0.415424  0.188465  1
  Er  Er2  1  0.208850  0.915580  0.186084  1
  Er  Er3  1  0.024654  0.585818  0.814455  1
  Er  Er4  1  0.203397  0.182984  0.563804  1
  Er  Er5  1  0.642193  0.315234  0.432836  1
  Tm  Tm6  1  0.793579  0.815398  0.434767  1
  Tm  Tm7  1  0.357326  0.686183  0.563889  1
  Tm  Tm8  1  0.418732  0.249115  0.000953  1
  Tm  Tm9  1  0.580763  0.752013  0.001138  1
  Ru  Ru10  1  0.822942  0.076798  0.219353  1
  Ru  Ru11  1  0.396635  0.575934  0.220541  1
  Ru  Ru12  1  0.177897  0.923766  0.779689  1
  Rh  Rh13  1  0.601515  0.423953  0.779440  1
