# generated using pymatgen
data_TmThNi17H3
_symmetry_space_group_name_H-M   'P 1'
_cell_length_a   6.28788748
_cell_length_b   6.28788756
_cell_length_c   6.28788792
_cell_angle_alpha   83.52875524
_cell_angle_beta   83.52874455
_cell_angle_gamma   83.52874383
_symmetry_Int_Tables_number   1
_chemical_formula_structural   TmThNi17H3
_chemical_formula_sum   'Tm1 Th1 Ni17 H3'
_cell_volume   244.18731980
_cell_formula_units_Z   1
loop_
 _symmetry_equiv_pos_site_id
 _symmetry_equiv_pos_as_xyz
  1  'x, y, z'
loop_
 _atom_site_type_symbol
 _atom_site_label
 _atom_site_symmetry_multiplicity
 _atom_site_fract_x
 _atom_site_fract_y
 _atom_site_fract_z
 _atom_site_occupancy
  Tm  Tm0  1  0.662886  0.662886  0.662886  1
  Th  Th1  1  0.340344  0.340344  0.340344  1
  Ni  Ni2  1  0.999861  0.999861  0.499813  1
  Ni  Ni3  1  0.499813  0.999861  0.999861  1
  Ni  Ni4  1  0.999861  0.499813  0.999861  1
  Ni  Ni5  1  0.710337  0.290179  0.998865  1
  Ni  Ni6  1  0.998865  0.710337  0.290179  1
  Ni  Ni7  1  0.290179  0.998865  0.710337  1
  Ni  Ni8  1  0.998865  0.290179  0.710337  1
  Ni  Ni9  1  0.710337  0.998865  0.290179  1
  Ni  Ni10  1  0.290179  0.710337  0.998865  1
  Ni  Ni11  1  0.347872  0.347872  0.846242  1
  Ni  Ni12  1  0.846242  0.347872  0.347872  1
  Ni  Ni13  1  0.347872  0.846242  0.347872  1
  Ni  Ni14  1  0.654731  0.654731  0.148531  1
  Ni  Ni15  1  0.148531  0.654731  0.654731  1
  Ni  Ni16  1  0.654731  0.148531  0.654731  1
  Ni  Ni17  1  0.899751  0.899751  0.899751  1
  Ni  Ni18  1  0.099551  0.099551  0.099551  1
  H  H19  1  0.505262  0.505262  0.988667  1
  H  H20  1  0.988667  0.505262  0.505262  1
  H  H21  1  0.505262  0.988667  0.505262  1
