# generated using pymatgen
data_Tb3NdAl18(RePd2)2
_symmetry_space_group_name_H-M   'P 1'
_cell_length_a   7.62645685
_cell_length_b   7.63904264
_cell_length_c   9.57439300
_cell_angle_alpha   90.00000000
_cell_angle_beta   90.00000000
_cell_angle_gamma   118.57912172
_symmetry_Int_Tables_number   1
_chemical_formula_structural   Tb3NdAl18(RePd2)2
_chemical_formula_sum   'Tb3 Nd1 Al18 Re2 Pd4'
_cell_volume   489.82995726
_cell_formula_units_Z   1
loop_
 _symmetry_equiv_pos_site_id
 _symmetry_equiv_pos_as_xyz
  1  'x, y, z'
loop_
 _atom_site_type_symbol
 _atom_site_label
 _atom_site_symmetry_multiplicity
 _atom_site_fract_x
 _atom_site_fract_y
 _atom_site_fract_z
 _atom_site_occupancy
  Tb  Tb0  1  0.005778  0.318361  0.750000  1
  Tb  Tb1  1  0.680723  0.994732  0.250000  1
  Tb  Tb2  1  0.318599  0.006657  0.750000  1
  Nd  Nd3  1  0.994312  0.678362  0.250000  1
  Al  Al4  1  0.133299  0.134493  0.250000  1
  Al  Al5  1  0.867093  0.867889  0.750000  1
  Al  Al6  1  0.002177  0.332754  0.074538  1
  Al  Al7  1  0.997496  0.665037  0.921197  1
  Al  Al8  1  0.997496  0.665037  0.578803  1
  Al  Al9  1  0.336460  0.004238  0.425399  1
  Al  Al10  1  0.002177  0.332754  0.425462  1
  Al  Al11  1  0.665079  0.998117  0.576522  1
  Al  Al12  1  0.665079  0.998117  0.923478  1
  Al  Al13  1  0.336460  0.004238  0.074601  1
  Al  Al14  1  0.329863  0.330032  0.549134  1
  Al  Al15  1  0.669005  0.670718  0.454083  1
  Al  Al16  1  0.669005  0.670718  0.045917  1
  Al  Al17  1  0.329863  0.330032  0.950866  1
  Al  Al18  1  0.347123  0.552598  0.250000  1
  Al  Al19  1  0.654623  0.446500  0.750000  1
  Al  Al20  1  0.550351  0.342165  0.250000  1
  Al  Al21  1  0.446761  0.655281  0.750000  1
  Re  Re22  1  0.000616  0.000641  0.998797  1
  Re  Re23  1  0.000616  0.000641  0.501203  1
  Pd  Pd24  1  0.671579  0.328287  0.999522  1
  Pd  Pd25  1  0.328392  0.671657  0.999514  1
  Pd  Pd26  1  0.328392  0.671657  0.500486  1
  Pd  Pd27  1  0.671579  0.328287  0.500478  1
