# generated using pymatgen
data_Nd10Ir2OsRh3
_symmetry_space_group_name_H-M   'P 1'
_cell_length_a   11.25433800
_cell_length_b   11.25433800
_cell_length_c   6.59063000
_cell_angle_alpha   90.00000000
_cell_angle_beta   90.00000000
_cell_angle_gamma   90.00000000
_symmetry_Int_Tables_number   1
_chemical_formula_structural   Nd10Ir2OsRh3
_chemical_formula_sum   'Nd20 Ir4 Os2 Rh6'
_cell_volume   834.77001184
_cell_formula_units_Z   2
loop_
 _symmetry_equiv_pos_site_id
 _symmetry_equiv_pos_as_xyz
  1  'x, y, z'
loop_
 _atom_site_type_symbol
 _atom_site_label
 _atom_site_symmetry_multiplicity
 _atom_site_fract_x
 _atom_site_fract_y
 _atom_site_fract_z
 _atom_site_occupancy
  Nd  Nd0  1  0.089434  0.292694  0.118509  1
  Nd  Nd1  1  0.792694  0.410566  0.118509  1
  Nd  Nd2  1  0.207306  0.589434  0.118509  1
  Nd  Nd3  1  0.910566  0.707306  0.118509  1
  Nd  Nd4  1  0.410566  0.792694  0.381491  1
  Nd  Nd5  1  0.589434  0.207306  0.381491  1
  Nd  Nd6  1  0.292694  0.089434  0.381491  1
  Nd  Nd7  1  0.707306  0.910566  0.381491  1
  Nd  Nd8  1  0.411052  0.207068  0.885359  1
  Nd  Nd9  1  0.707068  0.088948  0.885359  1
  Nd  Nd10  1  0.292932  0.911052  0.885359  1
  Nd  Nd11  1  0.588948  0.792932  0.885359  1
  Nd  Nd12  1  0.088948  0.707068  0.614641  1
  Nd  Nd13  1  0.911052  0.292932  0.614641  1
  Nd  Nd14  1  0.207068  0.411052  0.614641  1
  Nd  Nd15  1  0.792932  0.588948  0.614641  1
  Nd  Nd16  1  0.000000  0.000000  0.000063  1
  Nd  Nd17  1  0.500000  0.500000  0.000063  1
  Nd  Nd18  1  0.500000  0.500000  0.499937  1
  Nd  Nd19  1  0.000000  0.000000  0.499937  1
  Ir  Ir20  1  0.346940  0.653060  0.750000  1
  Ir  Ir21  1  0.153060  0.153060  0.750000  1
  Ir  Ir22  1  0.846940  0.846940  0.750000  1
  Ir  Ir23  1  0.653060  0.346940  0.750000  1
  Os  Os24  1  0.000000  0.500000  0.376529  1
  Os  Os25  1  0.500000  0.000000  0.123471  1
  Rh  Rh26  1  0.153945  0.846055  0.250000  1
  Rh  Rh27  1  0.346055  0.346055  0.250000  1
  Rh  Rh28  1  0.653945  0.653945  0.250000  1
  Rh  Rh29  1  0.846055  0.153945  0.250000  1
  Rh  Rh30  1  0.500000  0.000000  0.619968  1
  Rh  Rh31  1  0.000000  0.500000  0.880032  1
