# generated using pymatgen
data_Yb15Tm3(PaPt8)2
_symmetry_space_group_name_H-M   'P 1'
_cell_length_a   7.50991292
_cell_length_b   7.57678200
_cell_length_c   14.55297092
_cell_angle_alpha   90.22175124
_cell_angle_beta   90.03178349
_cell_angle_gamma   90.02880086
_symmetry_Int_Tables_number   1
_chemical_formula_structural   Yb15Tm3(PaPt8)2
_chemical_formula_sum   'Yb15 Tm3 Pa2 Pt16'
_cell_volume   828.07177160
_cell_formula_units_Z   1
loop_
 _symmetry_equiv_pos_site_id
 _symmetry_equiv_pos_as_xyz
  1  'x, y, z'
loop_
 _atom_site_type_symbol
 _atom_site_label
 _atom_site_symmetry_multiplicity
 _atom_site_fract_x
 _atom_site_fract_y
 _atom_site_fract_z
 _atom_site_occupancy
  Yb  Yb0  1  0.850495  0.665447  0.122350  1
  Yb  Yb1  1  0.647605  0.165360  0.878906  1
  Yb  Yb2  1  0.147166  0.333915  0.620178  1
  Yb  Yb3  1  0.490091  0.673589  0.593469  1
  Yb  Yb4  1  0.990491  0.824799  0.907558  1
  Yb  Yb5  1  0.509546  0.320271  0.095873  1
  Yb  Yb6  1  0.006397  0.180298  0.403736  1
  Yb  Yb7  1  0.506057  0.324247  0.401906  1
  Yb  Yb8  1  0.004654  0.178595  0.097081  1
  Yb  Yb9  1  0.495477  0.684821  0.906438  1
  Yb  Yb10  1  0.995120  0.814492  0.593860  1
  Yb  Yb11  1  0.807999  0.511593  0.749629  1
  Yb  Yb12  1  0.307841  0.986917  0.750375  1
  Yb  Yb13  1  0.187503  0.489284  0.249399  1
  Yb  Yb14  1  0.692236  0.008907  0.249437  1
  Tm  Tm15  1  0.353196  0.837307  0.125033  1
  Tm  Tm16  1  0.854005  0.663812  0.375895  1
  Tm  Tm17  1  0.350023  0.834701  0.376929  1
  Pa  Pa18  1  0.650142  0.155761  0.622336  1
  Pa  Pa19  1  0.150608  0.342523  0.876417  1
  Pt  Pt20  1  0.691430  0.962124  0.462328  1
  Pt  Pt21  1  0.197848  0.535939  0.035868  1
  Pt  Pt22  1  0.301868  0.051883  0.959376  1
  Pt  Pt23  1  0.802800  0.447874  0.540835  1
  Pt  Pt24  1  0.328594  0.032994  0.543882  1
  Pt  Pt25  1  0.833000  0.463246  0.954356  1
  Pt  Pt26  1  0.669708  0.965533  0.044056  1
  Pt  Pt27  1  0.174441  0.543072  0.456086  1
  Pt  Pt28  1  0.449090  0.371152  0.742962  1
  Pt  Pt29  1  0.949159  0.126692  0.755795  1
  Pt  Pt30  1  0.550673  0.624212  0.252476  1
  Pt  Pt31  1  0.057471  0.879098  0.253558  1
  Pt  Pt32  1  0.680375  0.871103  0.741346  1
  Pt  Pt33  1  0.180691  0.627737  0.758499  1
  Pt  Pt34  1  0.322229  0.133244  0.249031  1
  Pt  Pt35  1  0.813970  0.367461  0.252741  1
