# generated using pymatgen
data_DyY3(NiB4)4
_symmetry_space_group_name_H-M   'P 1'
_cell_length_a   6.81980267
_cell_length_b   6.81980413
_cell_length_c   6.81980376
_cell_angle_alpha   112.95644229
_cell_angle_beta   112.95644238
_cell_angle_gamma   102.70536979
_symmetry_Int_Tables_number   1
_chemical_formula_structural   DyY3(NiB4)4
_chemical_formula_sum   'Dy1 Y3 Ni4 B16'
_cell_volume   241.65893267
_cell_formula_units_Z   1
loop_
 _symmetry_equiv_pos_site_id
 _symmetry_equiv_pos_as_xyz
  1  'x, y, z'
loop_
 _atom_site_type_symbol
 _atom_site_label
 _atom_site_symmetry_multiplicity
 _atom_site_fract_x
 _atom_site_fract_y
 _atom_site_fract_z
 _atom_site_occupancy
  Dy  Dy0  1  0.250000  0.750000  0.500000  1
  Y  Y1  1  0.796940  0.796940  0.000000  1
  Y  Y2  1  0.203060  0.203060  0.000000  1
  Y  Y3  1  0.750000  0.250000  0.500000  1
  Ni  Ni4  1  0.271572  0.500070  0.771502  1
  Ni  Ni5  1  0.728569  0.500070  0.228498  1
  Ni  Ni6  1  0.499930  0.728428  0.228498  1
  Ni  Ni7  1  0.499930  0.271431  0.771502  1
  B  B8  1  0.275328  0.111396  0.387166  1
  B  B9  1  0.724229  0.888161  0.612834  1
  B  B10  1  0.275328  0.888161  0.163932  1
  B  B11  1  0.724229  0.111396  0.836068  1
  B  B12  1  0.111839  0.724672  0.836068  1
  B  B13  1  0.888604  0.275771  0.163932  1
  B  B14  1  0.111839  0.275771  0.387166  1
  B  B15  1  0.888604  0.724672  0.612834  1
  B  B16  1  0.113610  0.113665  0.532862  1
  B  B17  1  0.580803  0.580746  0.467138  1
  B  B18  1  0.113610  0.580746  0.999944  1
  B  B19  1  0.580803  0.113665  0.000056  1
  B  B20  1  0.886335  0.886390  0.467138  1
  B  B21  1  0.419254  0.419197  0.532862  1
  B  B22  1  0.886335  0.419197  0.999944  1
  B  B23  1  0.419254  0.886390  0.000056  1
