# generated using pymatgen
data_TbNbReB6
_symmetry_space_group_name_H-M   'P 1'
_cell_length_a   3.56506100
_cell_length_b   8.96633300
_cell_length_c   11.34495300
_cell_angle_alpha   90.00000000
_cell_angle_beta   90.00000000
_cell_angle_gamma   90.00000000
_symmetry_Int_Tables_number   1
_chemical_formula_structural   TbNbReB6
_chemical_formula_sum   'Tb4 Nb4 Re4 B24'
_cell_volume   362.64736844
_cell_formula_units_Z   4
loop_
 _symmetry_equiv_pos_site_id
 _symmetry_equiv_pos_as_xyz
  1  'x, y, z'
loop_
 _atom_site_type_symbol
 _atom_site_label
 _atom_site_symmetry_multiplicity
 _atom_site_fract_x
 _atom_site_fract_y
 _atom_site_fract_z
 _atom_site_occupancy
  Tb  Tb0  1  0.000000  0.322103  0.413411  1
  Tb  Tb1  1  0.000000  0.677897  0.586589  1
  Tb  Tb2  1  0.000000  0.822103  0.086589  1
  Tb  Tb3  1  0.000000  0.177897  0.913411  1
  Nb  Nb4  1  0.000000  0.945284  0.374518  1
  Nb  Nb5  1  0.000000  0.054716  0.625482  1
  Nb  Nb6  1  0.000000  0.445284  0.125482  1
  Nb  Nb7  1  0.000000  0.554716  0.874518  1
  Re  Re8  1  0.000000  0.642820  0.317781  1
  Re  Re9  1  0.000000  0.357180  0.682219  1
  Re  Re10  1  0.000000  0.142820  0.182219  1
  Re  Re11  1  0.000000  0.857180  0.817781  1
  B  B12  1  0.500000  0.554392  0.433585  1
  B  B13  1  0.500000  0.445608  0.566415  1
  B  B14  1  0.500000  0.054392  0.066415  1
  B  B15  1  0.500000  0.945608  0.933585  1
  B  B16  1  0.500000  0.754267  0.418287  1
  B  B17  1  0.500000  0.245733  0.581713  1
  B  B18  1  0.500000  0.254267  0.081713  1
  B  B19  1  0.500000  0.745733  0.918287  1
  B  B20  1  0.500000  0.796713  0.263603  1
  B  B21  1  0.500000  0.203287  0.736397  1
  B  B22  1  0.500000  0.296713  0.236397  1
  B  B23  1  0.500000  0.703287  0.763603  1
  B  B24  1  0.500000  0.629014  0.181780  1
  B  B25  1  0.500000  0.370986  0.818220  1
  B  B26  1  0.500000  0.129014  0.318220  1
  B  B27  1  0.500000  0.870986  0.681780  1
  B  B28  1  0.500000  0.981187  0.213886  1
  B  B29  1  0.500000  0.018813  0.786114  1
  B  B30  1  0.500000  0.481187  0.286114  1
  B  B31  1  0.500000  0.518813  0.713886  1
  B  B32  1  0.500000  0.598698  0.026632  1
  B  B33  1  0.500000  0.401302  0.973368  1
  B  B34  1  0.500000  0.098698  0.473368  1
  B  B35  1  0.500000  0.901302  0.526632  1
