# generated using pymatgen
data_HSe23
_symmetry_space_group_name_H-M   'P 1'
_cell_length_a   5.34282201
_cell_length_b   9.94370398
_cell_length_c   16.41398200
_cell_angle_alpha   90.13933144
_cell_angle_beta   87.65978492
_cell_angle_gamma   90.47881092
_symmetry_Int_Tables_number   1
_chemical_formula_structural   HSe23
_chemical_formula_sum   'H1 Se23'
_cell_volume   871.27322925
_cell_formula_units_Z   1
loop_
 _symmetry_equiv_pos_site_id
 _symmetry_equiv_pos_as_xyz
  1  'x, y, z'
loop_
 _atom_site_type_symbol
 _atom_site_label
 _atom_site_symmetry_multiplicity
 _atom_site_fract_x
 _atom_site_fract_y
 _atom_site_fract_z
 _atom_site_occupancy
  H  H0  1  0.477081  0.289606  0.407556  1
  Se  Se1  1  0.543896  0.839618  0.385459  1
  Se  Se2  1  0.008239  0.321822  0.117831  1
  Se  Se3  1  0.780789  0.206039  0.521579  1
  Se  Se4  1  0.276727  0.801880  0.502059  1
  Se  Se5  1  0.238148  0.259810  0.997628  1
  Se  Se6  1  0.744536  0.716260  0.003335  1
  Se  Se7  1  0.277058  0.362324  0.364154  1
  Se  Se8  1  0.767006  0.636828  0.366527  1
  Se  Se9  1  0.757981  0.134181  0.158665  1
  Se  Se10  1  0.235205  0.858147  0.139559  1
  Se  Se11  1  0.728220  0.614891  0.630766  1
  Se  Se12  1  0.196745  0.371931  0.623007  1
  Se  Se13  1  0.236115  0.858219  0.854301  1
  Se  Se14  1  0.760083  0.135087  0.848531  1
  Se  Se15  1  0.990108  0.664194  0.115329  1
  Se  Se16  1  0.528238  0.824818  0.616690  1
  Se  Se17  1  0.403185  0.162614  0.585290  1
  Se  Se18  1  0.988769  0.665191  0.884140  1
  Se  Se19  1  0.012542  0.322110  0.882914  1
  Se  Se20  1  0.555717  0.490546  0.279145  1
  Se  Se21  1  0.013466  0.994178  0.235424  1
  Se  Se22  1  0.468223  0.476648  0.715477  1
  Se  Se23  1  0.011920  0.993055  0.764635  1
