# generated using pymatgen
data_Pr5Zr3(P3Rh4)4
_symmetry_space_group_name_H-M   'P 1'
_cell_length_a   12.97821100
_cell_length_b   12.97821088
_cell_length_c   3.98684600
_cell_angle_alpha   90.00000000
_cell_angle_beta   90.00000000
_cell_angle_gamma   120.00000284
_symmetry_Int_Tables_number   1
_chemical_formula_structural   Pr5Zr3(P3Rh4)4
_chemical_formula_sum   'Pr5 Zr3 P12 Rh16'
_cell_volume   581.55358486
_cell_formula_units_Z   1
loop_
 _symmetry_equiv_pos_site_id
 _symmetry_equiv_pos_as_xyz
  1  'x, y, z'
loop_
 _atom_site_type_symbol
 _atom_site_label
 _atom_site_symmetry_multiplicity
 _atom_site_fract_x
 _atom_site_fract_y
 _atom_site_fract_z
 _atom_site_occupancy
  Pr  Pr0  1  0.186417  0.186417  0.500000  1
  Pr  Pr1  1  0.813583  0.000000  0.500000  1
  Pr  Pr2  1  0.000000  0.813583  0.500000  1
  Pr  Pr3  1  0.333333  0.666667  0.000000  1
  Pr  Pr4  1  0.666667  0.333333  0.000000  1
  Zr  Zr5  1  0.555576  0.555576  0.000000  1
  Zr  Zr6  1  0.444424  0.000000  0.000000  1
  Zr  Zr7  1  0.000000  0.444424  0.000000  1
  P  P8  1  0.821846  0.821846  0.000000  1
  P  P9  1  0.178154  0.000000  0.000000  1
  P  P10  1  0.000000  0.178154  0.000000  1
  P  P11  1  0.167448  0.480480  0.500000  1
  P  P12  1  0.519520  0.686969  0.500000  1
  P  P13  1  0.313031  0.832552  0.500000  1
  P  P14  1  0.686969  0.519520  0.500000  1
  P  P15  1  0.832552  0.313031  0.500000  1
  P  P16  1  0.480480  0.167448  0.500000  1
  P  P17  1  0.356437  0.356437  0.000000  1
  P  P18  1  0.643563  0.000000  0.000000  1
  P  P19  1  0.000000  0.643563  0.000000  1
  Rh  Rh20  1  0.719065  0.719065  0.500000  1
  Rh  Rh21  1  0.280935  0.000000  0.500000  1
  Rh  Rh22  1  0.000000  0.280935  0.500000  1
  Rh  Rh23  1  0.177213  0.374781  0.000000  1
  Rh  Rh24  1  0.625219  0.802432  0.000000  1
  Rh  Rh25  1  0.197568  0.822787  0.000000  1
  Rh  Rh26  1  0.802432  0.625219  0.000000  1
  Rh  Rh27  1  0.822787  0.197568  0.000000  1
  Rh  Rh28  1  0.374781  0.177213  0.000000  1
  Rh  Rh29  1  0.355514  0.484759  0.500000  1
  Rh  Rh30  1  0.515241  0.870755  0.500000  1
  Rh  Rh31  1  0.129245  0.644486  0.500000  1
  Rh  Rh32  1  0.870755  0.515241  0.500000  1
  Rh  Rh33  1  0.644486  0.129245  0.500000  1
  Rh  Rh34  1  0.484759  0.355514  0.500000  1
  Rh  Rh35  1  0.000000  0.000000  0.000000  1
