# generated using pymatgen
data_ScTiGeRh5
_symmetry_space_group_name_H-M   'P 1'
_cell_length_a   4.03434700
_cell_length_b   5.45815085
_cell_length_c   10.75910422
_cell_angle_alpha   90.46296286
_cell_angle_beta   90.00000000
_cell_angle_gamma   90.00000000
_symmetry_Int_Tables_number   1
_chemical_formula_structural   ScTiGeRh5
_chemical_formula_sum   'Sc2 Ti2 Ge2 Rh10'
_cell_volume   236.90854222
_cell_formula_units_Z   2
loop_
 _symmetry_equiv_pos_site_id
 _symmetry_equiv_pos_as_xyz
  1  'x, y, z'
loop_
 _atom_site_type_symbol
 _atom_site_label
 _atom_site_symmetry_multiplicity
 _atom_site_fract_x
 _atom_site_fract_y
 _atom_site_fract_z
 _atom_site_occupancy
  Sc  Sc0  1  0.500000  0.320833  0.139102  1
  Sc  Sc1  1  0.500000  0.679167  0.860898  1
  Ti  Ti2  1  0.500000  0.826158  0.358179  1
  Ti  Ti3  1  0.500000  0.173842  0.641821  1
  Ge  Ge4  1  0.000000  0.000000  0.000000  1
  Ge  Ge5  1  0.000000  0.500000  0.500000  1
  Rh  Rh6  1  0.000000  0.000000  0.500000  1
  Rh  Rh7  1  0.000000  0.500000  0.000000  1
  Rh  Rh8  1  0.000000  0.065047  0.251006  1
  Rh  Rh9  1  0.000000  0.934953  0.748994  1
  Rh  Rh10  1  0.000000  0.573970  0.261288  1
  Rh  Rh11  1  0.000000  0.426030  0.738712  1
  Rh  Rh12  1  0.500000  0.309040  0.397699  1
  Rh  Rh13  1  0.500000  0.690960  0.602301  1
  Rh  Rh14  1  0.500000  0.815127  0.114542  1
  Rh  Rh15  1  0.500000  0.184873  0.885458  1
