# generated using pymatgen
data_Zr5SnBiBPb
_symmetry_space_group_name_H-M   'P 1'
_cell_length_a   8.69563370
_cell_length_b   8.64637083
_cell_length_c   5.87258800
_cell_angle_alpha   90.00000000
_cell_angle_beta   90.00000000
_cell_angle_gamma   119.81278105
_symmetry_Int_Tables_number   1
_chemical_formula_structural   Zr5SnBiBPb
_chemical_formula_sum   'Zr10 Sn2 Bi2 B2 Pb2'
_cell_volume   383.09941363
_cell_formula_units_Z   2
loop_
 _symmetry_equiv_pos_site_id
 _symmetry_equiv_pos_as_xyz
  1  'x, y, z'
loop_
 _atom_site_type_symbol
 _atom_site_label
 _atom_site_symmetry_multiplicity
 _atom_site_fract_x
 _atom_site_fract_y
 _atom_site_fract_z
 _atom_site_occupancy
  Zr  Zr0  1  0.672111  0.335915  0.000084  1
  Zr  Zr1  1  0.327889  0.663805  0.000084  1
  Zr  Zr2  1  0.327889  0.663805  0.499916  1
  Zr  Zr3  1  0.672111  0.335915  0.499916  1
  Zr  Zr4  1  0.778548  0.773470  0.750000  1
  Zr  Zr5  1  0.221452  0.994922  0.750000  1
  Zr  Zr6  1  0.000000  0.230568  0.750000  1
  Zr  Zr7  1  0.223939  0.227723  0.250000  1
  Zr  Zr8  1  0.776061  0.003784  0.250000  1
  Zr  Zr9  1  0.000000  0.769637  0.250000  1
  Sn  Sn10  1  0.000000  0.598337  0.750000  1
  Sn  Sn11  1  0.000000  0.400320  0.250000  1
  Bi  Bi12  1  0.400090  0.398379  0.750000  1
  Bi  Bi13  1  0.599910  0.998289  0.750000  1
  B  B14  1  0.000000  0.000187  0.001464  1
  B  B15  1  0.000000  0.000187  0.498536  1
  Pb  Pb16  1  0.601785  0.603271  0.250000  1
  Pb  Pb17  1  0.398215  0.001485  0.250000  1
