# generated using pymatgen
data_Zr5VPtRh9
_symmetry_space_group_name_H-M   'P 1'
_cell_length_a   5.59847956
_cell_length_b   5.61815686
_cell_length_c   8.60544300
_cell_angle_alpha   90.00000000
_cell_angle_beta   90.00000000
_cell_angle_gamma   101.16182710
_symmetry_Int_Tables_number   1
_chemical_formula_structural   Zr5VPtRh9
_chemical_formula_sum   'Zr5 V1 Pt1 Rh9'
_cell_volume   265.54830601
_cell_formula_units_Z   1
loop_
 _symmetry_equiv_pos_site_id
 _symmetry_equiv_pos_as_xyz
  1  'x, y, z'
loop_
 _atom_site_type_symbol
 _atom_site_label
 _atom_site_symmetry_multiplicity
 _atom_site_fract_x
 _atom_site_fract_y
 _atom_site_fract_z
 _atom_site_occupancy
  Zr  Zr0  1  0.410645  0.414906  0.250000  1
  Zr  Zr1  1  0.795552  0.215981  0.501593  1
  Zr  Zr2  1  0.211112  0.793930  0.996522  1
  Zr  Zr3  1  0.211112  0.793930  0.503478  1
  Zr  Zr4  1  0.795552  0.215981  0.998407  1
  V  V5  1  0.568340  0.569477  0.750000  1
  Pt  Pt6  1  0.518423  0.958857  0.250000  1
  Rh  Rh7  1  0.709480  0.709136  0.011171  1
  Rh  Rh8  1  0.709480  0.709136  0.488829  1
  Rh  Rh9  1  0.308734  0.309951  0.948072  1
  Rh  Rh10  1  0.308734  0.309951  0.551928  1
  Rh  Rh11  1  0.494963  0.985150  0.750000  1
  Rh  Rh12  1  0.017979  0.012123  0.250000  1
  Rh  Rh13  1  0.991973  0.993229  0.750000  1
  Rh  Rh14  1  0.984681  0.495252  0.750000  1
  Rh  Rh15  1  0.963239  0.513008  0.250000  1
