# generated using pymatgen
data_Ba3Sr2Sb3H
_symmetry_space_group_name_H-M   'P 1'
_cell_length_a   9.87656100
_cell_length_b   9.87656012
_cell_length_c   7.55122900
_cell_angle_alpha   90.00000000
_cell_angle_beta   90.00000000
_cell_angle_gamma   119.99999960
_symmetry_Int_Tables_number   1
_chemical_formula_structural   Ba3Sr2Sb3H
_chemical_formula_sum   'Ba6 Sr4 Sb6 H2'
_cell_volume   637.91047910
_cell_formula_units_Z   2
loop_
 _symmetry_equiv_pos_site_id
 _symmetry_equiv_pos_as_xyz
  1  'x, y, z'
loop_
 _atom_site_type_symbol
 _atom_site_label
 _atom_site_symmetry_multiplicity
 _atom_site_fract_x
 _atom_site_fract_y
 _atom_site_fract_z
 _atom_site_occupancy
  Ba  Ba0  1  0.753281  0.753281  0.250000  1
  Ba  Ba1  1  0.753281  0.000000  0.750000  1
  Ba  Ba2  1  0.000000  0.246719  0.250000  1
  Ba  Ba3  1  0.000000  0.753281  0.750000  1
  Ba  Ba4  1  0.246719  0.246719  0.750000  1
  Ba  Ba5  1  0.246719  0.000000  0.250000  1
  Sr  Sr6  1  0.333333  0.666667  0.500000  1
  Sr  Sr7  1  0.666667  0.333333  0.000000  1
  Sr  Sr8  1  0.666667  0.333333  0.500000  1
  Sr  Sr9  1  0.333333  0.666667  0.000000  1
  Sb  Sb10  1  0.397133  0.000000  0.750000  1
  Sb  Sb11  1  0.397133  0.397133  0.250000  1
  Sb  Sb12  1  0.000000  0.602867  0.250000  1
  Sb  Sb13  1  0.000000  0.397133  0.750000  1
  Sb  Sb14  1  0.602867  0.602867  0.750000  1
  Sb  Sb15  1  0.602867  0.000000  0.250000  1
  H  H16  1  0.000000  0.000000  0.500000  1
  H  H17  1  0.000000  0.000000  0.000000  1
