# generated using pymatgen
data_CeHo(Lu2Co)2
_symmetry_space_group_name_H-M   'P 1'
_cell_length_a   6.16964400
_cell_length_b   6.79890000
_cell_length_c   9.24721000
_cell_angle_alpha   90.00000000
_cell_angle_beta   90.00000000
_cell_angle_gamma   90.00000000
_symmetry_Int_Tables_number   1
_chemical_formula_structural   CeHo(Lu2Co)2
_chemical_formula_sum   'Ce2 Ho2 Lu8 Co4'
_cell_volume   387.89079992
_cell_formula_units_Z   2
loop_
 _symmetry_equiv_pos_site_id
 _symmetry_equiv_pos_as_xyz
  1  'x, y, z'
loop_
 _atom_site_type_symbol
 _atom_site_label
 _atom_site_symmetry_multiplicity
 _atom_site_fract_x
 _atom_site_fract_y
 _atom_site_fract_z
 _atom_site_occupancy
  Ce  Ce0  1  0.861497  0.559510  0.250000  1
  Ce  Ce1  1  0.638503  0.059510  0.250000  1
  Ho  Ho2  1  0.140489  0.459144  0.750000  1
  Ho  Ho3  1  0.359511  0.959144  0.750000  1
  Lu  Lu4  1  0.330223  0.672857  0.065495  1
  Lu  Lu5  1  0.169777  0.172857  0.434505  1
  Lu  Lu6  1  0.676000  0.328362  0.568759  1
  Lu  Lu7  1  0.824000  0.828362  0.931241  1
  Lu  Lu8  1  0.676000  0.328362  0.931241  1
  Lu  Lu9  1  0.824000  0.828362  0.568759  1
  Lu  Lu10  1  0.330223  0.672857  0.434505  1
  Lu  Lu11  1  0.169777  0.172857  0.065495  1
  Co  Co12  1  0.024601  0.865091  0.250000  1
  Co  Co13  1  0.475399  0.365091  0.250000  1
  Co  Co14  1  0.951282  0.113819  0.750000  1
  Co  Co15  1  0.548718  0.613819  0.750000  1
