# generated using pymatgen
data_Ca3Er2Sc(Si3Ru)8
_symmetry_space_group_name_H-M   'P 1'
_cell_length_a   10.12434727
_cell_length_b   10.12475582
_cell_length_c   8.12911989
_cell_angle_alpha   89.94816164
_cell_angle_beta   90.07727349
_cell_angle_gamma   132.63222968
_symmetry_Int_Tables_number   1
_chemical_formula_structural   Ca3Er2Sc(Si3Ru)8
_chemical_formula_sum   'Ca3 Er2 Sc1 Si24 Ru8'
_cell_volume   613.06292804
_cell_formula_units_Z   1
loop_
 _symmetry_equiv_pos_site_id
 _symmetry_equiv_pos_as_xyz
  1  'x, y, z'
loop_
 _atom_site_type_symbol
 _atom_site_label
 _atom_site_symmetry_multiplicity
 _atom_site_fract_x
 _atom_site_fract_y
 _atom_site_fract_z
 _atom_site_occupancy
  Ca  Ca0  1  0.498923  0.998926  0.250142  1
  Ca  Ca1  1  0.001004  0.501020  0.749842  1
  Ca  Ca2  1  0.501720  0.001692  0.749836  1
  Er  Er3  1  0.999382  0.499368  0.250082  1
  Er  Er4  1  0.000209  0.000195  0.999769  1
  Sc  Sc5  1  0.500122  0.500157  0.500186  1
  Si  Si6  1  0.389187  0.155118  0.004528  1
  Si  Si7  1  0.654402  0.886776  0.495766  1
  Si  Si8  1  0.112599  0.343954  0.503786  1
  Si  Si9  1  0.843269  0.610130  0.995963  1
  Si  Si10  1  0.610989  0.844693  0.995059  1
  Si  Si11  1  0.345400  0.113430  0.504748  1
  Si  Si12  1  0.887036  0.655488  0.493781  1
  Si  Si13  1  0.156149  0.389521  0.006626  1
  Si  Si14  1  0.610519  0.379107  0.228784  1
  Si  Si15  1  0.878693  0.111790  0.272999  1
  Si  Si16  1  0.888323  0.122168  0.727855  1
  Si  Si17  1  0.621675  0.389579  0.770239  1
  Si  Si18  1  0.389849  0.622124  0.770236  1
  Si  Si19  1  0.122561  0.888522  0.727870  1
  Si  Si20  1  0.706137  0.293934  0.999998  1
  Si  Si21  1  0.793765  0.206379  0.499922  1
  Si  Si22  1  0.294306  0.706197  0.999402  1
  Si  Si23  1  0.206402  0.794093  0.500467  1
  Si  Si24  1  0.168482  0.169277  0.334310  1
  Si  Si25  1  0.666737  0.666006  0.168072  1
  Si  Si26  1  0.335311  0.333410  0.831755  1
  Si  Si27  1  0.830920  0.832757  0.665871  1
  Si  Si28  1  0.377156  0.608535  0.228916  1
  Si  Si29  1  0.109736  0.876630  0.272954  1
  Ru  Ru30  1  0.626444  0.626936  0.872573  1
  Ru  Ru31  1  0.127578  0.127056  0.627027  1
  Ru  Ru32  1  0.872866  0.872901  0.373404  1
  Ru  Ru33  1  0.373547  0.373520  0.127039  1
  Ru  Ru34  1  0.329864  0.665385  0.497779  1
  Ru  Ru35  1  0.166099  0.829008  0.002337  1
  Ru  Ru36  1  0.669091  0.334260  0.497936  1
  Ru  Ru37  1  0.833546  0.169956  0.002140  1
