# generated using pymatgen
data_Sr2Ru(RhO4)2
_symmetry_space_group_name_H-M   'P 1'
_cell_length_a   6.58030935
_cell_length_b   6.58030832
_cell_length_c   5.37810724
_cell_angle_alpha   72.26501686
_cell_angle_beta   72.26501298
_cell_angle_gamma   57.69124692
_symmetry_Int_Tables_number   1
_chemical_formula_structural   Sr2Ru(RhO4)2
_chemical_formula_sum   'Sr2 Ru1 Rh2 O8'
_cell_volume   184.53577496
_cell_formula_units_Z   1
loop_
 _symmetry_equiv_pos_site_id
 _symmetry_equiv_pos_as_xyz
  1  'x, y, z'
loop_
 _atom_site_type_symbol
 _atom_site_label
 _atom_site_symmetry_multiplicity
 _atom_site_fract_x
 _atom_site_fract_y
 _atom_site_fract_z
 _atom_site_occupancy
  Sr  Sr0  1  0.722609  0.719909  0.332412  1
  Sr  Sr1  1  0.280091  0.277391  0.667588  1
  Ru  Ru2  1  0.740518  0.259482  0.000000  1
  Rh  Rh3  1  0.002305  0.997695  0.500000  1
  Rh  Rh4  1  0.251224  0.748776  0.000000  1
  O  O5  1  0.403943  0.395713  0.964991  1
  O  O6  1  0.604287  0.596057  0.035009  1
  O  O7  1  0.902899  0.909464  0.906624  1
  O  O8  1  0.090536  0.097101  0.093376  1
  O  O9  1  0.318891  0.880278  0.609557  1
  O  O10  1  0.878583  0.315607  0.622177  1
  O  O11  1  0.119722  0.681109  0.390443  1
  O  O12  1  0.684393  0.121417  0.377823  1
