# generated using pymatgen
data_Ba4Ni(IO6)2
_symmetry_space_group_name_H-M   'P 1'
_cell_length_a   5.88499199
_cell_length_b   5.88488328
_cell_length_c   10.27622902
_cell_angle_alpha   89.99876843
_cell_angle_beta   73.36138018
_cell_angle_gamma   119.99970099
_symmetry_Int_Tables_number   1
_chemical_formula_structural   Ba4Ni(IO6)2
_chemical_formula_sum   'Ba4 Ni1 I2 O12'
_cell_volume   290.87696548
_cell_formula_units_Z   1
loop_
 _symmetry_equiv_pos_site_id
 _symmetry_equiv_pos_as_xyz
  1  'x, y, z'
loop_
 _atom_site_type_symbol
 _atom_site_label
 _atom_site_symmetry_multiplicity
 _atom_site_fract_x
 _atom_site_fract_y
 _atom_site_fract_z
 _atom_site_occupancy
  Ba  Ba0  1  0.562809  0.281396  0.155753  1
  Ba  Ba1  1  0.412432  0.706225  0.881270  1
  Ba  Ba2  1  0.252546  0.126274  0.621248  1
  Ba  Ba3  1  0.751703  0.875847  0.372496  1
  Ni  Ni4  1  0.818654  0.409376  0.771908  1
  I  I5  1  0.002131  0.001067  0.996703  1
  I  I6  1  0.007497  0.503741  0.488837  1
  O  O7  1  0.774094  0.609316  0.616655  1
  O  O8  1  0.218567  0.609283  0.616702  1
  O  O9  1  0.774088  0.164790  0.616661  1
  O  O10  1  0.232206  0.379370  0.388580  1
  O  O11  1  0.758727  0.379360  0.388547  1
  O  O12  1  0.232198  0.852813  0.388581  1
  O  O13  1  0.082413  0.812536  0.104968  1
  O  O14  1  0.625098  0.812536  0.104962  1
  O  O15  1  0.082417  0.269871  0.104976  1
  O  O16  1  0.928810  0.194386  0.876715  1
  O  O17  1  0.388792  0.194389  0.876726  1
  O  O18  1  0.928818  0.734420  0.876716  1
