# generated using pymatgen
data_Sr2HfPaSb5
_symmetry_space_group_name_H-M   'P 1'
_cell_length_a   9.54705700
_cell_length_b   9.68442165
_cell_length_c   6.38273400
_cell_angle_alpha   90.00000000
_cell_angle_beta   90.00000000
_cell_angle_gamma   119.53188969
_symmetry_Int_Tables_number   1
_chemical_formula_structural   Sr2HfPaSb5
_chemical_formula_sum   'Sr4 Hf2 Pa2 Sb10'
_cell_volume   513.46385807
_cell_formula_units_Z   2
loop_
 _symmetry_equiv_pos_site_id
 _symmetry_equiv_pos_as_xyz
  1  'x, y, z'
loop_
 _atom_site_type_symbol
 _atom_site_label
 _atom_site_symmetry_multiplicity
 _atom_site_fract_x
 _atom_site_fract_y
 _atom_site_fract_z
 _atom_site_occupancy
  Sr  Sr0  1  0.986031  0.608551  0.250000  1
  Sr  Sr1  1  0.013969  0.391449  0.750000  1
  Sr  Sr2  1  0.377481  0.391449  0.250000  1
  Sr  Sr3  1  0.622519  0.608551  0.750000  1
  Hf  Hf4  1  0.000000  0.000000  0.000000  1
  Hf  Hf5  1  0.000000  0.000000  0.500000  1
  Pa  Pa6  1  0.618598  0.000000  0.250000  1
  Pa  Pa7  1  0.381402  0.000000  0.750000  1
  Sb  Sb8  1  0.265967  0.000000  0.250000  1
  Sb  Sb9  1  0.734033  0.000000  0.750000  1
  Sb  Sb10  1  0.985763  0.246464  0.250000  1
  Sb  Sb11  1  0.014237  0.753536  0.750000  1
  Sb  Sb12  1  0.739299  0.753536  0.250000  1
  Sb  Sb13  1  0.260701  0.246464  0.750000  1
  Sb  Sb14  1  0.349367  0.698734  0.000000  1
  Sb  Sb15  1  0.650633  0.301266  0.000000  1
  Sb  Sb16  1  0.650633  0.301266  0.500000  1
  Sb  Sb17  1  0.349367  0.698734  0.500000  1
