# generated using pymatgen
data_Gd6AsSe7
_symmetry_space_group_name_H-M   'P 1'
_cell_length_a   7.62652998
_cell_length_b   7.62026684
_cell_length_c   7.62029846
_cell_angle_alpha   109.45692264
_cell_angle_beta   109.49379903
_cell_angle_gamma   109.48280197
_symmetry_Int_Tables_number   1
_chemical_formula_structural   Gd6AsSe7
_chemical_formula_sum   'Gd6 As1 Se7'
_cell_volume   340.83227686
_cell_formula_units_Z   1
loop_
 _symmetry_equiv_pos_site_id
 _symmetry_equiv_pos_as_xyz
  1  'x, y, z'
loop_
 _atom_site_type_symbol
 _atom_site_label
 _atom_site_symmetry_multiplicity
 _atom_site_fract_x
 _atom_site_fract_y
 _atom_site_fract_z
 _atom_site_occupancy
  Gd  Gd0  1  0.248011  0.132536  0.878972  1
  Gd  Gd1  1  0.125505  0.868154  0.244805  1
  Gd  Gd2  1  0.757375  0.376787  0.631965  1
  Gd  Gd3  1  0.880179  0.255164  0.122915  1
  Gd  Gd4  1  0.615845  0.746538  0.367919  1
  Gd  Gd5  1  0.368935  0.620852  0.753482  1
  As  As6  1  0.151235  0.499975  0.000097  1
  Se  Se7  1  0.355624  0.354889  0.357934  1
  Se  Se8  1  0.647061  0.500032  0.000091  1
  Se  Se9  1  0.499388  0.000380  0.645967  1
  Se  Se10  1  0.501059  0.003119  0.145094  1
  Se  Se11  1  0.998812  0.645239  0.499458  1
  Se  Se12  1  0.853314  0.854266  0.854578  1
  Se  Se13  1  0.997657  0.142068  0.496721  1
