# generated using pymatgen
data_Ca4YbHgPd2
_symmetry_space_group_name_H-M   'P 1'
_cell_length_a   9.12841226
_cell_length_b   9.12841128
_cell_length_c   9.12841200
_cell_angle_alpha   129.17192135
_cell_angle_beta   129.17192446
_cell_angle_gamma   74.73405990
_symmetry_Int_Tables_number   1
_chemical_formula_structural   Ca4YbHgPd2
_chemical_formula_sum   'Ca8 Yb2 Hg2 Pd4'
_cell_volume   445.36404318
_cell_formula_units_Z   2
loop_
 _symmetry_equiv_pos_site_id
 _symmetry_equiv_pos_as_xyz
  1  'x, y, z'
loop_
 _atom_site_type_symbol
 _atom_site_label
 _atom_site_symmetry_multiplicity
 _atom_site_fract_x
 _atom_site_fract_y
 _atom_site_fract_z
 _atom_site_occupancy
  Ca  Ca0  1  0.530286  0.030286  0.833847  1
  Ca  Ca1  1  0.196437  0.696437  0.166148  1
  Ca  Ca2  1  0.030293  0.196432  0.500001  1
  Ca  Ca3  1  0.696432  0.530293  0.500001  1
  Ca  Ca4  1  0.469714  0.969714  0.166153  1
  Ca  Ca5  1  0.803563  0.303563  0.833852  1
  Ca  Ca6  1  0.969707  0.803568  0.499999  1
  Ca  Ca7  1  0.303568  0.469707  0.499999  1
  Yb  Yb8  1  0.500000  0.500000  0.000000  1
  Yb  Yb9  1  0.000000  0.000000  0.000000  1
  Hg  Hg10  1  0.249999  0.250001  0.000000  1
  Hg  Hg11  1  0.750001  0.749999  0.000000  1
  Pd  Pd12  1  0.129760  0.629760  0.759521  1
  Pd  Pd13  1  0.870240  0.370240  0.240479  1
  Pd  Pd14  1  0.629756  0.870244  0.500000  1
  Pd  Pd15  1  0.370244  0.129756  0.500000  1
