# generated using pymatgen
data_Dy3YAl16(GeIr3)2
_symmetry_space_group_name_H-M   'P 1'
_cell_length_a   7.55538187
_cell_length_b   7.55601069
_cell_length_c   9.44003000
_cell_angle_alpha   90.00000000
_cell_angle_beta   90.00000000
_cell_angle_gamma   119.71323185
_symmetry_Int_Tables_number   1
_chemical_formula_structural   Dy3YAl16(GeIr3)2
_chemical_formula_sum   'Dy3 Y1 Al16 Ge2 Ir6'
_cell_volume   468.05912499
_cell_formula_units_Z   1
loop_
 _symmetry_equiv_pos_site_id
 _symmetry_equiv_pos_as_xyz
  1  'x, y, z'
loop_
 _atom_site_type_symbol
 _atom_site_label
 _atom_site_symmetry_multiplicity
 _atom_site_fract_x
 _atom_site_fract_y
 _atom_site_fract_z
 _atom_site_occupancy
  Dy  Dy0  1  0.004290  0.323470  0.250000  1
  Dy  Dy1  1  0.676490  0.995723  0.750000  1
  Dy  Dy2  1  0.323519  0.004314  0.250000  1
  Y  Y3  1  0.995630  0.676185  0.750000  1
  Al  Al4  1  0.000809  0.337519  0.573671  1
  Al  Al5  1  0.999231  0.662321  0.425820  1
  Al  Al6  1  0.999231  0.662321  0.074180  1
  Al  Al7  1  0.337772  0.000938  0.926274  1
  Al  Al8  1  0.000809  0.337519  0.926329  1
  Al  Al9  1  0.662333  0.999192  0.073991  1
  Al  Al10  1  0.662333  0.999192  0.426009  1
  Al  Al11  1  0.337772  0.000938  0.573726  1
  Al  Al12  1  0.335889  0.335895  0.059007  1
  Al  Al13  1  0.663991  0.664110  0.941266  1
  Al  Al14  1  0.663991  0.664110  0.558734  1
  Al  Al15  1  0.335889  0.335895  0.440993  1
  Al  Al16  1  0.336311  0.553673  0.750000  1
  Al  Al17  1  0.663959  0.446370  0.250000  1
  Al  Al18  1  0.553325  0.335685  0.750000  1
  Al  Al19  1  0.446370  0.663983  0.250000  1
  Ge  Ge20  1  0.135354  0.135745  0.750000  1
  Ge  Ge21  1  0.864631  0.864661  0.250000  1
  Ir  Ir22  1  0.671049  0.328835  0.499930  1
  Ir  Ir23  1  0.328953  0.671109  0.499951  1
  Ir  Ir24  1  0.328953  0.671109  0.000049  1
  Ir  Ir25  1  0.671049  0.328835  0.000070  1
  Ir  Ir26  1  0.000032  0.000177  0.499898  1
  Ir  Ir27  1  0.000032  0.000177  0.000102  1
