# generated using pymatgen
data_Ca8YPuIr4
_symmetry_space_group_name_H-M   'P 1'
_cell_length_a   6.69804564
_cell_length_b   7.36698983
_cell_length_c   8.78314600
_cell_angle_alpha   97.48502413
_cell_angle_beta   112.41430675
_cell_angle_gamma   89.99999804
_symmetry_Int_Tables_number   1
_chemical_formula_structural   Ca8YPuIr4
_chemical_formula_sum   'Ca8 Y1 Pu1 Ir4'
_cell_volume   396.65866608
_cell_formula_units_Z   1
loop_
 _symmetry_equiv_pos_site_id
 _symmetry_equiv_pos_as_xyz
  1  'x, y, z'
loop_
 _atom_site_type_symbol
 _atom_site_label
 _atom_site_symmetry_multiplicity
 _atom_site_fract_x
 _atom_site_fract_y
 _atom_site_fract_z
 _atom_site_occupancy
  Ca  Ca0  1  0.978953  0.920761  0.173001  1
  Ca  Ca1  1  0.805950  0.579239  0.826999  1
  Ca  Ca2  1  0.023811  0.078859  0.826319  1
  Ca  Ca3  1  0.197495  0.421141  0.173681  1
  Ca  Ca4  1  0.632642  0.816289  0.433913  1
  Ca  Ca5  1  0.198730  0.683711  0.566087  1
  Ca  Ca6  1  0.362975  0.183207  0.567437  1
  Ca  Ca7  1  0.795538  0.316793  0.432563  1
  Y  Y8  1  0.562242  0.250000  0.000000  1
  Pu  Pu9  1  0.441946  0.750000  0.000000  1
  Ir  Ir10  1  0.803573  0.576873  0.206708  1
  Ir  Ir11  1  0.596865  0.923127  0.793292  1
  Ir  Ir12  1  0.197491  0.431222  0.795704  1
  Ir  Ir13  1  0.401788  0.068778  0.204296  1
