# generated using pymatgen
data_YbMnSb12OsRu2
_symmetry_space_group_name_H-M   'P 1'
_cell_length_a   8.17021939
_cell_length_b   8.16381120
_cell_length_c   8.15907414
_cell_angle_alpha   109.41286099
_cell_angle_beta   109.45389945
_cell_angle_gamma   109.49286812
_symmetry_Int_Tables_number   1
_chemical_formula_structural   YbMnSb12OsRu2
_chemical_formula_sum   'Yb1 Mn1 Sb12 Os1 Ru2'
_cell_volume   419.21302706
_cell_formula_units_Z   1
loop_
 _symmetry_equiv_pos_site_id
 _symmetry_equiv_pos_as_xyz
  1  'x, y, z'
loop_
 _atom_site_type_symbol
 _atom_site_label
 _atom_site_symmetry_multiplicity
 _atom_site_fract_x
 _atom_site_fract_y
 _atom_site_fract_z
 _atom_site_occupancy
  Yb  Yb0  1  0.000000  0.000000  0.000000  1
  Mn  Mn1  1  0.000000  0.000000  0.500000  1
  Sb  Sb2  1  0.841697  0.657440  0.504371  1
  Sb  Sb3  1  0.158303  0.342560  0.495629  1
  Sb  Sb4  1  0.157928  0.662417  0.819172  1
  Sb  Sb5  1  0.842072  0.337583  0.180828  1
  Sb  Sb6  1  0.661257  0.504609  0.842012  1
  Sb  Sb7  1  0.338743  0.495391  0.157988  1
  Sb  Sb8  1  0.657390  0.815579  0.153164  1
  Sb  Sb9  1  0.342610  0.184421  0.846836  1
  Sb  Sb10  1  0.504645  0.842488  0.662406  1
  Sb  Sb11  1  0.495355  0.157512  0.337594  1
  Sb  Sb12  1  0.184944  0.842610  0.338585  1
  Sb  Sb13  1  0.815056  0.157390  0.661415  1
  Os  Os14  1  0.000000  0.500000  0.000000  1
  Ru  Ru15  1  0.500000  0.500000  0.500000  1
  Ru  Ru16  1  0.500000  0.000000  0.000000  1
