# generated using pymatgen
data_U2V3Co9As7
_symmetry_space_group_name_H-M   'P 1'
_cell_length_a   3.78894900
_cell_length_b   9.37992979
_cell_length_c   9.37993100
_cell_angle_alpha   119.99999980
_cell_angle_beta   90.00000000
_cell_angle_gamma   90.00000000
_symmetry_Int_Tables_number   1
_chemical_formula_structural   U2V3Co9As7
_chemical_formula_sum   'U2 V3 Co9 As7'
_cell_volume   288.70122289
_cell_formula_units_Z   1
loop_
 _symmetry_equiv_pos_site_id
 _symmetry_equiv_pos_as_xyz
  1  'x, y, z'
loop_
 _atom_site_type_symbol
 _atom_site_label
 _atom_site_symmetry_multiplicity
 _atom_site_fract_x
 _atom_site_fract_y
 _atom_site_fract_z
 _atom_site_occupancy
  U  U0  1  0.000000  0.666667  0.333333  1
  U  U1  1  0.500000  0.333333  0.666667  1
  V  V2  1  0.500000  0.783193  0.900041  1
  V  V3  1  0.500000  0.116849  0.216807  1
  V  V4  1  0.500000  0.099959  0.883151  1
  Co  Co5  1  0.000000  0.568732  0.939041  1
  Co  Co6  1  0.000000  0.370308  0.431268  1
  Co  Co7  1  0.000000  0.060959  0.629692  1
  Co  Co8  1  0.000000  0.875601  0.156724  1
  Co  Co9  1  0.000000  0.281123  0.124399  1
  Co  Co10  1  0.000000  0.843276  0.718877  1
  Co  Co11  1  0.500000  0.949499  0.382775  1
  Co  Co12  1  0.500000  0.433275  0.050501  1
  Co  Co13  1  0.500000  0.617225  0.566725  1
  As  As14  1  0.000000  0.000000  0.000000  1
  As  As15  1  0.500000  0.708079  0.115672  1
  As  As16  1  0.500000  0.407593  0.291921  1
  As  As17  1  0.500000  0.884328  0.592407  1
  As  As18  1  0.000000  0.589249  0.702053  1
  As  As19  1  0.000000  0.112804  0.410751  1
  As  As20  1  0.000000  0.297947  0.887196  1
