# generated using pymatgen
data_Ca8YPd6
_symmetry_space_group_name_H-M   'P 1'
_cell_length_a   7.69356474
_cell_length_b   7.69356568
_cell_length_c   7.69356441
_cell_angle_alpha   71.14032610
_cell_angle_beta   71.14032097
_cell_angle_gamma   71.14032869
_symmetry_Int_Tables_number   1
_chemical_formula_structural   Ca8YPd6
_chemical_formula_sum   'Ca8 Y1 Pd6'
_cell_volume   395.44987871
_cell_formula_units_Z   1
loop_
 _symmetry_equiv_pos_site_id
 _symmetry_equiv_pos_as_xyz
  1  'x, y, z'
loop_
 _atom_site_type_symbol
 _atom_site_label
 _atom_site_symmetry_multiplicity
 _atom_site_fract_x
 _atom_site_fract_y
 _atom_site_fract_z
 _atom_site_occupancy
  Ca  Ca0  1  0.795786  0.795786  0.795786  1
  Ca  Ca1  1  0.204214  0.204214  0.204214  1
  Ca  Ca2  1  0.332346  0.603364  0.843446  1
  Ca  Ca3  1  0.843446  0.332346  0.603364  1
  Ca  Ca4  1  0.603364  0.843446  0.332346  1
  Ca  Ca5  1  0.667654  0.396636  0.156554  1
  Ca  Ca6  1  0.156554  0.667654  0.396636  1
  Ca  Ca7  1  0.396636  0.156554  0.667654  1
  Y  Y8  1  0.000000  0.000000  0.000000  1
  Pd  Pd9  1  0.146133  0.957727  0.600560  1
  Pd  Pd10  1  0.600560  0.146133  0.957727  1
  Pd  Pd11  1  0.957727  0.600560  0.146133  1
  Pd  Pd12  1  0.853867  0.042273  0.399440  1
  Pd  Pd13  1  0.399440  0.853867  0.042273  1
  Pd  Pd14  1  0.042273  0.399440  0.853867  1
