# generated using pymatgen
data_Sr2HgB2Pd7
_symmetry_space_group_name_H-M   'P 1'
_cell_length_a   5.65492600
_cell_length_b   5.65492637
_cell_length_c   7.63828100
_cell_angle_alpha   90.00000000
_cell_angle_beta   90.00000000
_cell_angle_gamma   119.99999783
_symmetry_Int_Tables_number   1
_chemical_formula_structural   Sr2HgB2Pd7
_chemical_formula_sum   'Sr2 Hg1 B2 Pd7'
_cell_volume   211.53398610
_cell_formula_units_Z   1
loop_
 _symmetry_equiv_pos_site_id
 _symmetry_equiv_pos_as_xyz
  1  'x, y, z'
loop_
 _atom_site_type_symbol
 _atom_site_label
 _atom_site_symmetry_multiplicity
 _atom_site_fract_x
 _atom_site_fract_y
 _atom_site_fract_z
 _atom_site_occupancy
  Sr  Sr0  1  0.000000  0.000000  0.000000  1
  Sr  Sr1  1  0.000000  0.000000  0.500000  1
  Hg  Hg2  1  0.666666  0.333334  0.500000  1
  B  B3  1  0.666666  0.333334  0.000000  1
  B  B4  1  0.333334  0.666667  0.000000  1
  Pd  Pd5  1  0.499321  0.998643  0.190389  1
  Pd  Pd6  1  0.001357  0.500678  0.190389  1
  Pd  Pd7  1  0.499323  0.500678  0.190389  1
  Pd  Pd8  1  0.333334  0.666667  0.500000  1
  Pd  Pd9  1  0.499321  0.998643  0.809611  1
  Pd  Pd10  1  0.001357  0.500678  0.809611  1
  Pd  Pd11  1  0.499323  0.500678  0.809611  1
