# generated using pymatgen
data_ErPaF8
_symmetry_space_group_name_H-M   'P 1'
_cell_length_a   8.24339658
_cell_length_b   8.31641921
_cell_length_c   8.11750281
_cell_angle_alpha   63.64437644
_cell_angle_beta   64.25739202
_cell_angle_gamma   80.70728591
_symmetry_Int_Tables_number   1
_chemical_formula_structural   ErPaF8
_chemical_formula_sum   'Er3 Pa3 F24'
_cell_volume   448.82685425
_cell_formula_units_Z   3
loop_
 _symmetry_equiv_pos_site_id
 _symmetry_equiv_pos_as_xyz
  1  'x, y, z'
loop_
 _atom_site_type_symbol
 _atom_site_label
 _atom_site_symmetry_multiplicity
 _atom_site_fract_x
 _atom_site_fract_y
 _atom_site_fract_z
 _atom_site_occupancy
  Er  Er0  1  0.368352  0.237360  0.334712  1
  Er  Er1  1  0.221677  0.361432  0.844218  1
  Er  Er2  1  0.780876  0.617090  0.165389  1
  Pa  Pa3  1  0.626082  0.775590  0.661118  1
  Pa  Pa4  1  0.787460  0.207147  0.757978  1
  Pa  Pa5  1  0.213701  0.786729  0.260521  1
  F  F6  1  0.313428  0.266485  0.608457  1
  F  F7  1  0.684461  0.741907  0.389771  1
  F  F8  1  0.728508  0.684313  0.888935  1
  F  F9  1  0.270947  0.317744  0.103606  1
  F  F10  1  0.824752  0.931216  0.947810  1
  F  F11  1  0.181220  0.053483  0.047611  1
  F  F12  1  0.054637  0.172356  0.553054  1
  F  F13  1  0.929154  0.831263  0.461099  1
  F  F14  1  0.409472  0.598133  0.742876  1
  F  F15  1  0.599621  0.404888  0.245351  1
  F  F16  1  0.500600  0.997131  0.497269  1
  F  F17  1  0.003705  0.506669  0.992914  1
  F  F18  1  0.511113  0.244801  0.790519  1
  F  F19  1  0.496787  0.754829  0.200359  1
  F  F20  1  0.744903  0.500332  0.711503  1
  F  F21  1  0.252969  0.513592  0.286110  1
  F  F22  1  0.399203  0.812068  0.914872  1
  F  F23  1  0.614023  0.181836  0.066948  1
  F  F24  1  0.180693  0.610175  0.571022  1
  F  F25  1  0.812684  0.393032  0.441173  1
  F  F26  1  0.722207  0.024580  0.644218  1
  F  F27  1  0.271673  0.970574  0.353848  1
  F  F28  1  0.968955  0.275424  0.850308  1
  F  F29  1  0.026140  0.727819  0.166436  1
