# generated using pymatgen
data_Tm6Al24Ir3Ru2Rh3
_symmetry_space_group_name_H-M   'P 1'
_cell_length_a   8.78860200
_cell_length_b   8.78860198
_cell_length_c   9.48345700
_cell_angle_alpha   90.00000000
_cell_angle_beta   90.00000000
_cell_angle_gamma   120.00000759
_symmetry_Int_Tables_number   1
_chemical_formula_structural   Tm6Al24Ir3Ru2Rh3
_chemical_formula_sum   'Tm6 Al24 Ir3 Ru2 Rh3'
_cell_volume   634.36157986
_cell_formula_units_Z   1
loop_
 _symmetry_equiv_pos_site_id
 _symmetry_equiv_pos_as_xyz
  1  'x, y, z'
loop_
 _atom_site_type_symbol
 _atom_site_label
 _atom_site_symmetry_multiplicity
 _atom_site_fract_x
 _atom_site_fract_y
 _atom_site_fract_z
 _atom_site_occupancy
  Tm  Tm0  1  0.806835  0.193165  0.751394  1
  Tm  Tm1  1  0.193165  0.806835  0.248606  1
  Tm  Tm2  1  0.386331  0.193165  0.751394  1
  Tm  Tm3  1  0.613669  0.806835  0.248606  1
  Tm  Tm4  1  0.806835  0.613669  0.751394  1
  Tm  Tm5  1  0.193165  0.386331  0.248606  1
  Al  Al6  1  0.666667  0.333333  0.970369  1
  Al  Al7  1  0.333333  0.666667  0.029631  1
  Al  Al8  1  0.333333  0.666667  0.469672  1
  Al  Al9  1  0.666667  0.333333  0.530328  1
  Al  Al10  1  0.836845  0.163155  0.422028  1
  Al  Al11  1  0.163155  0.836845  0.577972  1
  Al  Al12  1  0.326310  0.163155  0.422028  1
  Al  Al13  1  0.163298  0.836702  0.922537  1
  Al  Al14  1  0.673690  0.836845  0.577972  1
  Al  Al15  1  0.836702  0.163298  0.077463  1
  Al  Al16  1  0.836845  0.673690  0.422028  1
  Al  Al17  1  0.673404  0.836702  0.922537  1
  Al  Al18  1  0.163155  0.326310  0.577972  1
  Al  Al19  1  0.326596  0.163298  0.077463  1
  Al  Al20  1  0.163298  0.326596  0.922537  1
  Al  Al21  1  0.836702  0.673404  0.077463  1
  Al  Al22  1  0.437872  0.562128  0.749435  1
  Al  Al23  1  0.562128  0.437872  0.250565  1
  Al  Al24  1  0.124256  0.562128  0.749435  1
  Al  Al25  1  0.875744  0.437872  0.250565  1
  Al  Al26  1  0.437872  0.875744  0.749435  1
  Al  Al27  1  0.562128  0.124256  0.250565  1
  Al  Al28  1  0.000000  0.000000  0.750251  1
  Al  Al29  1  0.000000  0.000000  0.249749  1
  Ir  Ir30  1  0.500000  0.500000  0.000000  1
  Ir  Ir31  1  0.000000  0.500000  0.000000  1
  Ir  Ir32  1  0.500000  0.000000  0.000000  1
  Ru  Ru33  1  0.000000  0.000000  0.000000  1
  Ru  Ru34  1  0.000000  0.000000  0.500000  1
  Rh  Rh35  1  0.500000  0.500000  0.500000  1
  Rh  Rh36  1  0.000000  0.500000  0.500000  1
  Rh  Rh37  1  0.500000  0.000000  0.500000  1
