# generated using pymatgen
data_Si4Pd3Rh5
_symmetry_space_group_name_H-M   'P 1'
_cell_length_a   3.91029600
_cell_length_b   5.91424304
_cell_length_c   7.28089982
_cell_angle_alpha   90.70337919
_cell_angle_beta   90.00000000
_cell_angle_gamma   90.00000000
_symmetry_Int_Tables_number   1
_chemical_formula_structural   Si4Pd3Rh5
_chemical_formula_sum   'Si4 Pd3 Rh5'
_cell_volume   168.36861137
_cell_formula_units_Z   1
loop_
 _symmetry_equiv_pos_site_id
 _symmetry_equiv_pos_as_xyz
  1  'x, y, z'
loop_
 _atom_site_type_symbol
 _atom_site_label
 _atom_site_symmetry_multiplicity
 _atom_site_fract_x
 _atom_site_fract_y
 _atom_site_fract_z
 _atom_site_occupancy
  Si  Si0  1  0.250000  0.249291  0.884717  1
  Si  Si1  1  0.750000  0.763670  0.121246  1
  Si  Si2  1  0.250000  0.749014  0.609735  1
  Si  Si3  1  0.750000  0.240437  0.385448  1
  Pd  Pd4  1  0.750000  0.533898  0.822354  1
  Pd  Pd5  1  0.250000  0.474155  0.177492  1
  Pd  Pd6  1  0.750000  0.027730  0.679175  1
  Rh  Rh7  1  0.250000  0.965507  0.321145  1
  Rh  Rh8  1  0.250000  0.848670  0.929793  1
  Rh  Rh9  1  0.750000  0.158440  0.067495  1
  Rh  Rh10  1  0.250000  0.343601  0.570790  1
  Rh  Rh11  1  0.750000  0.645587  0.430609  1
