# generated using pymatgen
data_Er3PaCdHgPd4
_symmetry_space_group_name_H-M   'P 1'
_cell_length_a   7.71765553
_cell_length_b   7.71886693
_cell_length_c   3.66753600
_cell_angle_alpha   90.00000000
_cell_angle_beta   90.00000000
_cell_angle_gamma   91.47960323
_symmetry_Int_Tables_number   1
_chemical_formula_structural   Er3PaCdHgPd4
_chemical_formula_sum   'Er3 Pa1 Cd1 Hg1 Pd4'
_cell_volume   218.40798068
_cell_formula_units_Z   1
loop_
 _symmetry_equiv_pos_site_id
 _symmetry_equiv_pos_as_xyz
  1  'x, y, z'
loop_
 _atom_site_type_symbol
 _atom_site_label
 _atom_site_symmetry_multiplicity
 _atom_site_fract_x
 _atom_site_fract_y
 _atom_site_fract_z
 _atom_site_occupancy
  Er  Er0  1  0.324073  0.826966  0.500000  1
  Er  Er1  1  0.171908  0.329581  0.500000  1
  Er  Er2  1  0.832432  0.674107  0.500000  1
  Pa  Pa3  1  0.670474  0.168490  0.500000  1
  Cd  Cd4  1  0.499573  0.503705  0.000000  1
  Hg  Hg5  1  0.004219  0.999734  0.000000  1
  Pd  Pd6  1  0.124853  0.622903  0.000000  1
  Pd  Pd7  1  0.861727  0.363744  0.000000  1
  Pd  Pd8  1  0.630376  0.878454  0.000000  1
  Pd  Pd9  1  0.380367  0.132317  0.000000  1
