# generated using pymatgen
data_Er16In4Pd3Pt
_symmetry_space_group_name_H-M   'P 1'
_cell_length_a   9.64593810
_cell_length_b   9.63095091
_cell_length_c   9.63095100
_cell_angle_alpha   60.00000311
_cell_angle_beta   60.05138681
_cell_angle_gamma   60.05138923
_symmetry_Int_Tables_number   1
_chemical_formula_structural   Er16In4Pd3Pt
_chemical_formula_sum   'Er16 In4 Pd3 Pt1'
_cell_volume   633.14724025
_cell_formula_units_Z   1
loop_
 _symmetry_equiv_pos_site_id
 _symmetry_equiv_pos_as_xyz
  1  'x, y, z'
loop_
 _atom_site_type_symbol
 _atom_site_label
 _atom_site_symmetry_multiplicity
 _atom_site_fract_x
 _atom_site_fract_y
 _atom_site_fract_z
 _atom_site_occupancy
  Er  Er0  1  0.353499  0.350575  0.350575  1
  Er  Er1  1  0.353499  0.350575  0.945352  1
  Er  Er2  1  0.353499  0.945352  0.350575  1
  Er  Er3  1  0.944470  0.351843  0.351843  1
  Er  Er4  1  0.809950  0.188774  0.188774  1
  Er  Er5  1  0.188638  0.811240  0.811240  1
  Er  Er6  1  0.188638  0.811240  0.188882  1
  Er  Er7  1  0.809950  0.188774  0.812502  1
  Er  Er8  1  0.188638  0.188882  0.811240  1
  Er  Er9  1  0.809950  0.812502  0.188774  1
  Er  Er10  1  0.936358  0.563888  0.563888  1
  Er  Er11  1  0.563431  0.936840  0.936840  1
  Er  Er12  1  0.563431  0.936840  0.562887  1
  Er  Er13  1  0.936358  0.563888  0.935864  1
  Er  Er14  1  0.563431  0.562887  0.936840  1
  Er  Er15  1  0.936358  0.935864  0.563888  1
  In  In16  1  0.583321  0.583431  0.583431  1
  In  In17  1  0.583321  0.583431  0.249818  1
  In  In18  1  0.583321  0.249818  0.583431  1
  In  In19  1  0.249888  0.583371  0.583371  1
  Pd  Pd20  1  0.143492  0.144010  0.144010  1
  Pd  Pd21  1  0.143492  0.144010  0.568486  1
  Pd  Pd22  1  0.143492  0.568486  0.144010  1
  Pt  Pt23  1  0.569576  0.143475  0.143475  1
