# generated using pymatgen
data_DyY2Ta(Co4P3)2
_symmetry_space_group_name_H-M   'P 1'
_cell_length_a   3.70726700
_cell_length_b   10.62952300
_cell_length_c   12.32548400
_cell_angle_alpha   90.00000000
_cell_angle_beta   90.00000000
_cell_angle_gamma   90.00000000
_symmetry_Int_Tables_number   1
_chemical_formula_structural   DyY2Ta(Co4P3)2
_chemical_formula_sum   'Dy2 Y4 Ta2 Co16 P12'
_cell_volume   485.70393681
_cell_formula_units_Z   2
loop_
 _symmetry_equiv_pos_site_id
 _symmetry_equiv_pos_as_xyz
  1  'x, y, z'
loop_
 _atom_site_type_symbol
 _atom_site_label
 _atom_site_symmetry_multiplicity
 _atom_site_fract_x
 _atom_site_fract_y
 _atom_site_fract_z
 _atom_site_occupancy
  Dy  Dy0  1  0.500000  0.820610  0.205131  1
  Dy  Dy1  1  0.500000  0.179390  0.205131  1
  Y  Y2  1  0.000000  0.500000  0.526339  1
  Y  Y3  1  0.500000  0.000000  0.473646  1
  Y  Y4  1  0.000000  0.679602  0.794908  1
  Y  Y5  1  0.000000  0.320398  0.794908  1
  Ta  Ta6  1  0.500000  0.500000  0.156293  1
  Ta  Ta7  1  0.000000  0.000000  0.843623  1
  Co  Co8  1  0.500000  0.500000  0.702116  1
  Co  Co9  1  0.000000  0.000000  0.297616  1
  Co  Co10  1  0.000000  0.500000  0.986990  1
  Co  Co11  1  0.500000  0.000000  0.013292  1
  Co  Co12  1  0.500000  0.332612  0.992436  1
  Co  Co13  1  0.500000  0.667388  0.992436  1
  Co  Co14  1  0.000000  0.167240  0.007863  1
  Co  Co15  1  0.000000  0.832760  0.007863  1
  Co  Co16  1  0.500000  0.295364  0.432048  1
  Co  Co17  1  0.500000  0.704636  0.432048  1
  Co  Co18  1  0.000000  0.204499  0.567746  1
  Co  Co19  1  0.000000  0.795501  0.567746  1
  Co  Co20  1  0.500000  0.878002  0.705754  1
  Co  Co21  1  0.500000  0.121998  0.705754  1
  Co  Co22  1  0.000000  0.622179  0.294095  1
  Co  Co23  1  0.000000  0.377821  0.294095  1
  P  P24  1  0.500000  0.500000  0.881928  1
  P  P25  1  0.000000  0.000000  0.118222  1
  P  P26  1  0.500000  0.500000  0.355970  1
  P  P27  1  0.000000  0.000000  0.644024  1
  P  P28  1  0.500000  0.310852  0.615550  1
  P  P29  1  0.500000  0.689148  0.615550  1
  P  P30  1  0.000000  0.189108  0.384193  1
  P  P31  1  0.000000  0.810892  0.384193  1
  P  P32  1  0.500000  0.841241  0.893293  1
  P  P33  1  0.500000  0.158759  0.893293  1
  P  P34  1  0.000000  0.658990  0.106952  1
  P  P35  1  0.000000  0.341010  0.106952  1
