# generated using pymatgen
data_Tm12AlCo2Si2Sn
_symmetry_space_group_name_H-M   'P 1'
_cell_length_a   8.30451730
_cell_length_b   8.30451661
_cell_length_c   8.30451607
_cell_angle_alpha   112.97556892
_cell_angle_beta   111.69428381
_cell_angle_gamma   103.88697113
_symmetry_Int_Tables_number   1
_chemical_formula_structural   Tm12AlCo2Si2Sn
_chemical_formula_sum   'Tm12 Al1 Co2 Si2 Sn1'
_cell_volume   437.72023617
_cell_formula_units_Z   1
loop_
 _symmetry_equiv_pos_site_id
 _symmetry_equiv_pos_as_xyz
  1  'x, y, z'
loop_
 _atom_site_type_symbol
 _atom_site_label
 _atom_site_symmetry_multiplicity
 _atom_site_fract_x
 _atom_site_fract_y
 _atom_site_fract_z
 _atom_site_occupancy
  Tm  Tm0  1  0.437645  0.240108  0.197536  1
  Tm  Tm1  1  0.562355  0.759892  0.802464  1
  Tm  Tm2  1  0.042572  0.240108  0.802464  1
  Tm  Tm3  1  0.957428  0.759892  0.197536  1
  Tm  Tm4  1  0.184315  0.285363  0.469678  1
  Tm  Tm5  1  0.815685  0.714637  0.530322  1
  Tm  Tm6  1  0.184315  0.714637  0.898950  1
  Tm  Tm7  1  0.815685  0.285363  0.101050  1
  Tm  Tm8  1  0.305516  0.617690  0.312172  1
  Tm  Tm9  1  0.694484  0.382310  0.687828  1
  Tm  Tm10  1  0.305516  0.993345  0.687828  1
  Tm  Tm11  1  0.694484  0.006655  0.312172  1
  Al  Al12  1  0.000000  0.000000  0.000000  1
  Co  Co13  1  0.108853  0.608853  0.500000  1
  Co  Co14  1  0.891147  0.391147  0.500000  1
  Si  Si15  1  0.355024  0.000000  0.355024  1
  Si  Si16  1  0.644976  0.000000  0.644976  1
  Sn  Sn17  1  0.500000  0.500000  0.000000  1
