# generated using pymatgen
data_Dy4Co16Si3Tc4As9
_symmetry_space_group_name_H-M   'P 1'
_cell_length_a   3.81254700
_cell_length_b   10.65018517
_cell_length_c   12.13284700
_cell_angle_alpha   89.92904053
_cell_angle_beta   90.00000000
_cell_angle_gamma   90.00000000
_symmetry_Int_Tables_number   1
_chemical_formula_structural   Dy4Co16Si3Tc4As9
_chemical_formula_sum   'Dy4 Co16 Si3 Tc4 As9'
_cell_volume   492.64576394
_cell_formula_units_Z   1
loop_
 _symmetry_equiv_pos_site_id
 _symmetry_equiv_pos_as_xyz
  1  'x, y, z'
loop_
 _atom_site_type_symbol
 _atom_site_label
 _atom_site_symmetry_multiplicity
 _atom_site_fract_x
 _atom_site_fract_y
 _atom_site_fract_z
 _atom_site_occupancy
  Dy  Dy0  1  0.250000  0.582990  0.707319  1
  Dy  Dy1  1  0.250000  0.916939  0.203243  1
  Dy  Dy2  1  0.750000  0.416885  0.292724  1
  Dy  Dy3  1  0.750000  0.083345  0.792905  1
  Co  Co4  1  0.250000  0.404777  0.490144  1
  Co  Co5  1  0.250000  0.095288  0.989835  1
  Co  Co6  1  0.750000  0.594763  0.510990  1
  Co  Co7  1  0.750000  0.904459  0.010330  1
  Co  Co8  1  0.250000  0.219844  0.174983  1
  Co  Co9  1  0.250000  0.281432  0.675644  1
  Co  Co10  1  0.750000  0.780719  0.825324  1
  Co  Co11  1  0.750000  0.715596  0.323909  1
  Co  Co12  1  0.250000  0.889963  0.698640  1
  Co  Co13  1  0.250000  0.610721  0.197746  1
  Co  Co14  1  0.750000  0.114613  0.300798  1
  Co  Co15  1  0.750000  0.389053  0.802450  1
  Co  Co16  1  0.250000  0.468611  0.932513  1
  Co  Co17  1  0.250000  0.034267  0.432960  1
  Co  Co18  1  0.750000  0.530808  0.067417  1
  Co  Co19  1  0.750000  0.968723  0.567514  1
  Si  Si20  1  0.250000  0.417782  0.111818  1
  Si  Si21  1  0.250000  0.082840  0.612396  1
  Si  Si22  1  0.750000  0.582234  0.888189  1
  Tc  Tc23  1  0.250000  0.702101  0.986363  1
  Tc  Tc24  1  0.250000  0.791781  0.490930  1
  Tc  Tc25  1  0.750000  0.297853  0.013177  1
  Tc  Tc26  1  0.750000  0.204167  0.514974  1
  As  As27  1  0.750000  0.917121  0.384376  1
  As  As28  1  0.250000  0.268689  0.865983  1
  As  As29  1  0.250000  0.232914  0.366140  1
  As  As30  1  0.750000  0.730378  0.133104  1
  As  As31  1  0.750000  0.768726  0.635358  1
  As  As32  1  0.250000  0.594414  0.390058  1
  As  As33  1  0.250000  0.903961  0.889990  1
  As  As34  1  0.750000  0.404359  0.610769  1
  As  As35  1  0.750000  0.096884  0.108991  1
