# generated using pymatgen
data_Tb2Si2IrRh
_symmetry_space_group_name_H-M   'P 1'
_cell_length_a   4.27684600
_cell_length_b   6.94406600
_cell_length_c   7.38333000
_cell_angle_alpha   90.00000000
_cell_angle_beta   90.00000000
_cell_angle_gamma   90.00000000
_symmetry_Int_Tables_number   1
_chemical_formula_structural   Tb2Si2IrRh
_chemical_formula_sum   'Tb4 Si4 Ir2 Rh2'
_cell_volume   219.27530929
_cell_formula_units_Z   2
loop_
 _symmetry_equiv_pos_site_id
 _symmetry_equiv_pos_as_xyz
  1  'x, y, z'
loop_
 _atom_site_type_symbol
 _atom_site_label
 _atom_site_symmetry_multiplicity
 _atom_site_fract_x
 _atom_site_fract_y
 _atom_site_fract_z
 _atom_site_occupancy
  Tb  Tb0  1  0.750000  0.503576  0.813473  1
  Tb  Tb1  1  0.250000  0.997610  0.314049  1
  Tb  Tb2  1  0.750000  0.003576  0.686527  1
  Tb  Tb3  1  0.250000  0.497610  0.185951  1
  Si  Si4  1  0.250000  0.799813  0.895340  1
  Si  Si5  1  0.250000  0.299813  0.604660  1
  Si  Si6  1  0.750000  0.201293  0.109070  1
  Si  Si7  1  0.750000  0.701293  0.390930  1
  Ir  Ir8  1  0.750000  0.844641  0.068822  1
  Ir  Ir9  1  0.750000  0.344641  0.431178  1
  Rh  Rh10  1  0.250000  0.653068  0.570113  1
  Rh  Rh11  1  0.250000  0.153068  0.929887  1
