# generated using pymatgen
data_Zr16Ir4Pd3PtN4
_symmetry_space_group_name_H-M   'P 1'
_cell_length_a   8.86413067
_cell_length_b   8.86413047
_cell_length_c   8.86413087
_cell_angle_alpha   60.15091277
_cell_angle_beta   60.15091404
_cell_angle_gamma   60.15092168
_symmetry_Int_Tables_number   1
_chemical_formula_structural   Zr16Ir4Pd3PtN4
_chemical_formula_sum   'Zr16 Ir4 Pd3 Pt1 N4'
_cell_volume   494.16900423
_cell_formula_units_Z   1
loop_
 _symmetry_equiv_pos_site_id
 _symmetry_equiv_pos_as_xyz
  1  'x, y, z'
loop_
 _atom_site_type_symbol
 _atom_site_label
 _atom_site_symmetry_multiplicity
 _atom_site_fract_x
 _atom_site_fract_y
 _atom_site_fract_z
 _atom_site_occupancy
  Zr  Zr0  1  0.110983  0.629468  0.629468  1
  Zr  Zr1  1  0.629468  0.110983  0.629468  1
  Zr  Zr2  1  0.629468  0.629468  0.110983  1
  Zr  Zr3  1  0.632427  0.632427  0.632427  1
  Zr  Zr4  1  0.818420  0.818420  0.181337  1
  Zr  Zr5  1  0.181986  0.181986  0.817239  1
  Zr  Zr6  1  0.818420  0.181337  0.818420  1
  Zr  Zr7  1  0.181986  0.817239  0.181986  1
  Zr  Zr8  1  0.181337  0.818420  0.818420  1
  Zr  Zr9  1  0.817239  0.181986  0.181986  1
  Zr  Zr10  1  0.432332  0.432332  0.067114  1
  Zr  Zr11  1  0.066839  0.066839  0.432402  1
  Zr  Zr12  1  0.432332  0.067114  0.432332  1
  Zr  Zr13  1  0.066839  0.432402  0.066839  1
  Zr  Zr14  1  0.067114  0.432332  0.432332  1
  Zr  Zr15  1  0.432402  0.066839  0.066839  1
  Ir  Ir16  1  0.461370  0.848069  0.848069  1
  Ir  Ir17  1  0.848069  0.461370  0.848069  1
  Ir  Ir18  1  0.848069  0.848069  0.461370  1
  Ir  Ir19  1  0.845460  0.845460  0.845460  1
  Pd  Pd20  1  0.761117  0.414108  0.414108  1
  Pd  Pd21  1  0.414108  0.761117  0.414108  1
  Pd  Pd22  1  0.414108  0.414108  0.761117  1
  Pt  Pt23  1  0.409999  0.409999  0.409999  1
  N  N24  1  0.621927  0.125433  0.125433  1
  N  N25  1  0.125433  0.621927  0.125433  1
  N  N26  1  0.125433  0.125433  0.621927  1
  N  N27  1  0.125318  0.125318  0.125318  1
