# generated using pymatgen
data_Sm4Cu3Ni17Sn4
_symmetry_space_group_name_H-M   'P 1'
_cell_length_a   4.91984400
_cell_length_b   4.91984373
_cell_length_c   19.65271000
_cell_angle_alpha   90.00000000
_cell_angle_beta   90.00000000
_cell_angle_gamma   120.00001525
_symmetry_Int_Tables_number   1
_chemical_formula_structural   Sm4Cu3Ni17Sn4
_chemical_formula_sum   'Sm4 Cu3 Ni17 Sn4'
_cell_volume   411.96057101
_cell_formula_units_Z   1
loop_
 _symmetry_equiv_pos_site_id
 _symmetry_equiv_pos_as_xyz
  1  'x, y, z'
loop_
 _atom_site_type_symbol
 _atom_site_label
 _atom_site_symmetry_multiplicity
 _atom_site_fract_x
 _atom_site_fract_y
 _atom_site_fract_z
 _atom_site_occupancy
  Sm  Sm0  1  0.333333  0.666667  0.250000  1
  Sm  Sm1  1  0.666667  0.333333  0.750000  1
  Sm  Sm2  1  0.000000  0.000000  0.500384  1
  Sm  Sm3  1  0.000000  0.000000  0.999616  1
  Cu  Cu4  1  0.000000  0.000000  0.250000  1
  Cu  Cu5  1  0.000000  0.000000  0.750000  1
  Cu  Cu6  1  0.333333  0.666667  0.750000  1
  Ni  Ni7  1  0.666667  0.333333  0.250000  1
  Ni  Ni8  1  0.333333  0.666667  0.957714  1
  Ni  Ni9  1  0.666667  0.333333  0.042830  1
  Ni  Ni10  1  0.666667  0.333333  0.457170  1
  Ni  Ni11  1  0.333333  0.666667  0.542286  1
  Ni  Ni12  1  0.833505  0.166495  0.354346  1
  Ni  Ni13  1  0.833505  0.667009  0.354346  1
  Ni  Ni14  1  0.332991  0.166495  0.354346  1
  Ni  Ni15  1  0.166012  0.833988  0.645084  1
  Ni  Ni16  1  0.166012  0.332023  0.645084  1
  Ni  Ni17  1  0.667977  0.833988  0.645084  1
  Ni  Ni18  1  0.166012  0.833988  0.854916  1
  Ni  Ni19  1  0.166012  0.332023  0.854916  1
  Ni  Ni20  1  0.667977  0.833988  0.854916  1
  Ni  Ni21  1  0.833505  0.166495  0.145654  1
  Ni  Ni22  1  0.833505  0.667009  0.145654  1
  Ni  Ni23  1  0.332991  0.166495  0.145654  1
  Sn  Sn24  1  0.333333  0.666667  0.412479  1
  Sn  Sn25  1  0.666667  0.333333  0.587496  1
  Sn  Sn26  1  0.666667  0.333333  0.912504  1
  Sn  Sn27  1  0.333333  0.666667  0.087521  1
