# generated using pymatgen
data_Zn3Fe(WO3)8
_symmetry_space_group_name_H-M   'P 1'
_cell_length_a   6.64002875
_cell_length_b   6.64289102
_cell_length_c   10.75856847
_cell_angle_alpha   72.02856005
_cell_angle_beta   72.02496503
_cell_angle_gamma   90.00033507
_symmetry_Int_Tables_number   1
_chemical_formula_structural   Zn3Fe(WO3)8
_chemical_formula_sum   'Zn3 Fe1 W8 O24'
_cell_volume   426.97980836
_cell_formula_units_Z   1
loop_
 _symmetry_equiv_pos_site_id
 _symmetry_equiv_pos_as_xyz
  1  'x, y, z'
loop_
 _atom_site_type_symbol
 _atom_site_label
 _atom_site_symmetry_multiplicity
 _atom_site_fract_x
 _atom_site_fract_y
 _atom_site_fract_z
 _atom_site_occupancy
  Zn  Zn0  1  0.250204  0.750160  0.499622  1
  Zn  Zn1  1  0.749797  0.249841  0.500377  1
  Zn  Zn2  1  0.499996  0.499998  0.000000  1
  Fe  Fe3  1  0.999983  0.000079  0.000028  1
  W  W4  1  0.418129  0.918173  0.163683  1
  W  W5  1  0.917823  0.417824  0.164266  1
  W  W6  1  0.082182  0.582181  0.835732  1
  W  W7  1  0.581870  0.081822  0.836313  1
  W  W8  1  0.168460  0.168420  0.663140  1
  W  W9  1  0.668247  0.668167  0.663597  1
  W  W10  1  0.331749  0.331827  0.336402  1
  W  W11  1  0.831544  0.831573  0.336863  1
  O  O12  1  0.558852  0.749955  0.500067  1
  O  O13  1  0.058889  0.250032  0.499947  1
  O  O14  1  0.941111  0.749962  0.500056  1
  O  O15  1  0.441153  0.250041  0.499925  1
  O  O16  1  0.499988  0.190942  0.000017  1
  O  O17  1  0.999963  0.689795  0.000081  1
  O  O18  1  0.500014  0.809053  0.999982  1
  O  O19  1  0.000036  0.310204  0.999919  1
  O  O20  1  0.702457  0.911204  0.177380  1
  O  O21  1  0.204180  0.412165  0.175609  1
  O  O22  1  0.120137  0.911253  0.177366  1
  O  O23  1  0.620177  0.412176  0.175624  1
  O  O24  1  0.795829  0.587836  0.824383  1
  O  O25  1  0.297538  0.088790  0.822624  1
  O  O26  1  0.379825  0.587805  0.824382  1
  O  O27  1  0.879863  0.088751  0.822625  1
  O  O28  1  0.162316  0.870144  0.675425  1
  O  O29  1  0.662209  0.370574  0.675606  1
  O  O30  1  0.162302  0.454407  0.675444  1
  O  O31  1  0.662223  0.953770  0.675614  1
  O  O32  1  0.337784  0.629423  0.324389  1
  O  O33  1  0.837696  0.129847  0.324575  1
  O  O34  1  0.337763  0.046223  0.324383  1
  O  O35  1  0.837714  0.545587  0.324554  1
