# generated using pymatgen
data_Y4Tc5Ge8Ru
_symmetry_space_group_name_H-M   'P 1'
_cell_length_a   6.93016481
_cell_length_b   6.97797485
_cell_length_c   6.93908132
_cell_angle_alpha   69.53044824
_cell_angle_beta   89.70950873
_cell_angle_gamma   88.97979737
_symmetry_Int_Tables_number   1
_chemical_formula_structural   Y4Tc5Ge8Ru
_chemical_formula_sum   'Y4 Tc5 Ge8 Ru1'
_cell_volume   314.32549240
_cell_formula_units_Z   1
loop_
 _symmetry_equiv_pos_site_id
 _symmetry_equiv_pos_as_xyz
  1  'x, y, z'
loop_
 _atom_site_type_symbol
 _atom_site_label
 _atom_site_symmetry_multiplicity
 _atom_site_fract_x
 _atom_site_fract_y
 _atom_site_fract_z
 _atom_site_occupancy
  Y  Y0  1  0.174769  0.950082  0.191155  1
  Y  Y1  1  0.329799  0.444331  0.194192  1
  Y  Y2  1  0.833194  0.054052  0.806983  1
  Y  Y3  1  0.672059  0.552756  0.809437  1
  Tc  Tc4  1  0.854355  0.252726  0.245608  1
  Tc  Tc5  1  0.357069  0.254117  0.759161  1
  Tc  Tc6  1  0.143929  0.760120  0.767124  1
  Tc  Tc7  1  0.498563  0.993820  0.498945  1
  Tc  Tc8  1  0.001530  0.509509  0.499360  1
  Ge  Ge9  1  0.565123  0.122184  0.107817  1
  Ge  Ge10  1  0.350624  0.633643  0.519004  1
  Ge  Ge11  1  0.847973  0.866727  0.471569  1
  Ge  Ge12  1  0.057473  0.372485  0.897740  1
  Ge  Ge13  1  0.144767  0.135419  0.514003  1
  Ge  Ge14  1  0.645525  0.364355  0.490505  1
  Ge  Ge15  1  0.945450  0.638093  0.104743  1
  Ge  Ge16  1  0.445921  0.868716  0.893702  1
  Ru  Ru17  1  0.631875  0.726864  0.228950  1
