# generated using pymatgen
data_Dy20Co3NiBi8
_symmetry_space_group_name_H-M   'P 1'
_cell_length_a   8.03204800
_cell_length_b   8.87722500
_cell_length_c   12.42712300
_cell_angle_alpha   90.00000000
_cell_angle_beta   89.99768332
_cell_angle_gamma   90.00000000
_symmetry_Int_Tables_number   1
_chemical_formula_structural   Dy20Co3NiBi8
_chemical_formula_sum   'Dy20 Co3 Ni1 Bi8'
_cell_volume   886.08241845
_cell_formula_units_Z   1
loop_
 _symmetry_equiv_pos_site_id
 _symmetry_equiv_pos_as_xyz
  1  'x, y, z'
loop_
 _atom_site_type_symbol
 _atom_site_label
 _atom_site_symmetry_multiplicity
 _atom_site_fract_x
 _atom_site_fract_y
 _atom_site_fract_z
 _atom_site_occupancy
  Dy  Dy0  1  0.847800  0.750000  0.801958  1
  Dy  Dy1  1  0.152505  0.250000  0.198235  1
  Dy  Dy2  1  0.346533  0.250000  0.699518  1
  Dy  Dy3  1  0.655800  0.750000  0.297533  1
  Dy  Dy4  1  0.376647  0.750000  0.691839  1
  Dy  Dy5  1  0.620612  0.250000  0.310723  1
  Dy  Dy6  1  0.879708  0.250000  0.810531  1
  Dy  Dy7  1  0.120736  0.750000  0.189811  1
  Dy  Dy8  1  0.954501  0.750000  0.501860  1
  Dy  Dy9  1  0.047448  0.250000  0.498239  1
  Dy  Dy10  1  0.451687  0.250000  0.997760  1
  Dy  Dy11  1  0.548109  0.750000  0.001787  1
  Dy  Dy12  1  0.676069  0.040521  0.563957  1
  Dy  Dy13  1  0.323519  0.967190  0.435694  1
  Dy  Dy14  1  0.175055  0.964165  0.936797  1
  Dy  Dy15  1  0.323519  0.532810  0.435694  1
  Dy  Dy16  1  0.824532  0.035685  0.063514  1
  Dy  Dy17  1  0.676069  0.459479  0.563957  1
  Dy  Dy18  1  0.824532  0.464315  0.063514  1
  Dy  Dy19  1  0.175055  0.535835  0.936797  1
  Co  Co20  1  0.437726  0.250000  0.492033  1
  Co  Co21  1  0.061482  0.250000  0.991644  1
  Co  Co22  1  0.938568  0.750000  0.008570  1
  Ni  Ni23  1  0.562223  0.750000  0.508486  1
  Bi  Bi24  1  0.569289  0.492252  0.825623  1
  Bi  Bi25  1  0.430979  0.507898  0.174074  1
  Bi  Bi26  1  0.069282  0.508025  0.673916  1
  Bi  Bi27  1  0.430979  0.992102  0.174074  1
  Bi  Bi28  1  0.930233  0.491845  0.326161  1
  Bi  Bi29  1  0.569289  0.007748  0.825623  1
  Bi  Bi30  1  0.930233  0.008155  0.326161  1
  Bi  Bi31  1  0.069282  0.991975  0.673916  1
