# generated using pymatgen
data_Al2VNi12Sb
_symmetry_space_group_name_H-M   'P 1'
_cell_length_a   3.64570500
_cell_length_b   3.64570500
_cell_length_c   14.33447300
_cell_angle_alpha   90.00000000
_cell_angle_beta   90.00000000
_cell_angle_gamma   90.00000000
_symmetry_Int_Tables_number   1
_chemical_formula_structural   Al2VNi12Sb
_chemical_formula_sum   'Al2 V1 Ni12 Sb1'
_cell_volume   190.52184507
_cell_formula_units_Z   1
loop_
 _symmetry_equiv_pos_site_id
 _symmetry_equiv_pos_as_xyz
  1  'x, y, z'
loop_
 _atom_site_type_symbol
 _atom_site_label
 _atom_site_symmetry_multiplicity
 _atom_site_fract_x
 _atom_site_fract_y
 _atom_site_fract_z
 _atom_site_occupancy
  Al  Al0  1  0.000000  0.000000  0.243923  1
  Al  Al1  1  0.000000  0.000000  0.756077  1
  V  V2  1  0.000000  0.000000  0.000000  1
  Ni  Ni3  1  0.500000  0.500000  0.000000  1
  Ni  Ni4  1  0.500000  0.500000  0.244412  1
  Ni  Ni5  1  0.500000  0.500000  0.500000  1
  Ni  Ni6  1  0.500000  0.500000  0.755588  1
  Ni  Ni7  1  0.500000  0.000000  0.119174  1
  Ni  Ni8  1  0.500000  0.000000  0.366689  1
  Ni  Ni9  1  0.500000  0.000000  0.633311  1
  Ni  Ni10  1  0.500000  0.000000  0.880826  1
  Ni  Ni11  1  0.000000  0.500000  0.119174  1
  Ni  Ni12  1  0.000000  0.500000  0.366689  1
  Ni  Ni13  1  0.000000  0.500000  0.633311  1
  Ni  Ni14  1  0.000000  0.500000  0.880826  1
  Sb  Sb15  1  0.000000  0.000000  0.500000  1
