# generated using pymatgen
data_Tb3Er13(Tl3Os)2
_symmetry_space_group_name_H-M   'P 1'
_cell_length_a   10.33010800
_cell_length_b   10.33010754
_cell_length_c   7.07944000
_cell_angle_alpha   90.00000000
_cell_angle_beta   90.00000000
_cell_angle_gamma   119.99999506
_symmetry_Int_Tables_number   1
_chemical_formula_structural   Tb3Er13(Tl3Os)2
_chemical_formula_sum   'Tb3 Er13 Tl6 Os2'
_cell_volume   654.24326938
_cell_formula_units_Z   1
loop_
 _symmetry_equiv_pos_site_id
 _symmetry_equiv_pos_as_xyz
  1  'x, y, z'
loop_
 _atom_site_type_symbol
 _atom_site_label
 _atom_site_symmetry_multiplicity
 _atom_site_fract_x
 _atom_site_fract_y
 _atom_site_fract_z
 _atom_site_occupancy
  Tb  Tb0  1  0.532891  0.065782  0.793451  1
  Tb  Tb1  1  0.934218  0.467109  0.793451  1
  Tb  Tb2  1  0.532891  0.467109  0.793451  1
  Er  Er3  1  0.465658  0.931317  0.294259  1
  Er  Er4  1  0.068683  0.534342  0.294259  1
  Er  Er5  1  0.465658  0.534342  0.294259  1
  Er  Er6  1  0.822957  0.645914  0.495935  1
  Er  Er7  1  0.354086  0.177043  0.495935  1
  Er  Er8  1  0.822957  0.177043  0.495935  1
  Er  Er9  1  0.177097  0.354193  0.998807  1
  Er  Er10  1  0.645807  0.822903  0.998807  1
  Er  Er11  1  0.177097  0.822903  0.998807  1
  Er  Er12  1  0.666667  0.333333  0.171939  1
  Er  Er13  1  0.333333  0.666667  0.671739  1
  Er  Er14  1  0.000000  0.000000  0.777158  1
  Er  Er15  1  0.000000  0.000000  0.277281  1
  Tl  Tl16  1  0.837149  0.674299  0.042920  1
  Tl  Tl17  1  0.325701  0.162851  0.042920  1
  Tl  Tl18  1  0.837149  0.162851  0.042920  1
  Tl  Tl19  1  0.163339  0.326679  0.542480  1
  Tl  Tl20  1  0.673321  0.836661  0.542480  1
  Tl  Tl21  1  0.163339  0.836661  0.542480  1
  Os  Os22  1  0.666667  0.333333  0.566166  1
  Os  Os23  1  0.333333  0.666667  0.068068  1
