# generated using pymatgen
data_Nd10AgBi6Br
_symmetry_space_group_name_H-M   'P 1'
_cell_length_a   9.67444500
_cell_length_b   9.67444513
_cell_length_c   6.65820200
_cell_angle_alpha   90.00000000
_cell_angle_beta   90.00000000
_cell_angle_gamma   120.00000297
_symmetry_Int_Tables_number   1
_chemical_formula_structural   Nd10AgBi6Br
_chemical_formula_sum   'Nd10 Ag1 Bi6 Br1'
_cell_volume   539.68420954
_cell_formula_units_Z   1
loop_
 _symmetry_equiv_pos_site_id
 _symmetry_equiv_pos_as_xyz
  1  'x, y, z'
loop_
 _atom_site_type_symbol
 _atom_site_label
 _atom_site_symmetry_multiplicity
 _atom_site_fract_x
 _atom_site_fract_y
 _atom_site_fract_z
 _atom_site_occupancy
  Nd  Nd0  1  0.271670  0.000000  0.749430  1
  Nd  Nd1  1  0.728330  0.000000  0.250570  1
  Nd  Nd2  1  0.000000  0.271670  0.749430  1
  Nd  Nd3  1  0.000000  0.728330  0.250570  1
  Nd  Nd4  1  0.728330  0.728330  0.749430  1
  Nd  Nd5  1  0.271670  0.271670  0.250570  1
  Nd  Nd6  1  0.333333  0.666667  0.500000  1
  Nd  Nd7  1  0.666667  0.333333  0.500000  1
  Nd  Nd8  1  0.666667  0.333333  0.000000  1
  Nd  Nd9  1  0.333333  0.666667  0.000000  1
  Ag  Ag10  1  0.000000  0.000000  0.500000  1
  Bi  Bi11  1  0.617940  0.000000  0.748286  1
  Bi  Bi12  1  0.382060  0.000000  0.251714  1
  Bi  Bi13  1  0.000000  0.617940  0.748286  1
  Bi  Bi14  1  0.000000  0.382060  0.251714  1
  Bi  Bi15  1  0.382060  0.382060  0.748286  1
  Bi  Bi16  1  0.617940  0.617940  0.251714  1
  Br  Br17  1  0.000000  0.000000  0.000000  1
