# generated using pymatgen
data_Ho3(LuIn2)2
_symmetry_space_group_name_H-M   'P 1'
_cell_length_a   9.19495700
_cell_length_b   9.19495695
_cell_length_c   6.61636700
_cell_angle_alpha   90.00000000
_cell_angle_beta   90.00000000
_cell_angle_gamma   120.00000378
_symmetry_Int_Tables_number   1
_chemical_formula_structural   Ho3(LuIn2)2
_chemical_formula_sum   'Ho6 Lu4 In8'
_cell_volume   484.45071897
_cell_formula_units_Z   2
loop_
 _symmetry_equiv_pos_site_id
 _symmetry_equiv_pos_as_xyz
  1  'x, y, z'
loop_
 _atom_site_type_symbol
 _atom_site_label
 _atom_site_symmetry_multiplicity
 _atom_site_fract_x
 _atom_site_fract_y
 _atom_site_fract_z
 _atom_site_occupancy
  Ho  Ho0  1  0.289921  0.000000  0.750000  1
  Ho  Ho1  1  0.710079  0.000000  0.250000  1
  Ho  Ho2  1  0.000000  0.289921  0.750000  1
  Ho  Ho3  1  0.000000  0.710079  0.250000  1
  Ho  Ho4  1  0.710079  0.710079  0.750000  1
  Ho  Ho5  1  0.289921  0.289921  0.250000  1
  Lu  Lu6  1  0.333333  0.666667  0.500000  1
  Lu  Lu7  1  0.666667  0.333333  0.500000  1
  Lu  Lu8  1  0.666667  0.333333  0.000000  1
  Lu  Lu9  1  0.333333  0.666667  0.000000  1
  In  In10  1  0.000000  0.000000  0.500000  1
  In  In11  1  0.000000  0.000000  0.000000  1
  In  In12  1  0.627826  0.000000  0.750000  1
  In  In13  1  0.372174  0.000000  0.250000  1
  In  In14  1  0.000000  0.627826  0.750000  1
  In  In15  1  0.000000  0.372174  0.250000  1
  In  In16  1  0.372174  0.372174  0.750000  1
  In  In17  1  0.627826  0.627826  0.250000  1
