# generated using pymatgen
data_DyErTm2(WO6)2
_symmetry_space_group_name_H-M   'P 1'
_cell_length_a   5.36322600
_cell_length_b   7.66608125
_cell_length_c   11.39050638
_cell_angle_alpha   75.32579976
_cell_angle_beta   90.00000000
_cell_angle_gamma   90.00000000
_symmetry_Int_Tables_number   1
_chemical_formula_structural   DyErTm2(WO6)2
_chemical_formula_sum   'Dy2 Er2 Tm4 W4 O24'
_cell_volume   453.04413632
_cell_formula_units_Z   2
loop_
 _symmetry_equiv_pos_site_id
 _symmetry_equiv_pos_as_xyz
  1  'x, y, z'
loop_
 _atom_site_type_symbol
 _atom_site_label
 _atom_site_symmetry_multiplicity
 _atom_site_fract_x
 _atom_site_fract_y
 _atom_site_fract_z
 _atom_site_occupancy
  Dy  Dy0  1  0.684005  0.500000  0.750000  1
  Dy  Dy1  1  0.315995  0.500000  0.250000  1
  Er  Er2  1  0.742049  0.000000  0.750000  1
  Er  Er3  1  0.257951  0.000000  0.250000  1
  Tm  Tm4  1  0.182536  0.793986  0.578659  1
  Tm  Tm5  1  0.817464  0.793986  0.078659  1
  Tm  Tm6  1  0.182536  0.206014  0.921341  1
  Tm  Tm7  1  0.817464  0.206014  0.421341  1
  W  W8  1  0.256159  0.724742  0.885239  1
  W  W9  1  0.743841  0.724742  0.385239  1
  W  W10  1  0.256159  0.275258  0.614761  1
  W  W11  1  0.743841  0.275258  0.114761  1
  O  O12  1  0.045367  0.941560  0.896136  1
  O  O13  1  0.539664  0.844494  0.931285  1
  O  O14  1  0.954633  0.941560  0.396136  1
  O  O15  1  0.456860  0.793616  0.725508  1
  O  O16  1  0.460336  0.844494  0.431285  1
  O  O17  1  0.979304  0.713248  0.770536  1
  O  O18  1  0.543140  0.793616  0.225508  1
  O  O19  1  0.850505  0.635247  0.549348  1
  O  O20  1  0.357359  0.489072  0.885393  1
  O  O21  1  0.020696  0.713248  0.270536  1
  O  O22  1  0.357359  0.510928  0.614607  1
  O  O23  1  0.850505  0.364753  0.950652  1
  O  O24  1  0.149495  0.635247  0.049348  1
  O  O25  1  0.642641  0.489072  0.385393  1
  O  O26  1  0.979304  0.286752  0.729464  1
  O  O27  1  0.642641  0.510928  0.114607  1
  O  O28  1  0.149495  0.364753  0.450652  1
  O  O29  1  0.456860  0.206384  0.774492  1
  O  O30  1  0.020696  0.286752  0.229464  1
  O  O31  1  0.539664  0.155506  0.568715  1
  O  O32  1  0.543140  0.206384  0.274492  1
  O  O33  1  0.045367  0.058440  0.603864  1
  O  O34  1  0.460336  0.155506  0.068715  1
  O  O35  1  0.954633  0.058440  0.103864  1
