# generated using pymatgen
data_Ta10GaSi4Ge
_symmetry_space_group_name_H-M   'P 1'
_cell_length_a   6.60261300
_cell_length_b   7.60006419
_cell_length_c   6.60261300
_cell_angle_alpha   115.74576615
_cell_angle_beta   90.00000000
_cell_angle_gamma   115.74576615
_symmetry_Int_Tables_number   1
_chemical_formula_structural   Ta10GaSi4Ge
_chemical_formula_sum   'Ta10 Ga1 Si4 Ge1'
_cell_volume   261.43520440
_cell_formula_units_Z   1
loop_
 _symmetry_equiv_pos_site_id
 _symmetry_equiv_pos_as_xyz
  1  'x, y, z'
loop_
 _atom_site_type_symbol
 _atom_site_label
 _atom_site_symmetry_multiplicity
 _atom_site_fract_x
 _atom_site_fract_y
 _atom_site_fract_z
 _atom_site_occupancy
  Ta  Ta0  1  0.000749  0.001498  0.000749  1
  Ta  Ta1  1  0.499251  0.998502  0.499251  1
  Ta  Ta2  1  0.515282  0.702005  0.688392  1
  Ta  Ta3  1  0.186723  0.702005  0.013613  1
  Ta  Ta4  1  0.688392  0.702005  0.186723  1
  Ta  Ta5  1  0.013613  0.702005  0.515282  1
  Ta  Ta6  1  0.486387  0.297995  0.313277  1
  Ta  Ta7  1  0.811608  0.297995  0.984718  1
  Ta  Ta8  1  0.313277  0.297995  0.811608  1
  Ta  Ta9  1  0.984718  0.297995  0.486387  1
  Ga  Ga10  1  0.250000  0.500000  0.250000  1
  Si  Si11  1  0.869411  0.000000  0.630589  1
  Si  Si12  1  0.130589  0.000000  0.369411  1
  Si  Si13  1  0.630589  0.000000  0.130589  1
  Si  Si14  1  0.369411  0.000000  0.869411  1
  Ge  Ge15  1  0.750000  0.500000  0.750000  1
