# generated using pymatgen
data_Pr5Dy5(SiSn)4
_symmetry_space_group_name_H-M   'P 1'
_cell_length_a   9.28696256
_cell_length_b   8.22625681
_cell_length_c   8.12780397
_cell_angle_alpha   90.23266628
_cell_angle_beta   90.64563795
_cell_angle_gamma   127.57575810
_symmetry_Int_Tables_number   1
_chemical_formula_structural   Pr5Dy5(SiSn)4
_chemical_formula_sum   'Pr5 Dy5 Si4 Sn4'
_cell_volume   492.04599681
_cell_formula_units_Z   1
loop_
 _symmetry_equiv_pos_site_id
 _symmetry_equiv_pos_as_xyz
  1  'x, y, z'
loop_
 _atom_site_type_symbol
 _atom_site_label
 _atom_site_symmetry_multiplicity
 _atom_site_fract_x
 _atom_site_fract_y
 _atom_site_fract_z
 _atom_site_occupancy
  Pr  Pr0  1  0.069477  0.358534  0.323697  1
  Pr  Pr1  1  0.930952  0.642733  0.676588  1
  Pr  Pr2  1  0.426235  0.142277  0.821803  1
  Pr  Pr3  1  0.745516  0.512416  0.169894  1
  Pr  Pr4  1  0.573080  0.858959  0.177941  1
  Dy  Dy5  1  0.256065  0.483977  0.831246  1
  Dy  Dy6  1  0.752798  0.985166  0.668629  1
  Dy  Dy7  1  0.246846  0.015026  0.331327  1
  Dy  Dy8  1  0.999799  0.999634  0.000139  1
  Dy  Dy9  1  0.498806  0.500695  0.501896  1
  Si  Si10  1  0.353454  0.366987  0.134912  1
  Si  Si11  1  0.638881  0.630744  0.860603  1
  Si  Si12  1  0.131573  0.124331  0.623902  1
  Si  Si13  1  0.870969  0.881893  0.377139  1
  Sn  Sn14  1  0.850549  0.273227  0.955177  1
  Sn  Sn15  1  0.160460  0.729988  0.039563  1
  Sn  Sn16  1  0.648716  0.221344  0.463162  1
  Sn  Sn17  1  0.345826  0.772070  0.542378  1
