# generated using pymatgen
data_Tm4TcOs6W
_symmetry_space_group_name_H-M   'P 1'
_cell_length_a   5.47440700
_cell_length_b   5.23201929
_cell_length_c   8.86415400
_cell_angle_alpha   90.00000000
_cell_angle_beta   90.00000000
_cell_angle_gamma   121.53465532
_symmetry_Int_Tables_number   1
_chemical_formula_structural   Tm4TcOs6W
_chemical_formula_sum   'Tm4 Tc1 Os6 W1'
_cell_volume   216.39559553
_cell_formula_units_Z   1
loop_
 _symmetry_equiv_pos_site_id
 _symmetry_equiv_pos_as_xyz
  1  'x, y, z'
loop_
 _atom_site_type_symbol
 _atom_site_label
 _atom_site_symmetry_multiplicity
 _atom_site_fract_x
 _atom_site_fract_y
 _atom_site_fract_z
 _atom_site_occupancy
  Tm  Tm0  1  0.670905  0.342419  0.563330  1
  Tm  Tm1  1  0.333084  0.665642  0.434586  1
  Tm  Tm2  1  0.333084  0.665642  0.065414  1
  Tm  Tm3  1  0.670905  0.342419  0.936670  1
  Tc  Tc4  1  0.824312  0.648276  0.250000  1
  Os  Os5  1  0.004466  0.008715  0.497797  1
  Os  Os6  1  0.004466  0.008715  0.002203  1
  Os  Os7  1  0.173813  0.825150  0.750000  1
  Os  Os8  1  0.651889  0.825721  0.750000  1
  Os  Os9  1  0.827362  0.168874  0.250000  1
  Os  Os10  1  0.340446  0.168086  0.250000  1
  W  W11  1  0.165268  0.330342  0.750000  1
