# generated using pymatgen
data_Y8AlCuPt23
_symmetry_space_group_name_H-M   'P 1'
_cell_length_a   8.35529200
_cell_length_b   8.35529200
_cell_length_c   8.40543100
_cell_angle_alpha   90.00000000
_cell_angle_beta   90.00000000
_cell_angle_gamma   90.00000000
_symmetry_Int_Tables_number   1
_chemical_formula_structural   Y8AlCuPt23
_chemical_formula_sum   'Y8 Al1 Cu1 Pt23'
_cell_volume   586.79074003
_cell_formula_units_Z   1
loop_
 _symmetry_equiv_pos_site_id
 _symmetry_equiv_pos_as_xyz
  1  'x, y, z'
loop_
 _atom_site_type_symbol
 _atom_site_label
 _atom_site_symmetry_multiplicity
 _atom_site_fract_x
 _atom_site_fract_y
 _atom_site_fract_z
 _atom_site_occupancy
  Y  Y0  1  0.251464  0.251464  0.251016  1
  Y  Y1  1  0.750058  0.750058  0.749218  1
  Y  Y2  1  0.748536  0.748536  0.251016  1
  Y  Y3  1  0.750058  0.249942  0.749218  1
  Y  Y4  1  0.249942  0.249942  0.749218  1
  Y  Y5  1  0.251464  0.748536  0.251016  1
  Y  Y6  1  0.249942  0.750058  0.749218  1
  Y  Y7  1  0.748536  0.251464  0.251016  1
  Al  Al8  1  0.000000  0.000000  0.001335  1
  Cu  Cu9  1  0.500000  0.500000  0.743982  1
  Pt  Pt10  1  0.264184  0.500000  0.995699  1
  Pt  Pt11  1  0.735816  0.500000  0.995699  1
  Pt  Pt12  1  0.000000  0.262319  0.500136  1
  Pt  Pt13  1  0.500000  0.264184  0.995699  1
  Pt  Pt14  1  0.000000  0.737681  0.500136  1
  Pt  Pt15  1  0.500000  0.735816  0.995699  1
  Pt  Pt16  1  0.500000  0.000000  0.262993  1
  Pt  Pt17  1  0.262319  0.000000  0.500136  1
  Pt  Pt18  1  0.500000  0.000000  0.737330  1
  Pt  Pt19  1  0.737681  0.000000  0.500136  1
  Pt  Pt20  1  0.000000  0.500000  0.262993  1
  Pt  Pt21  1  0.000000  0.500000  0.737330  1
  Pt  Pt22  1  0.256274  0.500000  0.503486  1
  Pt  Pt23  1  0.743726  0.500000  0.503486  1
  Pt  Pt24  1  0.500000  0.256274  0.503486  1
  Pt  Pt25  1  0.500000  0.743726  0.503486  1
  Pt  Pt26  1  0.500000  0.500000  0.253885  1
  Pt  Pt27  1  0.296549  0.000000  0.000001  1
  Pt  Pt28  1  0.703451  0.000000  0.000001  1
  Pt  Pt29  1  0.000000  0.296549  0.000001  1
  Pt  Pt30  1  0.000000  0.703451  0.000001  1
  Pt  Pt31  1  0.000000  0.000000  0.294046  1
  Pt  Pt32  1  0.000000  0.000000  0.707876  1
