# generated using pymatgen
data_LuBi3Ir3RhO14
_symmetry_space_group_name_H-M   'P 1'
_cell_length_a   7.30221151
_cell_length_b   7.30221147
_cell_length_c   7.30221088
_cell_angle_alpha   60.18129779
_cell_angle_beta   60.18129531
_cell_angle_gamma   60.18129361
_symmetry_Int_Tables_number   1
_chemical_formula_structural   LuBi3Ir3RhO14
_chemical_formula_sum   'Lu1 Bi3 Ir3 Rh1 O14'
_cell_volume   276.45701815
_cell_formula_units_Z   1
loop_
 _symmetry_equiv_pos_site_id
 _symmetry_equiv_pos_as_xyz
  1  'x, y, z'
loop_
 _atom_site_type_symbol
 _atom_site_label
 _atom_site_symmetry_multiplicity
 _atom_site_fract_x
 _atom_site_fract_y
 _atom_site_fract_z
 _atom_site_occupancy
  Lu  Lu0  1  0.125000  0.125000  0.125000  1
  Bi  Bi1  1  0.125000  0.625000  0.125000  1
  Bi  Bi2  1  0.625000  0.125000  0.125000  1
  Bi  Bi3  1  0.125000  0.125000  0.625000  1
  Ir  Ir4  1  0.625000  0.625000  0.125000  1
  Ir  Ir5  1  0.125000  0.625000  0.625000  1
  Ir  Ir6  1  0.625000  0.125000  0.625000  1
  Rh  Rh7  1  0.625000  0.625000  0.625000  1
  O  O8  1  0.244452  0.244452  0.244452  1
  O  O9  1  0.289441  0.720549  0.289441  1
  O  O10  1  0.960559  0.960559  0.529451  1
  O  O11  1  0.541923  0.961211  0.541923  1
  O  O12  1  0.708077  0.708077  0.288789  1
  O  O13  1  0.961211  0.541923  0.541923  1
  O  O14  1  0.708077  0.288789  0.708077  1
  O  O15  1  0.289441  0.289441  0.720549  1
  O  O16  1  0.720549  0.289441  0.289441  1
  O  O17  1  0.288789  0.708077  0.708077  1
  O  O18  1  0.960559  0.529451  0.960559  1
  O  O19  1  0.541923  0.541923  0.961211  1
  O  O20  1  0.005548  0.005548  0.005548  1
  O  O21  1  0.529451  0.960559  0.960559  1
