# generated using pymatgen
data_Dy3Y(InRh2)4
_symmetry_space_group_name_H-M   'P 1'
_cell_length_a   6.36194900
_cell_length_b   6.36192300
_cell_length_c   7.25121600
_cell_angle_alpha   89.99975977
_cell_angle_beta   89.99881527
_cell_angle_gamma   89.99776651
_symmetry_Int_Tables_number   1
_chemical_formula_structural   Dy3Y(InRh2)4
_chemical_formula_sum   'Dy3 Y1 In4 Rh8'
_cell_volume   293.48738175
_cell_formula_units_Z   1
loop_
 _symmetry_equiv_pos_site_id
 _symmetry_equiv_pos_as_xyz
  1  'x, y, z'
loop_
 _atom_site_type_symbol
 _atom_site_label
 _atom_site_symmetry_multiplicity
 _atom_site_fract_x
 _atom_site_fract_y
 _atom_site_fract_z
 _atom_site_occupancy
  Dy  Dy0  1  0.749952  0.250000  0.000002  1
  Dy  Dy1  1  0.250049  0.750003  0.999996  1
  Dy  Dy2  1  0.750048  0.250001  0.499987  1
  Y  Y3  1  0.249958  0.750004  0.500013  1
  In  In4  1  0.249983  0.250002  0.999996  1
  In  In5  1  0.750017  0.750001  0.000003  1
  In  In6  1  0.250018  0.250002  0.499995  1
  In  In7  1  0.749983  0.750001  0.500002  1
  Rh  Rh8  1  0.999620  0.000372  0.249519  1
  Rh  Rh9  1  0.999616  0.499624  0.249517  1
  Rh  Rh10  1  0.500349  0.000373  0.249569  1
  Rh  Rh11  1  0.500360  0.499619  0.249567  1
  Rh  Rh12  1  0.500413  0.000392  0.750437  1
  Rh  Rh13  1  0.500399  0.499616  0.750427  1
  Rh  Rh14  1  0.999623  0.000392  0.750486  1
  Rh  Rh15  1  0.999613  0.499600  0.750485  1
