# generated using pymatgen
data_La2RuO6
_symmetry_space_group_name_H-M   'P 1'
_cell_length_a   10.30326081
_cell_length_b   10.30326060
_cell_length_c   5.70466713
_cell_angle_alpha   75.16774148
_cell_angle_beta   75.16774642
_cell_angle_gamma   69.61836757
_symmetry_Int_Tables_number   1
_chemical_formula_structural   La2RuO6
_chemical_formula_sum   'La8 Ru4 O24'
_cell_volume   539.38111917
_cell_formula_units_Z   4
loop_
 _symmetry_equiv_pos_site_id
 _symmetry_equiv_pos_as_xyz
  1  'x, y, z'
loop_
 _atom_site_type_symbol
 _atom_site_label
 _atom_site_symmetry_multiplicity
 _atom_site_fract_x
 _atom_site_fract_y
 _atom_site_fract_z
 _atom_site_occupancy
  La  La0  1  0.110442  0.889558  0.750000  1
  La  La1  1  0.889558  0.110442  0.250000  1
  La  La2  1  0.068326  0.288053  0.622581  1
  La  La3  1  0.711947  0.931674  0.877419  1
  La  La4  1  0.931674  0.711947  0.377419  1
  La  La5  1  0.288053  0.068326  0.122581  1
  La  La6  1  0.632700  0.367300  0.750000  1
  La  La7  1  0.367300  0.632700  0.250000  1
  Ru  Ru8  1  0.500798  0.798689  0.548382  1
  Ru  Ru9  1  0.201311  0.499202  0.951618  1
  Ru  Ru10  1  0.499202  0.201311  0.451618  1
  Ru  Ru11  1  0.798689  0.500798  0.048382  1
  O  O12  1  0.613474  0.169935  0.156025  1
  O  O13  1  0.830065  0.386526  0.343975  1
  O  O14  1  0.386526  0.830065  0.843975  1
  O  O15  1  0.169935  0.613474  0.656025  1
  O  O16  1  0.472655  0.072653  0.732035  1
  O  O17  1  0.927347  0.527345  0.767965  1
  O  O18  1  0.527345  0.927347  0.267965  1
  O  O19  1  0.072653  0.472655  0.232035  1
  O  O20  1  0.328291  0.214701  0.371503  1
  O  O21  1  0.785299  0.671709  0.128497  1
  O  O22  1  0.671709  0.785299  0.628497  1
  O  O23  1  0.214701  0.328291  0.871503  1
  O  O24  1  0.890911  0.921240  0.071213  1
  O  O25  1  0.078760  0.109089  0.428787  1
  O  O26  1  0.109089  0.078760  0.928787  1
  O  O27  1  0.921240  0.890911  0.571213  1
  O  O28  1  0.164321  0.687096  0.089617  1
  O  O29  1  0.312904  0.835679  0.410383  1
  O  O30  1  0.835679  0.312904  0.910383  1
  O  O31  1  0.687096  0.164321  0.589617  1
  O  O32  1  0.382514  0.458192  0.983228  1
  O  O33  1  0.541808  0.617486  0.516772  1
  O  O34  1  0.617486  0.541808  0.016772  1
  O  O35  1  0.458192  0.382514  0.483228  1
