# generated using pymatgen
data_KPrGeS4
_symmetry_space_group_name_H-M   'P 1'
_cell_length_a   6.71529490
_cell_length_b   6.82904100
_cell_length_c   8.86136474
_cell_angle_alpha   90.00000000
_cell_angle_beta   107.31060938
_cell_angle_gamma   90.00000000
_symmetry_Int_Tables_number   1
_chemical_formula_structural   KPrGeS4
_chemical_formula_sum   'K2 Pr2 Ge2 S8'
_cell_volume   387.96714254
_cell_formula_units_Z   2
loop_
 _symmetry_equiv_pos_site_id
 _symmetry_equiv_pos_as_xyz
  1  'x, y, z'
loop_
 _atom_site_type_symbol
 _atom_site_label
 _atom_site_symmetry_multiplicity
 _atom_site_fract_x
 _atom_site_fract_y
 _atom_site_fract_z
 _atom_site_occupancy
  K  K0  1  0.271989  0.024146  0.067017  1
  K  K1  1  0.728010  0.524147  0.932982  1
  Pr  Pr2  1  0.771948  0.502841  0.448365  1
  Pr  Pr3  1  0.228052  0.002840  0.551636  1
  Ge  Ge4  1  0.223085  0.535729  0.321393  1
  Ge  Ge5  1  0.776914  0.035730  0.678606  1
  S  S6  1  0.422420  0.537978  0.163814  1
  S  S7  1  0.979372  0.770389  0.274430  1
  S  S8  1  0.024422  0.266740  0.292812  1
  S  S9  1  0.579723  0.095177  0.430931  1
  S  S10  1  0.420276  0.595176  0.569068  1
  S  S11  1  0.975579  0.766740  0.707189  1
  S  S12  1  0.020627  0.270388  0.725570  1
  S  S13  1  0.577580  0.037978  0.836185  1
