# generated using pymatgen
data_NpPa4O10
_symmetry_space_group_name_H-M   'P 1'
_cell_length_a   6.69206288
_cell_length_b   6.69206286
_cell_length_c   6.69206204
_cell_angle_alpha   99.59781540
_cell_angle_beta   99.59781620
_cell_angle_gamma   131.80038367
_symmetry_Int_Tables_number   1
_chemical_formula_structural   NpPa4O10
_chemical_formula_sum   'Np1 Pa4 O10'
_cell_volume   203.94057936
_cell_formula_units_Z   1
loop_
 _symmetry_equiv_pos_site_id
 _symmetry_equiv_pos_as_xyz
  1  'x, y, z'
loop_
 _atom_site_type_symbol
 _atom_site_label
 _atom_site_symmetry_multiplicity
 _atom_site_fract_x
 _atom_site_fract_y
 _atom_site_fract_z
 _atom_site_occupancy
  Np  Np0  1  0.000000  0.000000  0.000000  1
  Pa  Pa1  1  0.398998  0.201425  0.600423  1
  Pa  Pa2  1  0.798575  0.398998  0.197572  1
  Pa  Pa3  1  0.201425  0.601002  0.802428  1
  Pa  Pa4  1  0.601002  0.798575  0.399577  1
  O  O5  1  0.750000  0.250000  0.500000  1
  O  O6  1  0.153525  0.458943  0.103110  1
  O  O7  1  0.541057  0.644168  0.694581  1
  O  O8  1  0.949586  0.846475  0.305419  1
  O  O9  1  0.355832  0.050414  0.896890  1
  O  O10  1  0.846475  0.541057  0.896890  1
  O  O11  1  0.250000  0.750000  0.500000  1
  O  O12  1  0.644168  0.949586  0.103110  1
  O  O13  1  0.050414  0.153525  0.694581  1
  O  O14  1  0.458943  0.355832  0.305419  1
