# generated using pymatgen
data_NdHo3(ZnGa)4
_symmetry_space_group_name_H-M   'P 1'
_cell_length_a   4.43466600
_cell_length_b   7.24731113
_cell_length_c   7.65852732
_cell_angle_alpha   90.03386620
_cell_angle_beta   90.00000000
_cell_angle_gamma   90.00000000
_symmetry_Int_Tables_number   1
_chemical_formula_structural   NdHo3(ZnGa)4
_chemical_formula_sum   'Nd1 Ho3 Zn4 Ga4'
_cell_volume   246.14046259
_cell_formula_units_Z   1
loop_
 _symmetry_equiv_pos_site_id
 _symmetry_equiv_pos_as_xyz
  1  'x, y, z'
loop_
 _atom_site_type_symbol
 _atom_site_label
 _atom_site_symmetry_multiplicity
 _atom_site_fract_x
 _atom_site_fract_y
 _atom_site_fract_z
 _atom_site_occupancy
  Nd  Nd0  1  0.250000  0.999464  0.762485  1
  Ho  Ho1  1  0.250000  0.499126  0.739551  1
  Ho  Ho2  1  0.750000  0.999545  0.239688  1
  Ho  Ho3  1  0.750000  0.499110  0.258574  1
  Zn  Zn4  1  0.250000  0.791098  0.414914  1
  Zn  Zn5  1  0.250000  0.301214  0.084205  1
  Zn  Zn6  1  0.750000  0.278625  0.581886  1
  Zn  Zn7  1  0.750000  0.748290  0.919018  1
  Ga  Ga8  1  0.250000  0.213237  0.412874  1
  Ga  Ga9  1  0.250000  0.707102  0.086823  1
  Ga  Ga10  1  0.750000  0.720970  0.580883  1
  Ga  Ga11  1  0.750000  0.242217  0.919097  1
