# generated using pymatgen
data_BeTc4P
_symmetry_space_group_name_H-M   'P 1'
_cell_length_a   4.68541497
_cell_length_b   4.68541560
_cell_length_c   4.68541499
_cell_angle_alpha   103.98065594
_cell_angle_beta   103.98066318
_cell_angle_gamma   121.11861214
_symmetry_Int_Tables_number   1
_chemical_formula_structural   BeTc4P
_chemical_formula_sum   'Be1 Tc4 P1'
_cell_volume   76.68653455
_cell_formula_units_Z   1
loop_
 _symmetry_equiv_pos_site_id
 _symmetry_equiv_pos_as_xyz
  1  'x, y, z'
loop_
 _atom_site_type_symbol
 _atom_site_label
 _atom_site_symmetry_multiplicity
 _atom_site_fract_x
 _atom_site_fract_y
 _atom_site_fract_z
 _atom_site_occupancy
  Be  Be0  1  0.750000  0.750000  0.000000  1
  Tc  Tc1  1  0.153497  0.653497  0.806993  1
  Tc  Tc2  1  0.346503  0.153497  0.500000  1
  Tc  Tc3  1  0.653497  0.846503  0.500000  1
  Tc  Tc4  1  0.846503  0.346503  0.193007  1
  P  P5  1  0.250000  0.250000  0.000000  1
