# generated using pymatgen
data_YTm7Sc12Si11Ge5
_symmetry_space_group_name_H-M   'P 1'
_cell_length_a   7.10349158
_cell_length_b   7.36629185
_cell_length_c   13.97624925
_cell_angle_alpha   90.00155709
_cell_angle_beta   89.28340683
_cell_angle_gamma   90.09459757
_symmetry_Int_Tables_number   1
_chemical_formula_structural   YTm7Sc12Si11Ge5
_chemical_formula_sum   'Y1 Tm7 Sc12 Si11 Ge5'
_cell_volume   731.26850541
_cell_formula_units_Z   1
loop_
 _symmetry_equiv_pos_site_id
 _symmetry_equiv_pos_as_xyz
  1  'x, y, z'
loop_
 _atom_site_type_symbol
 _atom_site_label
 _atom_site_symmetry_multiplicity
 _atom_site_fract_x
 _atom_site_fract_y
 _atom_site_fract_z
 _atom_site_occupancy
  Y  Y0  1  0.010978  0.174886  0.095716  1
  Tm  Tm1  1  0.990031  0.823914  0.902539  1
  Tm  Tm2  1  0.489115  0.676904  0.902497  1
  Tm  Tm3  1  0.994395  0.821255  0.598771  1
  Tm  Tm4  1  0.507797  0.322924  0.096670  1
  Tm  Tm5  1  0.005414  0.178512  0.401343  1
  Tm  Tm6  1  0.504942  0.321615  0.401755  1
  Tm  Tm7  1  0.494830  0.678246  0.598912  1
  Sc  Sc8  1  0.166188  0.502179  0.750918  1
  Sc  Sc9  1  0.833916  0.498223  0.250649  1
  Sc  Sc10  1  0.334462  0.002061  0.249425  1
  Sc  Sc11  1  0.665756  0.997661  0.750864  1
  Sc  Sc12  1  0.338867  0.171872  0.626941  1
  Sc  Sc13  1  0.661069  0.828489  0.373216  1
  Sc  Sc14  1  0.161308  0.671626  0.373376  1
  Sc  Sc15  1  0.665042  0.825560  0.125939  1
  Sc  Sc16  1  0.838820  0.328273  0.626903  1
  Sc  Sc17  1  0.333249  0.176161  0.874623  1
  Sc  Sc18  1  0.833626  0.322985  0.874799  1
  Sc  Sc19  1  0.168680  0.676095  0.124532  1
  Si  Si20  1  0.037122  0.114404  0.751023  1
  Si  Si21  1  0.962471  0.883931  0.248938  1
  Si  Si22  1  0.462369  0.614560  0.249037  1
  Si  Si23  1  0.538050  0.384902  0.751140  1
  Si  Si24  1  0.289492  0.869803  0.750871  1
  Si  Si25  1  0.709798  0.130427  0.249539  1
  Si  Si26  1  0.210895  0.370830  0.249388  1
  Si  Si27  1  0.789990  0.630010  0.751252  1
  Si  Si28  1  0.165010  0.465376  0.959105  1
  Si  Si29  1  0.658810  0.034178  0.960176  1
  Si  Si30  1  0.343064  0.964312  0.038926  1
  Ge  Ge31  1  0.176904  0.460846  0.540913  1
  Ge  Ge32  1  0.823271  0.539380  0.459486  1
  Ge  Ge33  1  0.323441  0.960655  0.459485  1
  Ge  Ge34  1  0.834225  0.537719  0.039525  1
  Ge  Ge35  1  0.676602  0.039229  0.540805  1
