# generated using pymatgen
data_CeMgCo2P3Rh2
_symmetry_space_group_name_H-M   'P 1'
_cell_length_a   3.82239000
_cell_length_b   10.80562000
_cell_length_c   12.55481400
_cell_angle_alpha   90.00000000
_cell_angle_beta   90.00000000
_cell_angle_gamma   90.00000000
_symmetry_Int_Tables_number   1
_chemical_formula_structural   CeMgCo2P3Rh2
_chemical_formula_sum   'Ce4 Mg4 Co8 P12 Rh8'
_cell_volume   518.55517165
_cell_formula_units_Z   4
loop_
 _symmetry_equiv_pos_site_id
 _symmetry_equiv_pos_as_xyz
  1  'x, y, z'
loop_
 _atom_site_type_symbol
 _atom_site_label
 _atom_site_symmetry_multiplicity
 _atom_site_fract_x
 _atom_site_fract_y
 _atom_site_fract_z
 _atom_site_occupancy
  Ce  Ce0  1  0.250000  0.582557  0.708875  1
  Ce  Ce1  1  0.250000  0.917443  0.208875  1
  Ce  Ce2  1  0.750000  0.417443  0.291125  1
  Ce  Ce3  1  0.750000  0.082557  0.791125  1
  Mg  Mg4  1  0.250000  0.704559  0.989487  1
  Mg  Mg5  1  0.250000  0.795441  0.489487  1
  Mg  Mg6  1  0.750000  0.295441  0.010513  1
  Mg  Mg7  1  0.750000  0.204559  0.510513  1
  Co  Co8  1  0.250000  0.882646  0.694567  1
  Co  Co9  1  0.250000  0.617354  0.194567  1
  Co  Co10  1  0.750000  0.117354  0.305433  1
  Co  Co11  1  0.750000  0.382646  0.805433  1
  Co  Co12  1  0.250000  0.466865  0.934222  1
  Co  Co13  1  0.250000  0.033135  0.434222  1
  Co  Co14  1  0.750000  0.533135  0.065778  1
  Co  Co15  1  0.750000  0.966865  0.565778  1
  P  P16  1  0.250000  0.431953  0.112671  1
  P  P17  1  0.250000  0.068047  0.612671  1
  P  P18  1  0.750000  0.568047  0.887329  1
  P  P19  1  0.750000  0.931953  0.387329  1
  P  P20  1  0.250000  0.279713  0.860796  1
  P  P21  1  0.250000  0.220287  0.360796  1
  P  P22  1  0.750000  0.720287  0.139204  1
  P  P23  1  0.750000  0.779713  0.639204  1
  P  P24  1  0.250000  0.596422  0.379125  1
  P  P25  1  0.250000  0.903578  0.879125  1
  P  P26  1  0.750000  0.403578  0.620875  1
  P  P27  1  0.750000  0.096422  0.120875  1
  Rh  Rh28  1  0.250000  0.402910  0.474893  1
  Rh  Rh29  1  0.250000  0.097090  0.974893  1
  Rh  Rh30  1  0.750000  0.597090  0.525107  1
  Rh  Rh31  1  0.750000  0.902910  0.025107  1
  Rh  Rh32  1  0.250000  0.219583  0.175706  1
  Rh  Rh33  1  0.250000  0.280417  0.675706  1
  Rh  Rh34  1  0.750000  0.780417  0.824294  1
  Rh  Rh35  1  0.750000  0.719583  0.324294  1
