# generated using pymatgen
data_Tl3(Ir2O7)2
_symmetry_space_group_name_H-M   'P 1'
_cell_length_a   7.27889484
_cell_length_b   7.27889508
_cell_length_c   7.27889397
_cell_angle_alpha   59.83008437
_cell_angle_beta   59.83008126
_cell_angle_gamma   59.83008899
_symmetry_Int_Tables_number   1
_chemical_formula_structural   Tl3(Ir2O7)2
_chemical_formula_sum   'Tl3 Ir4 O14'
_cell_volume   271.64593228
_cell_formula_units_Z   1
loop_
 _symmetry_equiv_pos_site_id
 _symmetry_equiv_pos_as_xyz
  1  'x, y, z'
loop_
 _atom_site_type_symbol
 _atom_site_label
 _atom_site_symmetry_multiplicity
 _atom_site_fract_x
 _atom_site_fract_y
 _atom_site_fract_z
 _atom_site_occupancy
  Tl  Tl0  1  0.000000  0.500000  0.500000  1
  Tl  Tl1  1  0.500000  0.500000  0.000000  1
  Tl  Tl2  1  0.500000  0.000000  0.500000  1
  Ir  Ir3  1  0.000000  0.000000  0.000000  1
  Ir  Ir4  1  0.500000  0.000000  0.000000  1
  Ir  Ir5  1  0.000000  0.000000  0.500000  1
  Ir  Ir6  1  0.000000  0.500000  0.000000  1
  O  O7  1  0.937571  0.320515  0.320515  1
  O  O8  1  0.323489  0.925390  0.925390  1
  O  O9  1  0.320515  0.320515  0.937571  1
  O  O10  1  0.925390  0.925390  0.323489  1
  O  O11  1  0.925390  0.323489  0.925390  1
  O  O12  1  0.320515  0.937571  0.320515  1
  O  O13  1  0.062429  0.679485  0.679485  1
  O  O14  1  0.676511  0.074610  0.074610  1
  O  O15  1  0.679485  0.679485  0.062429  1
  O  O16  1  0.074610  0.074610  0.676511  1
  O  O17  1  0.074610  0.676511  0.074610  1
  O  O18  1  0.679485  0.062429  0.679485  1
  O  O19  1  0.364583  0.364583  0.364583  1
  O  O20  1  0.635417  0.635417  0.635417  1
