# generated using pymatgen
data_Tb2IO6
_symmetry_space_group_name_H-M   'P 1'
_cell_length_a   5.52572000
_cell_length_b   7.77740239
_cell_length_c   11.72595444
_cell_angle_alpha   75.33278740
_cell_angle_beta   90.00000000
_cell_angle_gamma   90.00000000
_symmetry_Int_Tables_number   1
_chemical_formula_structural   Tb2IO6
_chemical_formula_sum   'Tb8 I4 O24'
_cell_volume   487.50994388
_cell_formula_units_Z   4
loop_
 _symmetry_equiv_pos_site_id
 _symmetry_equiv_pos_as_xyz
  1  'x, y, z'
loop_
 _atom_site_type_symbol
 _atom_site_label
 _atom_site_symmetry_multiplicity
 _atom_site_fract_x
 _atom_site_fract_y
 _atom_site_fract_z
 _atom_site_occupancy
  Tb  Tb0  1  0.743279  0.000000  0.750000  1
  Tb  Tb1  1  0.256721  0.000000  0.250000  1
  Tb  Tb2  1  0.184036  0.793528  0.577987  1
  Tb  Tb3  1  0.815964  0.793528  0.077987  1
  Tb  Tb4  1  0.685478  0.500000  0.750000  1
  Tb  Tb5  1  0.314522  0.500000  0.250000  1
  Tb  Tb6  1  0.184036  0.206472  0.922013  1
  Tb  Tb7  1  0.815964  0.206472  0.422013  1
  I  I8  1  0.257140  0.721867  0.885987  1
  I  I9  1  0.742860  0.721867  0.385987  1
  I  I10  1  0.257140  0.278133  0.614013  1
  I  I11  1  0.742860  0.278133  0.114013  1
  O  O12  1  0.029545  0.944051  0.897351  1
  O  O13  1  0.530361  0.846004  0.932440  1
  O  O14  1  0.970455  0.944051  0.397351  1
  O  O15  1  0.458124  0.790016  0.726977  1
  O  O16  1  0.469639  0.846004  0.432440  1
  O  O17  1  0.968778  0.711389  0.763278  1
  O  O18  1  0.541876  0.790016  0.226977  1
  O  O19  1  0.854062  0.634620  0.548294  1
  O  O20  1  0.374615  0.490305  0.887938  1
  O  O21  1  0.031222  0.711389  0.263278  1
  O  O22  1  0.374615  0.509695  0.612062  1
  O  O23  1  0.854062  0.365380  0.951706  1
  O  O24  1  0.145938  0.634620  0.048294  1
  O  O25  1  0.625385  0.490305  0.387938  1
  O  O26  1  0.968778  0.288611  0.736722  1
  O  O27  1  0.625385  0.509695  0.112062  1
  O  O28  1  0.145938  0.365380  0.451706  1
  O  O29  1  0.458124  0.209984  0.773023  1
  O  O30  1  0.031222  0.288611  0.236722  1
  O  O31  1  0.530361  0.153996  0.567560  1
  O  O32  1  0.541876  0.209984  0.273023  1
  O  O33  1  0.029545  0.055949  0.602649  1
  O  O34  1  0.469639  0.153996  0.067560  1
  O  O35  1  0.970455  0.055949  0.102649  1
