# generated using pymatgen
data_Lu12Co4TcTe
_symmetry_space_group_name_H-M   'P 1'
_cell_length_a   8.12155911
_cell_length_b   8.12155830
_cell_length_c   8.12155918
_cell_angle_alpha   111.86784033
_cell_angle_beta   110.23688143
_cell_angle_gamma   106.35756351
_symmetry_Int_Tables_number   1
_chemical_formula_structural   Lu12Co4TcTe
_chemical_formula_sum   'Lu12 Co4 Tc1 Te1'
_cell_volume   411.38330105
_cell_formula_units_Z   1
loop_
 _symmetry_equiv_pos_site_id
 _symmetry_equiv_pos_as_xyz
  1  'x, y, z'
loop_
 _atom_site_type_symbol
 _atom_site_label
 _atom_site_symmetry_multiplicity
 _atom_site_fract_x
 _atom_site_fract_y
 _atom_site_fract_z
 _atom_site_occupancy
  Lu  Lu0  1  0.420094  0.220973  0.199120  1
  Lu  Lu1  1  0.579906  0.779027  0.800880  1
  Lu  Lu2  1  0.021853  0.220973  0.800880  1
  Lu  Lu3  1  0.978147  0.779027  0.199120  1
  Lu  Lu4  1  0.180179  0.274919  0.455100  1
  Lu  Lu5  1  0.819821  0.725081  0.544900  1
  Lu  Lu6  1  0.180179  0.725081  0.905261  1
  Lu  Lu7  1  0.819821  0.274919  0.094739  1
  Lu  Lu8  1  0.311368  0.620855  0.309487  1
  Lu  Lu9  1  0.688632  0.379145  0.690513  1
  Lu  Lu10  1  0.311368  0.001881  0.690513  1
  Lu  Lu11  1  0.688632  0.998119  0.309487  1
  Co  Co12  1  0.370956  0.000000  0.370956  1
  Co  Co13  1  0.629044  0.000000  0.629044  1
  Co  Co14  1  0.112455  0.612455  0.500000  1
  Co  Co15  1  0.887545  0.387545  0.500000  1
  Tc  Tc16  1  0.000000  0.000000  0.000000  1
  Te  Te17  1  0.500000  0.500000  0.000000  1
