# generated using pymatgen
data_Ca2LaNbO6
_symmetry_space_group_name_H-M   'P 1'
_cell_length_a   5.96018276
_cell_length_b   5.69827977
_cell_length_c   10.04215267
_cell_angle_alpha   55.49878812
_cell_angle_beta   89.55693949
_cell_angle_gamma   89.70040648
_symmetry_Int_Tables_number   1
_chemical_formula_structural   Ca2LaNbO6
_chemical_formula_sum   'Ca4 La2 Nb2 O12'
_cell_volume   281.06343569
_cell_formula_units_Z   2
loop_
 _symmetry_equiv_pos_site_id
 _symmetry_equiv_pos_as_xyz
  1  'x, y, z'
loop_
 _atom_site_type_symbol
 _atom_site_label
 _atom_site_symmetry_multiplicity
 _atom_site_fract_x
 _atom_site_fract_y
 _atom_site_fract_z
 _atom_site_occupancy
  Ca  Ca0  1  0.550559  0.272850  0.741368  1
  Ca  Ca1  1  0.449441  0.727150  0.258632  1
  Ca  Ca2  1  0.500000  0.500000  0.000000  1
  Ca  Ca3  1  0.000000  0.500000  0.500000  1
  La  La4  1  0.057885  0.730264  0.753968  1
  La  La5  1  0.942115  0.269736  0.246032  1
  Nb  Nb6  1  0.500000  0.000000  0.500000  1
  Nb  Nb7  1  0.000000  0.000000  0.000000  1
  O  O8  1  0.447833  0.892254  0.729106  1
  O  O9  1  0.552167  0.107746  0.270894  1
  O  O10  1  0.940017  0.115997  0.770669  1
  O  O11  1  0.059983  0.884003  0.229331  1
  O  O12  1  0.786189  0.760806  0.566859  1
  O  O13  1  0.213811  0.239194  0.433141  1
  O  O14  1  0.276975  0.253529  0.922633  1
  O  O15  1  0.723025  0.746471  0.077367  1
  O  O16  1  0.316688  0.658762  0.559124  1
  O  O17  1  0.683312  0.341238  0.440876  1
  O  O18  1  0.825016  0.342583  0.953648  1
  O  O19  1  0.174984  0.657417  0.046352  1
