# generated using pymatgen
data_Er4Ga2ReRu5
_symmetry_space_group_name_H-M   'P 1'
_cell_length_a   5.25660869
_cell_length_b   5.45987851
_cell_length_c   8.81718500
_cell_angle_alpha   90.00000000
_cell_angle_beta   90.00000000
_cell_angle_gamma   121.28763257
_symmetry_Int_Tables_number   1
_chemical_formula_structural   Er4Ga2ReRu5
_chemical_formula_sum   'Er4 Ga2 Re1 Ru5'
_cell_volume   216.25527343
_cell_formula_units_Z   1
loop_
 _symmetry_equiv_pos_site_id
 _symmetry_equiv_pos_as_xyz
  1  'x, y, z'
loop_
 _atom_site_type_symbol
 _atom_site_label
 _atom_site_symmetry_multiplicity
 _atom_site_fract_x
 _atom_site_fract_y
 _atom_site_fract_z
 _atom_site_occupancy
  Er  Er0  1  0.342305  0.671153  0.441046  1
  Er  Er1  1  0.667044  0.333521  0.567065  1
  Er  Er2  1  0.667044  0.333521  0.932935  1
  Er  Er3  1  0.342305  0.671153  0.058954  1
  Ga  Ga4  1  0.825246  0.169222  0.250000  1
  Ga  Ga5  1  0.825246  0.656024  0.250000  1
  Re  Re6  1  0.656415  0.828208  0.750000  1
  Ru  Ru7  1  0.992706  0.996353  0.498808  1
  Ru  Ru8  1  0.992706  0.996353  0.001192  1
  Ru  Ru9  1  0.331629  0.165814  0.250000  1
  Ru  Ru10  1  0.178676  0.838678  0.750000  1
  Ru  Ru11  1  0.178676  0.339999  0.750000  1
