# generated using pymatgen
data_LaYb(PPd)2
_symmetry_space_group_name_H-M   'P 1'
_cell_length_a   4.18769300
_cell_length_b   8.03371955
_cell_length_c   7.25114118
_cell_angle_alpha   90.01702096
_cell_angle_beta   90.00000000
_cell_angle_gamma   90.00000000
_symmetry_Int_Tables_number   1
_chemical_formula_structural   LaYb(PPd)2
_chemical_formula_sum   'La2 Yb2 P4 Pd4'
_cell_volume   243.94832736
_cell_formula_units_Z   2
loop_
 _symmetry_equiv_pos_site_id
 _symmetry_equiv_pos_as_xyz
  1  'x, y, z'
loop_
 _atom_site_type_symbol
 _atom_site_label
 _atom_site_symmetry_multiplicity
 _atom_site_fract_x
 _atom_site_fract_y
 _atom_site_fract_z
 _atom_site_occupancy
  La  La0  1  0.250000  0.500392  0.248710  1
  La  La1  1  0.750000  0.499608  0.751290  1
  Yb  Yb2  1  0.750000  0.000193  0.747710  1
  Yb  Yb3  1  0.250000  0.999807  0.252290  1
  P  P4  1  0.250000  0.749181  0.917389  1
  P  P5  1  0.750000  0.250819  0.082611  1
  P  P6  1  0.750000  0.746740  0.417420  1
  P  P7  1  0.250000  0.253260  0.582580  1
  Pd  Pd8  1  0.250000  0.764512  0.583457  1
  Pd  Pd9  1  0.750000  0.235488  0.416543  1
  Pd  Pd10  1  0.750000  0.768030  0.083147  1
  Pd  Pd11  1  0.250000  0.231970  0.916853  1
