# generated using pymatgen
data_Ho2Er2Ga4Pd3Ru
_symmetry_space_group_name_H-M   'P 1'
_cell_length_a   4.41235900
_cell_length_b   6.86810917
_cell_length_c   7.69444800
_cell_angle_alpha   89.57385414
_cell_angle_beta   90.00000000
_cell_angle_gamma   90.00000000
_symmetry_Int_Tables_number   1
_chemical_formula_structural   Ho2Er2Ga4Pd3Ru
_chemical_formula_sum   'Ho2 Er2 Ga4 Pd3 Ru1'
_cell_volume   233.17043711
_cell_formula_units_Z   1
loop_
 _symmetry_equiv_pos_site_id
 _symmetry_equiv_pos_as_xyz
  1  'x, y, z'
loop_
 _atom_site_type_symbol
 _atom_site_label
 _atom_site_symmetry_multiplicity
 _atom_site_fract_x
 _atom_site_fract_y
 _atom_site_fract_z
 _atom_site_occupancy
  Ho  Ho0  1  0.750000  0.525177  0.812289  1
  Ho  Ho1  1  0.750000  0.022075  0.691446  1
  Er  Er2  1  0.250000  0.487086  0.193291  1
  Er  Er3  1  0.250000  0.977677  0.301159  1
  Ga  Ga4  1  0.250000  0.829331  0.929977  1
  Ga  Ga5  1  0.750000  0.159431  0.072253  1
  Ga  Ga6  1  0.250000  0.332748  0.571262  1
  Ga  Ga7  1  0.750000  0.671122  0.426490  1
  Pd  Pd8  1  0.250000  0.222875  0.897273  1
  Pd  Pd9  1  0.750000  0.279244  0.395127  1
  Pd  Pd10  1  0.250000  0.723779  0.605047  1
  Ru  Ru11  1  0.750000  0.769456  0.104385  1
