# generated using pymatgen
data_Tb3Dy3MnTe2
_symmetry_space_group_name_H-M   'P 1'
_cell_length_a   4.09424600
_cell_length_b   8.29781327
_cell_length_c   8.29859401
_cell_angle_alpha   119.99688622
_cell_angle_beta   90.00000000
_cell_angle_gamma   90.00000000
_symmetry_Int_Tables_number   1
_chemical_formula_structural   Tb3Dy3MnTe2
_chemical_formula_sum   'Tb3 Dy3 Mn1 Te2'
_cell_volume   244.16666238
_cell_formula_units_Z   1
loop_
 _symmetry_equiv_pos_site_id
 _symmetry_equiv_pos_as_xyz
  1  'x, y, z'
loop_
 _atom_site_type_symbol
 _atom_site_label
 _atom_site_symmetry_multiplicity
 _atom_site_fract_x
 _atom_site_fract_y
 _atom_site_fract_z
 _atom_site_occupancy
  Tb  Tb0  1  0.500000  0.604348  0.000000  1
  Tb  Tb1  1  0.500000  0.395669  0.395660  1
  Tb  Tb2  1  0.500000  0.000008  0.604340  1
  Dy  Dy3  1  0.000000  0.237649  0.000000  1
  Dy  Dy4  1  0.000000  0.762295  0.762268  1
  Dy  Dy5  1  0.000000  0.000028  0.237732  1
  Mn  Mn6  1  0.500000  0.999882  0.000000  1
  Te  Te7  1  0.000000  0.333354  0.666684  1
  Te  Te8  1  0.000000  0.666670  0.333316  1
