# generated using pymatgen
data_Tb3Zr(Co5P3)4
_symmetry_space_group_name_H-M   'P 1'
_cell_length_a   3.63711700
_cell_length_b   10.25011045
_cell_length_c   11.69200752
_cell_angle_alpha   89.96599696
_cell_angle_beta   90.00000000
_cell_angle_gamma   90.00000000
_symmetry_Int_Tables_number   1
_chemical_formula_structural   Tb3Zr(Co5P3)4
_chemical_formula_sum   'Tb3 Zr1 Co20 P12'
_cell_volume   435.88791299
_cell_formula_units_Z   1
loop_
 _symmetry_equiv_pos_site_id
 _symmetry_equiv_pos_as_xyz
  1  'x, y, z'
loop_
 _atom_site_type_symbol
 _atom_site_label
 _atom_site_symmetry_multiplicity
 _atom_site_fract_x
 _atom_site_fract_y
 _atom_site_fract_z
 _atom_site_occupancy
  Tb  Tb0  1  0.250000  0.916962  0.202581  1
  Tb  Tb1  1  0.750000  0.417393  0.297353  1
  Tb  Tb2  1  0.750000  0.082842  0.797172  1
  Zr  Zr3  1  0.250000  0.582072  0.701055  1
  Co  Co4  1  0.250000  0.716486  0.992343  1
  Co  Co5  1  0.250000  0.782436  0.493007  1
  Co  Co6  1  0.750000  0.284196  0.006986  1
  Co  Co7  1  0.750000  0.217238  0.510189  1
  Co  Co8  1  0.250000  0.409707  0.490987  1
  Co  Co9  1  0.250000  0.093279  0.988517  1
  Co  Co10  1  0.750000  0.593691  0.516142  1
  Co  Co11  1  0.750000  0.906559  0.011056  1
  Co  Co12  1  0.250000  0.222034  0.176880  1
  Co  Co13  1  0.250000  0.279309  0.677243  1
  Co  Co14  1  0.750000  0.775404  0.822151  1
  Co  Co15  1  0.750000  0.720446  0.324162  1
  Co  Co16  1  0.250000  0.879815  0.699165  1
  Co  Co17  1  0.250000  0.616855  0.197933  1
  Co  Co18  1  0.750000  0.117739  0.302228  1
  Co  Co19  1  0.750000  0.386442  0.798668  1
  Co  Co20  1  0.250000  0.470258  0.927953  1
  Co  Co21  1  0.250000  0.031562  0.432562  1
  Co  Co22  1  0.750000  0.532631  0.065466  1
  Co  Co23  1  0.750000  0.965547  0.569000  1
  P  P24  1  0.250000  0.418873  0.109836  1
  P  P25  1  0.250000  0.080780  0.612251  1
  P  P26  1  0.750000  0.581237  0.883780  1
  P  P27  1  0.750000  0.918237  0.388589  1
  P  P28  1  0.250000  0.271426  0.870473  1
  P  P29  1  0.250000  0.229350  0.371713  1
  P  P30  1  0.750000  0.728384  0.129473  1
  P  P31  1  0.750000  0.767534  0.631688  1
  P  P32  1  0.250000  0.602362  0.391264  1
  P  P33  1  0.250000  0.897538  0.891521  1
  P  P34  1  0.750000  0.400608  0.609821  1
  P  P35  1  0.750000  0.102767  0.108793  1
