# generated using pymatgen
data_YbTaNi20B6W
_symmetry_space_group_name_H-M   'P 1'
_cell_length_a   7.49690373
_cell_length_b   7.49690367
_cell_length_c   7.49690300
_cell_angle_alpha   59.99999855
_cell_angle_beta   59.99999880
_cell_angle_gamma   59.99999640
_symmetry_Int_Tables_number   1
_chemical_formula_structural   YbTaNi20B6W
_chemical_formula_sum   'Yb1 Ta1 Ni20 B6 W1'
_cell_volume   297.94132018
_cell_formula_units_Z   1
loop_
 _symmetry_equiv_pos_site_id
 _symmetry_equiv_pos_as_xyz
  1  'x, y, z'
loop_
 _atom_site_type_symbol
 _atom_site_label
 _atom_site_symmetry_multiplicity
 _atom_site_fract_x
 _atom_site_fract_y
 _atom_site_fract_z
 _atom_site_occupancy
  Yb  Yb0  1  0.750000  0.750000  0.750000  1
  Ta  Ta1  1  0.250000  0.250000  0.250000  1
  Ni  Ni2  1  0.612376  0.612376  0.162874  1
  Ni  Ni3  1  0.612376  0.162874  0.612376  1
  Ni  Ni4  1  0.162874  0.612376  0.612376  1
  Ni  Ni5  1  0.612376  0.612376  0.612376  1
  Ni  Ni6  1  0.382956  0.382956  0.851134  1
  Ni  Ni7  1  0.382956  0.851134  0.382956  1
  Ni  Ni8  1  0.851134  0.382956  0.382956  1
  Ni  Ni9  1  0.382956  0.382956  0.382956  1
  Ni  Ni10  1  0.002251  0.002251  0.338657  1
  Ni  Ni11  1  0.656841  0.002251  0.338657  1
  Ni  Ni12  1  0.002251  0.656841  0.338657  1
  Ni  Ni13  1  0.656841  0.338657  0.002251  1
  Ni  Ni14  1  0.002251  0.338657  0.002251  1
  Ni  Ni15  1  0.002251  0.338657  0.656841  1
  Ni  Ni16  1  0.338657  0.656841  0.002251  1
  Ni  Ni17  1  0.338657  0.002251  0.656841  1
  Ni  Ni18  1  0.338657  0.002251  0.002251  1
  Ni  Ni19  1  0.002251  0.002251  0.656841  1
  Ni  Ni20  1  0.002251  0.656841  0.002251  1
  Ni  Ni21  1  0.656841  0.002251  0.002251  1
  B  B22  1  0.729938  0.729938  0.270062  1
  B  B23  1  0.270062  0.729938  0.270062  1
  B  B24  1  0.729938  0.270062  0.270062  1
  B  B25  1  0.270062  0.270062  0.729938  1
  B  B26  1  0.729938  0.270062  0.729938  1
  B  B27  1  0.270062  0.729938  0.729938  1
  W  W28  1  0.000000  0.000000  0.000000  1
