# generated using pymatgen
data_Tb8Ta4Ti8Si15P
_symmetry_space_group_name_H-M   'P 1'
_cell_length_a   7.04409939
_cell_length_b   7.05671819
_cell_length_c   12.98631566
_cell_angle_alpha   89.99976955
_cell_angle_beta   89.96447940
_cell_angle_gamma   89.95831402
_symmetry_Int_Tables_number   1
_chemical_formula_structural   Tb8Ta4Ti8Si15P
_chemical_formula_sum   'Tb8 Ta4 Ti8 Si15 P1'
_cell_volume   645.52639727
_cell_formula_units_Z   1
loop_
 _symmetry_equiv_pos_site_id
 _symmetry_equiv_pos_as_xyz
  1  'x, y, z'
loop_
 _atom_site_type_symbol
 _atom_site_label
 _atom_site_symmetry_multiplicity
 _atom_site_fract_x
 _atom_site_fract_y
 _atom_site_fract_z
 _atom_site_occupancy
  Tb  Tb0  1  0.339876  0.002516  0.468082  1
  Tb  Tb1  1  0.494490  0.843622  0.717135  1
  Tb  Tb2  1  0.502455  0.159351  0.216778  1
  Tb  Tb3  1  0.839918  0.497200  0.283197  1
  Tb  Tb4  1  0.159670  0.498485  0.781756  1
  Tb  Tb5  1  0.660533  0.995871  0.967059  1
  Tb  Tb6  1  0.003685  0.339465  0.533998  1
  Tb  Tb7  1  0.997528  0.659803  0.032613  1
  Ta  Ta8  1  0.325868  0.326448  0.999375  1
  Ta  Ta9  1  0.172921  0.827148  0.250113  1
  Ta  Ta10  1  0.827503  0.173134  0.749456  1
  Ta  Ta11  1  0.673270  0.673393  0.500250  1
  Ti  Ti12  1  0.155247  0.010726  0.872421  1
  Ti  Ti13  1  0.490458  0.654008  0.125128  1
  Ti  Ti14  1  0.507373  0.344164  0.626638  1
  Ti  Ti15  1  0.655171  0.493077  0.874381  1
  Ti  Ti16  1  0.346123  0.509032  0.374804  1
  Ti  Ti17  1  0.846678  0.990753  0.375702  1
  Ti  Ti18  1  0.008833  0.153375  0.124510  1
  Ti  Ti19  1  0.992960  0.847949  0.625279  1
  Si  Si20  1  0.369606  0.701969  0.933849  1
  Si  Si21  1  0.629402  0.298491  0.435862  1
  Si  Si22  1  0.701651  0.370653  0.064965  1
  Si  Si23  1  0.298825  0.629551  0.565220  1
  Si  Si24  1  0.798169  0.870415  0.185095  1
  Si  Si25  1  0.129411  0.201602  0.315410  1
  Si  Si26  1  0.871008  0.797211  0.814642  1
  Si  Si27  1  0.291266  0.953839  0.063220  1
  Si  Si28  1  0.545765  0.792141  0.314475  1
  Si  Si29  1  0.459530  0.210092  0.817059  1
  Si  Si30  1  0.790474  0.547405  0.685323  1
  Si  Si31  1  0.208169  0.453554  0.185827  1
  Si  Si32  1  0.708757  0.045439  0.564017  1
  Si  Si33  1  0.953850  0.291339  0.935839  1
  Si  Si34  1  0.045734  0.707892  0.436169  1
  P  P35  1  0.197821  0.128886  0.684351  1
