# generated using pymatgen
data_Y4Ho4B24OsRu3
_symmetry_space_group_name_H-M   'P 1'
_cell_length_a   3.65533400
_cell_length_b   9.14008643
_cell_length_c   11.52349109
_cell_angle_alpha   89.96071868
_cell_angle_beta   90.00000000
_cell_angle_gamma   90.00000000
_symmetry_Int_Tables_number   1
_chemical_formula_structural   Y4Ho4B24OsRu3
_chemical_formula_sum   'Y4 Ho4 B24 Os1 Ru3'
_cell_volume   385.00053860
_cell_formula_units_Z   1
loop_
 _symmetry_equiv_pos_site_id
 _symmetry_equiv_pos_as_xyz
  1  'x, y, z'
loop_
 _atom_site_type_symbol
 _atom_site_label
 _atom_site_symmetry_multiplicity
 _atom_site_fract_x
 _atom_site_fract_y
 _atom_site_fract_z
 _atom_site_occupancy
  Y  Y0  1  0.000000  0.322699  0.414008  1
  Y  Y1  1  0.000000  0.677582  0.585839  1
  Y  Y2  1  0.000000  0.822256  0.086319  1
  Y  Y3  1  0.000000  0.177219  0.914082  1
  Ho  Ho4  1  0.000000  0.944245  0.372590  1
  Ho  Ho5  1  0.000000  0.056436  0.627956  1
  Ho  Ho6  1  0.000000  0.443517  0.127172  1
  Ho  Ho7  1  0.000000  0.556260  0.872044  1
  B  B8  1  0.500000  0.554140  0.432839  1
  B  B9  1  0.500000  0.445634  0.567320  1
  B  B10  1  0.500000  0.054265  0.067221  1
  B  B11  1  0.500000  0.945570  0.932785  1
  B  B12  1  0.500000  0.748255  0.419425  1
  B  B13  1  0.500000  0.251869  0.580566  1
  B  B14  1  0.500000  0.247865  0.080365  1
  B  B15  1  0.500000  0.751859  0.919511  1
  B  B16  1  0.500000  0.791419  0.266568  1
  B  B17  1  0.500000  0.208815  0.733523  1
  B  B18  1  0.500000  0.291190  0.233333  1
  B  B19  1  0.500000  0.708895  0.766507  1
  B  B20  1  0.500000  0.631604  0.185433  1
  B  B21  1  0.500000  0.368241  0.814679  1
  B  B22  1  0.500000  0.131924  0.314681  1
  B  B23  1  0.500000  0.868310  0.685363  1
  B  B24  1  0.500000  0.983833  0.213220  1
  B  B25  1  0.500000  0.016212  0.786872  1
  B  B26  1  0.500000  0.483490  0.286716  1
  B  B27  1  0.500000  0.516234  0.713214  1
  B  B28  1  0.500000  0.607513  0.029572  1
  B  B29  1  0.500000  0.392090  0.969972  1
  B  B30  1  0.500000  0.107882  0.470377  1
  B  B31  1  0.500000  0.892614  0.529878  1
  Os  Os32  1  0.000000  0.637898  0.320993  1
  Ru  Ru33  1  0.000000  0.362143  0.678981  1
  Ru  Ru34  1  0.000000  0.137912  0.179196  1
  Ru  Ru35  1  0.000000  0.862111  0.820879  1
