# generated using pymatgen
data_Ca12Nd7ErSn16
_symmetry_space_group_name_H-M   'P 1'
_cell_length_a   7.99353734
_cell_length_b   8.52791836
_cell_length_c   16.16314956
_cell_angle_alpha   89.86561531
_cell_angle_beta   90.07057139
_cell_angle_gamma   89.86796051
_symmetry_Int_Tables_number   1
_chemical_formula_structural   Ca12Nd7ErSn16
_chemical_formula_sum   'Ca12 Nd7 Er1 Sn16'
_cell_volume   1101.80655856
_cell_formula_units_Z   1
loop_
 _symmetry_equiv_pos_site_id
 _symmetry_equiv_pos_as_xyz
  1  'x, y, z'
loop_
 _atom_site_type_symbol
 _atom_site_label
 _atom_site_symmetry_multiplicity
 _atom_site_fract_x
 _atom_site_fract_y
 _atom_site_fract_z
 _atom_site_occupancy
  Ca  Ca0  1  0.991291  0.185514  0.407560  1
  Ca  Ca1  1  0.326394  0.827815  0.122081  1
  Ca  Ca2  1  0.173433  0.331358  0.624110  1
  Ca  Ca3  1  0.507141  0.683175  0.905449  1
  Ca  Ca4  1  0.828356  0.670728  0.122330  1
  Ca  Ca5  1  0.172273  0.330918  0.876187  1
  Ca  Ca6  1  0.155847  0.495690  0.249282  1
  Ca  Ca7  1  0.658331  0.002151  0.248851  1
  Ca  Ca8  1  0.509420  0.685148  0.595426  1
  Ca  Ca9  1  0.343963  0.996505  0.749092  1
  Ca  Ca10  1  0.673939  0.171378  0.622565  1
  Ca  Ca11  1  0.840431  0.502985  0.749271  1
  Nd  Nd12  1  0.988017  0.185834  0.093315  1
  Nd  Nd13  1  0.012794  0.811079  0.903131  1
  Nd  Nd14  1  0.669591  0.171400  0.875238  1
  Nd  Nd15  1  0.486447  0.313269  0.096184  1
  Nd  Nd16  1  0.329504  0.826698  0.376223  1
  Nd  Nd17  1  0.013386  0.812201  0.597934  1
  Nd  Nd18  1  0.490884  0.312439  0.404294  1
  Er  Er19  1  0.828710  0.671435  0.377841  1
  Sn  Sn20  1  0.832600  0.472618  0.539160  1
  Sn  Sn21  1  0.670425  0.967547  0.457341  1
  Sn  Sn22  1  0.719272  0.862083  0.750922  1
  Sn  Sn23  1  0.166659  0.536930  0.460023  1
  Sn  Sn24  1  0.329883  0.038050  0.961937  1
  Sn  Sn25  1  0.782887  0.361130  0.251528  1
  Sn  Sn26  1  0.831775  0.464177  0.961190  1
  Sn  Sn27  1  0.529337  0.604172  0.251420  1
  Sn  Sn28  1  0.166014  0.531526  0.040308  1
  Sn  Sn29  1  0.471451  0.394784  0.750735  1
  Sn  Sn30  1  0.214677  0.639114  0.750265  1
  Sn  Sn31  1  0.974302  0.102981  0.750593  1
  Sn  Sn32  1  0.331789  0.037084  0.537393  1
  Sn  Sn33  1  0.668959  0.969459  0.040736  1
  Sn  Sn34  1  0.283480  0.136904  0.248875  1
  Sn  Sn35  1  0.026342  0.893725  0.251209  1
