# generated using pymatgen
data_Ti2Nb(CrP)3
_symmetry_space_group_name_H-M   'P 1'
_cell_length_a   6.42095794
_cell_length_b   6.42095788
_cell_length_c   3.26989600
_cell_angle_alpha   90.00000000
_cell_angle_beta   90.00000000
_cell_angle_gamma   119.63297058
_symmetry_Int_Tables_number   1
_chemical_formula_structural   Ti2Nb(CrP)3
_chemical_formula_sum   'Ti2 Nb1 Cr3 P3'
_cell_volume   117.18137088
_cell_formula_units_Z   1
loop_
 _symmetry_equiv_pos_site_id
 _symmetry_equiv_pos_as_xyz
  1  'x, y, z'
loop_
 _atom_site_type_symbol
 _atom_site_label
 _atom_site_symmetry_multiplicity
 _atom_site_fract_x
 _atom_site_fract_y
 _atom_site_fract_z
 _atom_site_occupancy
  Ti  Ti0  1  0.594286  0.998251  0.500000  1
  Ti  Ti1  1  0.998251  0.594286  0.500000  1
  Nb  Nb2  1  0.405803  0.405803  0.500000  1
  Cr  Cr3  1  0.999997  0.252308  0.000000  1
  Cr  Cr4  1  0.252308  0.999997  0.000000  1
  Cr  Cr5  1  0.748015  0.748015  0.000000  1
  P  P6  1  0.672430  0.331225  0.000000  1
  P  P7  1  0.331225  0.672430  0.000000  1
  P  P8  1  0.997684  0.997684  0.500000  1
