# generated using pymatgen
data_Ho2Tm6B24RhW3
_symmetry_space_group_name_H-M   'P 1'
_cell_length_a   3.59112800
_cell_length_b   9.21430851
_cell_length_c   11.61209494
_cell_angle_alpha   90.16151106
_cell_angle_beta   90.00000000
_cell_angle_gamma   90.00000000
_symmetry_Int_Tables_number   1
_chemical_formula_structural   Ho2Tm6B24RhW3
_chemical_formula_sum   'Ho2 Tm6 B24 Rh1 W3'
_cell_volume   384.23992309
_cell_formula_units_Z   1
loop_
 _symmetry_equiv_pos_site_id
 _symmetry_equiv_pos_as_xyz
  1  'x, y, z'
loop_
 _atom_site_type_symbol
 _atom_site_label
 _atom_site_symmetry_multiplicity
 _atom_site_fract_x
 _atom_site_fract_y
 _atom_site_fract_z
 _atom_site_occupancy
  Ho  Ho0  1  0.500000  0.318582  0.414398  1
  Ho  Ho1  1  0.500000  0.679325  0.588578  1
  Tm  Tm2  1  0.500000  0.178527  0.912704  1
  Tm  Tm3  1  0.500000  0.824313  0.082879  1
  Tm  Tm4  1  0.500000  0.444815  0.129117  1
  Tm  Tm5  1  0.500000  0.555886  0.873471  1
  Tm  Tm6  1  0.500000  0.054062  0.626924  1
  Tm  Tm7  1  0.500000  0.941954  0.370931  1
  B  B8  1  0.000000  0.099451  0.471149  1
  B  B9  1  0.000000  0.895134  0.526810  1
  B  B10  1  0.000000  0.398000  0.972726  1
  B  B11  1  0.000000  0.604164  0.030526  1
  B  B12  1  0.000000  0.130583  0.317845  1
  B  B13  1  0.000000  0.867903  0.682884  1
  B  B14  1  0.000000  0.368914  0.817114  1
  B  B15  1  0.000000  0.632802  0.183909  1
  B  B16  1  0.000000  0.051868  0.065114  1
  B  B17  1  0.000000  0.949236  0.935137  1
  B  B18  1  0.000000  0.449016  0.563780  1
  B  B19  1  0.000000  0.555105  0.432786  1
  B  B20  1  0.000000  0.483954  0.288079  1
  B  B21  1  0.000000  0.521636  0.713442  1
  B  B22  1  0.000000  0.021474  0.786509  1
  B  B23  1  0.000000  0.977575  0.212136  1
  B  B24  1  0.000000  0.252516  0.078665  1
  B  B25  1  0.000000  0.748846  0.922846  1
  B  B26  1  0.000000  0.246708  0.577685  1
  B  B27  1  0.000000  0.749316  0.419578  1
  B  B28  1  0.000000  0.296539  0.237261  1
  B  B29  1  0.000000  0.704433  0.765073  1
  B  B30  1  0.000000  0.204615  0.735840  1
  B  B31  1  0.000000  0.791516  0.264154  1
  Rh  Rh32  1  0.500000  0.639423  0.320100  1
  W  W33  1  0.500000  0.139690  0.180765  1
  W  W34  1  0.500000  0.861132  0.820706  1
  W  W35  1  0.500000  0.360986  0.678378  1
