# generated using pymatgen
data_Dy3Ho(ScGa5)2
_symmetry_space_group_name_H-M   'P 1'
_cell_length_a   5.99566604
_cell_length_b   9.47200407
_cell_length_c   11.31597400
_cell_angle_alpha   90.00000000
_cell_angle_beta   90.00000000
_cell_angle_gamma   89.98614666
_symmetry_Int_Tables_number   1
_chemical_formula_structural   Dy3Ho(ScGa5)2
_chemical_formula_sum   'Dy6 Ho2 Sc4 Ga20'
_cell_volume   642.64515698
_cell_formula_units_Z   2
loop_
 _symmetry_equiv_pos_site_id
 _symmetry_equiv_pos_as_xyz
  1  'x, y, z'
loop_
 _atom_site_type_symbol
 _atom_site_label
 _atom_site_symmetry_multiplicity
 _atom_site_fract_x
 _atom_site_fract_y
 _atom_site_fract_z
 _atom_site_occupancy
  Dy  Dy0  1  0.891001  0.510060  0.352197  1
  Dy  Dy1  1  0.608999  0.989940  0.852197  1
  Dy  Dy2  1  0.108951  0.010044  0.647706  1
  Dy  Dy3  1  0.391049  0.489956  0.147706  1
  Dy  Dy4  1  0.108944  0.489937  0.647868  1
  Dy  Dy5  1  0.391056  0.010063  0.147868  1
  Ho  Ho6  1  0.891053  0.989961  0.352173  1
  Ho  Ho7  1  0.608947  0.510039  0.852173  1
  Sc  Sc8  1  0.849393  0.749972  0.074494  1
  Sc  Sc9  1  0.650607  0.750028  0.574494  1
  Sc  Sc10  1  0.150714  0.249994  0.925494  1
  Sc  Sc11  1  0.349286  0.250006  0.425494  1
  Ga  Ga12  1  0.877396  0.050456  0.089311  1
  Ga  Ga13  1  0.622604  0.449544  0.589311  1
  Ga  Ga14  1  0.122793  0.550423  0.910787  1
  Ga  Ga15  1  0.377207  0.949577  0.410787  1
  Ga  Ga16  1  0.122629  0.949497  0.910840  1
  Ga  Ga17  1  0.377371  0.550503  0.410840  1
  Ga  Ga18  1  0.877350  0.449531  0.089080  1
  Ga  Ga19  1  0.622650  0.050469  0.589080  1
  Ga  Ga20  1  0.165368  0.750132  0.248735  1
  Ga  Ga21  1  0.334632  0.749868  0.748735  1
  Ga  Ga22  1  0.834389  0.250144  0.751417  1
  Ga  Ga23  1  0.665611  0.249856  0.251417  1
  Ga  Ga24  1  0.379377  0.749923  0.003858  1
  Ga  Ga25  1  0.120623  0.750077  0.503858  1
  Ga  Ga26  1  0.620672  0.250184  0.995945  1
  Ga  Ga27  1  0.879328  0.249816  0.495945  1
  Ga  Ga28  1  0.604130  0.750199  0.296277  1
  Ga  Ga29  1  0.895870  0.749801  0.796277  1
  Ga  Ga30  1  0.396121  0.250045  0.703819  1
  Ga  Ga31  1  0.103879  0.249955  0.203819  1
