# generated using pymatgen
data_Sc2FeRe2(B2Ru)2
_symmetry_space_group_name_H-M   'P 1'
_cell_length_a   3.02193400
_cell_length_b   8.43364317
_cell_length_c   9.89854209
_cell_angle_alpha   89.99630666
_cell_angle_beta   90.00000000
_cell_angle_gamma   90.00000000
_symmetry_Int_Tables_number   1
_chemical_formula_structural   Sc2FeRe2(B2Ru)2
_chemical_formula_sum   'Sc4 Fe2 Re4 B8 Ru4'
_cell_volume   252.27338244
_cell_formula_units_Z   2
loop_
 _symmetry_equiv_pos_site_id
 _symmetry_equiv_pos_as_xyz
  1  'x, y, z'
loop_
 _atom_site_type_symbol
 _atom_site_label
 _atom_site_symmetry_multiplicity
 _atom_site_fract_x
 _atom_site_fract_y
 _atom_site_fract_z
 _atom_site_occupancy
  Sc  Sc0  1  0.500000  0.840777  0.177457  1
  Sc  Sc1  1  0.500000  0.159223  0.822543  1
  Sc  Sc2  1  0.500000  0.659228  0.677417  1
  Sc  Sc3  1  0.500000  0.340772  0.322583  1
  Fe  Fe4  1  0.000000  0.000000  0.000000  1
  Fe  Fe5  1  0.000000  0.500000  0.500000  1
  Re  Re6  1  0.000000  0.664444  0.956060  1
  Re  Re7  1  0.000000  0.335556  0.043940  1
  Re  Re8  1  0.000000  0.835542  0.456053  1
  Re  Re9  1  0.000000  0.164458  0.543947  1
  B  B10  1  0.500000  0.966726  0.589907  1
  B  B11  1  0.500000  0.033274  0.410093  1
  B  B12  1  0.500000  0.857676  0.907728  1
  B  B13  1  0.500000  0.142324  0.092272  1
  B  B14  1  0.500000  0.642338  0.407709  1
  B  B15  1  0.500000  0.357662  0.592291  1
  B  B16  1  0.500000  0.466751  0.910105  1
  B  B17  1  0.500000  0.533249  0.089895  1
  Ru  Ru18  1  0.000000  0.407854  0.755535  1
  Ru  Ru19  1  0.000000  0.592146  0.244465  1
  Ru  Ru20  1  0.000000  0.907854  0.744459  1
  Ru  Ru21  1  0.000000  0.092146  0.255541  1
