# generated using pymatgen
data_Er3LuTh6(Tl3C)2
_symmetry_space_group_name_H-M   'P 1'
_cell_length_a   9.32052000
_cell_length_b   9.32055509
_cell_length_c   6.42930000
_cell_angle_alpha   89.99954548
_cell_angle_beta   90.00042048
_cell_angle_gamma   119.99994451
_symmetry_Int_Tables_number   1
_chemical_formula_structural   Er3LuTh6(Tl3C)2
_chemical_formula_sum   'Er3 Lu1 Th6 Tl6 C2'
_cell_volume   483.70044413
_cell_formula_units_Z   1
loop_
 _symmetry_equiv_pos_site_id
 _symmetry_equiv_pos_as_xyz
  1  'x, y, z'
loop_
 _atom_site_type_symbol
 _atom_site_label
 _atom_site_symmetry_multiplicity
 _atom_site_fract_x
 _atom_site_fract_y
 _atom_site_fract_z
 _atom_site_occupancy
  Er  Er0  1  0.666667  0.333333  0.499998  1
  Er  Er1  1  0.333334  0.666663  0.499999  1
  Er  Er2  1  0.333328  0.666661  0.999999  1
  Lu  Lu3  1  0.666669  0.333332  0.000001  1
  Th  Th4  1  0.778860  0.778676  0.249839  1
  Th  Th5  1  0.221325  0.000181  0.249838  1
  Th  Th6  1  0.999816  0.221140  0.249835  1
  Th  Th7  1  0.221328  0.221146  0.750167  1
  Th  Th8  1  0.778860  0.000189  0.750165  1
  Th  Th9  1  0.999819  0.778677  0.750163  1
  Tl  Tl10  1  0.410188  0.409381  0.249454  1
  Tl  Tl11  1  0.590613  0.000797  0.249456  1
  Tl  Tl12  1  0.999197  0.589810  0.249463  1
  Tl  Tl13  1  0.590616  0.589814  0.750546  1
  Tl  Tl14  1  0.410185  0.000803  0.750544  1
  Tl  Tl15  1  0.999196  0.409391  0.750532  1
  C  C16  1  0.000001  0.000002  0.500000  1
  C  C17  1  0.000000  0.000002  0.000002  1
