# generated using pymatgen
data_Er8Al2PdRh
_symmetry_space_group_name_H-M   'P 1'
_cell_length_a   9.48300992
_cell_length_b   9.47000488
_cell_length_c   9.47000437
_cell_angle_alpha   59.89895737
_cell_angle_beta   59.95456439
_cell_angle_gamma   59.95456615
_symmetry_Int_Tables_number   1
_chemical_formula_structural   Er8Al2PdRh
_chemical_formula_sum   'Er16 Al4 Pd2 Rh2'
_cell_volume   600.48299761
_cell_formula_units_Z   2
loop_
 _symmetry_equiv_pos_site_id
 _symmetry_equiv_pos_as_xyz
  1  'x, y, z'
loop_
 _atom_site_type_symbol
 _atom_site_label
 _atom_site_symmetry_multiplicity
 _atom_site_fract_x
 _atom_site_fract_y
 _atom_site_fract_z
 _atom_site_occupancy
  Er  Er0  1  0.195688  0.188544  0.808255  1
  Er  Er1  1  0.435722  0.064278  0.064278  1
  Er  Er2  1  0.433879  0.065129  0.437123  1
  Er  Er3  1  0.063869  0.437123  0.065129  1
  Er  Er4  1  0.644952  0.061403  0.648692  1
  Er  Er5  1  0.190914  0.809086  0.809086  1
  Er  Er6  1  0.063869  0.065129  0.437123  1
  Er  Er7  1  0.806473  0.193527  0.193527  1
  Er  Er8  1  0.807512  0.808255  0.188544  1
  Er  Er9  1  0.644952  0.648692  0.061403  1
  Er  Er10  1  0.641736  0.646497  0.646497  1
  Er  Er11  1  0.064350  0.435650  0.435650  1
  Er  Er12  1  0.065269  0.646497  0.646497  1
  Er  Er13  1  0.807512  0.188544  0.808255  1
  Er  Er14  1  0.433879  0.437123  0.065129  1
  Er  Er15  1  0.195688  0.808255  0.188544  1
  Al  Al16  1  0.422629  0.733964  0.420777  1
  Al  Al17  1  0.422629  0.420777  0.733964  1
  Al  Al18  1  0.734790  0.421325  0.421325  1
  Al  Al19  1  0.422562  0.421325  0.421325  1
  Pd  Pd20  1  0.856321  0.432648  0.854710  1
  Pd  Pd21  1  0.856321  0.854710  0.432648  1
  Rh  Rh22  1  0.431375  0.855759  0.855759  1
  Rh  Rh23  1  0.857106  0.855759  0.855759  1
