# generated using pymatgen
data_Er3AgRh2Pb3
_symmetry_space_group_name_H-M   'P 1'
_cell_length_a   7.84849100
_cell_length_b   7.84849197
_cell_length_c   3.82711500
_cell_angle_alpha   90.00000000
_cell_angle_beta   90.00000000
_cell_angle_gamma   119.99999168
_symmetry_Int_Tables_number   1
_chemical_formula_structural   Er3AgRh2Pb3
_chemical_formula_sum   'Er3 Ag1 Rh2 Pb3'
_cell_volume   204.16183645
_cell_formula_units_Z   1
loop_
 _symmetry_equiv_pos_site_id
 _symmetry_equiv_pos_as_xyz
  1  'x, y, z'
loop_
 _atom_site_type_symbol
 _atom_site_label
 _atom_site_symmetry_multiplicity
 _atom_site_fract_x
 _atom_site_fract_y
 _atom_site_fract_z
 _atom_site_occupancy
  Er  Er0  1  0.027146  0.614651  0.500000  1
  Er  Er1  1  0.385349  0.412496  0.500000  1
  Er  Er2  1  0.587504  0.972854  0.500000  1
  Ag  Ag3  1  0.666667  0.333333  0.000000  1
  Rh  Rh4  1  0.333333  0.666667  0.000000  1
  Rh  Rh5  1  0.000000  0.000000  0.500000  1
  Pb  Pb6  1  0.266019  0.005446  0.000000  1
  Pb  Pb7  1  0.739428  0.733981  0.000000  1
  Pb  Pb8  1  0.994554  0.260572  0.000000  1
