# generated using pymatgen
data_Na2MnAlP2(O4F)2
_symmetry_space_group_name_H-M   'P 1'
_cell_length_a   5.41091355
_cell_length_b   5.41091369
_cell_length_c   7.16898000
_cell_angle_alpha   74.49397585
_cell_angle_beta   74.49397542
_cell_angle_gamma   103.87803168
_symmetry_Int_Tables_number   1
_chemical_formula_structural   Na2MnAlP2(O4F)2
_chemical_formula_sum   'Na2 Mn1 Al1 P2 O8 F2'
_cell_volume   183.61080277
_cell_formula_units_Z   1
loop_
 _symmetry_equiv_pos_site_id
 _symmetry_equiv_pos_as_xyz
  1  'x, y, z'
loop_
 _atom_site_type_symbol
 _atom_site_label
 _atom_site_symmetry_multiplicity
 _atom_site_fract_x
 _atom_site_fract_y
 _atom_site_fract_z
 _atom_site_occupancy
  Na  Na0  1  0.339860  0.668471  0.249025  1
  Na  Na1  1  0.660140  0.331529  0.750975  1
  Mn  Mn2  1  0.000000  0.000000  0.500000  1
  Al  Al3  1  0.000000  0.000000  0.000000  1
  P  P4  1  0.688167  0.315755  0.251372  1
  P  P5  1  0.311833  0.684245  0.748628  1
  O  O6  1  0.115627  0.692642  0.620277  1
  O  O7  1  0.295352  0.886915  0.865765  1
  O  O8  1  0.609506  0.756780  0.600412  1
  O  O9  1  0.232792  0.386330  0.894075  1
  O  O10  1  0.390494  0.243220  0.399588  1
  O  O11  1  0.767208  0.613670  0.105925  1
  O  O12  1  0.884373  0.307358  0.379723  1
  O  O13  1  0.704648  0.113085  0.134235  1
  F  F14  1  0.901105  0.063022  0.780355  1
  F  F15  1  0.098895  0.936978  0.219645  1
