# generated using pymatgen
data_HfHg(PO4)2
_symmetry_space_group_name_H-M   'P 1'
_cell_length_a   5.33839668
_cell_length_b   5.31881568
_cell_length_c   8.45620195
_cell_angle_alpha   87.14903552
_cell_angle_beta   88.41338662
_cell_angle_gamma   60.01837484
_symmetry_Int_Tables_number   1
_chemical_formula_structural   HfHg(PO4)2
_chemical_formula_sum   'Hf1 Hg1 P2 O8'
_cell_volume   207.71695680
_cell_formula_units_Z   1
loop_
 _symmetry_equiv_pos_site_id
 _symmetry_equiv_pos_as_xyz
  1  'x, y, z'
loop_
 _atom_site_type_symbol
 _atom_site_label
 _atom_site_symmetry_multiplicity
 _atom_site_fract_x
 _atom_site_fract_y
 _atom_site_fract_z
 _atom_site_occupancy
  Hf  Hf0  1  0.013840  0.013938  0.987720  1
  Hg  Hg1  1  0.513960  0.513847  0.487665  1
  P  P2  1  0.684927  0.698576  0.790638  1
  P  P3  1  0.342738  0.329231  0.184834  1
  O  O4  1  0.246484  0.115140  0.138795  1
  O  O5  1  0.335236  0.318945  0.372158  1
  O  O6  1  0.130970  0.639418  0.122578  1
  O  O7  1  0.692000  0.709366  0.603259  1
  O  O8  1  0.896809  0.388242  0.852577  1
  O  O9  1  0.781375  0.912566  0.836623  1
  O  O10  1  0.652295  0.235206  0.128101  1
  O  O11  1  0.375749  0.792430  0.847641  1
