# generated using pymatgen
data_Sm7Dy(Sc3Sn4)4
_symmetry_space_group_name_H-M   'P 1'
_cell_length_a   7.75577307
_cell_length_b   8.01549608
_cell_length_c   14.94199010
_cell_angle_alpha   89.99015187
_cell_angle_beta   89.99119170
_cell_angle_gamma   90.01275831
_symmetry_Int_Tables_number   1
_chemical_formula_structural   Sm7Dy(Sc3Sn4)4
_chemical_formula_sum   'Sm7 Dy1 Sc12 Sn16'
_cell_volume   928.88921703
_cell_formula_units_Z   1
loop_
 _symmetry_equiv_pos_site_id
 _symmetry_equiv_pos_as_xyz
  1  'x, y, z'
loop_
 _atom_site_type_symbol
 _atom_site_label
 _atom_site_symmetry_multiplicity
 _atom_site_fract_x
 _atom_site_fract_y
 _atom_site_fract_z
 _atom_site_occupancy
  Sm  Sm0  1  0.996237  0.176246  0.094413  1
  Sm  Sm1  1  0.003750  0.823687  0.905463  1
  Sm  Sm2  1  0.503685  0.676280  0.905718  1
  Sm  Sm3  1  0.003691  0.823583  0.594449  1
  Sm  Sm4  1  0.496270  0.323729  0.094401  1
  Sm  Sm5  1  0.996324  0.176217  0.405658  1
  Sm  Sm6  1  0.496170  0.323832  0.405716  1
  Dy  Dy7  1  0.503724  0.676706  0.594704  1
  Sc  Sc8  1  0.163527  0.496464  0.749905  1
  Sc  Sc9  1  0.836671  0.503728  0.249975  1
  Sc  Sc10  1  0.336683  0.996297  0.250006  1
  Sc  Sc11  1  0.663212  0.003573  0.749885  1
  Sc  Sc12  1  0.334942  0.162377  0.627321  1
  Sc  Sc13  1  0.665016  0.837410  0.372781  1
  Sc  Sc14  1  0.165228  0.662471  0.372751  1
  Sc  Sc15  1  0.665151  0.837628  0.127289  1
  Sc  Sc16  1  0.834659  0.337822  0.627294  1
  Sc  Sc17  1  0.334851  0.162397  0.872612  1
  Sc  Sc18  1  0.834826  0.337495  0.872644  1
  Sc  Sc19  1  0.165144  0.662440  0.127309  1
  Sn  Sn20  1  0.026024  0.125783  0.749988  1
  Sn  Sn21  1  0.973921  0.874224  0.250031  1
  Sn  Sn22  1  0.473975  0.625753  0.250016  1
  Sn  Sn23  1  0.526050  0.374719  0.749847  1
  Sn  Sn24  1  0.306100  0.851731  0.749494  1
  Sn  Sn25  1  0.694550  0.147621  0.249988  1
  Sn  Sn26  1  0.194525  0.352382  0.249998  1
  Sn  Sn27  1  0.804869  0.647731  0.749686  1
  Sn  Sn28  1  0.179178  0.458293  0.542746  1
  Sn  Sn29  1  0.821189  0.542467  0.457648  1
  Sn  Sn30  1  0.322234  0.957304  0.457577  1
  Sn  Sn31  1  0.821941  0.542268  0.042581  1
  Sn  Sn32  1  0.677721  0.041603  0.542738  1
  Sn  Sn33  1  0.177942  0.457727  0.957398  1
  Sn  Sn34  1  0.678098  0.042238  0.957374  1
  Sn  Sn35  1  0.321920  0.957775  0.042596  1
