# generated using pymatgen
data_Mg3TlP6N13
_symmetry_space_group_name_H-M   'P 1'
_cell_length_a   7.13360579
_cell_length_b   7.13360636
_cell_length_c   7.13360600
_cell_angle_alpha   109.42712546
_cell_angle_beta   109.42712708
_cell_angle_gamma   109.42711953
_symmetry_Int_Tables_number   1
_chemical_formula_structural   Mg3TlP6N13
_chemical_formula_sum   'Mg3 Tl1 P6 N13'
_cell_volume   279.90618726
_cell_formula_units_Z   1
loop_
 _symmetry_equiv_pos_site_id
 _symmetry_equiv_pos_as_xyz
  1  'x, y, z'
loop_
 _atom_site_type_symbol
 _atom_site_label
 _atom_site_symmetry_multiplicity
 _atom_site_fract_x
 _atom_site_fract_y
 _atom_site_fract_z
 _atom_site_occupancy
  Mg  Mg0  1  0.997082  0.691627  0.997082  1
  Mg  Mg1  1  0.691627  0.997082  0.997082  1
  Mg  Mg2  1  0.997082  0.997082  0.691627  1
  Tl  Tl3  1  0.266799  0.266799  0.266799  1
  P  P4  1  0.503292  0.253541  0.755628  1
  P  P5  1  0.503292  0.755628  0.253541  1
  P  P6  1  0.755628  0.253541  0.503292  1
  P  P7  1  0.253541  0.503292  0.755628  1
  P  P8  1  0.755628  0.503292  0.253541  1
  P  P9  1  0.253541  0.755628  0.503292  1
  N  N10  1  0.970289  0.970289  0.970289  1
  N  N11  1  0.003384  0.733735  0.450888  1
  N  N12  1  0.272658  0.723032  0.272658  1
  N  N13  1  0.288371  0.559733  0.559733  1
  N  N14  1  0.559733  0.559733  0.288371  1
  N  N15  1  0.559733  0.288371  0.559733  1
  N  N16  1  0.733735  0.003384  0.450888  1
  N  N17  1  0.450888  0.003384  0.733735  1
  N  N18  1  0.733735  0.450888  0.003384  1
  N  N19  1  0.272658  0.272658  0.723032  1
  N  N20  1  0.723032  0.272658  0.272658  1
  N  N21  1  0.003384  0.450888  0.733735  1
  N  N22  1  0.450888  0.733735  0.003384  1
