# generated using pymatgen
data_Rb2Pr10Os2Br17
_symmetry_space_group_name_H-M   'P 1'
_cell_length_a   9.63055358
_cell_length_b   11.28147184
_cell_length_c   11.28154191
_cell_angle_alpha   107.68867655
_cell_angle_beta   93.47044789
_cell_angle_gamma   93.47063939
_symmetry_Int_Tables_number   1
_chemical_formula_structural   Rb2Pr10Os2Br17
_chemical_formula_sum   'Rb2 Pr10 Os2 Br17'
_cell_volume   1161.59099840
_cell_formula_units_Z   1
loop_
 _symmetry_equiv_pos_site_id
 _symmetry_equiv_pos_as_xyz
  1  'x, y, z'
loop_
 _atom_site_type_symbol
 _atom_site_label
 _atom_site_symmetry_multiplicity
 _atom_site_fract_x
 _atom_site_fract_y
 _atom_site_fract_z
 _atom_site_occupancy
  Rb  Rb0  1  0.000002  0.821673  0.178332  1
  Rb  Rb1  1  0.999998  0.178326  0.821667  1
  Pr  Pr2  1  0.440029  0.163159  0.163160  1
  Pr  Pr3  1  0.574866  0.512121  0.200429  1
  Pr  Pr4  1  0.829181  0.289595  0.289587  1
  Pr  Pr5  1  0.306114  0.432957  0.432960  1
  Pr  Pr6  1  0.425126  0.799576  0.487888  1
  Pr  Pr7  1  0.574874  0.200425  0.512113  1
  Pr  Pr8  1  0.693886  0.567043  0.567040  1
  Pr  Pr9  1  0.170820  0.710405  0.710413  1
  Pr  Pr10  1  0.425134  0.487880  0.799572  1
  Pr  Pr11  1  0.559970  0.836841  0.836840  1
  Os  Os12  1  0.570748  0.358398  0.358397  1
  Os  Os13  1  0.429252  0.641602  0.641603  1
  Br  Br14  1  0.579118  0.687109  0.020896  1
  Br  Br15  1  0.716373  0.066709  0.066716  1
  Br  Br16  1  0.857207  0.450070  0.119016  1
  Br  Br17  1  0.133281  0.205396  0.205397  1
  Br  Br18  1  0.282152  0.604497  0.254737  1
  Br  Br19  1  0.420883  0.979101  0.312890  1
  Br  Br20  1  0.717843  0.745275  0.395498  1
  Br  Br21  1  0.857214  0.119021  0.450065  1
  Br  Br22  1  0.000000  0.499999  0.499999  1
  Br  Br23  1  0.142786  0.880979  0.549935  1
  Br  Br24  1  0.282158  0.254725  0.604502  1
  Br  Br25  1  0.579117  0.020899  0.687111  1
  Br  Br26  1  0.717849  0.395503  0.745263  1
  Br  Br27  1  0.866719  0.794604  0.794603  1
  Br  Br28  1  0.142793  0.549930  0.880984  1
  Br  Br29  1  0.283627  0.933290  0.933283  1
  Br  Br30  1  0.420882  0.312892  0.979104  1
