# generated using pymatgen
data_La7Nd9Cd4IrRu3
_symmetry_space_group_name_H-M   'P 1'
_cell_length_a   9.98145196
_cell_length_b   9.99434792
_cell_length_c   10.03216862
_cell_angle_alpha   59.75604524
_cell_angle_beta   60.10032754
_cell_angle_gamma   60.28510689
_symmetry_Int_Tables_number   1
_chemical_formula_structural   La7Nd9Cd4IrRu3
_chemical_formula_sum   'La7 Nd9 Cd4 Ir1 Ru3'
_cell_volume   708.39088693
_cell_formula_units_Z   1
loop_
 _symmetry_equiv_pos_site_id
 _symmetry_equiv_pos_as_xyz
  1  'x, y, z'
loop_
 _atom_site_type_symbol
 _atom_site_label
 _atom_site_symmetry_multiplicity
 _atom_site_fract_x
 _atom_site_fract_y
 _atom_site_fract_z
 _atom_site_occupancy
  La  La0  1  0.344696  0.346033  0.348114  1
  La  La1  1  0.344478  0.344937  0.960476  1
  La  La2  1  0.344699  0.959640  0.346146  1
  La  La3  1  0.961721  0.345528  0.346049  1
  La  La4  1  0.814027  0.189832  0.187597  1
  La  La5  1  0.187756  0.814228  0.811005  1
  La  La6  1  0.189800  0.810518  0.188335  1
  Nd  Nd7  1  0.810633  0.191782  0.808236  1
  Nd  Nd8  1  0.191462  0.192555  0.806674  1
  Nd  Nd9  1  0.808234  0.808421  0.191937  1
  Nd  Nd10  1  0.934875  0.564314  0.565595  1
  Nd  Nd11  1  0.563787  0.938050  0.935992  1
  Nd  Nd12  1  0.563251  0.936092  0.565148  1
  Nd  Nd13  1  0.937254  0.563003  0.938503  1
  Nd  Nd14  1  0.563720  0.563811  0.935718  1
  Nd  Nd15  1  0.937031  0.939624  0.563381  1
  Cd  Cd16  1  0.581875  0.578867  0.579280  1
  Cd  Cd17  1  0.581097  0.581343  0.258312  1
  Cd  Cd18  1  0.579747  0.258025  0.582372  1
  Cd  Cd19  1  0.258693  0.578585  0.581235  1
  Ir  Ir20  1  0.578902  0.142711  0.140961  1
  Ru  Ru21  1  0.134547  0.133506  0.143290  1
  Ru  Ru22  1  0.142928  0.130859  0.582776  1
  Ru  Ru23  1  0.144780  0.587732  0.132866  1
