# generated using pymatgen
data_Ho6LuRhO12
_symmetry_space_group_name_H-M   'P 1'
_cell_length_a   6.59128109
_cell_length_b   6.59127907
_cell_length_c   6.59128040
_cell_angle_alpha   93.86071411
_cell_angle_beta   93.86071755
_cell_angle_gamma   93.86071021
_symmetry_Int_Tables_number   1
_chemical_formula_structural   Ho6LuRhO12
_chemical_formula_sum   'Ho6 Lu1 Rh1 O12'
_cell_volume   284.31600865
_cell_formula_units_Z   1
loop_
 _symmetry_equiv_pos_site_id
 _symmetry_equiv_pos_as_xyz
  1  'x, y, z'
loop_
 _atom_site_type_symbol
 _atom_site_label
 _atom_site_symmetry_multiplicity
 _atom_site_fract_x
 _atom_site_fract_y
 _atom_site_fract_z
 _atom_site_occupancy
  Ho  Ho0  1  0.739092  0.919487  0.432614  1
  Ho  Ho1  1  0.919487  0.432614  0.739092  1
  Ho  Ho2  1  0.432614  0.739092  0.919487  1
  Ho  Ho3  1  0.260908  0.080513  0.567386  1
  Ho  Ho4  1  0.080513  0.567386  0.260908  1
  Ho  Ho5  1  0.567386  0.260908  0.080513  1
  Lu  Lu6  1  0.000000  0.000000  0.000000  1
  Rh  Rh7  1  0.500000  0.500000  0.500000  1
  O  O8  1  0.590332  0.461091  0.805539  1
  O  O9  1  0.461091  0.805539  0.590332  1
  O  O10  1  0.805539  0.590332  0.461091  1
  O  O11  1  0.409668  0.538909  0.194461  1
  O  O12  1  0.538909  0.194461  0.409668  1
  O  O13  1  0.194461  0.409668  0.538909  1
  O  O14  1  0.068258  0.911659  0.315715  1
  O  O15  1  0.911659  0.315715  0.068258  1
  O  O16  1  0.684285  0.931742  0.088341  1
  O  O17  1  0.088341  0.684285  0.931742  1
  O  O18  1  0.931742  0.088341  0.684285  1
  O  O19  1  0.315715  0.068258  0.911659  1
