# generated using pymatgen
data_CeH9W
_symmetry_space_group_name_H-M   'P 1'
_cell_length_a   4.84624300
_cell_length_b   4.84624227
_cell_length_c   8.95968200
_cell_angle_alpha   90.00000000
_cell_angle_beta   90.00000000
_cell_angle_gamma   119.99999814
_symmetry_Int_Tables_number   1
_chemical_formula_structural   CeH9W
_chemical_formula_sum   'Ce2 H18 W2'
_cell_volume   182.23573550
_cell_formula_units_Z   2
loop_
 _symmetry_equiv_pos_site_id
 _symmetry_equiv_pos_as_xyz
  1  'x, y, z'
loop_
 _atom_site_type_symbol
 _atom_site_label
 _atom_site_symmetry_multiplicity
 _atom_site_fract_x
 _atom_site_fract_y
 _atom_site_fract_z
 _atom_site_occupancy
  Ce  Ce0  1  0.000000  0.000000  0.000000  1
  Ce  Ce1  1  0.000000  0.000000  0.500000  1
  H  H2  1  0.481076  0.518924  0.392650  1
  H  H3  1  0.481076  0.962152  0.392650  1
  H  H4  1  0.037848  0.518924  0.392650  1
  H  H5  1  0.962152  0.481076  0.892650  1
  H  H6  1  0.127892  0.255786  0.250000  1
  H  H7  1  0.872108  0.127892  0.750000  1
  H  H8  1  0.255786  0.127892  0.750000  1
  H  H9  1  0.744214  0.872108  0.250000  1
  H  H10  1  0.127892  0.872108  0.250000  1
  H  H11  1  0.872108  0.744214  0.750000  1
  H  H12  1  0.481076  0.962152  0.107350  1
  H  H13  1  0.518924  0.481076  0.607350  1
  H  H14  1  0.962152  0.481076  0.607350  1
  H  H15  1  0.037848  0.518924  0.107350  1
  H  H16  1  0.481076  0.518924  0.107350  1
  H  H17  1  0.518924  0.037848  0.892650  1
  H  H18  1  0.518924  0.481076  0.892650  1
  H  H19  1  0.518924  0.037848  0.607350  1
  W  W20  1  0.333333  0.666667  0.250000  1
  W  W21  1  0.666667  0.333333  0.750000  1
