# generated using pymatgen
data_Ti10Sn6B
_symmetry_space_group_name_H-M   'P 1'
_cell_length_a   8.09572400
_cell_length_b   8.09572344
_cell_length_c   5.47670800
_cell_angle_alpha   90.00000000
_cell_angle_beta   90.00000000
_cell_angle_gamma   120.00000229
_symmetry_Int_Tables_number   1
_chemical_formula_structural   Ti10Sn6B
_chemical_formula_sum   'Ti10 Sn6 B1'
_cell_volume   310.85765432
_cell_formula_units_Z   1
loop_
 _symmetry_equiv_pos_site_id
 _symmetry_equiv_pos_as_xyz
  1  'x, y, z'
loop_
 _atom_site_type_symbol
 _atom_site_label
 _atom_site_symmetry_multiplicity
 _atom_site_fract_x
 _atom_site_fract_y
 _atom_site_fract_z
 _atom_site_occupancy
  Ti  Ti0  1  0.666667  0.333333  0.500000  1
  Ti  Ti1  1  0.333333  0.666667  0.500000  1
  Ti  Ti2  1  0.333333  0.666667  0.000000  1
  Ti  Ti3  1  0.666667  0.333333  0.000000  1
  Ti  Ti4  1  0.769100  0.769100  0.263112  1
  Ti  Ti5  1  0.230900  0.000000  0.263112  1
  Ti  Ti6  1  0.000000  0.230900  0.263112  1
  Ti  Ti7  1  0.230900  0.230900  0.736888  1
  Ti  Ti8  1  0.769100  0.000000  0.736888  1
  Ti  Ti9  1  0.000000  0.769100  0.736888  1
  Sn  Sn10  1  0.396481  0.396481  0.247657  1
  Sn  Sn11  1  0.603519  0.000000  0.247657  1
  Sn  Sn12  1  0.000000  0.603519  0.247657  1
  Sn  Sn13  1  0.603519  0.603519  0.752343  1
  Sn  Sn14  1  0.396481  0.000000  0.752343  1
  Sn  Sn15  1  0.000000  0.396481  0.752343  1
  B  B16  1  0.000000  0.000000  0.500000  1
