# generated using pymatgen
data_Tb4Ho12MgNi4Hg3
_symmetry_space_group_name_H-M   'P 1'
_cell_length_a   9.53605950
_cell_length_b   9.50053476
_cell_length_c   9.50053500
_cell_angle_alpha   60.00000266
_cell_angle_beta   60.12315844
_cell_angle_gamma   60.12316027
_symmetry_Int_Tables_number   1
_chemical_formula_structural   Tb4Ho12MgNi4Hg3
_chemical_formula_sum   'Tb4 Ho12 Mg1 Ni4 Hg3'
_cell_volume   609.75593410
_cell_formula_units_Z   1
loop_
 _symmetry_equiv_pos_site_id
 _symmetry_equiv_pos_as_xyz
  1  'x, y, z'
loop_
 _atom_site_type_symbol
 _atom_site_label
 _atom_site_symmetry_multiplicity
 _atom_site_fract_x
 _atom_site_fract_y
 _atom_site_fract_z
 _atom_site_occupancy
  Tb  Tb0  1  0.349552  0.347807  0.347807  1
  Tb  Tb1  1  0.349552  0.347807  0.954832  1
  Tb  Tb2  1  0.349552  0.954832  0.347807  1
  Tb  Tb3  1  0.948306  0.350564  0.350564  1
  Ho  Ho4  1  0.809202  0.189682  0.189682  1
  Ho  Ho5  1  0.184041  0.813970  0.813970  1
  Ho  Ho6  1  0.184041  0.813970  0.188018  1
  Ho  Ho7  1  0.809202  0.189682  0.811435  1
  Ho  Ho8  1  0.184041  0.188018  0.813970  1
  Ho  Ho9  1  0.809202  0.811435  0.189682  1
  Ho  Ho10  1  0.932674  0.565724  0.565723  1
  Ho  Ho11  1  0.562180  0.936345  0.936344  1
  Ho  Ho12  1  0.562181  0.936345  0.565131  1
  Ho  Ho13  1  0.932674  0.565724  0.935877  1
  Ho  Ho14  1  0.562180  0.565132  0.936344  1
  Ho  Ho15  1  0.932674  0.935878  0.565723  1
  Mg  Mg16  1  0.284708  0.571764  0.571764  1
  Ni  Ni17  1  0.141182  0.142166  0.142166  1
  Ni  Ni18  1  0.141182  0.142166  0.574484  1
  Ni  Ni19  1  0.141182  0.574484  0.142166  1
  Ni  Ni20  1  0.574709  0.141763  0.141763  1
  Hg  Hg21  1  0.585260  0.586322  0.586322  1
  Hg  Hg22  1  0.585260  0.586322  0.242096  1
  Hg  Hg23  1  0.585260  0.242096  0.586322  1
