# generated using pymatgen
data_Pr2Sm3Ta3(Co4P3)4
_symmetry_space_group_name_H-M   'P 1'
_cell_length_a   12.31840700
_cell_length_b   12.31840777
_cell_length_c   3.75028400
_cell_angle_alpha   90.00000000
_cell_angle_beta   90.00000000
_cell_angle_gamma   120.00000061
_symmetry_Int_Tables_number   1
_chemical_formula_structural   Pr2Sm3Ta3(Co4P3)4
_chemical_formula_sum   'Pr2 Sm3 Ta3 Co16 P12'
_cell_volume   492.83768793
_cell_formula_units_Z   1
loop_
 _symmetry_equiv_pos_site_id
 _symmetry_equiv_pos_as_xyz
  1  'x, y, z'
loop_
 _atom_site_type_symbol
 _atom_site_label
 _atom_site_symmetry_multiplicity
 _atom_site_fract_x
 _atom_site_fract_y
 _atom_site_fract_z
 _atom_site_occupancy
  Pr  Pr0  1  0.333333  0.666667  0.000000  1
  Pr  Pr1  1  0.666667  0.333333  0.000000  1
  Sm  Sm2  1  0.815803  0.000000  0.500000  1
  Sm  Sm3  1  0.000000  0.815803  0.500000  1
  Sm  Sm4  1  0.184197  0.184197  0.500000  1
  Ta  Ta5  1  0.442237  0.000000  0.000000  1
  Ta  Ta6  1  0.000000  0.442237  0.000000  1
  Ta  Ta7  1  0.557763  0.557763  0.000000  1
  Co  Co8  1  0.279941  0.000000  0.500000  1
  Co  Co9  1  0.000000  0.279941  0.500000  1
  Co  Co10  1  0.720059  0.720059  0.500000  1
  Co  Co11  1  0.626555  0.802094  0.000000  1
  Co  Co12  1  0.197906  0.824461  0.000000  1
  Co  Co13  1  0.175539  0.373445  0.000000  1
  Co  Co14  1  0.373445  0.175539  0.000000  1
  Co  Co15  1  0.802094  0.626555  0.000000  1
  Co  Co16  1  0.824461  0.197906  0.000000  1
  Co  Co17  1  0.520959  0.875990  0.500000  1
  Co  Co18  1  0.124010  0.644970  0.500000  1
  Co  Co19  1  0.355030  0.479041  0.500000  1
  Co  Co20  1  0.479041  0.355030  0.500000  1
  Co  Co21  1  0.875990  0.520959  0.500000  1
  Co  Co22  1  0.644970  0.124010  0.500000  1
  Co  Co23  1  0.000000  0.000000  0.000000  1
  P  P24  1  0.178748  0.000000  0.000000  1
  P  P25  1  0.000000  0.178748  0.000000  1
  P  P26  1  0.821252  0.821252  0.000000  1
  P  P27  1  0.524785  0.689949  0.500000  1
  P  P28  1  0.310051  0.834836  0.500000  1
  P  P29  1  0.165164  0.475215  0.500000  1
  P  P30  1  0.475215  0.165164  0.500000  1
  P  P31  1  0.689949  0.524785  0.500000  1
  P  P32  1  0.834836  0.310051  0.500000  1
  P  P33  1  0.641336  0.000000  0.000000  1
  P  P34  1  0.000000  0.641336  0.000000  1
  P  P35  1  0.358664  0.358664  0.000000  1
