# generated using pymatgen
data_Pr5Sm(In4Te)2
_symmetry_space_group_name_H-M   'P 1'
_cell_length_a   8.59323004
_cell_length_b   8.59322968
_cell_length_c   8.59323100
_cell_angle_alpha   119.30192055
_cell_angle_beta   119.30191919
_cell_angle_gamma   91.21342773
_symmetry_Int_Tables_number   1
_chemical_formula_structural   Pr5Sm(In4Te)2
_chemical_formula_sum   'Pr5 Sm1 In8 Te2'
_cell_volume   453.32259626
_cell_formula_units_Z   1
loop_
 _symmetry_equiv_pos_site_id
 _symmetry_equiv_pos_as_xyz
  1  'x, y, z'
loop_
 _atom_site_type_symbol
 _atom_site_label
 _atom_site_symmetry_multiplicity
 _atom_site_fract_x
 _atom_site_fract_y
 _atom_site_fract_z
 _atom_site_occupancy
  Pr  Pr0  1  0.250000  0.250000  0.000000  1
  Pr  Pr1  1  0.659464  0.159464  0.818927  1
  Pr  Pr2  1  0.340536  0.840536  0.181073  1
  Pr  Pr3  1  0.159464  0.340536  0.500000  1
  Pr  Pr4  1  0.840536  0.659464  0.500000  1
  Sm  Sm5  1  0.750000  0.750000  0.000000  1
  In  In6  1  0.332586  0.831670  0.791106  1
  In  In7  1  0.668330  0.167414  0.208894  1
  In  In8  1  0.040562  0.541479  0.208894  1
  In  In9  1  0.831670  0.040562  0.499084  1
  In  In10  1  0.459438  0.668330  0.500916  1
  In  In11  1  0.958521  0.459438  0.791106  1
  In  In12  1  0.167414  0.958521  0.499084  1
  In  In13  1  0.541479  0.332586  0.500916  1
  Te  Te14  1  0.502100  0.502100  0.000000  1
  Te  Te15  1  0.997900  0.997900  0.000000  1
