# generated using pymatgen
data_Y5U3Nb11Si16Mo
_symmetry_space_group_name_H-M   'P 1'
_cell_length_a   7.05335744
_cell_length_b   7.06461991
_cell_length_c   13.02943446
_cell_angle_alpha   89.89418599
_cell_angle_beta   89.87177251
_cell_angle_gamma   90.03185447
_symmetry_Int_Tables_number   1
_chemical_formula_structural   Y5U3Nb11Si16Mo
_chemical_formula_sum   'Y5 U3 Nb11 Si16 Mo1'
_cell_volume   649.24462592
_cell_formula_units_Z   1
loop_
 _symmetry_equiv_pos_site_id
 _symmetry_equiv_pos_as_xyz
  1  'x, y, z'
loop_
 _atom_site_type_symbol
 _atom_site_label
 _atom_site_symmetry_multiplicity
 _atom_site_fract_x
 _atom_site_fract_y
 _atom_site_fract_z
 _atom_site_occupancy
  Y  Y0  1  0.998940  0.338986  0.218160  1
  Y  Y1  1  0.000834  0.661790  0.716083  1
  Y  Y2  1  0.161142  0.500197  0.467752  1
  Y  Y3  1  0.500602  0.840388  0.033110  1
  Y  Y4  1  0.840010  0.500379  0.966779  1
  U  U5  1  0.501430  0.156813  0.530970  1
  U  U6  1  0.339866  0.000380  0.780266  1
  U  U7  1  0.659881  0.000168  0.284668  1
  Nb  Nb8  1  0.170745  0.169262  0.997632  1
  Nb  Nb9  1  0.826361  0.835581  0.497742  1
  Nb  Nb10  1  0.331629  0.672296  0.250957  1
  Nb  Nb11  1  0.665826  0.326209  0.748647  1
  Nb  Nb12  1  0.847880  0.007593  0.875177  1
  Nb  Nb13  1  0.503501  0.657961  0.626396  1
  Nb  Nb14  1  0.345287  0.495687  0.874425  1
  Nb  Nb15  1  0.493230  0.341767  0.127673  1
  Nb  Nb16  1  0.651661  0.501010  0.375641  1
  Nb  Nb17  1  0.998018  0.153414  0.625604  1
  Nb  Nb18  1  0.003240  0.846192  0.126255  1
  Si  Si19  1  0.291259  0.042026  0.187868  1
  Si  Si20  1  0.706699  0.956766  0.685959  1
  Si  Si21  1  0.454277  0.793686  0.435824  1
  Si  Si22  1  0.205610  0.543848  0.063362  1
  Si  Si23  1  0.543304  0.205725  0.936232  1
  Si  Si24  1  0.792085  0.456055  0.562965  1
  Si  Si25  1  0.044218  0.296129  0.812373  1
  Si  Si26  1  0.958779  0.709782  0.313830  1
  Si  Si27  1  0.367977  0.289157  0.319365  1
  Si  Si28  1  0.630307  0.706496  0.816928  1
  Si  Si29  1  0.206022  0.870920  0.566373  1
  Si  Si30  1  0.132603  0.795259  0.932071  1
  Si  Si31  1  0.795123  0.131409  0.067561  1
  Si  Si32  1  0.874730  0.202696  0.432312  1
  Si  Si33  1  0.296176  0.368704  0.681582  1
  Si  Si34  1  0.702817  0.630649  0.183858  1
  Mo  Mo35  1  0.157934  0.994624  0.377601  1
