# generated using pymatgen
data_TbYb6Er(Si3Pd)4
_symmetry_space_group_name_H-M   'P 1'
_cell_length_a   8.25284500
_cell_length_b   8.25284488
_cell_length_c   8.13465200
_cell_angle_alpha   90.00000000
_cell_angle_beta   90.00000000
_cell_angle_gamma   120.00000448
_symmetry_Int_Tables_number   1
_chemical_formula_structural   TbYb6Er(Si3Pd)4
_chemical_formula_sum   'Tb1 Yb6 Er1 Si12 Pd4'
_cell_volume   479.81847003
_cell_formula_units_Z   1
loop_
 _symmetry_equiv_pos_site_id
 _symmetry_equiv_pos_as_xyz
  1  'x, y, z'
loop_
 _atom_site_type_symbol
 _atom_site_label
 _atom_site_symmetry_multiplicity
 _atom_site_fract_x
 _atom_site_fract_y
 _atom_site_fract_z
 _atom_site_occupancy
  Tb  Tb0  1  0.000000  0.000000  0.750000  1
  Yb  Yb1  1  0.501383  0.002764  0.250000  1
  Yb  Yb2  1  0.498482  0.996965  0.750000  1
  Yb  Yb3  1  0.997236  0.498617  0.250000  1
  Yb  Yb4  1  0.003035  0.501518  0.750000  1
  Yb  Yb5  1  0.501383  0.498617  0.250000  1
  Yb  Yb6  1  0.498482  0.501518  0.750000  1
  Er  Er7  1  0.000000  0.000000  0.250000  1
  Si  Si8  1  0.163941  0.327882  0.002167  1
  Si  Si9  1  0.836014  0.672028  0.998992  1
  Si  Si10  1  0.672118  0.836059  0.002167  1
  Si  Si11  1  0.836014  0.672028  0.501008  1
  Si  Si12  1  0.327972  0.163986  0.998992  1
  Si  Si13  1  0.163941  0.327882  0.497833  1
  Si  Si14  1  0.163941  0.836059  0.002167  1
  Si  Si15  1  0.327972  0.163986  0.501008  1
  Si  Si16  1  0.836014  0.163986  0.998992  1
  Si  Si17  1  0.672118  0.836059  0.497833  1
  Si  Si18  1  0.836014  0.163986  0.501008  1
  Si  Si19  1  0.163941  0.836059  0.497833  1
  Pd  Pd20  1  0.333333  0.666667  0.004019  1
  Pd  Pd21  1  0.666667  0.333333  0.997475  1
  Pd  Pd22  1  0.666667  0.333333  0.502525  1
  Pd  Pd23  1  0.333333  0.666667  0.495981  1
