# generated using pymatgen
data_Dy3In3CuIr2
_symmetry_space_group_name_H-M   'P 1'
_cell_length_a   7.51866800
_cell_length_b   7.51866808
_cell_length_c   3.90644600
_cell_angle_alpha   90.00000000
_cell_angle_beta   90.00000000
_cell_angle_gamma   120.00000847
_symmetry_Int_Tables_number   1
_chemical_formula_structural   Dy3In3CuIr2
_chemical_formula_sum   'Dy3 In3 Cu1 Ir2'
_cell_volume   191.24682799
_cell_formula_units_Z   1
loop_
 _symmetry_equiv_pos_site_id
 _symmetry_equiv_pos_as_xyz
  1  'x, y, z'
loop_
 _atom_site_type_symbol
 _atom_site_label
 _atom_site_symmetry_multiplicity
 _atom_site_fract_x
 _atom_site_fract_y
 _atom_site_fract_z
 _atom_site_occupancy
  Dy  Dy0  1  0.412940  0.000000  0.500000  1
  Dy  Dy1  1  0.000000  0.412940  0.500000  1
  Dy  Dy2  1  0.587060  0.587060  0.500000  1
  In  In3  1  0.748195  0.000000  0.000000  1
  In  In4  1  0.000000  0.748195  0.000000  1
  In  In5  1  0.251805  0.251805  0.000000  1
  Cu  Cu6  1  0.000000  0.000000  0.500000  1
  Ir  Ir7  1  0.333333  0.666667  0.000000  1
  Ir  Ir8  1  0.666667  0.333333  0.000000  1
