# generated using pymatgen
data_PrEr(LuPb)3
_symmetry_space_group_name_H-M   'P 1'
_cell_length_a   6.59059501
_cell_length_b   8.96066238
_cell_length_c   9.05039455
_cell_angle_alpha   119.67255805
_cell_angle_beta   90.00151984
_cell_angle_gamma   89.99692299
_symmetry_Int_Tables_number   1
_chemical_formula_structural   PrEr(LuPb)3
_chemical_formula_sum   'Pr2 Er2 Lu6 Pb6'
_cell_volume   464.39379844
_cell_formula_units_Z   2
loop_
 _symmetry_equiv_pos_site_id
 _symmetry_equiv_pos_as_xyz
  1  'x, y, z'
loop_
 _atom_site_type_symbol
 _atom_site_label
 _atom_site_symmetry_multiplicity
 _atom_site_fract_x
 _atom_site_fract_y
 _atom_site_fract_z
 _atom_site_occupancy
  Pr  Pr0  1  0.750038  0.230403  0.000000  1
  Pr  Pr1  1  0.249834  0.769191  0.000000  1
  Er  Er2  1  0.750111  0.761933  0.758481  1
  Er  Er3  1  0.750111  0.003454  0.241519  1
  Lu  Lu4  1  0.250070  0.236310  0.238978  1
  Lu  Lu5  1  0.250070  0.997331  0.761022  1
  Lu  Lu6  1  0.499951  0.335528  0.670816  1
  Lu  Lu7  1  0.499951  0.664712  0.329184  1
  Lu  Lu8  1  0.000115  0.664865  0.329295  1
  Lu  Lu9  1  0.000115  0.335569  0.670705  1
  Pb  Pb10  1  0.749117  0.608588  0.000000  1
  Pb  Pb11  1  0.749933  0.400237  0.403830  1
  Pb  Pb12  1  0.749933  0.996409  0.596170  1
  Pb  Pb13  1  0.249852  0.390371  0.000000  1
  Pb  Pb14  1  0.250399  0.600058  0.595016  1
  Pb  Pb15  1  0.250399  0.005041  0.404984  1
