# generated using pymatgen
data_Eu3HoMgRh
_symmetry_space_group_name_H-M   'P 1'
_cell_length_a   10.18259839
_cell_length_b   10.18259849
_cell_length_c   10.18259800
_cell_angle_alpha   60.00000160
_cell_angle_beta   60.00000128
_cell_angle_gamma   60.00000117
_symmetry_Int_Tables_number   1
_chemical_formula_structural   Eu3HoMgRh
_chemical_formula_sum   'Eu12 Ho4 Mg4 Rh4'
_cell_volume   746.55335042
_cell_formula_units_Z   4
loop_
 _symmetry_equiv_pos_site_id
 _symmetry_equiv_pos_as_xyz
  1  'x, y, z'
loop_
 _atom_site_type_symbol
 _atom_site_label
 _atom_site_symmetry_multiplicity
 _atom_site_fract_x
 _atom_site_fract_y
 _atom_site_fract_z
 _atom_site_occupancy
  Eu  Eu0  1  0.807156  0.192844  0.192844  1
  Eu  Eu1  1  0.192844  0.807156  0.807156  1
  Eu  Eu2  1  0.192844  0.807156  0.192844  1
  Eu  Eu3  1  0.807156  0.192844  0.807156  1
  Eu  Eu4  1  0.192844  0.192844  0.807156  1
  Eu  Eu5  1  0.807156  0.807156  0.192844  1
  Eu  Eu6  1  0.944357  0.555643  0.555643  1
  Eu  Eu7  1  0.555643  0.944357  0.944357  1
  Eu  Eu8  1  0.555643  0.944357  0.555643  1
  Eu  Eu9  1  0.944357  0.555643  0.944357  1
  Eu  Eu10  1  0.555643  0.555643  0.944357  1
  Eu  Eu11  1  0.944357  0.944357  0.555643  1
  Ho  Ho12  1  0.338749  0.338749  0.338749  1
  Ho  Ho13  1  0.338749  0.338749  0.983753  1
  Ho  Ho14  1  0.338749  0.983753  0.338749  1
  Ho  Ho15  1  0.983753  0.338749  0.338749  1
  Mg  Mg16  1  0.576384  0.576384  0.576384  1
  Mg  Mg17  1  0.576384  0.576384  0.270850  1
  Mg  Mg18  1  0.576384  0.270850  0.576384  1
  Mg  Mg19  1  0.270850  0.576384  0.576384  1
  Rh  Rh20  1  0.144784  0.144784  0.144784  1
  Rh  Rh21  1  0.144784  0.144784  0.565649  1
  Rh  Rh22  1  0.144784  0.565649  0.144784  1
  Rh  Rh23  1  0.565649  0.144784  0.144784  1
