# generated using pymatgen
data_GeCl8
_symmetry_space_group_name_H-M   'P 1'
_cell_length_a   6.41504372
_cell_length_b   7.22562607
_cell_length_c   11.69597731
_cell_angle_alpha   97.54458297
_cell_angle_beta   92.25214537
_cell_angle_gamma   115.13818786
_symmetry_Int_Tables_number   1
_chemical_formula_structural   GeCl8
_chemical_formula_sum   'Ge1 Cl8'
_cell_volume   483.80524124
_cell_formula_units_Z   1
loop_
 _symmetry_equiv_pos_site_id
 _symmetry_equiv_pos_as_xyz
  1  'x, y, z'
loop_
 _atom_site_type_symbol
 _atom_site_label
 _atom_site_symmetry_multiplicity
 _atom_site_fract_x
 _atom_site_fract_y
 _atom_site_fract_z
 _atom_site_occupancy
  Ge  Ge0  1  0.128616  0.272501  0.522268  1
  Cl  Cl1  1  0.840985  0.025642  0.948818  1
  Cl  Cl2  1  0.028066  0.405057  0.390568  1
  Cl  Cl3  1  0.685753  0.164012  0.049707  1
  Cl  Cl4  1  0.438862  0.497099  0.623016  1
  Cl  Cl5  1  0.191570  0.018819  0.442566  1
  Cl  Cl6  1  0.469108  0.486650  0.160897  1
  Cl  Cl7  1  0.720156  0.701201  0.277539  1
  Cl  Cl8  1  0.859052  0.162416  0.632303  1
