# generated using pymatgen
data_Dy15ErIn4(NiRh)2
_symmetry_space_group_name_H-M   'P 1'
_cell_length_a   9.61725707
_cell_length_b   9.60518949
_cell_length_c   9.60840975
_cell_angle_alpha   60.12956150
_cell_angle_beta   60.11104101
_cell_angle_gamma   59.97028869
_symmetry_Int_Tables_number   1
_chemical_formula_structural   Dy15ErIn4(NiRh)2
_chemical_formula_sum   'Dy15 Er1 In4 Ni2 Rh2'
_cell_volume   628.61248634
_cell_formula_units_Z   1
loop_
 _symmetry_equiv_pos_site_id
 _symmetry_equiv_pos_as_xyz
  1  'x, y, z'
loop_
 _atom_site_type_symbol
 _atom_site_label
 _atom_site_symmetry_multiplicity
 _atom_site_fract_x
 _atom_site_fract_y
 _atom_site_fract_z
 _atom_site_occupancy
  Dy  Dy0  1  0.187834  0.190324  0.810403  1
  Dy  Dy1  1  0.437916  0.059636  0.060126  1
  Dy  Dy2  1  0.434782  0.063198  0.437388  1
  Dy  Dy3  1  0.061320  0.437939  0.061237  1
  Dy  Dy4  1  0.651866  0.048098  0.646831  1
  Dy  Dy5  1  0.189959  0.810272  0.810776  1
  Dy  Dy6  1  0.062072  0.061462  0.436994  1
  Dy  Dy7  1  0.809494  0.188508  0.189078  1
  Dy  Dy8  1  0.809968  0.810816  0.191705  1
  Dy  Dy9  1  0.650871  0.647013  0.048888  1
  Dy  Dy10  1  0.654959  0.652762  0.653259  1
  Dy  Dy11  1  0.063828  0.436926  0.435980  1
  Dy  Dy12  1  0.047977  0.650820  0.649592  1
  Dy  Dy13  1  0.809320  0.191818  0.811093  1
  Dy  Dy14  1  0.434311  0.437885  0.063331  1
  Er  Er15  1  0.188325  0.809758  0.190604  1
  In  In16  1  0.418240  0.746873  0.418559  1
  In  In17  1  0.417601  0.418294  0.746955  1
  In  In18  1  0.747022  0.418744  0.418617  1
  In  In19  1  0.415506  0.416702  0.416667  1
  Ni  Ni20  1  0.860806  0.425952  0.859467  1
  Ni  Ni21  1  0.862935  0.858898  0.423915  1
  Rh  Rh22  1  0.425748  0.859299  0.860375  1
  Rh  Rh23  1  0.857340  0.858003  0.858163  1
