# generated using pymatgen
data_RbTi2AsSe6
_symmetry_space_group_name_H-M   'P 1'
_cell_length_a   9.39106546
_cell_length_b   9.39106446
_cell_length_c   9.39106431
_cell_angle_alpha   40.23008314
_cell_angle_beta   40.23008851
_cell_angle_gamma   40.23009200
_symmetry_Int_Tables_number   1
_chemical_formula_structural   RbTi2AsSe6
_chemical_formula_sum   'Rb1 Ti2 As1 Se6'
_cell_volume   311.42242427
_cell_formula_units_Z   1
loop_
 _symmetry_equiv_pos_site_id
 _symmetry_equiv_pos_as_xyz
  1  'x, y, z'
loop_
 _atom_site_type_symbol
 _atom_site_label
 _atom_site_symmetry_multiplicity
 _atom_site_fract_x
 _atom_site_fract_y
 _atom_site_fract_z
 _atom_site_occupancy
  Rb  Rb0  1  0.000315  0.000315  0.000315  1
  Ti  Ti1  1  0.501150  0.501150  0.501150  1
  Ti  Ti2  1  0.832399  0.832399  0.832399  1
  As  As3  1  0.166544  0.166544  0.166544  1
  Se  Se4  1  0.565633  0.223597  0.881470  1
  Se  Se5  1  0.881470  0.565633  0.223597  1
  Se  Se6  1  0.223597  0.881470  0.565633  1
  Se  Se7  1  0.764993  0.110900  0.453001  1
  Se  Se8  1  0.110900  0.453001  0.764993  1
  Se  Se9  1  0.453001  0.764993  0.110900  1
