# generated using pymatgen
data_Pa7Mn3O20
_symmetry_space_group_name_H-M   'P 1'
_cell_length_a   6.59778941
_cell_length_b   7.61965270
_cell_length_c   8.49832900
_cell_angle_alpha   103.08292890
_cell_angle_beta   97.18139757
_cell_angle_gamma   106.86035084
_symmetry_Int_Tables_number   1
_chemical_formula_structural   Pa7Mn3O20
_chemical_formula_sum   'Pa7 Mn3 O20'
_cell_volume   389.83785149
_cell_formula_units_Z   1
loop_
 _symmetry_equiv_pos_site_id
 _symmetry_equiv_pos_as_xyz
  1  'x, y, z'
loop_
 _atom_site_type_symbol
 _atom_site_label
 _atom_site_symmetry_multiplicity
 _atom_site_fract_x
 _atom_site_fract_y
 _atom_site_fract_z
 _atom_site_occupancy
  Pa  Pa0  1  0.801126  0.602507  0.605426  1
  Pa  Pa1  1  0.589693  0.193707  0.192252  1
  Pa  Pa2  1  0.002784  0.501276  0.002295  1
  Pa  Pa3  1  0.801927  0.100282  0.607575  1
  Pa  Pa4  1  0.400260  0.805145  0.796715  1
  Pa  Pa5  1  0.197889  0.393794  0.400526  1
  Pa  Pa6  1  0.608491  0.703530  0.195286  1
  Mn  Mn7  1  0.380620  0.281651  0.800624  1
  Mn  Mn8  1  0.201224  0.911760  0.399885  1
  Mn  Mn9  1  0.011574  0.003374  0.003585  1
  O  O10  1  0.841861  0.322800  0.452861  1
  O  O11  1  0.645555  0.926585  0.047826  1
  O  O12  1  0.947579  0.765890  0.148627  1
  O  O13  1  0.453684  0.535112  0.642725  1
  O  O14  1  0.837945  0.820749  0.455401  1
  O  O15  1  0.649319  0.427882  0.053197  1
  O  O16  1  0.757028  0.380111  0.750592  1
  O  O17  1  0.254879  0.135998  0.248132  1
  O  O18  1  0.939931  0.287777  0.162480  1
  O  O19  1  0.460315  0.013020  0.643092  1
  O  O20  1  0.563900  0.975449  0.341648  1
  O  O21  1  0.052511  0.718478  0.844417  1
  O  O22  1  0.752944  0.873809  0.751866  1
  O  O23  1  0.352016  0.589288  0.952144  1
  O  O24  1  0.261557  0.610480  0.245371  1
  O  O25  1  0.555569  0.473010  0.350272  1
  O  O26  1  0.137798  0.181102  0.551183  1
  O  O27  1  0.039905  0.231894  0.858765  1
  O  O28  1  0.358560  0.071329  0.945227  1
  O  O29  1  0.141550  0.662209  0.550007  1
