# generated using pymatgen
data_Li3YHfNi9As7
_symmetry_space_group_name_H-M   'P 1'
_cell_length_a   9.51978317
_cell_length_b   9.52341249
_cell_length_c   3.84709600
_cell_angle_alpha   90.00000000
_cell_angle_beta   90.00000000
_cell_angle_gamma   119.84601031
_symmetry_Int_Tables_number   1
_chemical_formula_structural   Li3YHfNi9As7
_chemical_formula_sum   'Li3 Y1 Hf1 Ni9 As7'
_cell_volume   302.52071229
_cell_formula_units_Z   1
loop_
 _symmetry_equiv_pos_site_id
 _symmetry_equiv_pos_as_xyz
  1  'x, y, z'
loop_
 _atom_site_type_symbol
 _atom_site_label
 _atom_site_symmetry_multiplicity
 _atom_site_fract_x
 _atom_site_fract_y
 _atom_site_fract_z
 _atom_site_occupancy
  Li  Li0  1  0.443407  0.218843  0.500000  1
  Li  Li1  1  0.775441  0.219951  0.500000  1
  Li  Li2  1  0.003331  0.006663  0.500000  1
  Y  Y3  1  0.326844  0.666187  0.000000  1
  Hf  Hf4  1  0.771220  0.552778  0.500000  1
  Ni  Ni5  1  0.271945  0.374809  0.500000  1
  Ni  Ni6  1  0.627109  0.900425  0.500000  1
  Ni  Ni7  1  0.107083  0.723020  0.500000  1
  Ni  Ni8  1  0.500053  0.455320  0.000000  1
  Ni  Ni9  1  0.547057  0.039215  0.000000  1
  Ni  Ni10  1  0.954288  0.499307  0.000000  1
  Ni  Ni11  1  0.723589  0.760178  0.000000  1
  Ni  Ni12  1  0.247228  0.968553  0.000000  1
  Ni  Ni13  1  0.039935  0.279294  0.000000  1
  As  As14  1  0.978527  0.767012  0.000000  1
  As  As15  1  0.244311  0.213556  0.000000  1
  As  As16  1  0.791294  0.031970  0.000000  1
  As  As17  1  0.662929  0.325000  0.000000  1
  As  As18  1  0.532065  0.620697  0.500000  1
  As  As19  1  0.382037  0.926052  0.500000  1
  As  As20  1  0.070311  0.451169  0.500000  1
