# generated using pymatgen
data_Tm20Ir7Os4Pt
_symmetry_space_group_name_H-M   'P 1'
_cell_length_a   10.69985017
_cell_length_b   10.69985001
_cell_length_c   6.36835900
_cell_angle_alpha   90.08991283
_cell_angle_beta   90.08991283
_cell_angle_gamma   89.87395641
_symmetry_Int_Tables_number   1
_chemical_formula_structural   Tm20Ir7Os4Pt
_chemical_formula_sum   'Tm20 Ir7 Os4 Pt1'
_cell_volume   729.08943632
_cell_formula_units_Z   1
loop_
 _symmetry_equiv_pos_site_id
 _symmetry_equiv_pos_as_xyz
  1  'x, y, z'
loop_
 _atom_site_type_symbol
 _atom_site_label
 _atom_site_symmetry_multiplicity
 _atom_site_fract_x
 _atom_site_fract_y
 _atom_site_fract_z
 _atom_site_occupancy
  Tm  Tm0  1  0.292825  0.085600  0.376168  1
  Tm  Tm1  1  0.293852  0.914064  0.876203  1
  Tm  Tm2  1  0.704483  0.084547  0.871738  1
  Tm  Tm3  1  0.704957  0.911044  0.378484  1
  Tm  Tm4  1  0.585804  0.793242  0.876669  1
  Tm  Tm5  1  0.582466  0.206623  0.376485  1
  Tm  Tm6  1  0.413514  0.793142  0.376845  1
  Tm  Tm7  1  0.413701  0.206602  0.877155  1
  Tm  Tm8  1  0.206758  0.414196  0.623331  1
  Tm  Tm9  1  0.206858  0.586486  0.123155  1
  Tm  Tm10  1  0.793377  0.417534  0.123515  1
  Tm  Tm11  1  0.793398  0.586299  0.622845  1
  Tm  Tm12  1  0.914400  0.707175  0.123832  1
  Tm  Tm13  1  0.915453  0.295517  0.628262  1
  Tm  Tm14  1  0.085936  0.706148  0.623797  1
  Tm  Tm15  1  0.088956  0.295043  0.121516  1
  Tm  Tm16  1  0.001156  0.998161  0.501481  1
  Tm  Tm17  1  0.001839  0.998844  0.998519  1
  Tm  Tm18  1  0.499844  0.499942  0.999794  1
  Tm  Tm19  1  0.500058  0.500156  0.500206  1
  Ir  Ir20  1  0.847931  0.848432  0.750463  1
  Ir  Ir21  1  0.151568  0.152069  0.749537  1
  Ir  Ir22  1  0.152302  0.847698  0.250000  1
  Ir  Ir23  1  0.653173  0.346827  0.750000  1
  Ir  Ir24  1  0.652400  0.652296  0.249854  1
  Ir  Ir25  1  0.347704  0.347600  0.250146  1
  Ir  Ir26  1  0.347588  0.652412  0.750000  1
  Os  Os27  1  0.500130  0.999825  0.124707  1
  Os  Os28  1  0.500002  0.999728  0.623816  1
  Os  Os29  1  0.000272  0.499998  0.876184  1
  Os  Os30  1  0.000175  0.499870  0.375293  1
  Pt  Pt31  1  0.847120  0.152880  0.250000  1
