# generated using pymatgen
data_Y2AlNiRu
_symmetry_space_group_name_H-M   'P 1'
_cell_length_a   5.48389788
_cell_length_b   5.48389806
_cell_length_c   5.48389760
_cell_angle_alpha   135.91912472
_cell_angle_beta   118.33037130
_cell_angle_gamma   78.87714078
_symmetry_Int_Tables_number   1
_chemical_formula_structural   Y2AlNiRu
_chemical_formula_sum   'Y2 Al1 Ni1 Ru1'
_cell_volume   97.99400599
_cell_formula_units_Z   1
loop_
 _symmetry_equiv_pos_site_id
 _symmetry_equiv_pos_as_xyz
  1  'x, y, z'
loop_
 _atom_site_type_symbol
 _atom_site_label
 _atom_site_symmetry_multiplicity
 _atom_site_fract_x
 _atom_site_fract_y
 _atom_site_fract_z
 _atom_site_occupancy
  Y  Y0  1  0.695704  0.203001  0.492703  1
  Y  Y1  1  0.289702  0.796999  0.492703  1
  Al  Al2  1  0.998995  0.000000  0.998995  1
  Ni  Ni3  1  0.740243  0.500000  0.240243  1
  Ru  Ru4  1  0.275355  0.500000  0.775355  1
