# generated using pymatgen
data_Hf4TiAlSb2
_symmetry_space_group_name_H-M   'P 1'
_cell_length_a   5.41387965
_cell_length_b   8.20784993
_cell_length_c   8.20785041
_cell_angle_alpha   83.75573986
_cell_angle_beta   70.74343414
_cell_angle_gamma   70.74343736
_symmetry_Int_Tables_number   1
_chemical_formula_structural   Hf4TiAlSb2
_chemical_formula_sum   'Hf8 Ti2 Al2 Sb4'
_cell_volume   325.05628951
_cell_formula_units_Z   2
loop_
 _symmetry_equiv_pos_site_id
 _symmetry_equiv_pos_as_xyz
  1  'x, y, z'
loop_
 _atom_site_type_symbol
 _atom_site_label
 _atom_site_symmetry_multiplicity
 _atom_site_fract_x
 _atom_site_fract_y
 _atom_site_fract_z
 _atom_site_occupancy
  Hf  Hf0  1  0.079350  0.135404  0.705896  1
  Hf  Hf1  1  0.920650  0.864596  0.294104  1
  Hf  Hf2  1  0.785246  0.294104  0.135404  1
  Hf  Hf3  1  0.420650  0.294104  0.864596  1
  Hf  Hf4  1  0.214754  0.705896  0.864596  1
  Hf  Hf5  1  0.579350  0.705896  0.135404  1
  Hf  Hf6  1  0.714754  0.864596  0.705896  1
  Hf  Hf7  1  0.285246  0.135404  0.294104  1
  Ti  Ti8  1  0.250000  0.500000  0.500000  1
  Ti  Ti9  1  0.750000  0.500000  0.500000  1
  Al  Al10  1  0.250000  0.000000  0.000000  1
  Al  Al11  1  0.750000  0.000000  0.000000  1
  Sb  Sb12  1  0.157400  0.500000  0.185201  1
  Sb  Sb13  1  0.842600  0.500000  0.814799  1
  Sb  Sb14  1  0.342600  0.814799  0.500000  1
  Sb  Sb15  1  0.657400  0.185201  0.500000  1
