# generated using pymatgen
data_TbHo4Lu7Os4
_symmetry_space_group_name_H-M   'P 1'
_cell_length_a   6.23103103
_cell_length_b   7.38737829
_cell_length_c   8.87975153
_cell_angle_alpha   89.94204357
_cell_angle_beta   89.74086808
_cell_angle_gamma   89.99977472
_symmetry_Int_Tables_number   1
_chemical_formula_structural   TbHo4Lu7Os4
_chemical_formula_sum   'Tb1 Ho4 Lu7 Os4'
_cell_volume   408.73930501
_cell_formula_units_Z   1
loop_
 _symmetry_equiv_pos_site_id
 _symmetry_equiv_pos_as_xyz
  1  'x, y, z'
loop_
 _atom_site_type_symbol
 _atom_site_label
 _atom_site_symmetry_multiplicity
 _atom_site_fract_x
 _atom_site_fract_y
 _atom_site_fract_z
 _atom_site_occupancy
  Tb  Tb0  1  0.371997  0.960295  0.748789  1
  Ho  Ho1  1  0.164118  0.174828  0.062935  1
  Ho  Ho2  1  0.871089  0.540025  0.250622  1
  Ho  Ho3  1  0.629682  0.039192  0.251292  1
  Ho  Ho4  1  0.127286  0.461167  0.748555  1
  Lu  Lu5  1  0.337163  0.673055  0.063062  1
  Lu  Lu6  1  0.162828  0.173153  0.438340  1
  Lu  Lu7  1  0.662353  0.326660  0.562872  1
  Lu  Lu8  1  0.835818  0.825327  0.936208  1
  Lu  Lu9  1  0.663759  0.326946  0.936516  1
  Lu  Lu10  1  0.836731  0.825788  0.562378  1
  Lu  Lu11  1  0.337014  0.674209  0.436745  1
  Os  Os12  1  0.043940  0.880600  0.251362  1
  Os  Os13  1  0.458294  0.382268  0.251911  1
  Os  Os14  1  0.954034  0.118531  0.747511  1
  Os  Os15  1  0.543896  0.617955  0.750904  1
