# generated using pymatgen
data_TbGdLu2(WO6)2
_symmetry_space_group_name_H-M   'P 1'
_cell_length_a   5.39516700
_cell_length_b   7.67966926
_cell_length_c   11.36610292
_cell_angle_alpha   75.74428665
_cell_angle_beta   90.00000000
_cell_angle_gamma   90.00000000
_symmetry_Int_Tables_number   1
_chemical_formula_structural   TbGdLu2(WO6)2
_chemical_formula_sum   'Tb2 Gd2 Lu4 W4 O24'
_cell_volume   456.43112108
_cell_formula_units_Z   2
loop_
 _symmetry_equiv_pos_site_id
 _symmetry_equiv_pos_as_xyz
  1  'x, y, z'
loop_
 _atom_site_type_symbol
 _atom_site_label
 _atom_site_symmetry_multiplicity
 _atom_site_fract_x
 _atom_site_fract_y
 _atom_site_fract_z
 _atom_site_occupancy
  Tb  Tb0  1  0.255983  0.000000  0.750000  1
  Tb  Tb1  1  0.744017  0.000000  0.250000  1
  Gd  Gd2  1  0.315292  0.500000  0.750000  1
  Gd  Gd3  1  0.684708  0.500000  0.250000  1
  Lu  Lu4  1  0.182636  0.793206  0.078916  1
  Lu  Lu5  1  0.182636  0.206794  0.421084  1
  Lu  Lu6  1  0.817364  0.206794  0.921084  1
  Lu  Lu7  1  0.817364  0.793206  0.578916  1
  W  W8  1  0.743924  0.725674  0.885633  1
  W  W9  1  0.256076  0.725674  0.385633  1
  W  W10  1  0.743924  0.274326  0.614367  1
  W  W11  1  0.256076  0.274326  0.114367  1
  O  O12  1  0.541378  0.159397  0.066452  1
  O  O13  1  0.050132  0.057475  0.102000  1
  O  O14  1  0.017065  0.715601  0.769563  1
  O  O15  1  0.458622  0.159397  0.566452  1
  O  O16  1  0.352661  0.489379  0.386673  1
  O  O17  1  0.949868  0.057475  0.602000  1
  O  O18  1  0.547217  0.793451  0.725031  1
  O  O19  1  0.452783  0.793451  0.225031  1
  O  O20  1  0.144109  0.637747  0.548700  1
  O  O21  1  0.050132  0.942525  0.398000  1
  O  O22  1  0.458622  0.840603  0.933548  1
  O  O23  1  0.452783  0.206549  0.274969  1
  O  O24  1  0.855891  0.362253  0.451300  1
  O  O25  1  0.647339  0.489379  0.886673  1
  O  O26  1  0.352661  0.510621  0.113327  1
  O  O27  1  0.949868  0.942525  0.898000  1
  O  O28  1  0.541378  0.840603  0.433548  1
  O  O29  1  0.982935  0.284399  0.230437  1
  O  O30  1  0.547217  0.206549  0.774969  1
  O  O31  1  0.855891  0.637747  0.048700  1
  O  O32  1  0.017065  0.284399  0.730437  1
  O  O33  1  0.144109  0.362253  0.951300  1
  O  O34  1  0.982935  0.715601  0.269563  1
  O  O35  1  0.647339  0.510621  0.613327  1
