# generated using pymatgen
data_Er5(Lu5Sb4)3
_symmetry_space_group_name_H-M   'P 1'
_cell_length_a   11.64548642
_cell_length_b   9.13244601
_cell_length_c   8.03130828
_cell_angle_alpha   89.99780702
_cell_angle_beta   89.96976286
_cell_angle_gamma   90.00574914
_symmetry_Int_Tables_number   1
_chemical_formula_structural   Er5(Lu5Sb4)3
_chemical_formula_sum   'Er5 Lu15 Sb12'
_cell_volume   854.14377565
_cell_formula_units_Z   1
loop_
 _symmetry_equiv_pos_site_id
 _symmetry_equiv_pos_as_xyz
  1  'x, y, z'
loop_
 _atom_site_type_symbol
 _atom_site_label
 _atom_site_symmetry_multiplicity
 _atom_site_fract_x
 _atom_site_fract_y
 _atom_site_fract_z
 _atom_site_occupancy
  Er  Er0  1  0.065403  0.440140  0.191337  1
  Er  Er1  1  0.228681  0.249953  0.825697  1
  Er  Er2  1  0.271430  0.750108  0.325373  1
  Er  Er3  1  0.728655  0.249909  0.674577  1
  Er  Er4  1  0.771378  0.749919  0.174699  1
  Lu  Lu5  1  0.290388  0.249402  0.341627  1
  Lu  Lu6  1  0.210020  0.749702  0.841672  1
  Lu  Lu7  1  0.789758  0.249754  0.158360  1
  Lu  Lu8  1  0.709979  0.749892  0.658293  1
  Lu  Lu9  1  0.065750  0.061335  0.191295  1
  Lu  Lu10  1  0.434351  0.938778  0.691147  1
  Lu  Lu11  1  0.565684  0.438790  0.308973  1
  Lu  Lu12  1  0.934364  0.561224  0.809064  1
  Lu  Lu13  1  0.934193  0.938997  0.808333  1
  Lu  Lu14  1  0.565623  0.061111  0.308879  1
  Lu  Lu15  1  0.434473  0.561139  0.691194  1
  Lu  Lu16  1  0.004770  0.249661  0.524824  1
  Lu  Lu17  1  0.495173  0.749962  0.024345  1
  Lu  Lu18  1  0.505004  0.249914  0.975652  1
  Lu  Lu19  1  0.995187  0.749984  0.475620  1
  Sb  Sb20  1  0.473465  0.249976  0.597423  1
  Sb  Sb21  1  0.026154  0.752076  0.096417  1
  Sb  Sb22  1  0.973144  0.249586  0.902407  1
  Sb  Sb23  1  0.526617  0.749972  0.402703  1
  Sb  Sb24  1  0.326332  0.008846  0.064712  1
  Sb  Sb25  1  0.173843  0.990690  0.565017  1
  Sb  Sb26  1  0.826112  0.490744  0.435112  1
  Sb  Sb27  1  0.673735  0.509041  0.935046  1
  Sb  Sb28  1  0.673746  0.990818  0.935184  1
  Sb  Sb29  1  0.826040  0.008810  0.435318  1
  Sb  Sb30  1  0.173938  0.508895  0.565151  1
  Sb  Sb31  1  0.326609  0.490870  0.064551  1
