# generated using pymatgen
data_La2Pr2Pd3Pt
_symmetry_space_group_name_H-M   'P 1'
_cell_length_a   4.67631800
_cell_length_b   5.82905713
_cell_length_c   7.34692000
_cell_angle_alpha   90.51681400
_cell_angle_beta   90.00000000
_cell_angle_gamma   90.00000000
_symmetry_Int_Tables_number   1
_chemical_formula_structural   La2Pr2Pd3Pt
_chemical_formula_sum   'La2 Pr2 Pd3 Pt1'
_cell_volume   200.25805391
_cell_formula_units_Z   1
loop_
 _symmetry_equiv_pos_site_id
 _symmetry_equiv_pos_as_xyz
  1  'x, y, z'
loop_
 _atom_site_type_symbol
 _atom_site_label
 _atom_site_symmetry_multiplicity
 _atom_site_fract_x
 _atom_site_fract_y
 _atom_site_fract_z
 _atom_site_occupancy
  La  La0  1  0.250000  0.357982  0.686322  1
  La  La1  1  0.250000  0.145094  0.180099  1
  Pr  Pr2  1  0.750000  0.640297  0.317167  1
  Pr  Pr3  1  0.750000  0.857743  0.817180  1
  Pd  Pd4  1  0.250000  0.849384  0.541684  1
  Pd  Pd5  1  0.250000  0.656379  0.044387  1
  Pd  Pd6  1  0.750000  0.148371  0.457213  1
  Pt  Pt7  1  0.750000  0.344748  0.955947  1
