# generated using pymatgen
data_Mg2Fe8Co4P7
_symmetry_space_group_name_H-M   'P 1'
_cell_length_a   8.86811709
_cell_length_b   8.91080889
_cell_length_c   3.55876900
_cell_angle_alpha   90.00000000
_cell_angle_beta   90.00000000
_cell_angle_gamma   119.85846527
_symmetry_Int_Tables_number   1
_chemical_formula_structural   Mg2Fe8Co4P7
_chemical_formula_sum   'Mg2 Fe8 Co4 P7'
_cell_volume   243.89146541
_cell_formula_units_Z   1
loop_
 _symmetry_equiv_pos_site_id
 _symmetry_equiv_pos_as_xyz
  1  'x, y, z'
loop_
 _atom_site_type_symbol
 _atom_site_label
 _atom_site_symmetry_multiplicity
 _atom_site_fract_x
 _atom_site_fract_y
 _atom_site_fract_z
 _atom_site_occupancy
  Mg  Mg0  1  0.999131  0.998691  0.000000  1
  Mg  Mg1  1  0.334171  0.667723  0.500000  1
  Fe  Fe2  1  0.055266  0.770716  0.500000  1
  Fe  Fe3  1  0.717520  0.945246  0.500000  1
  Fe  Fe4  1  0.888730  0.430750  0.500000  1
  Fe  Fe5  1  0.542572  0.112996  0.500000  1
  Fe  Fe6  1  0.567711  0.458821  0.500000  1
  Fe  Fe7  1  0.388624  0.213146  0.000000  1
  Fe  Fe8  1  0.787215  0.179376  0.000000  1
  Fe  Fe9  1  0.820792  0.606015  0.000000  1
  Co  Co10  1  0.603657  0.705359  0.000000  1
  Co  Co11  1  0.295692  0.899319  0.000000  1
  Co  Co12  1  0.103325  0.396910  0.000000  1
  Co  Co13  1  0.226564  0.281620  0.500000  1
  P  P14  1  0.260838  0.044591  0.500000  1
  P  P15  1  0.952207  0.213104  0.500000  1
  P  P16  1  0.786716  0.739279  0.500000  1
  P  P17  1  0.373449  0.449974  0.000000  1
  P  P18  1  0.553452  0.924806  0.000000  1
  P  P19  1  0.077800  0.629030  0.000000  1
  P  P20  1  0.664570  0.332530  0.000000  1
