# generated using pymatgen
data_Sr2NpPaH12
_symmetry_space_group_name_H-M   'P 1'
_cell_length_a   6.87079600
_cell_length_b   6.96300000
_cell_length_c   6.87079600
_cell_angle_alpha   90.00000000
_cell_angle_beta   90.00000000
_cell_angle_gamma   90.00000000
_symmetry_Int_Tables_number   1
_chemical_formula_structural   Sr2NpPaH12
_chemical_formula_sum   'Sr4 Np2 Pa2 H24'
_cell_volume   328.70817372
_cell_formula_units_Z   2
loop_
 _symmetry_equiv_pos_site_id
 _symmetry_equiv_pos_as_xyz
  1  'x, y, z'
loop_
 _atom_site_type_symbol
 _atom_site_label
 _atom_site_symmetry_multiplicity
 _atom_site_fract_x
 _atom_site_fract_y
 _atom_site_fract_z
 _atom_site_occupancy
  Sr  Sr0  1  0.249753  0.000000  0.500000  1
  Sr  Sr1  1  0.750247  0.000000  0.500000  1
  Sr  Sr2  1  0.000000  0.500000  0.250247  1
  Sr  Sr3  1  0.000000  0.500000  0.749753  1
  Np  Np4  1  0.500000  0.750000  0.000000  1
  Np  Np5  1  0.500000  0.250000  0.000000  1
  Pa  Pa6  1  0.000000  0.000000  0.000000  1
  Pa  Pa7  1  0.500000  0.500000  0.500000  1
  H  H8  1  0.000000  0.146995  0.277313  1
  H  H9  1  0.500000  0.226434  0.665293  1
  H  H10  1  0.500000  0.773566  0.334707  1
  H  H11  1  0.777313  0.646995  0.500000  1
  H  H12  1  0.222687  0.646995  0.500000  1
  H  H13  1  0.360635  0.500000  0.806491  1
  H  H14  1  0.639365  0.500000  0.806491  1
  H  H15  1  0.306491  0.000000  0.139365  1
  H  H16  1  0.165293  0.273566  0.000000  1
  H  H17  1  0.834707  0.726434  0.000000  1
  H  H18  1  0.306491  0.000000  0.860635  1
  H  H19  1  0.834707  0.273566  0.000000  1
  H  H20  1  0.693509  0.000000  0.139365  1
  H  H21  1  0.693509  0.000000  0.860635  1
  H  H22  1  0.165293  0.726434  0.000000  1
  H  H23  1  0.000000  0.853005  0.722687  1
  H  H24  1  0.000000  0.146995  0.722687  1
  H  H25  1  0.000000  0.853005  0.277313  1
  H  H26  1  0.639365  0.500000  0.193509  1
  H  H27  1  0.360635  0.500000  0.193509  1
  H  H28  1  0.777313  0.353005  0.500000  1
  H  H29  1  0.222687  0.353005  0.500000  1
  H  H30  1  0.500000  0.773566  0.665293  1
  H  H31  1  0.500000  0.226434  0.334707  1
