# generated using pymatgen
data_Tb2Y4MgCo17P12
_symmetry_space_group_name_H-M   'P 1'
_cell_length_a   3.72056200
_cell_length_b   10.57816400
_cell_length_c   12.24736700
_cell_angle_alpha   90.00000000
_cell_angle_beta   90.00000000
_cell_angle_gamma   90.00000000
_symmetry_Int_Tables_number   1
_chemical_formula_structural   Tb2Y4MgCo17P12
_chemical_formula_sum   'Tb2 Y4 Mg1 Co17 P12'
_cell_volume   482.01613262
_cell_formula_units_Z   1
loop_
 _symmetry_equiv_pos_site_id
 _symmetry_equiv_pos_as_xyz
  1  'x, y, z'
loop_
 _atom_site_type_symbol
 _atom_site_label
 _atom_site_symmetry_multiplicity
 _atom_site_fract_x
 _atom_site_fract_y
 _atom_site_fract_z
 _atom_site_occupancy
  Tb  Tb0  1  0.000000  0.500000  0.525251  1
  Tb  Tb1  1  0.500000  0.000000  0.478612  1
  Y  Y2  1  0.500000  0.821391  0.207184  1
  Y  Y3  1  0.500000  0.178609  0.207184  1
  Y  Y4  1  0.000000  0.682931  0.794527  1
  Y  Y5  1  0.000000  0.317069  0.794527  1
  Mg  Mg6  1  0.500000  0.500000  0.153082  1
  Co  Co7  1  0.000000  0.000000  0.839423  1
  Co  Co8  1  0.500000  0.500000  0.704019  1
  Co  Co9  1  0.000000  0.000000  0.296362  1
  Co  Co10  1  0.000000  0.500000  0.985833  1
  Co  Co11  1  0.500000  0.000000  0.012313  1
  Co  Co12  1  0.500000  0.329222  0.992804  1
  Co  Co13  1  0.500000  0.670778  0.992804  1
  Co  Co14  1  0.000000  0.162990  0.001905  1
  Co  Co15  1  0.000000  0.837010  0.001905  1
  Co  Co16  1  0.500000  0.295738  0.432758  1
  Co  Co17  1  0.500000  0.704262  0.432758  1
  Co  Co18  1  0.000000  0.202149  0.570531  1
  Co  Co19  1  0.000000  0.797851  0.570531  1
  Co  Co20  1  0.500000  0.880328  0.709087  1
  Co  Co21  1  0.500000  0.119672  0.709087  1
  Co  Co22  1  0.000000  0.622659  0.293079  1
  Co  Co23  1  0.000000  0.377341  0.293079  1
  P  P24  1  0.500000  0.500000  0.883106  1
  P  P25  1  0.000000  0.000000  0.116441  1
  P  P26  1  0.500000  0.500000  0.353313  1
  P  P27  1  0.000000  0.000000  0.656179  1
  P  P28  1  0.500000  0.309036  0.617002  1
  P  P29  1  0.500000  0.690964  0.617002  1
  P  P30  1  0.000000  0.189647  0.385869  1
  P  P31  1  0.000000  0.810353  0.385869  1
  P  P32  1  0.500000  0.849861  0.890542  1
  P  P33  1  0.500000  0.150139  0.890542  1
  P  P34  1  0.000000  0.662736  0.102743  1
  P  P35  1  0.000000  0.337264  0.102743  1
