# generated using pymatgen
data_PrNdEr2(ReB6)2
_symmetry_space_group_name_H-M   'P 1'
_cell_length_a   3.72455800
_cell_length_b   9.24008506
_cell_length_c   11.70865107
_cell_angle_alpha   89.98717307
_cell_angle_beta   90.00000000
_cell_angle_gamma   90.00000000
_symmetry_Int_Tables_number   1
_chemical_formula_structural   PrNdEr2(ReB6)2
_chemical_formula_sum   'Pr2 Nd2 Er4 Re4 B24'
_cell_volume   402.95594146
_cell_formula_units_Z   2
loop_
 _symmetry_equiv_pos_site_id
 _symmetry_equiv_pos_as_xyz
  1  'x, y, z'
loop_
 _atom_site_type_symbol
 _atom_site_label
 _atom_site_symmetry_multiplicity
 _atom_site_fract_x
 _atom_site_fract_y
 _atom_site_fract_z
 _atom_site_occupancy
  Pr  Pr0  1  0.000000  0.322368  0.414249  1
  Pr  Pr1  1  0.000000  0.677632  0.585751  1
  Nd  Nd2  1  0.000000  0.822669  0.085603  1
  Nd  Nd3  1  0.000000  0.177331  0.914397  1
  Er  Er4  1  0.000000  0.942937  0.369154  1
  Er  Er5  1  0.000000  0.057063  0.630846  1
  Er  Er6  1  0.000000  0.443001  0.130416  1
  Er  Er7  1  0.000000  0.556999  0.869584  1
  Re  Re8  1  0.000000  0.640218  0.318457  1
  Re  Re9  1  0.000000  0.359782  0.681543  1
  Re  Re10  1  0.000000  0.139667  0.180759  1
  Re  Re11  1  0.000000  0.860333  0.819241  1
  B  B12  1  0.500000  0.555599  0.429799  1
  B  B13  1  0.500000  0.444401  0.570201  1
  B  B14  1  0.500000  0.055194  0.069615  1
  B  B15  1  0.500000  0.944806  0.930385  1
  B  B16  1  0.500000  0.750465  0.415234  1
  B  B17  1  0.500000  0.249535  0.584766  1
  B  B18  1  0.500000  0.250288  0.084133  1
  B  B19  1  0.500000  0.749712  0.915867  1
  B  B20  1  0.500000  0.791875  0.265802  1
  B  B21  1  0.500000  0.208125  0.734198  1
  B  B22  1  0.500000  0.291533  0.233560  1
  B  B23  1  0.500000  0.708467  0.766440  1
  B  B24  1  0.500000  0.629610  0.185955  1
  B  B25  1  0.500000  0.370390  0.814045  1
  B  B26  1  0.500000  0.129189  0.313409  1
  B  B27  1  0.500000  0.870811  0.686591  1
  B  B28  1  0.500000  0.983710  0.213198  1
  B  B29  1  0.500000  0.016290  0.786802  1
  B  B30  1  0.500000  0.484162  0.286278  1
  B  B31  1  0.500000  0.515838  0.713722  1
  B  B32  1  0.500000  0.595899  0.026411  1
  B  B33  1  0.500000  0.404101  0.973589  1
  B  B34  1  0.500000  0.095169  0.473748  1
  B  B35  1  0.500000  0.904831  0.526252  1
