# generated using pymatgen
data_Sm8Si15Pt
_symmetry_space_group_name_H-M   'P 1'
_cell_length_a   8.19498300
_cell_length_b   8.19498408
_cell_length_c   8.22877800
_cell_angle_alpha   90.00000000
_cell_angle_beta   90.00000000
_cell_angle_gamma   119.99999159
_symmetry_Int_Tables_number   1
_chemical_formula_structural   Sm8Si15Pt
_chemical_formula_sum   'Sm8 Si15 Pt1'
_cell_volume   478.58841950
_cell_formula_units_Z   1
loop_
 _symmetry_equiv_pos_site_id
 _symmetry_equiv_pos_as_xyz
  1  'x, y, z'
loop_
 _atom_site_type_symbol
 _atom_site_label
 _atom_site_symmetry_multiplicity
 _atom_site_fract_x
 _atom_site_fract_y
 _atom_site_fract_z
 _atom_site_occupancy
  Sm  Sm0  1  0.497957  0.502043  0.755570  1
  Sm  Sm1  1  0.498206  0.501794  0.244390  1
  Sm  Sm2  1  0.004085  0.502043  0.755570  1
  Sm  Sm3  1  0.003587  0.501794  0.244390  1
  Sm  Sm4  1  0.497957  0.995915  0.755570  1
  Sm  Sm5  1  0.498206  0.996413  0.244390  1
  Sm  Sm6  1  0.000000  0.000000  0.750745  1
  Sm  Sm7  1  0.000000  0.000000  0.249337  1
  Si  Si8  1  0.666667  0.333333  0.999512  1
  Si  Si9  1  0.333333  0.666667  0.000348  1
  Si  Si10  1  0.333333  0.666667  0.499820  1
  Si  Si11  1  0.833782  0.166218  0.000034  1
  Si  Si12  1  0.167707  0.832293  0.000010  1
  Si  Si13  1  0.332435  0.166218  0.000034  1
  Si  Si14  1  0.164552  0.835448  0.499855  1
  Si  Si15  1  0.664587  0.832293  0.000010  1
  Si  Si16  1  0.832281  0.167719  0.500167  1
  Si  Si17  1  0.833782  0.667565  0.000034  1
  Si  Si18  1  0.670896  0.835448  0.499855  1
  Si  Si19  1  0.167707  0.335413  0.000010  1
  Si  Si20  1  0.335437  0.167719  0.500167  1
  Si  Si21  1  0.164552  0.329104  0.499855  1
  Si  Si22  1  0.832281  0.664563  0.500167  1
  Pt  Pt23  1  0.666667  0.333333  0.500159  1
