# generated using pymatgen
data_Ca4Zr4Ta4VGa3O28
_symmetry_space_group_name_H-M   'P 1'
_cell_length_a   7.42549242
_cell_length_b   7.42795021
_cell_length_c   11.49512800
_cell_angle_alpha   80.50816011
_cell_angle_beta   80.49937997
_cell_angle_gamma   60.36263685
_symmetry_Int_Tables_number   1
_chemical_formula_structural   Ca4Zr4Ta4VGa3O28
_chemical_formula_sum   'Ca4 Zr4 Ta4 V1 Ga3 O28'
_cell_volume   540.94946041
_cell_formula_units_Z   1
loop_
 _symmetry_equiv_pos_site_id
 _symmetry_equiv_pos_as_xyz
  1  'x, y, z'
loop_
 _atom_site_type_symbol
 _atom_site_label
 _atom_site_symmetry_multiplicity
 _atom_site_fract_x
 _atom_site_fract_y
 _atom_site_fract_z
 _atom_site_occupancy
  Ca  Ca0  1  0.251869  0.499629  0.002247  1
  Ca  Ca1  1  0.500771  0.748023  0.497621  1
  Ca  Ca2  1  0.747334  0.500912  0.997424  1
  Ca  Ca3  1  0.498677  0.252754  0.502804  1
  Zr  Zr4  1  0.985507  0.237553  0.528430  1
  Zr  Zr5  1  0.762640  0.014077  0.971554  1
  Zr  Zr6  1  0.015105  0.761590  0.473524  1
  Zr  Zr7  1  0.238200  0.985260  0.026509  1
  Ta  Ta8  1  0.124573  0.369336  0.753950  1
  Ta  Ta9  1  0.630484  0.874792  0.746126  1
  Ta  Ta10  1  0.876374  0.629467  0.246649  1
  Ta  Ta11  1  0.370653  0.124295  0.253275  1
  V  V12  1  0.865456  0.134771  0.250134  1
  Ga  Ga13  1  0.134913  0.864907  0.749911  1
  Ga  Ga14  1  0.458057  0.542255  0.249944  1
  Ga  Ga15  1  0.538969  0.460921  0.750071  1
  O  O16  1  0.529253  0.883973  0.916849  1
  O  O17  1  0.116067  0.470740  0.583252  1
  O  O18  1  0.472154  0.116392  0.082894  1
  O  O19  1  0.883608  0.527457  0.417048  1
  O  O20  1  0.240704  0.553241  0.780331  1
  O  O21  1  0.446285  0.758969  0.719761  1
  O  O22  1  0.755859  0.450963  0.218890  1
  O  O23  1  0.550465  0.244030  0.280659  1
  O  O24  1  0.058886  0.164347  0.708762  1
  O  O25  1  0.835937  0.939825  0.791210  1
  O  O26  1  0.944250  0.831216  0.293177  1
  O  O27  1  0.168030  0.056990  0.207110  1
  O  O28  1  0.339135  0.609334  0.400163  1
  O  O29  1  0.390450  0.661683  0.099852  1
  O  O30  1  0.660466  0.391929  0.600627  1
  O  O31  1  0.607875  0.338938  0.899383  1
  O  O32  1  0.879878  0.126603  0.075624  1
  O  O33  1  0.873315  0.119731  0.424531  1
  O  O34  1  0.120928  0.874261  0.920392  1
  O  O35  1  0.126250  0.879074  0.579364  1
  O  O36  1  0.129358  0.282957  0.928745  1
  O  O37  1  0.717283  0.870103  0.571341  1
  O  O38  1  0.871151  0.717737  0.071180  1
  O  O39  1  0.282008  0.129657  0.428652  1
  O  O40  1  0.165336  0.427258  0.212327  1
  O  O41  1  0.573646  0.835985  0.287781  1
  O  O42  1  0.834496  0.571667  0.787051  1
  O  O43  1  0.427345  0.164399  0.712870  1
