# generated using pymatgen
data_Yb6Pr11Y3Sn16
_symmetry_space_group_name_H-M   'P 1'
_cell_length_a   8.06957458
_cell_length_b   8.48157039
_cell_length_c   16.00887171
_cell_angle_alpha   90.11583511
_cell_angle_beta   89.82298315
_cell_angle_gamma   90.10022104
_symmetry_Int_Tables_number   1
_chemical_formula_structural   Yb6Pr11Y3Sn16
_chemical_formula_sum   'Yb6 Pr11 Y3 Sn16'
_cell_volume   1095.68070724
_cell_formula_units_Z   1
loop_
 _symmetry_equiv_pos_site_id
 _symmetry_equiv_pos_as_xyz
  1  'x, y, z'
loop_
 _atom_site_type_symbol
 _atom_site_label
 _atom_site_symmetry_multiplicity
 _atom_site_fract_x
 _atom_site_fract_y
 _atom_site_fract_z
 _atom_site_occupancy
  Yb  Yb0  1  0.170072  0.330605  0.123671  1
  Yb  Yb1  1  0.668194  0.170094  0.124123  1
  Yb  Yb2  1  0.160700  0.498019  0.750905  1
  Yb  Yb3  1  0.660727  0.001867  0.749843  1
  Yb  Yb4  1  0.839734  0.499264  0.248193  1
  Yb  Yb5  1  0.338757  0.000792  0.247420  1
  Pr  Pr6  1  0.166340  0.324780  0.374999  1
  Pr  Pr7  1  0.333412  0.827668  0.624822  1
  Pr  Pr8  1  0.832775  0.672119  0.876080  1
  Pr  Pr9  1  0.491284  0.316806  0.904391  1
  Pr  Pr10  1  0.989027  0.182907  0.596763  1
  Pr  Pr11  1  0.510765  0.684261  0.403641  1
  Pr  Pr12  1  0.011403  0.815406  0.097036  1
  Pr  Pr13  1  0.509887  0.682607  0.095908  1
  Pr  Pr14  1  0.008510  0.817191  0.404160  1
  Pr  Pr15  1  0.490197  0.317998  0.596242  1
  Pr  Pr16  1  0.990824  0.183263  0.904330  1
  Y  Y17  1  0.329766  0.830219  0.875728  1
  Y  Y18  1  0.830810  0.671128  0.624874  1
  Y  Y19  1  0.667158  0.173065  0.375492  1
  Sn  Sn20  1  0.327248  0.035510  0.037867  1
  Sn  Sn21  1  0.821483  0.462670  0.462851  1
  Sn  Sn22  1  0.679303  0.961960  0.536163  1
  Sn  Sn23  1  0.175382  0.537566  0.961345  1
  Sn  Sn24  1  0.665062  0.963979  0.961353  1
  Sn  Sn25  1  0.166864  0.537622  0.538254  1
  Sn  Sn26  1  0.331744  0.037628  0.460633  1
  Sn  Sn27  1  0.830104  0.461485  0.040008  1
  Sn  Sn28  1  0.527937  0.608742  0.750145  1
  Sn  Sn29  1  0.028170  0.893199  0.751284  1
  Sn  Sn30  1  0.472746  0.392137  0.249370  1
  Sn  Sn31  1  0.966407  0.105243  0.250477  1
  Sn  Sn32  1  0.291928  0.140502  0.750759  1
  Sn  Sn33  1  0.791351  0.359466  0.749306  1
  Sn  Sn34  1  0.710257  0.861592  0.250905  1
  Sn  Sn35  1  0.213673  0.640642  0.250657  1
