# generated using pymatgen
data_LaNd3Er2Ta2O14
_symmetry_space_group_name_H-M   'P 1'
_cell_length_a   6.60151288
_cell_length_b   6.58157622
_cell_length_c   7.68066500
_cell_angle_alpha   89.99873873
_cell_angle_beta   90.00062045
_cell_angle_gamma   109.21445004
_symmetry_Int_Tables_number   1
_chemical_formula_structural   LaNd3Er2Ta2O14
_chemical_formula_sum   'La1 Nd3 Er2 Ta2 O14'
_cell_volume   315.12232206
_cell_formula_units_Z   1
loop_
 _symmetry_equiv_pos_site_id
 _symmetry_equiv_pos_as_xyz
  1  'x, y, z'
loop_
 _atom_site_type_symbol
 _atom_site_label
 _atom_site_symmetry_multiplicity
 _atom_site_fract_x
 _atom_site_fract_y
 _atom_site_fract_z
 _atom_site_occupancy
  La  La0  1  0.500000  0.500000  0.500000  1
  Nd  Nd1  1  0.500000  0.500000  0.000000  1
  Nd  Nd2  1  0.534363  0.999059  0.750989  1
  Nd  Nd3  1  0.465637  0.000941  0.249011  1
  Er  Er4  1  0.001334  0.530722  0.248981  1
  Er  Er5  1  0.998666  0.469278  0.751019  1
  Ta  Ta6  1  0.000000  0.000000  0.500000  1
  Ta  Ta7  1  0.000000  0.000000  0.000000  1
  O  O8  1  0.944621  0.067369  0.750099  1
  O  O9  1  0.055379  0.932631  0.249901  1
  O  O10  1  0.350681  0.631751  0.247275  1
  O  O11  1  0.649319  0.368249  0.752725  1
  O  O12  1  0.354118  0.621437  0.753137  1
  O  O13  1  0.645882  0.378563  0.246863  1
  O  O14  1  0.319785  0.085459  0.972753  1
  O  O15  1  0.680942  0.918634  0.472256  1
  O  O16  1  0.319058  0.081366  0.527744  1
  O  O17  1  0.680215  0.914541  0.027247  1
  O  O18  1  0.048859  0.312374  0.463273  1
  O  O19  1  0.950688  0.687789  0.963484  1
  O  O20  1  0.951141  0.687626  0.536727  1
  O  O21  1  0.049312  0.312211  0.036516  1
