# generated using pymatgen
data_Lu3GaP2Rh3
_symmetry_space_group_name_H-M   'P 1'
_cell_length_a   6.79466600
_cell_length_b   6.79466655
_cell_length_c   3.83646800
_cell_angle_alpha   90.00000000
_cell_angle_beta   90.00000000
_cell_angle_gamma   119.99999733
_symmetry_Int_Tables_number   1
_chemical_formula_structural   Lu3GaP2Rh3
_chemical_formula_sum   'Lu3 Ga1 P2 Rh3'
_cell_volume   153.39050781
_cell_formula_units_Z   1
loop_
 _symmetry_equiv_pos_site_id
 _symmetry_equiv_pos_as_xyz
  1  'x, y, z'
loop_
 _atom_site_type_symbol
 _atom_site_label
 _atom_site_symmetry_multiplicity
 _atom_site_fract_x
 _atom_site_fract_y
 _atom_site_fract_z
 _atom_site_occupancy
  Lu  Lu0  1  0.582673  0.000000  0.500000  1
  Lu  Lu1  1  0.417328  0.417328  0.500000  1
  Lu  Lu2  1  0.000000  0.582673  0.500000  1
  Ga  Ga3  1  0.000000  0.000000  0.500000  1
  P  P4  1  0.666666  0.333333  0.000000  1
  P  P5  1  0.333333  0.666667  0.000000  1
  Rh  Rh6  1  0.252254  0.000000  0.000000  1
  Rh  Rh7  1  0.000000  0.252253  0.000000  1
  Rh  Rh8  1  0.747747  0.747746  0.000000  1
