# generated using pymatgen
data_Eu6Cl13
_symmetry_space_group_name_H-M   'P 1'
_cell_length_a   21.27230423
_cell_length_b   21.27230361
_cell_length_c   7.14449000
_cell_angle_alpha   81.38436956
_cell_angle_beta   81.38436981
_cell_angle_gamma   19.27761903
_symmetry_Int_Tables_number   1
_chemical_formula_structural   Eu6Cl13
_chemical_formula_sum   'Eu12 Cl26'
_cell_volume   1054.95386170
_cell_formula_units_Z   2
loop_
 _symmetry_equiv_pos_site_id
 _symmetry_equiv_pos_as_xyz
  1  'x, y, z'
loop_
 _atom_site_type_symbol
 _atom_site_label
 _atom_site_symmetry_multiplicity
 _atom_site_fract_x
 _atom_site_fract_y
 _atom_site_fract_z
 _atom_site_occupancy
  Eu  Eu0  1  0.025454  0.567179  0.280743  1
  Eu  Eu1  1  0.974546  0.432821  0.719257  1
  Eu  Eu2  1  0.432821  0.974546  0.219257  1
  Eu  Eu3  1  0.567179  0.025454  0.780743  1
  Eu  Eu4  1  0.796994  0.279572  0.919573  1
  Eu  Eu5  1  0.203006  0.720428  0.080427  1
  Eu  Eu6  1  0.720428  0.203006  0.580427  1
  Eu  Eu7  1  0.279572  0.796994  0.419573  1
  Eu  Eu8  1  0.887104  0.351836  0.411026  1
  Eu  Eu9  1  0.112896  0.648164  0.588974  1
  Eu  Eu10  1  0.648164  0.112896  0.088974  1
  Eu  Eu11  1  0.351836  0.887104  0.911026  1
  Cl  Cl12  1  0.885783  0.793564  0.915882  1
  Cl  Cl13  1  0.114217  0.206436  0.084118  1
  Cl  Cl14  1  0.206436  0.114217  0.584118  1
  Cl  Cl15  1  0.793564  0.885783  0.415882  1
  Cl  Cl16  1  0.204898  0.277178  0.394265  1
  Cl  Cl17  1  0.795102  0.722822  0.605735  1
  Cl  Cl18  1  0.722822  0.795102  0.105735  1
  Cl  Cl19  1  0.277178  0.204898  0.894265  1
  Cl  Cl20  1  0.751963  0.607595  0.414265  1
  Cl  Cl21  1  0.248037  0.392405  0.585735  1
  Cl  Cl22  1  0.392405  0.248037  0.085735  1
  Cl  Cl23  1  0.607595  0.751963  0.914265  1
  Cl  Cl24  1  0.589884  0.343316  0.952264  1
  Cl  Cl25  1  0.410116  0.656684  0.047736  1
  Cl  Cl26  1  0.656684  0.410116  0.547736  1
  Cl  Cl27  1  0.343316  0.589884  0.452264  1
  Cl  Cl28  1  0.047374  0.952626  0.750000  1
  Cl  Cl29  1  0.952626  0.047374  0.250000  1
  Cl  Cl30  1  0.964648  0.876941  0.840345  1
  Cl  Cl31  1  0.035352  0.123059  0.159655  1
  Cl  Cl32  1  0.123059  0.035352  0.659655  1
  Cl  Cl33  1  0.876941  0.964648  0.340345  1
  Cl  Cl34  1  0.705934  0.503261  0.786595  1
  Cl  Cl35  1  0.294066  0.496739  0.213405  1
  Cl  Cl36  1  0.496739  0.294066  0.713405  1
  Cl  Cl37  1  0.503261  0.705934  0.286595  1
