# generated using pymatgen
data_Rb12Li8Ti3SnAs12
_symmetry_space_group_name_H-M   'P 1'
_cell_length_a   10.34277177
_cell_length_b   10.34276860
_cell_length_c   15.95381538
_cell_angle_alpha   90.03808731
_cell_angle_beta   90.03808512
_cell_angle_gamma   143.04025639
_symmetry_Int_Tables_number   1
_chemical_formula_structural   Rb12Li8Ti3SnAs12
_chemical_formula_sum   'Rb12 Li8 Ti3 Sn1 As12'
_cell_volume   1026.11291393
_cell_formula_units_Z   1
loop_
 _symmetry_equiv_pos_site_id
 _symmetry_equiv_pos_as_xyz
  1  'x, y, z'
loop_
 _atom_site_type_symbol
 _atom_site_label
 _atom_site_symmetry_multiplicity
 _atom_site_fract_x
 _atom_site_fract_y
 _atom_site_fract_z
 _atom_site_occupancy
  Rb  Rb0  1  0.604388  0.945812  0.828000  1
  Rb  Rb1  1  0.280562  0.280786  0.324131  1
  Rb  Rb2  1  0.224139  0.222305  0.820439  1
  Rb  Rb3  1  0.719214  0.719438  0.675869  1
  Rb  Rb4  1  0.444266  0.103423  0.668542  1
  Rb  Rb5  1  0.896577  0.555734  0.331458  1
  Rb  Rb6  1  0.054188  0.395612  0.172000  1
  Rb  Rb7  1  0.403222  0.064627  0.172898  1
  Rb  Rb8  1  0.555553  0.896275  0.329761  1
  Rb  Rb9  1  0.103725  0.444447  0.670239  1
  Rb  Rb10  1  0.935373  0.596778  0.827102  1
  Rb  Rb11  1  0.777695  0.775861  0.179561  1
  Li  Li12  1  0.084251  0.915749  0.000000  1
  Li  Li13  1  0.581999  0.418001  0.500000  1
  Li  Li14  1  0.917223  0.082777  0.000000  1
  Li  Li15  1  0.752634  0.247366  0.000000  1
  Li  Li16  1  0.750172  0.249828  0.500000  1
  Li  Li17  1  0.249289  0.750711  0.000000  1
  Li  Li18  1  0.250032  0.749968  0.500000  1
  Li  Li19  1  0.417876  0.582124  0.500000  1
  Ti  Ti20  1  0.086382  0.913618  0.500000  1
  Ti  Ti21  1  0.414728  0.585272  0.000000  1
  Ti  Ti22  1  0.913540  0.086460  0.500000  1
  Sn  Sn23  1  0.585748  0.414252  0.000000  1
  As  As24  1  0.067088  0.387113  0.414960  1
  As  As25  1  0.902755  0.576477  0.093434  1
  As  As26  1  0.423523  0.097245  0.906566  1
  As  As27  1  0.612887  0.932912  0.585040  1
  As  As28  1  0.932873  0.612778  0.584974  1
  As  As29  1  0.116591  0.435610  0.914065  1
  As  As30  1  0.564390  0.883409  0.085935  1
  As  As31  1  0.387222  0.067127  0.415026  1
  As  As32  1  0.217831  0.217964  0.580473  1
  As  As33  1  0.721251  0.731223  0.911733  1
  As  As34  1  0.268777  0.278749  0.088267  1
  As  As35  1  0.782036  0.782169  0.419527  1
