# generated using pymatgen
data_La3(Cd2Pb)2
_symmetry_space_group_name_H-M   'P 1'
_cell_length_a   7.94188800
_cell_length_b   7.94188907
_cell_length_c   4.77329800
_cell_angle_alpha   90.00000000
_cell_angle_beta   90.00000000
_cell_angle_gamma   119.99999553
_symmetry_Int_Tables_number   1
_chemical_formula_structural   La3(Cd2Pb)2
_chemical_formula_sum   'La3 Cd4 Pb2'
_cell_volume   260.73346408
_cell_formula_units_Z   1
loop_
 _symmetry_equiv_pos_site_id
 _symmetry_equiv_pos_as_xyz
  1  'x, y, z'
loop_
 _atom_site_type_symbol
 _atom_site_label
 _atom_site_symmetry_multiplicity
 _atom_site_fract_x
 _atom_site_fract_y
 _atom_site_fract_z
 _atom_site_occupancy
  La  La0  1  0.580022  0.000000  0.000000  1
  La  La1  1  0.000000  0.580022  0.000000  1
  La  La2  1  0.419978  0.419978  0.000000  1
  Cd  Cd3  1  0.234421  0.000000  0.500000  1
  Cd  Cd4  1  0.000000  0.234421  0.500000  1
  Cd  Cd5  1  0.765579  0.765579  0.500000  1
  Cd  Cd6  1  0.000000  0.000000  0.000000  1
  Pb  Pb7  1  0.333333  0.666667  0.500000  1
  Pb  Pb8  1  0.666667  0.333333  0.500000  1
