# generated using pymatgen
data_Y17Ho3CoBi8Ru3
_symmetry_space_group_name_H-M   'P 1'
_cell_length_a   8.00654210
_cell_length_b   9.00571514
_cell_length_c   12.46487761
_cell_angle_alpha   89.99224128
_cell_angle_beta   89.76446082
_cell_angle_gamma   89.98102541
_symmetry_Int_Tables_number   1
_chemical_formula_structural   Y17Ho3CoBi8Ru3
_chemical_formula_sum   'Y17 Ho3 Co1 Bi8 Ru3'
_cell_volume   898.76782916
_cell_formula_units_Z   1
loop_
 _symmetry_equiv_pos_site_id
 _symmetry_equiv_pos_as_xyz
  1  'x, y, z'
loop_
 _atom_site_type_symbol
 _atom_site_label
 _atom_site_symmetry_multiplicity
 _atom_site_fract_x
 _atom_site_fract_y
 _atom_site_fract_z
 _atom_site_occupancy
  Y  Y0  1  0.345005  0.750443  0.701982  1
  Y  Y1  1  0.656858  0.249754  0.292978  1
  Y  Y2  1  0.843453  0.249586  0.792079  1
  Y  Y3  1  0.155121  0.750399  0.206147  1
  Y  Y4  1  0.878951  0.750530  0.806178  1
  Y  Y5  1  0.120403  0.249567  0.193269  1
  Y  Y6  1  0.378916  0.249642  0.692842  1
  Y  Y7  1  0.617334  0.750409  0.311448  1
  Y  Y8  1  0.676420  0.543273  0.564285  1
  Y  Y9  1  0.324271  0.462159  0.436416  1
  Y  Y10  1  0.176457  0.458232  0.935304  1
  Y  Y11  1  0.324369  0.037846  0.436460  1
  Y  Y12  1  0.823147  0.542660  0.064913  1
  Y  Y13  1  0.053598  0.750440  0.497177  1
  Y  Y14  1  0.947911  0.249464  0.503229  1
  Y  Y15  1  0.553856  0.249152  0.003438  1
  Y  Y16  1  0.446215  0.750862  0.995864  1
  Ho  Ho17  1  0.675015  0.956882  0.563779  1
  Ho  Ho18  1  0.824706  0.957553  0.064312  1
  Ho  Ho19  1  0.174860  0.041662  0.935886  1
  Co  Co20  1  0.430156  0.750517  0.491207  1
  Bi  Bi21  1  0.570832  0.508463  0.827093  1
  Bi  Bi22  1  0.428852  0.492269  0.172897  1
  Bi  Bi23  1  0.071846  0.491896  0.672069  1
  Bi  Bi24  1  0.428999  0.007830  0.173015  1
  Bi  Bi25  1  0.928718  0.508700  0.328320  1
  Bi  Bi26  1  0.570778  0.991520  0.826922  1
  Bi  Bi27  1  0.928695  0.991255  0.328176  1
  Bi  Bi28  1  0.071880  0.008169  0.672165  1
  Ru  Ru29  1  0.073178  0.751887  0.989140  1
  Ru  Ru30  1  0.925957  0.248099  0.010516  1
  Ru  Ru31  1  0.573241  0.248879  0.510494  1
