# generated using pymatgen
data_K5(MnS3)2
_symmetry_space_group_name_H-M   'P 1'
_cell_length_a   7.32715223
_cell_length_b   7.89816676
_cell_length_c   16.43700460
_cell_angle_alpha   89.77524692
_cell_angle_beta   99.82411122
_cell_angle_gamma   122.34072269
_symmetry_Int_Tables_number   1
_chemical_formula_structural   K5(MnS3)2
_chemical_formula_sum   'K10 Mn4 S12'
_cell_volume   787.51799762
_cell_formula_units_Z   2
loop_
 _symmetry_equiv_pos_site_id
 _symmetry_equiv_pos_as_xyz
  1  'x, y, z'
loop_
 _atom_site_type_symbol
 _atom_site_label
 _atom_site_symmetry_multiplicity
 _atom_site_fract_x
 _atom_site_fract_y
 _atom_site_fract_z
 _atom_site_occupancy
  K  K0  1  0.101495  0.788207  0.998464  1
  K  K1  1  0.887324  0.682119  0.501217  1
  K  K2  1  0.898505  0.211793  0.001536  1
  K  K3  1  0.112676  0.317881  0.498783  1
  K  K4  1  0.314714  0.061389  0.723768  1
  K  K5  1  0.684197  0.746191  0.776358  1
  K  K6  1  0.685286  0.938611  0.276232  1
  K  K7  1  0.315803  0.253809  0.223642  1
  K  K8  1  0.999210  0.362852  0.748101  1
  K  K9  1  0.000790  0.637148  0.251899  1
  Mn  Mn10  1  0.539433  0.915707  0.566332  1
  Mn  Mn11  1  0.455176  0.361023  0.926270  1
  Mn  Mn12  1  0.460567  0.084293  0.433668  1
  Mn  Mn13  1  0.544824  0.638977  0.073730  1
  S  S14  1  0.860133  0.975324  0.624634  1
  S  S15  1  0.121245  0.105072  0.872819  1
  S  S16  1  0.139867  0.024676  0.375366  1
  S  S17  1  0.878755  0.894928  0.127181  1
  S  S18  1  0.304776  0.698483  0.637845  1
  S  S19  1  0.710880  0.399028  0.858802  1
  S  S20  1  0.695224  0.301517  0.362155  1
  S  S21  1  0.289120  0.600972  0.141198  1
  S  S22  1  0.553582  0.202386  0.564843  1
  S  S23  1  0.444993  0.641621  0.936981  1
  S  S24  1  0.446418  0.797614  0.435157  1
  S  S25  1  0.555007  0.358379  0.063019  1
