# generated using pymatgen
data_Sm2Y2ReTcB12
_symmetry_space_group_name_H-M   'P 1'
_cell_length_a   3.71362400
_cell_length_b   9.22353261
_cell_length_c   11.64490403
_cell_angle_alpha   89.94490329
_cell_angle_beta   90.00000000
_cell_angle_gamma   90.00000000
_symmetry_Int_Tables_number   1
_chemical_formula_structural   Sm2Y2ReTcB12
_chemical_formula_sum   'Sm4 Y4 Re2 Tc2 B24'
_cell_volume   398.86959348
_cell_formula_units_Z   2
loop_
 _symmetry_equiv_pos_site_id
 _symmetry_equiv_pos_as_xyz
  1  'x, y, z'
loop_
 _atom_site_type_symbol
 _atom_site_label
 _atom_site_symmetry_multiplicity
 _atom_site_fract_x
 _atom_site_fract_y
 _atom_site_fract_z
 _atom_site_occupancy
  Sm  Sm0  1  0.000000  0.823609  0.085831  1
  Sm  Sm1  1  0.000000  0.176391  0.914169  1
  Sm  Sm2  1  0.000000  0.323239  0.414081  1
  Sm  Sm3  1  0.000000  0.676761  0.585919  1
  Y  Y4  1  0.000000  0.441761  0.130415  1
  Y  Y5  1  0.000000  0.558239  0.869585  1
  Y  Y6  1  0.000000  0.943279  0.369207  1
  Y  Y7  1  0.000000  0.056721  0.630793  1
  Re  Re8  1  0.000000  0.638699  0.319933  1
  Re  Re9  1  0.000000  0.361301  0.680067  1
  Tc  Tc10  1  0.000000  0.138911  0.180187  1
  Tc  Tc11  1  0.000000  0.861089  0.819813  1
  B  B12  1  0.500000  0.053989  0.068414  1
  B  B13  1  0.500000  0.946011  0.931587  1
  B  B14  1  0.500000  0.553930  0.431664  1
  B  B15  1  0.500000  0.446070  0.568335  1
  B  B16  1  0.500000  0.248468  0.082908  1
  B  B17  1  0.500000  0.751532  0.917092  1
  B  B18  1  0.500000  0.748995  0.417189  1
  B  B19  1  0.500000  0.251005  0.582811  1
  B  B20  1  0.500000  0.290947  0.234169  1
  B  B21  1  0.500000  0.709053  0.765831  1
  B  B22  1  0.500000  0.791218  0.265681  1
  B  B23  1  0.500000  0.208782  0.734319  1
  B  B24  1  0.500000  0.130160  0.313697  1
  B  B25  1  0.500000  0.869840  0.686303  1
  B  B26  1  0.500000  0.629871  0.185995  1
  B  B27  1  0.500000  0.370129  0.814005  1
  B  B28  1  0.500000  0.482886  0.287690  1
  B  B29  1  0.500000  0.517114  0.712310  1
  B  B30  1  0.500000  0.983204  0.212171  1
  B  B31  1  0.500000  0.016796  0.787829  1
  B  B32  1  0.500000  0.098329  0.472702  1
  B  B33  1  0.500000  0.901671  0.527298  1
  B  B34  1  0.500000  0.598185  0.027561  1
  B  B35  1  0.500000  0.401815  0.972439  1
