# generated using pymatgen
data_Sr3As5PIr6
_symmetry_space_group_name_H-M   'P 1'
_cell_length_a   6.97484777
_cell_length_b   7.01800695
_cell_length_c   7.35267110
_cell_angle_alpha   90.16087203
_cell_angle_beta   89.63752954
_cell_angle_gamma   119.53535668
_symmetry_Int_Tables_number   1
_chemical_formula_structural   Sr3As5PIr6
_chemical_formula_sum   'Sr3 As5 P1 Ir6'
_cell_volume   313.13382895
_cell_formula_units_Z   1
loop_
 _symmetry_equiv_pos_site_id
 _symmetry_equiv_pos_as_xyz
  1  'x, y, z'
loop_
 _atom_site_type_symbol
 _atom_site_label
 _atom_site_symmetry_multiplicity
 _atom_site_fract_x
 _atom_site_fract_y
 _atom_site_fract_z
 _atom_site_occupancy
  Sr  Sr0  1  0.997738  0.603777  0.835359  1
  Sr  Sr1  1  0.398518  0.401219  0.504542  1
  Sr  Sr2  1  0.603194  0.998283  0.163291  1
  As  As3  1  0.879120  0.222148  0.543282  1
  As  As4  1  0.221212  0.880288  0.459908  1
  As  As5  1  0.123961  0.343615  0.119714  1
  As  As6  1  0.776222  0.661598  0.209277  1
  As  As7  1  0.342654  0.121423  0.877354  1
  P  P8  1  0.666189  0.782168  0.787927  1
  Ir  Ir9  1  0.863725  0.867769  0.505307  1
  Ir  Ir10  1  0.127899  0.000649  0.169340  1
  Ir  Ir11  1  0.495014  0.501159  0.984328  1
  Ir  Ir12  1  0.997482  0.515365  0.334066  1
  Ir  Ir13  1  0.518292  0.986000  0.672118  1
  Ir  Ir14  1  0.988780  0.114539  0.834187  1
