# generated using pymatgen
data_Th3(SiRh)4
_symmetry_space_group_name_H-M   'P 1'
_cell_length_a   4.02725871
_cell_length_b   4.19161255
_cell_length_c   12.81081540
_cell_angle_alpha   80.58427802
_cell_angle_beta   80.95663915
_cell_angle_gamma   89.99999901
_symmetry_Int_Tables_number   1
_chemical_formula_structural   Th3(SiRh)4
_chemical_formula_sum   'Th3 Si4 Rh4'
_cell_volume   210.61677887
_cell_formula_units_Z   1
loop_
 _symmetry_equiv_pos_site_id
 _symmetry_equiv_pos_as_xyz
  1  'x, y, z'
loop_
 _atom_site_type_symbol
 _atom_site_label
 _atom_site_symmetry_multiplicity
 _atom_site_fract_x
 _atom_site_fract_y
 _atom_site_fract_z
 _atom_site_occupancy
  Th  Th0  1  0.000000  0.000000  0.000000  1
  Th  Th1  1  0.854476  0.354476  0.291050  1
  Th  Th2  1  0.145524  0.645524  0.708950  1
  Si  Si3  1  0.697415  0.197415  0.605172  1
  Si  Si4  1  0.302585  0.802585  0.394828  1
  Si  Si5  1  0.451979  0.451979  0.096042  1
  Si  Si6  1  0.548021  0.548021  0.903958  1
  Rh  Rh7  1  0.598203  0.098203  0.803594  1
  Rh  Rh8  1  0.401797  0.901797  0.196406  1
  Rh  Rh9  1  0.250041  0.250041  0.499919  1
  Rh  Rh10  1  0.749959  0.749959  0.500081  1
