# generated using pymatgen
data_Tb4Co17Re3SiP11
_symmetry_space_group_name_H-M   'P 1'
_cell_length_a   3.70815300
_cell_length_b   10.35667461
_cell_length_c   11.79490277
_cell_angle_alpha   89.97737346
_cell_angle_beta   90.00000000
_cell_angle_gamma   90.00000000
_symmetry_Int_Tables_number   1
_chemical_formula_structural   Tb4Co17Re3SiP11
_chemical_formula_sum   'Tb4 Co17 Re3 Si1 P11'
_cell_volume   452.97299161
_cell_formula_units_Z   1
loop_
 _symmetry_equiv_pos_site_id
 _symmetry_equiv_pos_as_xyz
  1  'x, y, z'
loop_
 _atom_site_type_symbol
 _atom_site_label
 _atom_site_symmetry_multiplicity
 _atom_site_fract_x
 _atom_site_fract_y
 _atom_site_fract_z
 _atom_site_occupancy
  Tb  Tb0  1  0.250000  0.581546  0.699497  1
  Tb  Tb1  1  0.250000  0.915816  0.205292  1
  Tb  Tb2  1  0.750000  0.413869  0.297659  1
  Tb  Tb3  1  0.750000  0.083391  0.794545  1
  Co  Co4  1  0.750000  0.215691  0.510144  1
  Co  Co5  1  0.250000  0.405485  0.488624  1
  Co  Co6  1  0.250000  0.094597  0.988800  1
  Co  Co7  1  0.750000  0.593297  0.509764  1
  Co  Co8  1  0.750000  0.906612  0.011220  1
  Co  Co9  1  0.250000  0.220400  0.176438  1
  Co  Co10  1  0.250000  0.277695  0.675982  1
  Co  Co11  1  0.750000  0.784576  0.821943  1
  Co  Co12  1  0.750000  0.721837  0.323442  1
  Co  Co13  1  0.250000  0.887576  0.700004  1
  Co  Co14  1  0.250000  0.613274  0.201528  1
  Co  Co15  1  0.750000  0.116255  0.301502  1
  Co  Co16  1  0.750000  0.382875  0.798347  1
  Co  Co17  1  0.250000  0.463048  0.935745  1
  Co  Co18  1  0.250000  0.034979  0.432316  1
  Co  Co19  1  0.750000  0.533312  0.070219  1
  Co  Co20  1  0.750000  0.966601  0.567746  1
  Re  Re21  1  0.250000  0.708294  0.988338  1
  Re  Re22  1  0.250000  0.789696  0.489376  1
  Re  Re23  1  0.750000  0.290983  0.011543  1
  Si  Si24  1  0.750000  0.581531  0.884779  1
  P  P25  1  0.250000  0.418249  0.115983  1
  P  P26  1  0.250000  0.082611  0.611077  1
  P  P27  1  0.750000  0.921094  0.387246  1
  P  P28  1  0.250000  0.269907  0.864456  1
  P  P29  1  0.250000  0.229244  0.369459  1
  P  P30  1  0.750000  0.730074  0.134353  1
  P  P31  1  0.750000  0.771495  0.633364  1
  P  P32  1  0.250000  0.595432  0.391742  1
  P  P33  1  0.250000  0.903550  0.890472  1
  P  P34  1  0.750000  0.397837  0.606463  1
  P  P35  1  0.750000  0.097273  0.110593  1
