# generated using pymatgen
data_Dy2Mo(SeO4)3
_symmetry_space_group_name_H-M   'P 1'
_cell_length_a   6.59206394
_cell_length_b   7.16503798
_cell_length_c   10.88586272
_cell_angle_alpha   84.84450775
_cell_angle_beta   73.23759879
_cell_angle_gamma   86.53053572
_symmetry_Int_Tables_number   1
_chemical_formula_structural   Dy2Mo(SeO4)3
_chemical_formula_sum   'Dy4 Mo2 Se6 O24'
_cell_volume   490.00335242
_cell_formula_units_Z   2
loop_
 _symmetry_equiv_pos_site_id
 _symmetry_equiv_pos_as_xyz
  1  'x, y, z'
loop_
 _atom_site_type_symbol
 _atom_site_label
 _atom_site_symmetry_multiplicity
 _atom_site_fract_x
 _atom_site_fract_y
 _atom_site_fract_z
 _atom_site_occupancy
  Dy  Dy0  1  0.732660  0.638272  0.508790  1
  Dy  Dy1  1  0.267340  0.361728  0.491210  1
  Dy  Dy2  1  0.204539  0.182304  0.168379  1
  Dy  Dy3  1  0.795461  0.817696  0.831621  1
  Mo  Mo4  1  0.722322  0.892977  0.206196  1
  Mo  Mo5  1  0.277678  0.107023  0.793804  1
  Se  Se6  1  0.202320  0.659965  0.216420  1
  Se  Se7  1  0.797680  0.340035  0.783580  1
  Se  Se8  1  0.657663  0.363265  0.142408  1
  Se  Se9  1  0.342337  0.636735  0.857592  1
  Se  Se10  1  0.788701  0.140261  0.493476  1
  Se  Se11  1  0.211299  0.859739  0.506524  1
  O  O12  1  0.692905  0.672481  0.299687  1
  O  O13  1  0.307095  0.327519  0.700313  1
  O  O14  1  0.718417  0.959645  0.417083  1
  O  O15  1  0.281583  0.040355  0.582917  1
  O  O16  1  0.450703  0.974807  0.232789  1
  O  O17  1  0.549297  0.025193  0.767211  1
  O  O18  1  0.824847  0.171197  0.178598  1
  O  O19  1  0.175153  0.828803  0.821402  1
  O  O20  1  0.784664  0.832729  0.044596  1
  O  O21  1  0.215336  0.167271  0.955404  1
  O  O22  1  0.058998  0.873738  0.195227  1
  O  O23  1  0.941002  0.126262  0.804773  1
  O  O24  1  0.099670  0.497783  0.148583  1
  O  O25  1  0.900330  0.502217  0.851417  1
  O  O26  1  0.081587  0.600991  0.383030  1
  O  O27  1  0.918413  0.399009  0.616970  1
  O  O28  1  0.549242  0.271892  0.037965  1
  O  O29  1  0.450758  0.728108  0.962035  1
  O  O30  1  0.424409  0.346253  0.270817  1
  O  O31  1  0.575591  0.653747  0.729183  1
  O  O32  1  0.042621  0.191584  0.392165  1
  O  O33  1  0.957379  0.808416  0.607835  1
  O  O34  1  0.640274  0.338961  0.460155  1
  O  O35  1  0.359726  0.661039  0.539845  1
