# generated using pymatgen
data_Dy5YAl20(SiOs2)4
_symmetry_space_group_name_H-M   'P 1'
_cell_length_a   8.69252600
_cell_length_b   8.69252593
_cell_length_c   9.64365200
_cell_angle_alpha   90.00000000
_cell_angle_beta   90.00000000
_cell_angle_gamma   120.00104512
_symmetry_Int_Tables_number   1
_chemical_formula_structural   Dy5YAl20(SiOs2)4
_chemical_formula_sum   'Dy5 Y1 Al20 Si4 Os8'
_cell_volume   631.04391209
_cell_formula_units_Z   1
loop_
 _symmetry_equiv_pos_site_id
 _symmetry_equiv_pos_as_xyz
  1  'x, y, z'
loop_
 _atom_site_type_symbol
 _atom_site_label
 _atom_site_symmetry_multiplicity
 _atom_site_fract_x
 _atom_site_fract_y
 _atom_site_fract_z
 _atom_site_occupancy
  Dy  Dy0  1  0.195547  0.391102  0.250000  1
  Dy  Dy1  1  0.804449  0.608920  0.750000  1
  Dy  Dy2  1  0.608898  0.804453  0.250000  1
  Dy  Dy3  1  0.391080  0.195551  0.750000  1
  Dy  Dy4  1  0.195554  0.804446  0.250000  1
  Y  Y5  1  0.804450  0.195550  0.750000  1
  Al  Al6  1  0.164941  0.329853  0.576979  1
  Al  Al7  1  0.835078  0.670152  0.423006  1
  Al  Al8  1  0.670147  0.835059  0.576979  1
  Al  Al9  1  0.835078  0.670152  0.076994  1
  Al  Al10  1  0.329848  0.164922  0.423006  1
  Al  Al11  1  0.164941  0.329853  0.923021  1
  Al  Al12  1  0.164922  0.835078  0.576996  1
  Al  Al13  1  0.329848  0.164922  0.076994  1
  Al  Al14  1  0.835078  0.164922  0.422986  1
  Al  Al15  1  0.670147  0.835059  0.923021  1
  Al  Al16  1  0.835078  0.164922  0.077014  1
  Al  Al17  1  0.164922  0.835078  0.923004  1
  Al  Al18  1  0.563778  0.127547  0.250000  1
  Al  Al19  1  0.436207  0.872442  0.750000  1
  Al  Al20  1  0.872453  0.436222  0.250000  1
  Al  Al21  1  0.127558  0.563793  0.750000  1
  Al  Al22  1  0.563775  0.436225  0.250000  1
  Al  Al23  1  0.436228  0.563772  0.750000  1
  Al  Al24  1  0.000000  0.000000  0.250000  1
  Al  Al25  1  0.000031  0.999969  0.750000  1
  Si  Si26  1  0.333333  0.666667  0.036673  1
  Si  Si27  1  0.666657  0.333343  0.963354  1
  Si  Si28  1  0.666657  0.333343  0.536646  1
  Si  Si29  1  0.333333  0.666667  0.463327  1
  Os  Os30  1  0.499981  0.999985  0.000019  1
  Os  Os31  1  0.000015  0.500019  0.000019  1
  Os  Os32  1  0.499981  0.999985  0.499981  1
  Os  Os33  1  0.500000  0.500000  0.999994  1
  Os  Os34  1  0.000015  0.500019  0.499981  1
  Os  Os35  1  0.500000  0.500000  0.500006  1
  Os  Os36  1  0.999997  0.000003  0.999989  1
  Os  Os37  1  0.999997  0.000003  0.500011  1
