# generated using pymatgen
data_Pr7Nd(Er3Si4)4
_symmetry_space_group_name_H-M   'P 1'
_cell_length_a   7.47974106
_cell_length_b   14.75222035
_cell_length_c   7.77850616
_cell_angle_alpha   89.97825733
_cell_angle_beta   89.99222593
_cell_angle_gamma   89.98750333
_symmetry_Int_Tables_number   1
_chemical_formula_structural   Pr7Nd(Er3Si4)4
_chemical_formula_sum   'Pr7 Nd1 Er12 Si16'
_cell_volume   858.30196838
_cell_formula_units_Z   1
loop_
 _symmetry_equiv_pos_site_id
 _symmetry_equiv_pos_as_xyz
  1  'x, y, z'
loop_
 _atom_site_type_symbol
 _atom_site_label
 _atom_site_symmetry_multiplicity
 _atom_site_fract_x
 _atom_site_fract_y
 _atom_site_fract_z
 _atom_site_occupancy
  Pr  Pr0  1  0.021159  0.097781  0.178554  1
  Pr  Pr1  1  0.021183  0.402172  0.178595  1
  Pr  Pr2  1  0.521212  0.097809  0.321400  1
  Pr  Pr3  1  0.521181  0.402157  0.321397  1
  Pr  Pr4  1  0.478821  0.597875  0.678609  1
  Pr  Pr5  1  0.478764  0.902139  0.678652  1
  Pr  Pr6  1  0.978827  0.597821  0.821419  1
  Nd  Nd7  1  0.978611  0.901962  0.821071  1
  Er  Er8  1  0.345999  0.249999  0.010413  1
  Er  Er9  1  0.321659  0.623536  0.177900  1
  Er  Er10  1  0.321629  0.876532  0.177835  1
  Er  Er11  1  0.821686  0.623534  0.322058  1
  Er  Er12  1  0.821752  0.876529  0.322007  1
  Er  Er13  1  0.845975  0.249995  0.489590  1
  Er  Er14  1  0.153966  0.750070  0.510523  1
  Er  Er15  1  0.178239  0.123452  0.678031  1
  Er  Er16  1  0.178336  0.376486  0.677930  1
  Er  Er17  1  0.678422  0.123435  0.822083  1
  Er  Er18  1  0.678331  0.376485  0.822088  1
  Er  Er19  1  0.654083  0.750054  0.989531  1
  Si  Si20  1  0.646642  0.539589  0.031788  1
  Si  Si21  1  0.647122  0.960320  0.031559  1
  Si  Si22  1  0.027148  0.750151  0.113387  1
  Si  Si23  1  0.726721  0.250001  0.121008  1
  Si  Si24  1  0.226701  0.249996  0.379015  1
  Si  Si25  1  0.527217  0.750017  0.386277  1
  Si  Si26  1  0.146676  0.539577  0.468213  1
  Si  Si27  1  0.146509  0.960330  0.468603  1
  Si  Si28  1  0.853442  0.039439  0.532161  1
  Si  Si29  1  0.853331  0.460435  0.531795  1
  Si  Si30  1  0.472764  0.249995  0.613693  1
  Si  Si31  1  0.773550  0.750168  0.621240  1
  Si  Si32  1  0.272953  0.750198  0.878906  1
  Si  Si33  1  0.972775  0.249988  0.886300  1
  Si  Si34  1  0.353269  0.039553  0.968159  1
  Si  Si35  1  0.353344  0.460414  0.968209  1
