# generated using pymatgen
data_Ho2PaZn3PdPt2
_symmetry_space_group_name_H-M   'P 1'
_cell_length_a   7.35909376
_cell_length_b   7.35909407
_cell_length_c   3.77420500
_cell_angle_alpha   90.00000000
_cell_angle_beta   90.00000000
_cell_angle_gamma   119.51595350
_symmetry_Int_Tables_number   1
_chemical_formula_structural   Ho2PaZn3PdPt2
_chemical_formula_sum   'Ho2 Pa1 Zn3 Pd1 Pt2'
_cell_volume   177.86992144
_cell_formula_units_Z   1
loop_
 _symmetry_equiv_pos_site_id
 _symmetry_equiv_pos_as_xyz
  1  'x, y, z'
loop_
 _atom_site_type_symbol
 _atom_site_label
 _atom_site_symmetry_multiplicity
 _atom_site_fract_x
 _atom_site_fract_y
 _atom_site_fract_z
 _atom_site_occupancy
  Ho  Ho0  1  0.595612  0.996151  0.000000  1
  Ho  Ho1  1  0.996151  0.595612  0.000000  1
  Pa  Pa2  1  0.408838  0.408838  0.000000  1
  Zn  Zn3  1  0.756156  0.756156  0.500000  1
  Zn  Zn4  1  0.255840  0.990743  0.500000  1
  Zn  Zn5  1  0.990743  0.255840  0.500000  1
  Pd  Pd6  1  0.009865  0.009865  0.000000  1
  Pt  Pt7  1  0.651992  0.334804  0.500000  1
  Pt  Pt8  1  0.334804  0.651992  0.500000  1
