# generated using pymatgen
data_LuHf2IrF15
_symmetry_space_group_name_H-M   'P 1'
_cell_length_a   8.01398493
_cell_length_b   8.01398459
_cell_length_c   8.01903002
_cell_angle_alpha   79.91084863
_cell_angle_beta   79.91086028
_cell_angle_gamma   100.04046483
_symmetry_Int_Tables_number   1
_chemical_formula_structural   LuHf2IrF15
_chemical_formula_sum   'Lu2 Hf4 Ir2 F30'
_cell_volume   487.91340620
_cell_formula_units_Z   2
loop_
 _symmetry_equiv_pos_site_id
 _symmetry_equiv_pos_as_xyz
  1  'x, y, z'
loop_
 _atom_site_type_symbol
 _atom_site_label
 _atom_site_symmetry_multiplicity
 _atom_site_fract_x
 _atom_site_fract_y
 _atom_site_fract_z
 _atom_site_occupancy
  Lu  Lu0  1  0.675805  0.324195  0.750000  1
  Lu  Lu1  1  0.324195  0.675805  0.250000  1
  Hf  Hf2  1  0.823142  0.751119  0.326077  1
  Hf  Hf3  1  0.248881  0.176858  0.173923  1
  Hf  Hf4  1  0.176858  0.248881  0.673923  1
  Hf  Hf5  1  0.751119  0.823142  0.826077  1
  Ir  Ir6  1  0.249628  0.750372  0.750000  1
  Ir  Ir7  1  0.750372  0.249628  0.250000  1
  F  F8  1  0.151141  0.184387  0.945990  1
  F  F9  1  0.685862  0.563074  0.846983  1
  F  F10  1  0.044195  0.659073  0.313867  1
  F  F11  1  0.659073  0.044195  0.813867  1
  F  F12  1  0.563074  0.685862  0.346983  1
  F  F13  1  0.184387  0.151141  0.445990  1
  F  F14  1  0.848859  0.815613  0.054010  1
  F  F15  1  0.314138  0.436926  0.153017  1
  F  F16  1  0.955805  0.340927  0.686133  1
  F  F17  1  0.340927  0.955805  0.186133  1
  F  F18  1  0.436926  0.314138  0.653017  1
  F  F19  1  0.815613  0.848859  0.554010  1
  F  F20  1  0.971197  0.028803  0.750000  1
  F  F21  1  0.541503  0.754466  0.027172  1
  F  F22  1  0.245534  0.458497  0.472828  1
  F  F23  1  0.458497  0.245534  0.972828  1
  F  F24  1  0.754466  0.541503  0.527172  1
  F  F25  1  0.028803  0.971197  0.250000  1
  F  F26  1  0.215413  0.726169  0.999827  1
  F  F27  1  0.223751  0.495631  0.787771  1
  F  F28  1  0.993595  0.712831  0.777514  1
  F  F29  1  0.712831  0.993595  0.277514  1
  F  F30  1  0.495631  0.223751  0.287771  1
  F  F31  1  0.726169  0.215413  0.499827  1
  F  F32  1  0.784587  0.273831  0.000173  1
  F  F33  1  0.776249  0.504369  0.212229  1
  F  F34  1  0.006405  0.287169  0.222486  1
  F  F35  1  0.287169  0.006405  0.722486  1
  F  F36  1  0.504369  0.776249  0.712229  1
  F  F37  1  0.273831  0.784587  0.500173  1
