# generated using pymatgen
data_Cs2DyInBr6
_symmetry_space_group_name_H-M   'P 1'
_cell_length_a   8.36386159
_cell_length_b   8.36386235
_cell_length_c   8.56198144
_cell_angle_alpha   119.86978250
_cell_angle_beta   119.86978532
_cell_angle_gamma   59.83674564
_symmetry_Int_Tables_number   1
_chemical_formula_structural   Cs2DyInBr6
_chemical_formula_sum   'Cs2 Dy1 In1 Br6'
_cell_volume   423.82268400
_cell_formula_units_Z   1
loop_
 _symmetry_equiv_pos_site_id
 _symmetry_equiv_pos_as_xyz
  1  'x, y, z'
loop_
 _atom_site_type_symbol
 _atom_site_label
 _atom_site_symmetry_multiplicity
 _atom_site_fract_x
 _atom_site_fract_y
 _atom_site_fract_z
 _atom_site_occupancy
  Cs  Cs0  1  0.248584  0.248584  0.242269  1
  Cs  Cs1  1  0.751416  0.751416  0.757732  1
  Dy  Dy2  1  0.500000  0.500000  0.000000  1
  In  In3  1  0.000000  0.000000  0.499999  1
  Br  Br4  1  0.695649  0.221805  0.185752  1
  Br  Br5  1  0.221805  0.695649  0.185752  1
  Br  Br6  1  0.729770  0.729770  0.304196  1
  Br  Br7  1  0.270230  0.270230  0.695804  1
  Br  Br8  1  0.778195  0.304352  0.814247  1
  Br  Br9  1  0.304352  0.778195  0.814247  1
