# generated using pymatgen
data_Zr13Ta3(Rh2N)4
_symmetry_space_group_name_H-M   'P 1'
_cell_length_a   8.70901361
_cell_length_b   8.70901306
_cell_length_c   8.70901442
_cell_angle_alpha   60.50581137
_cell_angle_beta   60.50581075
_cell_angle_gamma   60.50580996
_symmetry_Int_Tables_number   1
_chemical_formula_structural   Zr13Ta3(Rh2N)4
_chemical_formula_sum   'Zr13 Ta3 Rh8 N4'
_cell_volume   472.41982264
_cell_formula_units_Z   1
loop_
 _symmetry_equiv_pos_site_id
 _symmetry_equiv_pos_as_xyz
  1  'x, y, z'
loop_
 _atom_site_type_symbol
 _atom_site_label
 _atom_site_symmetry_multiplicity
 _atom_site_fract_x
 _atom_site_fract_y
 _atom_site_fract_z
 _atom_site_occupancy
  Zr  Zr0  1  0.625000  0.625000  0.625000  1
  Zr  Zr1  1  0.815608  0.815608  0.183579  1
  Zr  Zr2  1  0.186148  0.186148  0.813843  1
  Zr  Zr3  1  0.815608  0.183579  0.815608  1
  Zr  Zr4  1  0.186148  0.813843  0.186148  1
  Zr  Zr5  1  0.183579  0.815608  0.815608  1
  Zr  Zr6  1  0.813843  0.186148  0.186148  1
  Zr  Zr7  1  0.434392  0.434392  0.066421  1
  Zr  Zr8  1  0.063852  0.063852  0.436157  1
  Zr  Zr9  1  0.434392  0.066421  0.434392  1
  Zr  Zr10  1  0.063852  0.436157  0.063852  1
  Zr  Zr11  1  0.066421  0.434392  0.434392  1
  Zr  Zr12  1  0.436157  0.063852  0.063852  1
  Ta  Ta13  1  0.125000  0.625000  0.625000  1
  Ta  Ta14  1  0.625000  0.125000  0.625000  1
  Ta  Ta15  1  0.625000  0.625000  0.125000  1
  Rh  Rh16  1  0.762939  0.407929  0.407929  1
  Rh  Rh17  1  0.407929  0.762939  0.407929  1
  Rh  Rh18  1  0.407929  0.407929  0.762939  1
  Rh  Rh19  1  0.415056  0.415056  0.415056  1
  Rh  Rh20  1  0.487061  0.842071  0.842071  1
  Rh  Rh21  1  0.842071  0.487061  0.842071  1
  Rh  Rh22  1  0.842071  0.842071  0.487061  1
  Rh  Rh23  1  0.834944  0.834944  0.834944  1
  N  N24  1  0.625000  0.125000  0.125000  1
  N  N25  1  0.125000  0.625000  0.125000  1
  N  N26  1  0.125000  0.125000  0.625000  1
  N  N27  1  0.125000  0.125000  0.125000  1
