# generated using pymatgen
data_Ce2V3Co9P7
_symmetry_space_group_name_H-M   'P 1'
_cell_length_a   9.07713000
_cell_length_b   9.07713122
_cell_length_c   3.69105600
_cell_angle_alpha   90.00000000
_cell_angle_beta   90.00000000
_cell_angle_gamma   120.00000286
_symmetry_Int_Tables_number   1
_chemical_formula_structural   Ce2V3Co9P7
_chemical_formula_sum   'Ce2 V3 Co9 P7'
_cell_volume   263.37734918
_cell_formula_units_Z   1
loop_
 _symmetry_equiv_pos_site_id
 _symmetry_equiv_pos_as_xyz
  1  'x, y, z'
loop_
 _atom_site_type_symbol
 _atom_site_label
 _atom_site_symmetry_multiplicity
 _atom_site_fract_x
 _atom_site_fract_y
 _atom_site_fract_z
 _atom_site_occupancy
  Ce  Ce0  1  0.000000  0.000000  0.000000  1
  Ce  Ce1  1  0.333333  0.666667  0.500000  1
  V  V2  1  0.883405  0.431763  0.500000  1
  V  V3  1  0.548358  0.116595  0.500000  1
  V  V4  1  0.568237  0.451642  0.500000  1
  Co  Co5  1  0.100239  0.396903  0.000000  1
  Co  Co6  1  0.296663  0.899761  0.000000  1
  Co  Co7  1  0.603097  0.703337  0.000000  1
  Co  Co8  1  0.821140  0.610846  0.000000  1
  Co  Co9  1  0.789706  0.178860  0.000000  1
  Co  Co10  1  0.389154  0.210294  0.000000  1
  Co  Co11  1  0.049502  0.767085  0.500000  1
  Co  Co12  1  0.717584  0.950498  0.500000  1
  Co  Co13  1  0.232915  0.282416  0.500000  1
  P  P14  1  0.072440  0.632561  0.000000  1
  P  P15  1  0.560122  0.927560  0.000000  1
  P  P16  1  0.367439  0.439878  0.000000  1
  P  P17  1  0.775863  0.734635  0.500000  1
  P  P18  1  0.958773  0.224137  0.500000  1
  P  P19  1  0.265365  0.041227  0.500000  1
  P  P20  1  0.666667  0.333333  0.000000  1
