# generated using pymatgen
data_Pr4Tm2Si3Ge
_symmetry_space_group_name_H-M   'P 1'
_cell_length_a   7.60425973
_cell_length_b   7.60425881
_cell_length_c   4.46007200
_cell_angle_alpha   90.00000000
_cell_angle_beta   90.00000000
_cell_angle_gamma   90.43228220
_symmetry_Int_Tables_number   1
_chemical_formula_structural   Pr4Tm2Si3Ge
_chemical_formula_sum   'Pr4 Tm2 Si3 Ge1'
_cell_volume   257.89524852
_cell_formula_units_Z   1
loop_
 _symmetry_equiv_pos_site_id
 _symmetry_equiv_pos_as_xyz
  1  'x, y, z'
loop_
 _atom_site_type_symbol
 _atom_site_label
 _atom_site_symmetry_multiplicity
 _atom_site_fract_x
 _atom_site_fract_y
 _atom_site_fract_z
 _atom_site_occupancy
  Pr  Pr0  1  0.320265  0.822851  0.500000  1
  Pr  Pr1  1  0.824539  0.675461  0.500000  1
  Pr  Pr2  1  0.176854  0.323146  0.500000  1
  Pr  Pr3  1  0.677149  0.179735  0.500000  1
  Tm  Tm4  1  0.002521  0.001068  0.000000  1
  Tm  Tm5  1  0.498932  0.497479  0.000000  1
  Si  Si6  1  0.382937  0.117063  0.000000  1
  Si  Si7  1  0.885680  0.386114  0.000000  1
  Si  Si8  1  0.113886  0.614320  0.000000  1
  Ge  Ge9  1  0.617240  0.882760  0.000000  1
