# generated using pymatgen
data_PaMoC2
_symmetry_space_group_name_H-M   'P 1'
_cell_length_a   3.32449000
_cell_length_b   5.75329400
_cell_length_c   11.04728000
_cell_angle_alpha   90.00000000
_cell_angle_beta   90.00000000
_cell_angle_gamma   90.00000000
_symmetry_Int_Tables_number   1
_chemical_formula_structural   PaMoC2
_chemical_formula_sum   'Pa4 Mo4 C8'
_cell_volume   211.29876568
_cell_formula_units_Z   4
loop_
 _symmetry_equiv_pos_site_id
 _symmetry_equiv_pos_as_xyz
  1  'x, y, z'
loop_
 _atom_site_type_symbol
 _atom_site_label
 _atom_site_symmetry_multiplicity
 _atom_site_fract_x
 _atom_site_fract_y
 _atom_site_fract_z
 _atom_site_occupancy
  Pa  Pa0  1  0.250000  0.580839  0.857993  1
  Pa  Pa1  1  0.750000  0.419161  0.142007  1
  Pa  Pa2  1  0.750000  0.919161  0.357993  1
  Pa  Pa3  1  0.250000  0.080839  0.642007  1
  Mo  Mo4  1  0.250000  0.919194  0.100489  1
  Mo  Mo5  1  0.750000  0.080806  0.899511  1
  Mo  Mo6  1  0.750000  0.580806  0.600489  1
  Mo  Mo7  1  0.250000  0.419194  0.399511  1
  C  C8  1  0.250000  0.662529  0.246087  1
  C  C9  1  0.750000  0.337471  0.753913  1
  C  C10  1  0.750000  0.837471  0.746087  1
  C  C11  1  0.250000  0.162529  0.253913  1
  C  C12  1  0.250000  0.742812  0.509236  1
  C  C13  1  0.750000  0.257188  0.490764  1
  C  C14  1  0.750000  0.757188  0.009236  1
  C  C15  1  0.250000  0.242812  0.990764  1
