# generated using pymatgen
data_Tm3ZnCoSn3Ir
_symmetry_space_group_name_H-M   'P 1'
_cell_length_a   7.52248600
_cell_length_b   7.52248466
_cell_length_c   3.78247200
_cell_angle_alpha   90.00000000
_cell_angle_beta   90.00000000
_cell_angle_gamma   119.99999712
_symmetry_Int_Tables_number   1
_chemical_formula_structural   Tm3ZnCoSn3Ir
_chemical_formula_sum   'Tm3 Zn1 Co1 Sn3 Ir1'
_cell_volume   185.36556735
_cell_formula_units_Z   1
loop_
 _symmetry_equiv_pos_site_id
 _symmetry_equiv_pos_as_xyz
  1  'x, y, z'
loop_
 _atom_site_type_symbol
 _atom_site_label
 _atom_site_symmetry_multiplicity
 _atom_site_fract_x
 _atom_site_fract_y
 _atom_site_fract_z
 _atom_site_occupancy
  Tm  Tm0  1  0.980775  0.387630  0.500000  1
  Tm  Tm1  1  0.612370  0.593145  0.500000  1
  Tm  Tm2  1  0.406855  0.019225  0.500000  1
  Zn  Zn3  1  0.333333  0.666667  0.000000  1
  Co  Co4  1  0.000000  0.000000  0.500000  1
  Sn  Sn5  1  0.005356  0.749369  0.000000  1
  Sn  Sn6  1  0.250631  0.255987  0.000000  1
  Sn  Sn7  1  0.744013  0.994644  0.000000  1
  Ir  Ir8  1  0.666667  0.333333  0.000000  1
