# generated using pymatgen
data_Ho20Ir4OsPd7
_symmetry_space_group_name_H-M   'P 1'
_cell_length_a   11.05436392
_cell_length_b   11.04660359
_cell_length_c   6.29718476
_cell_angle_alpha   89.96570742
_cell_angle_beta   89.95547843
_cell_angle_gamma   90.28041958
_symmetry_Int_Tables_number   1
_chemical_formula_structural   Ho20Ir4OsPd7
_chemical_formula_sum   'Ho20 Ir4 Os1 Pd7'
_cell_volume   768.95965041
_cell_formula_units_Z   1
loop_
 _symmetry_equiv_pos_site_id
 _symmetry_equiv_pos_as_xyz
  1  'x, y, z'
loop_
 _atom_site_type_symbol
 _atom_site_label
 _atom_site_symmetry_multiplicity
 _atom_site_fract_x
 _atom_site_fract_y
 _atom_site_fract_z
 _atom_site_occupancy
  Ho  Ho0  1  0.297405  0.083905  0.366452  1
  Ho  Ho1  1  0.298279  0.908096  0.871301  1
  Ho  Ho2  1  0.701465  0.084492  0.870251  1
  Ho  Ho3  1  0.702130  0.913646  0.365689  1
  Ho  Ho4  1  0.579883  0.794773  0.869566  1
  Ho  Ho5  1  0.585520  0.203754  0.368124  1
  Ho  Ho6  1  0.412016  0.793178  0.374613  1
  Ho  Ho7  1  0.413964  0.201183  0.871062  1
  Ho  Ho8  1  0.207144  0.418777  0.633046  1
  Ho  Ho9  1  0.207990  0.589615  0.123111  1
  Ho  Ho10  1  0.795218  0.413090  0.130350  1
  Ho  Ho11  1  0.797285  0.587965  0.631217  1
  Ho  Ho12  1  0.914701  0.703380  0.132149  1
  Ho  Ho13  1  0.913339  0.296579  0.632784  1
  Ho  Ho14  1  0.094117  0.703357  0.630690  1
  Ho  Ho15  1  0.087449  0.297190  0.133161  1
  Ho  Ho16  1  0.999664  0.000211  0.499396  1
  Ho  Ho17  1  0.999655  0.000372  0.998617  1
  Ho  Ho18  1  0.497054  0.501729  0.998749  1
  Ho  Ho19  1  0.498382  0.503220  0.499716  1
  Ir  Ir20  1  0.346932  0.651629  0.749236  1
  Ir  Ir21  1  0.499977  0.000834  0.619761  1
  Ir  Ir22  1  0.998955  0.499953  0.881074  1
  Ir  Ir23  1  0.999530  0.499720  0.379605  1
  Os  Os24  1  0.500015  0.000125  0.123972  1
  Pd  Pd25  1  0.846580  0.154670  0.249622  1
  Pd  Pd26  1  0.845350  0.845945  0.750214  1
  Pd  Pd27  1  0.153479  0.155461  0.748904  1
  Pd  Pd28  1  0.152137  0.846690  0.249418  1
  Pd  Pd29  1  0.653756  0.347124  0.749343  1
  Pd  Pd30  1  0.656386  0.654634  0.249721  1
  Pd  Pd31  1  0.344244  0.344703  0.249080  1
