# generated using pymatgen
data_TbLuV6O18
_symmetry_space_group_name_H-M   'P 1'
_cell_length_a   8.42985031
_cell_length_b   8.44771214
_cell_length_c   10.84858988
_cell_angle_alpha   57.60534615
_cell_angle_beta   122.28446396
_cell_angle_gamma   127.88860074
_symmetry_Int_Tables_number   1
_chemical_formula_structural   TbLuV6O18
_chemical_formula_sum   'Tb1 Lu1 V6 O18'
_cell_volume   489.83313247
_cell_formula_units_Z   1
loop_
 _symmetry_equiv_pos_site_id
 _symmetry_equiv_pos_as_xyz
  1  'x, y, z'
loop_
 _atom_site_type_symbol
 _atom_site_label
 _atom_site_symmetry_multiplicity
 _atom_site_fract_x
 _atom_site_fract_y
 _atom_site_fract_z
 _atom_site_occupancy
  Tb  Tb0  1  0.387131  0.129599  0.354585  1
  Lu  Lu1  1  0.869473  0.611610  0.854133  1
  V  V2  1  0.657486  0.126529  0.176732  1
  V  V3  1  0.881378  0.348978  0.681308  1
  V  V4  1  0.077323  0.099593  0.526376  1
  V  V5  1  0.893107  0.915361  0.021637  1
  V  V6  1  0.329317  0.579028  0.595897  1
  V  V7  1  0.416365  0.676562  0.089878  1
  O  O8  1  0.854763  0.080569  0.355645  1
  O  O9  1  0.922524  0.146635  0.857124  1
  O  O10  1  0.234515  0.051989  0.513410  1
  O  O11  1  0.939748  0.760914  0.004338  1
  O  O12  1  0.997747  0.922838  0.684165  1
  O  O13  1  0.065972  0.986885  0.182293  1
  O  O14  1  0.214698  0.366586  0.527703  1
  O  O15  1  0.624046  0.782387  0.018940  1
  O  O16  1  0.541753  0.218867  0.192452  1
  O  O17  1  0.789449  0.463445  0.699177  1
  O  O18  1  0.467235  0.874871  0.143578  1
  O  O19  1  0.135482  0.536720  0.650499  1
  O  O20  1  0.388914  0.813956  0.456780  1
  O  O21  1  0.178475  0.617219  0.953792  1
  O  O22  1  0.412802  0.458250  0.242348  1
  O  O23  1  0.549469  0.582528  0.746253  1
  O  O24  1  0.707185  0.245406  0.535143  1
  O  O25  1  0.764241  0.302080  0.031610  1
