# generated using pymatgen
data_NaLi3TaNi9P7
_symmetry_space_group_name_H-M   'P 1'
_cell_length_a   9.14938359
_cell_length_b   9.10437512
_cell_length_c   3.64777000
_cell_angle_alpha   90.00000000
_cell_angle_beta   90.00000000
_cell_angle_gamma   120.12189243
_symmetry_Int_Tables_number   1
_chemical_formula_structural   NaLi3TaNi9P7
_chemical_formula_sum   'Na1 Li3 Ta1 Ni9 P7'
_cell_volume   262.82417891
_cell_formula_units_Z   1
loop_
 _symmetry_equiv_pos_site_id
 _symmetry_equiv_pos_as_xyz
  1  'x, y, z'
loop_
 _atom_site_type_symbol
 _atom_site_label
 _atom_site_symmetry_multiplicity
 _atom_site_fract_x
 _atom_site_fract_y
 _atom_site_fract_z
 _atom_site_occupancy
  Na  Na0  1  0.332224  0.666073  0.000000  1
  Li  Li1  1  0.894258  0.119807  0.500000  1
  Li  Li2  1  0.222405  0.104937  0.500000  1
  Li  Li3  1  0.664236  0.331004  0.500000  1
  Ta  Ta4  1  0.879670  0.781842  0.500000  1
  Ni  Ni5  1  0.712966  0.883322  0.000000  1
  Ni  Ni6  1  0.166208  0.284781  0.000000  1
  Ni  Ni7  1  0.126060  0.836794  0.000000  1
  Ni  Ni8  1  0.629628  0.566566  0.000000  1
  Ni  Ni9  1  0.939071  0.367113  0.000000  1
  Ni  Ni10  1  0.430200  0.060611  0.000000  1
  Ni  Ni11  1  0.564187  0.957903  0.500000  1
  Ni  Ni12  1  0.392245  0.433987  0.500000  1
  Ni  Ni13  1  0.050742  0.607504  0.500000  1
  P  P14  1  0.584301  0.712610  0.500000  1
  P  P15  1  0.124580  0.409451  0.500000  1
  P  P16  1  0.288485  0.877270  0.500000  1
  P  P17  1  0.001327  0.001015  0.000000  1
  P  P18  1  0.881059  0.574775  0.000000  1
  P  P19  1  0.695132  0.121785  0.000000  1
  P  P20  1  0.421017  0.300848  0.000000  1
