# generated using pymatgen
data_Tb6Er2Si12Ir3Pd
_symmetry_space_group_name_H-M   'P 1'
_cell_length_a   8.18856500
_cell_length_b   8.18065944
_cell_length_c   7.93825800
_cell_angle_alpha   90.00187581
_cell_angle_beta   90.00000000
_cell_angle_gamma   120.03197651
_symmetry_Int_Tables_number   1
_chemical_formula_structural   Tb6Er2Si12Ir3Pd
_chemical_formula_sum   'Tb6 Er2 Si12 Ir3 Pd1'
_cell_volume   460.37520849
_cell_formula_units_Z   1
loop_
 _symmetry_equiv_pos_site_id
 _symmetry_equiv_pos_as_xyz
  1  'x, y, z'
loop_
 _atom_site_type_symbol
 _atom_site_label
 _atom_site_symmetry_multiplicity
 _atom_site_fract_x
 _atom_site_fract_y
 _atom_site_fract_z
 _atom_site_occupancy
  Tb  Tb0  1  0.977397  0.488528  0.247146  1
  Tb  Tb1  1  0.017041  0.508733  0.751958  1
  Tb  Tb2  1  0.511133  0.488528  0.247146  1
  Tb  Tb3  1  0.491689  0.508733  0.751958  1
  Tb  Tb4  1  0.000018  0.000037  0.251905  1
  Tb  Tb5  1  0.999950  0.999900  0.750603  1
  Er  Er6  1  0.511206  0.022409  0.246609  1
  Er  Er7  1  0.492285  0.984573  0.752389  1
  Si  Si8  1  0.166877  0.333755  0.003245  1
  Si  Si9  1  0.833554  0.667109  0.997672  1
  Si  Si10  1  0.666445  0.833759  0.002645  1
  Si  Si11  1  0.832424  0.664848  0.500021  1
  Si  Si12  1  0.332703  0.165892  0.998317  1
  Si  Si13  1  0.164701  0.329402  0.501643  1
  Si  Si14  1  0.167313  0.833759  0.002645  1
  Si  Si15  1  0.334894  0.166827  0.499212  1
  Si  Si16  1  0.833189  0.165892  0.998317  1
  Si  Si17  1  0.670230  0.835510  0.502207  1
  Si  Si18  1  0.831933  0.166827  0.499212  1
  Si  Si19  1  0.165280  0.835510  0.502207  1
  Ir  Ir20  1  0.334091  0.668183  0.027860  1
  Ir  Ir21  1  0.665887  0.331773  0.966246  1
  Ir  Ir22  1  0.665803  0.331604  0.537662  1
  Pd  Pd23  1  0.333956  0.667913  0.461174  1
