# generated using pymatgen
data_Yb4Rh4O13F
_symmetry_space_group_name_H-M   'P 1'
_cell_length_a   7.19074804
_cell_length_b   7.18943567
_cell_length_c   7.19215104
_cell_angle_alpha   120.00272600
_cell_angle_beta   90.01117010
_cell_angle_gamma   120.00286240
_symmetry_Int_Tables_number   1
_chemical_formula_structural   Yb4Rh4O13F
_chemical_formula_sum   'Yb4 Rh4 O13 F1'
_cell_volume   262.86551653
_cell_formula_units_Z   1
loop_
 _symmetry_equiv_pos_site_id
 _symmetry_equiv_pos_as_xyz
  1  'x, y, z'
loop_
 _atom_site_type_symbol
 _atom_site_label
 _atom_site_symmetry_multiplicity
 _atom_site_fract_x
 _atom_site_fract_y
 _atom_site_fract_z
 _atom_site_occupancy
  Yb  Yb0  1  0.002969  0.994137  0.997078  1
  Yb  Yb1  1  0.491178  0.994159  0.997063  1
  Yb  Yb2  1  0.002894  0.505837  0.997015  1
  Yb  Yb3  1  0.002922  0.505842  0.508825  1
  Rh  Rh4  1  0.499994  0.499945  0.999942  1
  Rh  Rh5  1  0.000074  0.000033  0.500016  1
  Rh  Rh6  1  0.499988  0.499941  0.500006  1
  Rh  Rh7  1  0.499976  0.000097  0.500054  1
  O  O8  1  0.420512  0.750003  0.170445  1
  O  O9  1  0.420566  0.341139  0.170541  1
  O  O10  1  0.829576  0.750012  0.170378  1
  O  O11  1  0.169507  0.839006  0.419494  1
  O  O12  1  0.169460  0.249949  0.419411  1
  O  O13  1  0.580502  0.249949  0.419401  1
  O  O14  1  0.829479  0.158965  0.579495  1
  O  O15  1  0.420486  0.750054  0.579614  1
  O  O16  1  0.829574  0.750056  0.579618  1
  O  O17  1  0.580448  0.660898  0.830479  1
  O  O18  1  0.169442  0.249988  0.830611  1
  O  O19  1  0.580449  0.249985  0.830513  1
  O  O20  1  0.125016  0.750039  0.875011  1
  F  F21  1  0.874996  0.249963  0.124992  1
