# generated using pymatgen
data_Tb2TmU3(Ni3Sb4)2
_symmetry_space_group_name_H-M   'P 1'
_cell_length_a   8.15951261
_cell_length_b   8.14959117
_cell_length_c   8.14959205
_cell_angle_alpha   109.20152656
_cell_angle_beta   109.56425271
_cell_angle_gamma   109.59859095
_symmetry_Int_Tables_number   1
_chemical_formula_structural   Tb2TmU3(Ni3Sb4)2
_chemical_formula_sum   'Tb2 Tm1 U3 Ni6 Sb8'
_cell_volume   417.41988314
_cell_formula_units_Z   1
loop_
 _symmetry_equiv_pos_site_id
 _symmetry_equiv_pos_as_xyz
  1  'x, y, z'
loop_
 _atom_site_type_symbol
 _atom_site_label
 _atom_site_symmetry_multiplicity
 _atom_site_fract_x
 _atom_site_fract_y
 _atom_site_fract_z
 _atom_site_occupancy
  Tb  Tb0  1  0.875036  0.249659  0.125005  1
  Tb  Tb1  1  0.624964  0.749969  0.374623  1
  Tm  Tm2  1  0.250000  0.126920  0.876920  1
  U  U3  1  0.750000  0.373442  0.623442  1
  U  U4  1  0.122099  0.872944  0.249397  1
  U  U5  1  0.377901  0.627298  0.750845  1
  Ni  Ni6  1  0.378747  0.250021  0.621058  1
  Ni  Ni7  1  0.121253  0.742309  0.871274  1
  Ni  Ni8  1  0.250000  0.628381  0.378381  1
  Ni  Ni9  1  0.750000  0.869314  0.119314  1
  Ni  Ni10  1  0.630581  0.376178  0.265912  1
  Ni  Ni11  1  0.869419  0.135331  0.745597  1
  Sb  Sb12  1  0.658406  0.495669  0.000142  1
  Sb  Sb13  1  0.499650  0.998244  0.662121  1
  Sb  Sb14  1  0.000350  0.662469  0.498593  1
  Sb  Sb15  1  0.841594  0.841735  0.837262  1
  Sb  Sb16  1  0.499660  0.000979  0.160003  1
  Sb  Sb17  1  0.162658  0.500603  0.000847  1
  Sb  Sb18  1  0.000340  0.160342  0.501319  1
  Sb  Sb19  1  0.337342  0.338190  0.337945  1
