# generated using pymatgen
data_Tb16Al4OsPt3
_symmetry_space_group_name_H-M   'P 1'
_cell_length_a   9.62811126
_cell_length_b   9.62811158
_cell_length_c   9.62811103
_cell_angle_alpha   59.97330449
_cell_angle_beta   59.97329863
_cell_angle_gamma   59.97330472
_symmetry_Int_Tables_number   1
_chemical_formula_structural   Tb16Al4OsPt3
_chemical_formula_sum   'Tb16 Al4 Os1 Pt3'
_cell_volume   630.73264019
_cell_formula_units_Z   1
loop_
 _symmetry_equiv_pos_site_id
 _symmetry_equiv_pos_as_xyz
  1  'x, y, z'
loop_
 _atom_site_type_symbol
 _atom_site_label
 _atom_site_symmetry_multiplicity
 _atom_site_fract_x
 _atom_site_fract_y
 _atom_site_fract_z
 _atom_site_occupancy
  Tb  Tb0  1  0.353331  0.353331  0.353331  1
  Tb  Tb1  1  0.351763  0.351763  0.942289  1
  Tb  Tb2  1  0.351763  0.942289  0.351763  1
  Tb  Tb3  1  0.942289  0.351763  0.351763  1
  Tb  Tb4  1  0.811692  0.192213  0.192213  1
  Tb  Tb5  1  0.193077  0.805455  0.805455  1
  Tb  Tb6  1  0.192213  0.811692  0.192213  1
  Tb  Tb7  1  0.805455  0.193077  0.805455  1
  Tb  Tb8  1  0.192213  0.192213  0.811692  1
  Tb  Tb9  1  0.805455  0.805455  0.193077  1
  Tb  Tb10  1  0.935592  0.563834  0.563834  1
  Tb  Tb11  1  0.557098  0.938175  0.938175  1
  Tb  Tb12  1  0.563834  0.935592  0.563834  1
  Tb  Tb13  1  0.938175  0.557098  0.938175  1
  Tb  Tb14  1  0.563834  0.563834  0.935592  1
  Tb  Tb15  1  0.938175  0.938175  0.557098  1
  Al  Al16  1  0.577631  0.577631  0.577631  1
  Al  Al17  1  0.577257  0.577257  0.269431  1
  Al  Al18  1  0.577257  0.269431  0.577257  1
  Al  Al19  1  0.269431  0.577257  0.577257  1
  Os  Os20  1  0.142913  0.142913  0.142913  1
  Pt  Pt21  1  0.143746  0.143746  0.572063  1
  Pt  Pt22  1  0.143746  0.572063  0.143746  1
  Pt  Pt23  1  0.572063  0.143746  0.143746  1
