# generated using pymatgen
data_Mg2Ti2NbRe24
_symmetry_space_group_name_H-M   'P 1'
_cell_length_a   8.39077073
_cell_length_b   8.38759395
_cell_length_c   8.38978507
_cell_angle_alpha   109.45959546
_cell_angle_beta   109.47491938
_cell_angle_gamma   109.47624095
_symmetry_Int_Tables_number   1
_chemical_formula_structural   Mg2Ti2NbRe24
_chemical_formula_sum   'Mg2 Ti2 Nb1 Re24'
_cell_volume   454.55219936
_cell_formula_units_Z   1
loop_
 _symmetry_equiv_pos_site_id
 _symmetry_equiv_pos_as_xyz
  1  'x, y, z'
loop_
 _atom_site_type_symbol
 _atom_site_label
 _atom_site_symmetry_multiplicity
 _atom_site_fract_x
 _atom_site_fract_y
 _atom_site_fract_z
 _atom_site_occupancy
  Mg  Mg0  1  0.999312  0.002553  0.000000  1
  Mg  Mg1  1  0.640839  0.999697  0.000000  1
  Ti  Ti2  1  0.000004  0.999945  0.636297  1
  Ti  Ti3  1  0.363707  0.363648  0.363703  1
  Nb  Nb4  1  0.999690  0.637318  0.000000  1
  Re  Re5  1  0.395187  0.675372  0.000000  1
  Re  Re6  1  0.721135  0.325284  0.324192  1
  Re  Re7  1  0.396942  0.001092  0.675808  1
  Re  Re8  1  0.681237  0.396486  0.000000  1
  Re  Re9  1  0.997889  0.398845  0.680009  1
  Re  Re10  1  0.317880  0.718835  0.319991  1
  Re  Re11  1  0.316457  0.319725  0.718997  1
  Re  Re12  1  0.997907  0.680481  0.399037  1
  Re  Re13  1  0.681941  0.000986  0.398848  1
  Re  Re14  1  0.597460  0.600728  0.281003  1
  Re  Re15  1  0.283093  0.602138  0.601152  1
  Re  Re16  1  0.598870  0.281443  0.600963  1
  Re  Re17  1  0.376352  0.190836  0.000000  1
  Re  Re18  1  0.184699  0.808250  0.806240  1
  Re  Re19  1  0.378459  0.002010  0.193760  1
  Re  Re20  1  0.194768  0.374087  0.000000  1
  Re  Re21  1  0.001047  0.376484  0.193052  1
  Re  Re22  1  0.807996  0.183432  0.806948  1
  Re  Re23  1  0.806044  0.806827  0.184638  1
  Re  Re24  1  0.000512  0.191042  0.376739  1
  Re  Re25  1  0.195825  0.001110  0.376258  1
  Re  Re26  1  0.621406  0.622189  0.815362  1
  Re  Re27  1  0.819567  0.624854  0.623742  1
  Re  Re28  1  0.623773  0.814303  0.623261  1
