# generated using pymatgen
data_Tb4TmSn3Sb
_symmetry_space_group_name_H-M   'P 1'
_cell_length_a   8.09793400
_cell_length_b   8.14851600
_cell_length_c   15.41209600
_cell_angle_alpha   90.00000000
_cell_angle_beta   90.00000000
_cell_angle_gamma   90.00000000
_symmetry_Int_Tables_number   1
_chemical_formula_structural   Tb4TmSn3Sb
_chemical_formula_sum   'Tb16 Tm4 Sn12 Sb4'
_cell_volume   1016.98479780
_cell_formula_units_Z   4
loop_
 _symmetry_equiv_pos_site_id
 _symmetry_equiv_pos_as_xyz
  1  'x, y, z'
loop_
 _atom_site_type_symbol
 _atom_site_label
 _atom_site_symmetry_multiplicity
 _atom_site_fract_x
 _atom_site_fract_y
 _atom_site_fract_z
 _atom_site_occupancy
  Tb  Tb0  1  0.372921  0.839852  0.878128  1
  Tb  Tb1  1  0.872921  0.660148  0.621872  1
  Tb  Tb2  1  0.627079  0.160148  0.378128  1
  Tb  Tb3  1  0.127079  0.339852  0.121872  1
  Tb  Tb4  1  0.629213  0.161673  0.122221  1
  Tb  Tb5  1  0.129213  0.338327  0.377779  1
  Tb  Tb6  1  0.370787  0.838327  0.622221  1
  Tb  Tb7  1  0.870787  0.661673  0.877779  1
  Tb  Tb8  1  0.535624  0.326093  0.897875  1
  Tb  Tb9  1  0.035624  0.173907  0.602125  1
  Tb  Tb10  1  0.464376  0.673907  0.397875  1
  Tb  Tb11  1  0.964376  0.826093  0.102125  1
  Tb  Tb12  1  0.474011  0.677557  0.099970  1
  Tb  Tb13  1  0.974011  0.822443  0.400030  1
  Tb  Tb14  1  0.525989  0.322443  0.599970  1
  Tb  Tb15  1  0.025989  0.177557  0.900030  1
  Tm  Tm16  1  0.199265  0.501213  0.747830  1
  Tm  Tm17  1  0.699265  0.998787  0.752170  1
  Tm  Tm18  1  0.800735  0.498787  0.247830  1
  Tm  Tm19  1  0.300735  0.001213  0.252170  1
  Sn  Sn20  1  0.714202  0.967142  0.956519  1
  Sn  Sn21  1  0.214202  0.532858  0.543481  1
  Sn  Sn22  1  0.285798  0.032858  0.456519  1
  Sn  Sn23  1  0.785798  0.467142  0.043481  1
  Sn  Sn24  1  0.565658  0.620344  0.749233  1
  Sn  Sn25  1  0.065658  0.879656  0.750767  1
  Sn  Sn26  1  0.434342  0.379656  0.249233  1
  Sn  Sn27  1  0.934342  0.120344  0.250767  1
  Sn  Sn28  1  0.336518  0.148768  0.750993  1
  Sn  Sn29  1  0.836518  0.351232  0.749007  1
  Sn  Sn30  1  0.663482  0.851232  0.250993  1
  Sn  Sn31  1  0.163482  0.648768  0.249007  1
  Sb  Sb32  1  0.282255  0.030409  0.045041  1
  Sb  Sb33  1  0.782255  0.469591  0.454959  1
  Sb  Sb34  1  0.717745  0.969591  0.545041  1
  Sb  Sb35  1  0.217745  0.530409  0.954959  1
