# generated using pymatgen
data_HoEr3ReB12Rh
_symmetry_space_group_name_H-M   'P 1'
_cell_length_a   3.65860700
_cell_length_b   9.10882381
_cell_length_c   11.49726403
_cell_angle_alpha   90.43742442
_cell_angle_beta   90.00000000
_cell_angle_gamma   90.00000000
_symmetry_Int_Tables_number   1
_chemical_formula_structural   HoEr3ReB12Rh
_chemical_formula_sum   'Ho2 Er6 Re2 B24 Rh2'
_cell_volume   383.14213111
_cell_formula_units_Z   2
loop_
 _symmetry_equiv_pos_site_id
 _symmetry_equiv_pos_as_xyz
  1  'x, y, z'
loop_
 _atom_site_type_symbol
 _atom_site_label
 _atom_site_symmetry_multiplicity
 _atom_site_fract_x
 _atom_site_fract_y
 _atom_site_fract_z
 _atom_site_occupancy
  Ho  Ho0  1  0.000000  0.318107  0.410834  1
  Ho  Ho1  1  0.000000  0.681893  0.589166  1
  Er  Er2  1  0.000000  0.826029  0.082545  1
  Er  Er3  1  0.000000  0.173971  0.917455  1
  Er  Er4  1  0.000000  0.945201  0.371828  1
  Er  Er5  1  0.000000  0.054799  0.628172  1
  Er  Er6  1  0.000000  0.442422  0.126663  1
  Er  Er7  1  0.000000  0.557578  0.873337  1
  Re  Re8  1  0.000000  0.138766  0.179470  1
  Re  Re9  1  0.000000  0.861234  0.820530  1
  B  B10  1  0.500000  0.554357  0.434216  1
  B  B11  1  0.500000  0.445643  0.565784  1
  B  B12  1  0.500000  0.052965  0.067169  1
  B  B13  1  0.500000  0.947035  0.932831  1
  B  B14  1  0.500000  0.749292  0.421290  1
  B  B15  1  0.500000  0.250708  0.578710  1
  B  B16  1  0.500000  0.248595  0.080967  1
  B  B17  1  0.500000  0.751405  0.919033  1
  B  B18  1  0.500000  0.791282  0.265034  1
  B  B19  1  0.500000  0.208718  0.734966  1
  B  B20  1  0.500000  0.292910  0.234752  1
  B  B21  1  0.500000  0.707090  0.765248  1
  B  B22  1  0.500000  0.632393  0.183291  1
  B  B23  1  0.500000  0.367607  0.816709  1
  B  B24  1  0.500000  0.131621  0.314963  1
  B  B25  1  0.500000  0.868379  0.685037  1
  B  B26  1  0.500000  0.982522  0.212917  1
  B  B27  1  0.500000  0.017478  0.787083  1
  B  B28  1  0.500000  0.483275  0.287676  1
  B  B29  1  0.500000  0.516725  0.712324  1
  B  B30  1  0.500000  0.605973  0.029404  1
  B  B31  1  0.500000  0.394027  0.970596  1
  B  B32  1  0.500000  0.106882  0.471166  1
  B  B33  1  0.500000  0.893118  0.528834  1
  Rh  Rh34  1  0.000000  0.637932  0.321209  1
  Rh  Rh35  1  0.000000  0.362068  0.678791  1
