# generated using pymatgen
data_CaEu4Sb3O14
_symmetry_space_group_name_H-M   'P 1'
_cell_length_a   7.56655487
_cell_length_b   7.56655459
_cell_length_c   7.56655503
_cell_angle_alpha   60.49171888
_cell_angle_beta   60.49172323
_cell_angle_gamma   60.49172483
_symmetry_Int_Tables_number   1
_chemical_formula_structural   CaEu4Sb3O14
_chemical_formula_sum   'Ca1 Eu4 Sb3 O14'
_cell_volume   309.72727362
_cell_formula_units_Z   1
loop_
 _symmetry_equiv_pos_site_id
 _symmetry_equiv_pos_as_xyz
  1  'x, y, z'
loop_
 _atom_site_type_symbol
 _atom_site_label
 _atom_site_symmetry_multiplicity
 _atom_site_fract_x
 _atom_site_fract_y
 _atom_site_fract_z
 _atom_site_occupancy
  Ca  Ca0  1  0.000000  0.000000  0.000000  1
  Eu  Eu1  1  0.500000  0.000000  0.500000  1
  Eu  Eu2  1  0.000000  0.500000  0.500000  1
  Eu  Eu3  1  0.500000  0.500000  0.000000  1
  Eu  Eu4  1  0.500000  0.500000  0.500000  1
  Sb  Sb5  1  0.000000  0.000000  0.500000  1
  Sb  Sb6  1  0.500000  0.000000  0.000000  1
  Sb  Sb7  1  0.000000  0.500000  0.000000  1
  O  O8  1  0.096613  0.096613  0.627293  1
  O  O9  1  0.903387  0.903387  0.372707  1
  O  O10  1  0.372707  0.903387  0.903387  1
  O  O11  1  0.627293  0.096613  0.096613  1
  O  O12  1  0.908128  0.315877  0.315877  1
  O  O13  1  0.091872  0.684123  0.684123  1
  O  O14  1  0.684123  0.684123  0.091872  1
  O  O15  1  0.315877  0.315877  0.908128  1
  O  O16  1  0.378100  0.378100  0.378100  1
  O  O17  1  0.621900  0.621900  0.621900  1
  O  O18  1  0.903387  0.372707  0.903387  1
  O  O19  1  0.096613  0.627293  0.096613  1
  O  O20  1  0.684123  0.091872  0.684123  1
  O  O21  1  0.315877  0.908128  0.315877  1
