# generated using pymatgen
data_DyTmTcB6
_symmetry_space_group_name_H-M   'P 1'
_cell_length_a   3.66022200
_cell_length_b   9.12601100
_cell_length_c   11.51046700
_cell_angle_alpha   90.00000000
_cell_angle_beta   90.00000000
_cell_angle_gamma   90.00000000
_symmetry_Int_Tables_number   1
_chemical_formula_structural   DyTmTcB6
_chemical_formula_sum   'Dy4 Tm4 Tc4 B24'
_cell_volume   384.48673327
_cell_formula_units_Z   4
loop_
 _symmetry_equiv_pos_site_id
 _symmetry_equiv_pos_as_xyz
  1  'x, y, z'
loop_
 _atom_site_type_symbol
 _atom_site_label
 _atom_site_symmetry_multiplicity
 _atom_site_fract_x
 _atom_site_fract_y
 _atom_site_fract_z
 _atom_site_occupancy
  Dy  Dy0  1  0.000000  0.323465  0.414356  1
  Dy  Dy1  1  0.000000  0.676535  0.585644  1
  Dy  Dy2  1  0.000000  0.823465  0.085644  1
  Dy  Dy3  1  0.000000  0.176535  0.914356  1
  Tm  Tm4  1  0.000000  0.943185  0.369919  1
  Tm  Tm5  1  0.000000  0.056815  0.630081  1
  Tm  Tm6  1  0.000000  0.443185  0.130081  1
  Tm  Tm7  1  0.000000  0.556815  0.869919  1
  Tc  Tc8  1  0.000000  0.639332  0.319949  1
  Tc  Tc9  1  0.000000  0.360668  0.680051  1
  Tc  Tc10  1  0.000000  0.139332  0.180051  1
  Tc  Tc11  1  0.000000  0.860668  0.819949  1
  B  B12  1  0.500000  0.553676  0.432770  1
  B  B13  1  0.500000  0.446324  0.567230  1
  B  B14  1  0.500000  0.053676  0.067230  1
  B  B15  1  0.500000  0.946324  0.932770  1
  B  B16  1  0.500000  0.749878  0.418373  1
  B  B17  1  0.500000  0.250122  0.581627  1
  B  B18  1  0.500000  0.249878  0.081627  1
  B  B19  1  0.500000  0.750122  0.918373  1
  B  B20  1  0.500000  0.792620  0.265319  1
  B  B21  1  0.500000  0.207380  0.734681  1
  B  B22  1  0.500000  0.292620  0.234681  1
  B  B23  1  0.500000  0.707380  0.765319  1
  B  B24  1  0.500000  0.630281  0.185040  1
  B  B25  1  0.500000  0.369719  0.814960  1
  B  B26  1  0.500000  0.130281  0.314960  1
  B  B27  1  0.500000  0.869719  0.685040  1
  B  B28  1  0.500000  0.981792  0.212311  1
  B  B29  1  0.500000  0.018208  0.787689  1
  B  B30  1  0.500000  0.481792  0.287689  1
  B  B31  1  0.500000  0.518208  0.712311  1
  B  B32  1  0.500000  0.598935  0.027519  1
  B  B33  1  0.500000  0.401065  0.972481  1
  B  B34  1  0.500000  0.098935  0.472481  1
  B  B35  1  0.500000  0.901065  0.527519  1
