# generated using pymatgen
data_Mg4Al2Pd3Pt7
_symmetry_space_group_name_H-M   'P 1'
_cell_length_a   4.12823100
_cell_length_b   5.51690441
_cell_length_c   10.81730508
_cell_angle_alpha   89.85049116
_cell_angle_beta   90.00000000
_cell_angle_gamma   90.00000000
_symmetry_Int_Tables_number   1
_chemical_formula_structural   Mg4Al2Pd3Pt7
_chemical_formula_sum   'Mg4 Al2 Pd3 Pt7'
_cell_volume   246.36388806
_cell_formula_units_Z   1
loop_
 _symmetry_equiv_pos_site_id
 _symmetry_equiv_pos_as_xyz
  1  'x, y, z'
loop_
 _atom_site_type_symbol
 _atom_site_label
 _atom_site_symmetry_multiplicity
 _atom_site_fract_x
 _atom_site_fract_y
 _atom_site_fract_z
 _atom_site_occupancy
  Mg  Mg0  1  0.500000  0.169462  0.360727  1
  Mg  Mg1  1  0.500000  0.831453  0.640495  1
  Mg  Mg2  1  0.500000  0.670120  0.139563  1
  Mg  Mg3  1  0.500000  0.330195  0.860588  1
  Al  Al4  1  0.000000  0.999336  0.999417  1
  Al  Al5  1  0.000000  0.497075  0.498549  1
  Pd  Pd6  1  0.000000  0.996791  0.500778  1
  Pd  Pd7  1  0.000000  0.499134  0.999444  1
  Pd  Pd8  1  0.000000  0.581512  0.738194  1
  Pt  Pt9  1  0.500000  0.181021  0.106430  1
  Pt  Pt10  1  0.500000  0.819502  0.894063  1
  Pt  Pt11  1  0.500000  0.680861  0.394339  1
  Pt  Pt12  1  0.500000  0.320832  0.605910  1
  Pt  Pt13  1  0.000000  0.921171  0.238252  1
  Pt  Pt14  1  0.000000  0.081195  0.761677  1
  Pt  Pt15  1  0.000000  0.420340  0.261575  1
