# generated using pymatgen
data_Sm2Fe11P7W
_symmetry_space_group_name_H-M   'P 1'
_cell_length_a   9.06965447
_cell_length_b   9.09051936
_cell_length_c   3.66851400
_cell_angle_alpha   90.00000000
_cell_angle_beta   90.00000000
_cell_angle_gamma   120.57696388
_symmetry_Int_Tables_number   1
_chemical_formula_structural   Sm2Fe11P7W
_chemical_formula_sum   'Sm2 Fe11 P7 W1'
_cell_volume   260.40291656
_cell_formula_units_Z   1
loop_
 _symmetry_equiv_pos_site_id
 _symmetry_equiv_pos_as_xyz
  1  'x, y, z'
loop_
 _atom_site_type_symbol
 _atom_site_label
 _atom_site_symmetry_multiplicity
 _atom_site_fract_x
 _atom_site_fract_y
 _atom_site_fract_z
 _atom_site_occupancy
  Sm  Sm0  1  0.667573  0.331373  0.000000  1
  Sm  Sm1  1  0.328873  0.669180  0.500000  1
  Fe  Fe2  1  0.425409  0.055381  0.500000  1
  Fe  Fe3  1  0.944706  0.366433  0.500000  1
  Fe  Fe4  1  0.619378  0.568993  0.500000  1
  Fe  Fe5  1  0.156912  0.276477  0.500000  1
  Fe  Fe6  1  0.727562  0.884019  0.500000  1
  Fe  Fe7  1  0.120536  0.851053  0.500000  1
  Fe  Fe8  1  0.386663  0.431968  0.000000  1
  Fe  Fe9  1  0.567552  0.953675  0.000000  1
  Fe  Fe10  1  0.051579  0.616363  0.000000  1
  Fe  Fe11  1  0.218423  0.096813  0.000000  1
  Fe  Fe12  1  0.905133  0.117752  0.000000  1
  P  P13  1  0.106854  0.396766  0.000000  1
  P  P14  1  0.591136  0.716580  0.000000  1
  P  P15  1  0.291023  0.892604  0.000000  1
  P  P16  1  0.003948  0.007984  0.500000  1
  P  P17  1  0.403597  0.287573  0.500000  1
  P  P18  1  0.699920  0.109161  0.500000  1
  P  P19  1  0.896721  0.586092  0.500000  1
  W  W20  1  0.886501  0.783758  0.000000  1
