# generated using pymatgen
data_Ca2La(H6Ir)2
_symmetry_space_group_name_H-M   'P 1'
_cell_length_a   4.93320400
_cell_length_b   4.93320574
_cell_length_c   8.27439100
_cell_angle_alpha   90.00000000
_cell_angle_beta   90.00000000
_cell_angle_gamma   119.99998830
_symmetry_Int_Tables_number   1
_chemical_formula_structural   Ca2La(H6Ir)2
_chemical_formula_sum   'Ca2 La1 H12 Ir2'
_cell_volume   174.39138453
_cell_formula_units_Z   1
loop_
 _symmetry_equiv_pos_site_id
 _symmetry_equiv_pos_as_xyz
  1  'x, y, z'
loop_
 _atom_site_type_symbol
 _atom_site_label
 _atom_site_symmetry_multiplicity
 _atom_site_fract_x
 _atom_site_fract_y
 _atom_site_fract_z
 _atom_site_occupancy
  Ca  Ca0  1  0.666667  0.333333  0.367665  1
  Ca  Ca1  1  0.333333  0.666667  0.632335  1
  La  La2  1  0.000000  0.000000  0.000000  1
  H  H3  1  0.171208  0.828792  0.368026  1
  H  H4  1  0.657585  0.828792  0.368026  1
  H  H5  1  0.171208  0.342415  0.368026  1
  H  H6  1  0.828792  0.171208  0.631974  1
  H  H7  1  0.342415  0.171208  0.631974  1
  H  H8  1  0.828792  0.657585  0.631974  1
  H  H9  1  0.505358  0.010715  0.867615  1
  H  H10  1  0.505358  0.494642  0.867615  1
  H  H11  1  0.989285  0.494642  0.867615  1
  H  H12  1  0.494642  0.989285  0.132385  1
  H  H13  1  0.494642  0.505358  0.132385  1
  H  H14  1  0.010715  0.505358  0.132385  1
  Ir  Ir15  1  0.666667  0.333333  0.747590  1
  Ir  Ir16  1  0.333333  0.666667  0.252410  1
