# generated using pymatgen
data_Th10Si2Sn5Sb
_symmetry_space_group_name_H-M   'P 1'
_cell_length_a   9.55973900
_cell_length_b   9.57866605
_cell_length_c   6.53712100
_cell_angle_alpha   90.00000000
_cell_angle_beta   90.00000000
_cell_angle_gamma   119.93465385
_symmetry_Int_Tables_number   1
_chemical_formula_structural   Th10Si2Sn5Sb
_chemical_formula_sum   'Th10 Si2 Sn5 Sb1'
_cell_volume   518.74487261
_cell_formula_units_Z   1
loop_
 _symmetry_equiv_pos_site_id
 _symmetry_equiv_pos_as_xyz
  1  'x, y, z'
loop_
 _atom_site_type_symbol
 _atom_site_label
 _atom_site_symmetry_multiplicity
 _atom_site_fract_x
 _atom_site_fract_y
 _atom_site_fract_z
 _atom_site_occupancy
  Th  Th0  1  0.257747  0.000000  0.250000  1
  Th  Th1  1  0.257116  0.256751  0.750000  1
  Th  Th2  1  0.000365  0.743249  0.750000  1
  Th  Th3  1  0.000162  0.257893  0.250000  1
  Th  Th4  1  0.742269  0.742107  0.250000  1
  Th  Th5  1  0.741364  0.000000  0.750000  1
  Th  Th6  1  0.333738  0.667452  0.000286  1
  Th  Th7  1  0.666286  0.332548  0.499714  1
  Th  Th8  1  0.666286  0.332548  0.000286  1
  Th  Th9  1  0.333738  0.667452  0.499714  1
  Si  Si10  1  0.999893  0.000000  0.000032  1
  Si  Si11  1  0.999893  0.000000  0.499968  1
  Sn  Sn12  1  0.611719  0.000000  0.250000  1
  Sn  Sn13  1  0.609917  0.610199  0.750000  1
  Sn  Sn14  1  0.999718  0.389801  0.750000  1
  Sn  Sn15  1  0.999495  0.609815  0.250000  1
  Sn  Sn16  1  0.389680  0.390185  0.250000  1
  Sb  Sb17  1  0.390613  0.000000  0.750000  1
