# generated using pymatgen
data_Dy6TaNb(Co4P3)4
_symmetry_space_group_name_H-M   'P 1'
_cell_length_a   3.71001700
_cell_length_b   10.62310600
_cell_length_c   12.32650400
_cell_angle_alpha   90.00000000
_cell_angle_beta   90.00000000
_cell_angle_gamma   90.00000000
_symmetry_Int_Tables_number   1
_chemical_formula_structural   Dy6TaNb(Co4P3)4
_chemical_formula_sum   'Dy6 Ta1 Nb1 Co16 P12'
_cell_volume   485.81099049
_cell_formula_units_Z   1
loop_
 _symmetry_equiv_pos_site_id
 _symmetry_equiv_pos_as_xyz
  1  'x, y, z'
loop_
 _atom_site_type_symbol
 _atom_site_label
 _atom_site_symmetry_multiplicity
 _atom_site_fract_x
 _atom_site_fract_y
 _atom_site_fract_z
 _atom_site_occupancy
  Dy  Dy0  1  0.000000  0.500000  0.526531  1
  Dy  Dy1  1  0.500000  0.000000  0.473552  1
  Dy  Dy2  1  0.500000  0.820512  0.205403  1
  Dy  Dy3  1  0.500000  0.179488  0.205403  1
  Dy  Dy4  1  0.000000  0.679614  0.794833  1
  Dy  Dy5  1  0.000000  0.320386  0.794833  1
  Ta  Ta6  1  0.500000  0.500000  0.156476  1
  Nb  Nb7  1  0.000000  0.000000  0.842987  1
  Co  Co8  1  0.500000  0.500000  0.702176  1
  Co  Co9  1  0.000000  0.000000  0.297836  1
  Co  Co10  1  0.000000  0.500000  0.986781  1
  Co  Co11  1  0.500000  0.000000  0.014114  1
  Co  Co12  1  0.500000  0.332816  0.992333  1
  Co  Co13  1  0.500000  0.667184  0.992333  1
  Co  Co14  1  0.000000  0.167725  0.008336  1
  Co  Co15  1  0.000000  0.832275  0.008336  1
  Co  Co16  1  0.500000  0.295595  0.432037  1
  Co  Co17  1  0.500000  0.704405  0.432037  1
  Co  Co18  1  0.000000  0.204799  0.567423  1
  Co  Co19  1  0.000000  0.795201  0.567423  1
  Co  Co20  1  0.500000  0.877300  0.704443  1
  Co  Co21  1  0.500000  0.122700  0.704443  1
  Co  Co22  1  0.000000  0.622068  0.294411  1
  Co  Co23  1  0.000000  0.377932  0.294411  1
  P  P24  1  0.500000  0.500000  0.881885  1
  P  P25  1  0.000000  0.000000  0.117935  1
  P  P26  1  0.500000  0.500000  0.356416  1
  P  P27  1  0.000000  0.000000  0.644383  1
  P  P28  1  0.500000  0.310980  0.615481  1
  P  P29  1  0.500000  0.689020  0.615481  1
  P  P30  1  0.000000  0.189134  0.384417  1
  P  P31  1  0.000000  0.810866  0.384417  1
  P  P32  1  0.500000  0.841325  0.893219  1
  P  P33  1  0.500000  0.158675  0.893219  1
  P  P34  1  0.000000  0.658870  0.107129  1
  P  P35  1  0.000000  0.341130  0.107129  1
