# generated using pymatgen
data_Tb3Yb(Ga8Pt3)3
_symmetry_space_group_name_H-M   'P 1'
_cell_length_a   7.52903837
_cell_length_b   7.59519043
_cell_length_c   13.38341433
_cell_angle_alpha   84.70444245
_cell_angle_beta   79.39514116
_cell_angle_gamma   60.20680524
_symmetry_Int_Tables_number   1
_chemical_formula_structural   Tb3Yb(Ga8Pt3)3
_chemical_formula_sum   'Tb3 Yb1 Ga24 Pt9'
_cell_volume   652.82208520
_cell_formula_units_Z   1
loop_
 _symmetry_equiv_pos_site_id
 _symmetry_equiv_pos_as_xyz
  1  'x, y, z'
loop_
 _atom_site_type_symbol
 _atom_site_label
 _atom_site_symmetry_multiplicity
 _atom_site_fract_x
 _atom_site_fract_y
 _atom_site_fract_z
 _atom_site_occupancy
  Tb  Tb0  1  0.604781  0.832636  0.189754  1
  Tb  Tb1  1  0.731978  0.498634  0.811002  1
  Tb  Tb2  1  0.267616  0.501129  0.189054  1
  Yb  Yb3  1  0.395332  0.168193  0.808454  1
  Ga  Ga4  1  0.685024  0.835686  0.938794  1
  Ga  Ga5  1  0.313635  0.166236  0.060103  1
  Ga  Ga6  1  0.146525  0.832035  0.559610  1
  Ga  Ga7  1  0.853534  0.167949  0.440205  1
  Ga  Ga8  1  0.478909  0.166533  0.556610  1
  Ga  Ga9  1  0.521283  0.833238  0.443086  1
  Ga  Ga10  1  0.221144  0.164930  0.324233  1
  Ga  Ga11  1  0.779124  0.835699  0.675005  1
  Ga  Ga12  1  0.437615  0.503415  0.673806  1
  Ga  Ga13  1  0.562747  0.495959  0.325457  1
  Ga  Ga14  1  0.108144  0.162597  0.672935  1
  Ga  Ga15  1  0.892727  0.837233  0.326192  1
  Ga  Ga16  1  0.357644  0.496436  0.939250  1
  Ga  Ga17  1  0.641392  0.502420  0.061342  1
  Ga  Ga18  1  0.020504  0.168822  0.945953  1
  Ga  Ga19  1  0.979922  0.830394  0.055504  1
  Ga  Ga20  1  0.186615  0.499142  0.442366  1
  Ga  Ga21  1  0.813381  0.501060  0.557642  1
  Ga  Ga22  1  0.735549  0.163723  0.182513  1
  Ga  Ga23  1  0.266220  0.834173  0.817970  1
  Ga  Ga24  1  0.059667  0.631668  0.817177  1
  Ga  Ga25  1  0.938371  0.369169  0.183501  1
  Ga  Ga26  1  0.857111  0.041708  0.816908  1
  Ga  Ga27  1  0.143522  0.959287  0.183680  1
  Pt  Pt28  1  0.118201  0.494774  0.638924  1
  Pt  Pt29  1  0.882904  0.504740  0.360999  1
  Pt  Pt30  1  0.660194  0.169635  0.000266  1
  Pt  Pt31  1  0.339365  0.829996  0.001350  1
  Pt  Pt32  1  0.540743  0.167183  0.360477  1
  Pt  Pt33  1  0.458749  0.833815  0.639422  1
  Pt  Pt34  1  0.779805  0.172119  0.636832  1
  Pt  Pt35  1  0.220928  0.827370  0.362758  1
  Pt  Pt36  1  0.999098  0.500267  0.000863  1
