# generated using pymatgen
data_Y3Ho(TcB6)2
_symmetry_space_group_name_H-M   'P 1'
_cell_length_a   3.68730600
_cell_length_b   9.16638805
_cell_length_c   11.55087207
_cell_angle_alpha   90.01243960
_cell_angle_beta   90.00000000
_cell_angle_gamma   90.00000000
_symmetry_Int_Tables_number   1
_chemical_formula_structural   Y3Ho(TcB6)2
_chemical_formula_sum   'Y6 Ho2 Tc4 B24'
_cell_volume   390.41112316
_cell_formula_units_Z   2
loop_
 _symmetry_equiv_pos_site_id
 _symmetry_equiv_pos_as_xyz
  1  'x, y, z'
loop_
 _atom_site_type_symbol
 _atom_site_label
 _atom_site_symmetry_multiplicity
 _atom_site_fract_x
 _atom_site_fract_y
 _atom_site_fract_z
 _atom_site_occupancy
  Y  Y0  1  0.000000  0.324046  0.414121  1
  Y  Y1  1  0.000000  0.675954  0.585879  1
  Y  Y2  1  0.000000  0.823642  0.085673  1
  Y  Y3  1  0.000000  0.176358  0.914327  1
  Y  Y4  1  0.000000  0.942759  0.369252  1
  Y  Y5  1  0.000000  0.057241  0.630748  1
  Ho  Ho6  1  0.000000  0.442694  0.130761  1
  Ho  Ho7  1  0.000000  0.557306  0.869239  1
  Tc  Tc8  1  0.000000  0.638483  0.320117  1
  Tc  Tc9  1  0.000000  0.361517  0.679883  1
  Tc  Tc10  1  0.000000  0.139408  0.179393  1
  Tc  Tc11  1  0.000000  0.860592  0.820607  1
  B  B12  1  0.500000  0.553455  0.432650  1
  B  B13  1  0.500000  0.446545  0.567350  1
  B  B14  1  0.500000  0.053629  0.067249  1
  B  B15  1  0.500000  0.946371  0.932751  1
  B  B16  1  0.500000  0.748526  0.418286  1
  B  B17  1  0.500000  0.251474  0.581714  1
  B  B18  1  0.500000  0.249229  0.081714  1
  B  B19  1  0.500000  0.750771  0.918286  1
  B  B20  1  0.500000  0.791488  0.265117  1
  B  B21  1  0.500000  0.208512  0.734883  1
  B  B22  1  0.500000  0.292125  0.234507  1
  B  B23  1  0.500000  0.707875  0.765493  1
  B  B24  1  0.500000  0.630424  0.185542  1
  B  B25  1  0.500000  0.369576  0.814458  1
  B  B26  1  0.500000  0.131113  0.314097  1
  B  B27  1  0.500000  0.868887  0.685903  1
  B  B28  1  0.500000  0.982664  0.211423  1
  B  B29  1  0.500000  0.017336  0.788577  1
  B  B30  1  0.500000  0.482401  0.288064  1
  B  B31  1  0.500000  0.517599  0.711936  1
  B  B32  1  0.500000  0.599584  0.027844  1
  B  B33  1  0.500000  0.400416  0.972156  1
  B  B34  1  0.500000  0.100647  0.471927  1
  B  B35  1  0.500000  0.899353  0.528073  1
