# generated using pymatgen
data_Dy8Sc12In5Sb11
_symmetry_space_group_name_H-M   'P 1'
_cell_length_a   7.81844200
_cell_length_b   7.84180135
_cell_length_c   14.67259600
_cell_angle_alpha   90.00000000
_cell_angle_beta   90.00000000
_cell_angle_gamma   90.15676752
_symmetry_Int_Tables_number   1
_chemical_formula_structural   Dy8Sc12In5Sb11
_chemical_formula_sum   'Dy8 Sc12 In5 Sb11'
_cell_volume   899.58331023
_cell_formula_units_Z   1
loop_
 _symmetry_equiv_pos_site_id
 _symmetry_equiv_pos_as_xyz
  1  'x, y, z'
loop_
 _atom_site_type_symbol
 _atom_site_label
 _atom_site_symmetry_multiplicity
 _atom_site_fract_x
 _atom_site_fract_y
 _atom_site_fract_z
 _atom_site_occupancy
  Dy  Dy0  1  0.978458  0.184661  0.095426  1
  Dy  Dy1  1  0.019644  0.815100  0.903895  1
  Dy  Dy2  1  0.519614  0.685326  0.908569  1
  Dy  Dy3  1  0.019644  0.815100  0.596105  1
  Dy  Dy4  1  0.479457  0.316490  0.094400  1
  Dy  Dy5  1  0.978458  0.184661  0.404574  1
  Dy  Dy6  1  0.479457  0.316490  0.405600  1
  Dy  Dy7  1  0.519614  0.685326  0.591431  1
  Sc  Sc8  1  0.180872  0.496143  0.750000  1
  Sc  Sc9  1  0.817849  0.505636  0.250000  1
  Sc  Sc10  1  0.318124  0.995186  0.250000  1
  Sc  Sc11  1  0.683098  0.005844  0.750000  1
  Sc  Sc12  1  0.358587  0.155112  0.626511  1
  Sc  Sc13  1  0.642546  0.846277  0.373619  1
  Sc  Sc14  1  0.144328  0.653929  0.374194  1
  Sc  Sc15  1  0.642546  0.846277  0.126381  1
  Sc  Sc16  1  0.859033  0.344581  0.624270  1
  Sc  Sc17  1  0.358587  0.155112  0.873489  1
  Sc  Sc18  1  0.859033  0.344581  0.875730  1
  Sc  Sc19  1  0.144328  0.653929  0.125806  1
  In  In20  1  0.551286  0.381599  0.750000  1
  In  In21  1  0.326293  0.844476  0.750000  1
  In  In22  1  0.674889  0.155212  0.250000  1
  In  In23  1  0.175769  0.345475  0.250000  1
  In  In24  1  0.813563  0.645850  0.750000  1
  Sb  Sb25  1  0.051774  0.123017  0.750000  1
  Sb  Sb26  1  0.950734  0.878165  0.250000  1
  Sb  Sb27  1  0.450534  0.621535  0.250000  1
  Sb  Sb28  1  0.204008  0.453455  0.544174  1
  Sb  Sb29  1  0.796884  0.546554  0.454670  1
  Sb  Sb30  1  0.294444  0.955057  0.455901  1
  Sb  Sb31  1  0.796884  0.546554  0.045330  1
  Sb  Sb32  1  0.705604  0.044389  0.544004  1
  Sb  Sb33  1  0.204008  0.453455  0.955826  1
  Sb  Sb34  1  0.705604  0.044389  0.955996  1
  Sb  Sb35  1  0.294444  0.955057  0.044099  1
