# generated using pymatgen
data_Dy8Tc(B8Ru)3
_symmetry_space_group_name_H-M   'P 1'
_cell_length_a   3.67330100
_cell_length_b   9.15466142
_cell_length_c   11.53762229
_cell_angle_alpha   89.90102007
_cell_angle_beta   90.00000000
_cell_angle_gamma   90.00000000
_symmetry_Int_Tables_number   1
_chemical_formula_structural   Dy8Tc(B8Ru)3
_chemical_formula_sum   'Dy8 Tc1 B24 Ru3'
_cell_volume   387.98458709
_cell_formula_units_Z   1
loop_
 _symmetry_equiv_pos_site_id
 _symmetry_equiv_pos_as_xyz
  1  'x, y, z'
loop_
 _atom_site_type_symbol
 _atom_site_label
 _atom_site_symmetry_multiplicity
 _atom_site_fract_x
 _atom_site_fract_y
 _atom_site_fract_z
 _atom_site_occupancy
  Dy  Dy0  1  0.000000  0.324849  0.413241  1
  Dy  Dy1  1  0.000000  0.676178  0.583524  1
  Dy  Dy2  1  0.000000  0.821454  0.087945  1
  Dy  Dy3  1  0.000000  0.176271  0.914896  1
  Dy  Dy4  1  0.000000  0.943609  0.372304  1
  Dy  Dy5  1  0.000000  0.056823  0.628319  1
  Dy  Dy6  1  0.000000  0.444456  0.128207  1
  Dy  Dy7  1  0.000000  0.556542  0.871294  1
  Tc  Tc8  1  0.000000  0.638031  0.321310  1
  B  B9  1  0.500000  0.553178  0.433024  1
  B  B10  1  0.500000  0.446080  0.567638  1
  B  B11  1  0.500000  0.054071  0.067244  1
  B  B12  1  0.500000  0.945907  0.932901  1
  B  B13  1  0.500000  0.748055  0.419455  1
  B  B14  1  0.500000  0.252161  0.580505  1
  B  B15  1  0.500000  0.248016  0.080356  1
  B  B16  1  0.500000  0.752021  0.919532  1
  B  B17  1  0.500000  0.791804  0.266333  1
  B  B18  1  0.500000  0.208794  0.733637  1
  B  B19  1  0.500000  0.291136  0.232976  1
  B  B20  1  0.500000  0.709226  0.766394  1
  B  B21  1  0.500000  0.632377  0.185775  1
  B  B22  1  0.500000  0.367322  0.814626  1
  B  B23  1  0.500000  0.132374  0.314057  1
  B  B24  1  0.500000  0.867942  0.685596  1
  B  B25  1  0.500000  0.984237  0.212620  1
  B  B26  1  0.500000  0.015807  0.787783  1
  B  B27  1  0.500000  0.483415  0.287448  1
  B  B28  1  0.500000  0.515495  0.712591  1
  B  B29  1  0.500000  0.608532  0.029416  1
  B  B30  1  0.500000  0.390976  0.969585  1
  B  B31  1  0.500000  0.109200  0.470131  1
  B  B32  1  0.500000  0.892148  0.530485  1
  Ru  Ru33  1  0.000000  0.361502  0.679297  1
  Ru  Ru34  1  0.000000  0.138052  0.178342  1
  Ru  Ru35  1  0.000000  0.861959  0.821213  1
