# generated using pymatgen
data_Tb2Nd14In3AgIr4
_symmetry_space_group_name_H-M   'P 1'
_cell_length_a   9.89850014
_cell_length_b   9.91625346
_cell_length_c   9.91625316
_cell_angle_alpha   60.33143201
_cell_angle_beta   60.38045046
_cell_angle_gamma   60.38044303
_symmetry_Int_Tables_number   1
_chemical_formula_structural   Tb2Nd14In3AgIr4
_chemical_formula_sum   'Tb2 Nd14 In3 Ag1 Ir4'
_cell_volume   693.92358312
_cell_formula_units_Z   1
loop_
 _symmetry_equiv_pos_site_id
 _symmetry_equiv_pos_as_xyz
  1  'x, y, z'
loop_
 _atom_site_type_symbol
 _atom_site_label
 _atom_site_symmetry_multiplicity
 _atom_site_fract_x
 _atom_site_fract_y
 _atom_site_fract_z
 _atom_site_occupancy
  Tb  Tb0  1  0.703472  0.098406  0.098406  1
  Tb  Tb1  1  0.557078  0.942964  0.942964  1
  Nd  Nd2  1  0.099681  0.703653  0.098695  1
  Nd  Nd3  1  0.939395  0.941103  0.559593  1
  Nd  Nd4  1  0.939395  0.559593  0.941103  1
  Nd  Nd5  1  0.312604  0.690808  0.308423  1
  Nd  Nd6  1  0.939652  0.558723  0.558723  1
  Nd  Nd7  1  0.312604  0.308423  0.690808  1
  Nd  Nd8  1  0.099721  0.098151  0.098151  1
  Nd  Nd9  1  0.558990  0.558749  0.940027  1
  Nd  Nd10  1  0.099681  0.098695  0.703653  1
  Nd  Nd11  1  0.692517  0.303823  0.694497  1
  Nd  Nd12  1  0.692517  0.694497  0.303823  1
  Nd  Nd13  1  0.693363  0.307827  0.307827  1
  Nd  Nd14  1  0.308653  0.690797  0.690797  1
  Nd  Nd15  1  0.558990  0.940027  0.558749  1
  In  In16  1  0.007243  0.331016  0.331016  1
  In  In17  1  0.332566  0.008139  0.329126  1
  In  In18  1  0.332566  0.329126  0.008139  1
  Ag  Ag19  1  0.331947  0.329777  0.329777  1
  Ir  Ir20  1  0.884453  0.895581  0.895581  1
  Ir  Ir21  1  0.887555  0.894482  0.322458  1
  Ir  Ir22  1  0.327799  0.893182  0.893182  1
  Ir  Ir23  1  0.887555  0.322458  0.894482  1
