# generated using pymatgen
data_PrEr4(In2Pd)2
_symmetry_space_group_name_H-M   'P 1'
_cell_length_a   3.61158400
_cell_length_b   8.19763100
_cell_length_c   18.36564200
_cell_angle_alpha   90.00000000
_cell_angle_beta   90.00000000
_cell_angle_gamma   90.00000000
_symmetry_Int_Tables_number   1
_chemical_formula_structural   PrEr4(In2Pd)2
_chemical_formula_sum   'Pr2 Er8 In8 Pd4'
_cell_volume   543.74114859
_cell_formula_units_Z   2
loop_
 _symmetry_equiv_pos_site_id
 _symmetry_equiv_pos_as_xyz
  1  'x, y, z'
loop_
 _atom_site_type_symbol
 _atom_site_label
 _atom_site_symmetry_multiplicity
 _atom_site_fract_x
 _atom_site_fract_y
 _atom_site_fract_z
 _atom_site_occupancy
  Pr  Pr0  1  0.000000  0.500000  0.500000  1
  Pr  Pr1  1  0.000000  0.000000  0.000000  1
  Er  Er2  1  0.000000  0.738202  0.281267  1
  Er  Er3  1  0.000000  0.261798  0.718733  1
  Er  Er4  1  0.000000  0.761798  0.781267  1
  Er  Er5  1  0.000000  0.238202  0.218733  1
  Er  Er6  1  0.000000  0.619696  0.084337  1
  Er  Er7  1  0.000000  0.380304  0.915663  1
  Er  Er8  1  0.000000  0.880304  0.584337  1
  Er  Er9  1  0.000000  0.119696  0.415663  1
  In  In10  1  0.500000  0.700472  0.930938  1
  In  In11  1  0.500000  0.299528  0.069062  1
  In  In12  1  0.500000  0.799528  0.430938  1
  In  In13  1  0.500000  0.200472  0.569062  1
  In  In14  1  0.500000  0.583677  0.653542  1
  In  In15  1  0.500000  0.416323  0.346458  1
  In  In16  1  0.500000  0.916323  0.153542  1
  In  In17  1  0.500000  0.083677  0.846458  1
  Pd  Pd18  1  0.500000  0.523845  0.195899  1
  Pd  Pd19  1  0.500000  0.476155  0.804101  1
  Pd  Pd20  1  0.500000  0.976155  0.695899  1
  Pd  Pd21  1  0.500000  0.023845  0.304101  1
