# generated using pymatgen
data_Tb2YHo5Au4
_symmetry_space_group_name_H-M   'P 1'
_cell_length_a   4.93341400
_cell_length_b   7.15215604
_cell_length_c   8.94583201
_cell_angle_alpha   89.96668387
_cell_angle_beta   90.00000000
_cell_angle_gamma   90.00000000
_symmetry_Int_Tables_number   1
_chemical_formula_structural   Tb2YHo5Au4
_chemical_formula_sum   'Tb2 Y1 Ho5 Au4'
_cell_volume   315.64957419
_cell_formula_units_Z   1
loop_
 _symmetry_equiv_pos_site_id
 _symmetry_equiv_pos_as_xyz
  1  'x, y, z'
loop_
 _atom_site_type_symbol
 _atom_site_label
 _atom_site_symmetry_multiplicity
 _atom_site_fract_x
 _atom_site_fract_y
 _atom_site_fract_z
 _atom_site_occupancy
  Tb  Tb0  1  0.250000  0.486535  0.176157  1
  Tb  Tb1  1  0.250000  0.986342  0.323500  1
  Y  Y2  1  0.750000  0.513829  0.822721  1
  Ho  Ho3  1  0.750000  0.013387  0.675880  1
  Ho  Ho4  1  0.750000  0.648490  0.420452  1
  Ho  Ho5  1  0.250000  0.350980  0.580327  1
  Ho  Ho6  1  0.750000  0.148054  0.079834  1
  Ho  Ho7  1  0.250000  0.852240  0.919373  1
  Au  Au8  1  0.250000  0.254562  0.899963  1
  Au  Au9  1  0.750000  0.745286  0.100203  1
  Au  Au10  1  0.250000  0.755516  0.600426  1
  Au  Au11  1  0.750000  0.244779  0.401164  1
