# generated using pymatgen
data_La4Er5LuRu4
_symmetry_space_group_name_H-M   'P 1'
_cell_length_a   6.47374743
_cell_length_b   7.23636821
_cell_length_c   8.71597726
_cell_angle_alpha   96.55239580
_cell_angle_beta   111.80028312
_cell_angle_gamma   90.00000125
_symmetry_Int_Tables_number   1
_chemical_formula_structural   La4Er5LuRu4
_chemical_formula_sum   'La4 Er5 Lu1 Ru4'
_cell_volume   376.23738730
_cell_formula_units_Z   1
loop_
 _symmetry_equiv_pos_site_id
 _symmetry_equiv_pos_as_xyz
  1  'x, y, z'
loop_
 _atom_site_type_symbol
 _atom_site_label
 _atom_site_symmetry_multiplicity
 _atom_site_fract_x
 _atom_site_fract_y
 _atom_site_fract_z
 _atom_site_occupancy
  La  La0  1  0.521552  0.089115  0.803972  1
  La  La1  1  0.478943  0.910016  0.195672  1
  La  La2  1  0.717581  0.410885  0.196028  1
  La  La3  1  0.283272  0.589984  0.804328  1
  Er  Er4  1  0.299302  0.313460  0.429542  1
  Er  Er5  1  0.700562  0.686880  0.571145  1
  Er  Er6  1  0.869762  0.186540  0.570458  1
  Er  Er7  1  0.129415  0.813120  0.428855  1
  Er  Er8  1  0.075018  0.250000  0.000000  1
  Lu  Lu9  1  0.925810  0.750000  0.000000  1
  Ru  Ru10  1  0.322352  0.581797  0.225557  1
  Ru  Ru11  1  0.677109  0.419494  0.774582  1
  Ru  Ru12  1  0.096796  0.918203  0.774443  1
  Ru  Ru13  1  0.902526  0.080506  0.225418  1
