# generated using pymatgen
data_Tb7Dy(TmSn3)2
_symmetry_space_group_name_H-M   'P 1'
_cell_length_a   6.54847900
_cell_length_b   8.99438834
_cell_length_c   8.99494200
_cell_angle_alpha   119.99816884
_cell_angle_beta   89.99904271
_cell_angle_gamma   90.00199653
_symmetry_Int_Tables_number   1
_chemical_formula_structural   Tb7Dy(TmSn3)2
_chemical_formula_sum   'Tb7 Dy1 Tm2 Sn6'
_cell_volume   458.82712659
_cell_formula_units_Z   1
loop_
 _symmetry_equiv_pos_site_id
 _symmetry_equiv_pos_as_xyz
  1  'x, y, z'
loop_
 _atom_site_type_symbol
 _atom_site_label
 _atom_site_symmetry_multiplicity
 _atom_site_fract_x
 _atom_site_fract_y
 _atom_site_fract_z
 _atom_site_occupancy
  Tb  Tb0  1  0.499999  0.333339  0.666692  1
  Tb  Tb1  1  0.750411  0.239547  0.000041  1
  Tb  Tb2  1  0.750411  0.760413  0.760411  1
  Tb  Tb3  1  0.750408  0.999918  0.239542  1
  Tb  Tb4  1  0.249589  0.760494  0.000041  1
  Tb  Tb5  1  0.249586  0.239629  0.239544  1
  Tb  Tb6  1  0.249587  0.999997  0.760411  1
  Dy  Dy7  1  0.500000  0.666644  0.333298  1
  Tm  Tm8  1  0.000006  0.666655  0.333300  1
  Tm  Tm9  1  0.999997  0.333352  0.666696  1
  Sn  Sn10  1  0.751352  0.604783  0.000484  1
  Sn  Sn11  1  0.751357  0.395617  0.395147  1
  Sn  Sn12  1  0.751355  0.999533  0.604381  1
  Sn  Sn13  1  0.248646  0.395699  0.000482  1
  Sn  Sn14  1  0.248652  0.604850  0.604382  1
  Sn  Sn15  1  0.248644  0.999531  0.395147  1
