# generated using pymatgen
data_Ac8Ga3Ir7Br4
_symmetry_space_group_name_H-M   'P 1'
_cell_length_a   11.97451989
_cell_length_b   11.99101544
_cell_length_c   4.37311200
_cell_angle_alpha   90.00000000
_cell_angle_beta   90.00000000
_cell_angle_gamma   92.75625765
_symmetry_Int_Tables_number   1
_chemical_formula_structural   Ac8Ga3Ir7Br4
_chemical_formula_sum   'Ac8 Ga3 Ir7 Br4'
_cell_volume   627.19409873
_cell_formula_units_Z   1
loop_
 _symmetry_equiv_pos_site_id
 _symmetry_equiv_pos_as_xyz
  1  'x, y, z'
loop_
 _atom_site_type_symbol
 _atom_site_label
 _atom_site_symmetry_multiplicity
 _atom_site_fract_x
 _atom_site_fract_y
 _atom_site_fract_z
 _atom_site_occupancy
  Ac  Ac0  1  0.658677  0.035503  0.500000  1
  Ac  Ac1  1  0.341749  0.968117  0.500000  1
  Ac  Ac2  1  0.029899  0.658997  0.500000  1
  Ac  Ac3  1  0.965730  0.343538  0.500000  1
  Ac  Ac4  1  0.716690  0.722770  0.000000  1
  Ac  Ac5  1  0.276756  0.267425  0.000000  1
  Ac  Ac6  1  0.378731  0.635211  0.000000  1
  Ac  Ac7  1  0.624572  0.368185  0.000000  1
  Ga  Ga8  1  0.423504  0.423739  0.500000  1
  Ga  Ga9  1  0.117653  0.484596  0.000000  1
  Ga  Ga10  1  0.777590  0.524711  0.500000  1
  Ir  Ir11  1  0.573703  0.576211  0.500000  1
  Ir  Ir12  1  0.517054  0.892188  0.000000  1
  Ir  Ir13  1  0.483043  0.109454  0.000000  1
  Ir  Ir14  1  0.904486  0.517048  0.000000  1
  Ir  Ir15  1  0.529648  0.782361  0.500000  1
  Ir  Ir16  1  0.466815  0.221709  0.500000  1
  Ir  Ir17  1  0.216316  0.470521  0.500000  1
  Br  Br18  1  0.118325  0.119176  0.500000  1
  Br  Br19  1  0.877436  0.877993  0.500000  1
  Br  Br20  1  0.831635  0.171426  0.000000  1
  Br  Br21  1  0.169989  0.829121  0.000000  1
