# generated using pymatgen
data_Mn2CrMoP2
_symmetry_space_group_name_H-M   'P 1'
_cell_length_a   3.63194300
_cell_length_b   5.88383000
_cell_length_c   6.74882300
_cell_angle_alpha   90.00000000
_cell_angle_beta   90.00000000
_cell_angle_gamma   90.00000000
_symmetry_Int_Tables_number   1
_chemical_formula_structural   Mn2CrMoP2
_chemical_formula_sum   'Mn4 Cr2 Mo2 P4'
_cell_volume   144.22056030
_cell_formula_units_Z   2
loop_
 _symmetry_equiv_pos_site_id
 _symmetry_equiv_pos_as_xyz
  1  'x, y, z'
loop_
 _atom_site_type_symbol
 _atom_site_label
 _atom_site_symmetry_multiplicity
 _atom_site_fract_x
 _atom_site_fract_y
 _atom_site_fract_z
 _atom_site_occupancy
  Mn  Mn0  1  0.250000  0.851754  0.944707  1
  Mn  Mn1  1  0.250000  0.351754  0.555293  1
  Mn  Mn2  1  0.750000  0.145505  0.059001  1
  Mn  Mn3  1  0.750000  0.645505  0.440999  1
  Cr  Cr4  1  0.250000  0.975230  0.322290  1
  Cr  Cr5  1  0.250000  0.475230  0.177710  1
  Mo  Mo6  1  0.750000  0.026074  0.668294  1
  Mo  Mo7  1  0.750000  0.526074  0.831706  1
  P  P8  1  0.250000  0.229067  0.880507  1
  P  P9  1  0.250000  0.729067  0.619493  1
  P  P10  1  0.750000  0.772370  0.132383  1
  P  P11  1  0.750000  0.272370  0.367617  1
