# generated using pymatgen
data_Fe4I11Br
_symmetry_space_group_name_H-M   'P 1'
_cell_length_a   6.56002852
_cell_length_b   10.10583915
_cell_length_c   12.53401549
_cell_angle_alpha   71.67113350
_cell_angle_beta   90.40267158
_cell_angle_gamma   90.16410052
_symmetry_Int_Tables_number   1
_chemical_formula_structural   Fe4I11Br
_chemical_formula_sum   'Fe4 I11 Br1'
_cell_volume   788.76197441
_cell_formula_units_Z   1
loop_
 _symmetry_equiv_pos_site_id
 _symmetry_equiv_pos_as_xyz
  1  'x, y, z'
loop_
 _atom_site_type_symbol
 _atom_site_label
 _atom_site_symmetry_multiplicity
 _atom_site_fract_x
 _atom_site_fract_y
 _atom_site_fract_z
 _atom_site_occupancy
  Fe  Fe0  1  0.003558  0.180044  0.955978  1
  Fe  Fe1  1  0.505811  0.823877  0.544111  1
  Fe  Fe2  1  0.996662  0.819870  0.043832  1
  Fe  Fe3  1  0.498456  0.176129  0.458578  1
  I  I4  1  0.784599  0.325913  0.800552  1
  I  I5  1  0.290237  0.677616  0.699206  1
  I  I6  1  0.215617  0.673655  0.199352  1
  I  I7  1  0.719365  0.322093  0.305924  1
  I  I8  1  0.229670  0.317382  0.042154  1
  I  I9  1  0.732633  0.686803  0.460129  1
  I  I10  1  0.770693  0.683081  0.957329  1
  I  I11  1  0.276710  0.313525  0.544682  1
  I  I12  1  0.781093  0.000331  0.114048  1
  I  I13  1  0.277721  0.999750  0.384315  1
  I  I14  1  0.218754  0.999582  0.885823  1
  Br  Br15  1  0.698423  0.000351  0.603985  1
