# generated using pymatgen
data_SrLu2(SiIr2)3
_symmetry_space_group_name_H-M   'P 1'
_cell_length_a   5.58541700
_cell_length_b   5.58556454
_cell_length_c   15.06358200
_cell_angle_alpha   90.00000000
_cell_angle_beta   90.00000000
_cell_angle_gamma   120.00007777
_symmetry_Int_Tables_number   1
_chemical_formula_structural   SrLu2(SiIr2)3
_chemical_formula_sum   'Sr2 Lu4 Si6 Ir12'
_cell_volume   406.98764414
_cell_formula_units_Z   2
loop_
 _symmetry_equiv_pos_site_id
 _symmetry_equiv_pos_as_xyz
  1  'x, y, z'
loop_
 _atom_site_type_symbol
 _atom_site_label
 _atom_site_symmetry_multiplicity
 _atom_site_fract_x
 _atom_site_fract_y
 _atom_site_fract_z
 _atom_site_occupancy
  Sr  Sr0  1  0.333338  0.666667  0.750000  1
  Sr  Sr1  1  0.666662  0.333333  0.250000  1
  Lu  Lu2  1  0.333337  0.666668  0.539513  1
  Lu  Lu3  1  0.666663  0.333332  0.460487  1
  Lu  Lu4  1  0.666663  0.333332  0.039513  1
  Lu  Lu5  1  0.333337  0.666668  0.960487  1
  Si  Si6  1  0.999996  0.999996  0.250000  1
  Si  Si7  1  0.000004  0.000004  0.750000  1
  Si  Si8  1  0.333337  0.666670  0.250000  1
  Si  Si9  1  0.666663  0.333330  0.750000  1
  Si  Si10  1  0.000000  0.000000  0.000000  1
  Si  Si11  1  0.000000  0.000000  0.500000  1
  Ir  Ir12  1  0.168027  0.336057  0.127131  1
  Ir  Ir13  1  0.831973  0.663943  0.872869  1
  Ir  Ir14  1  0.663945  0.831972  0.127130  1
  Ir  Ir15  1  0.831973  0.663943  0.627131  1
  Ir  Ir16  1  0.336055  0.168028  0.872870  1
  Ir  Ir17  1  0.168027  0.336057  0.372869  1
  Ir  Ir18  1  0.168026  0.831970  0.127131  1
  Ir  Ir19  1  0.336055  0.168028  0.627130  1
  Ir  Ir20  1  0.831974  0.168030  0.872869  1
  Ir  Ir21  1  0.663945  0.831972  0.372870  1
  Ir  Ir22  1  0.831974  0.168030  0.627131  1
  Ir  Ir23  1  0.168026  0.831970  0.372869  1
