# generated using pymatgen
data_YbHo3(Ir2O7)2
_symmetry_space_group_name_H-M   'P 1'
_cell_length_a   7.23297326
_cell_length_b   7.21788547
_cell_length_c   7.21788700
_cell_angle_alpha   59.99999757
_cell_angle_beta   60.06897709
_cell_angle_gamma   60.06897097
_symmetry_Int_Tables_number   1
_chemical_formula_structural   YbHo3(Ir2O7)2
_chemical_formula_sum   'Yb1 Ho3 Ir4 O14'
_cell_volume   266.73125213
_cell_formula_units_Z   1
loop_
 _symmetry_equiv_pos_site_id
 _symmetry_equiv_pos_as_xyz
  1  'x, y, z'
loop_
 _atom_site_type_symbol
 _atom_site_label
 _atom_site_symmetry_multiplicity
 _atom_site_fract_x
 _atom_site_fract_y
 _atom_site_fract_z
 _atom_site_occupancy
  Yb  Yb0  1  0.625000  0.125000  0.125000  1
  Ho  Ho1  1  0.125000  0.125000  0.625000  1
  Ho  Ho2  1  0.125000  0.125000  0.125000  1
  Ho  Ho3  1  0.125000  0.625000  0.125000  1
  Ir  Ir4  1  0.625000  0.625000  0.625000  1
  Ir  Ir5  1  0.125000  0.625000  0.625000  1
  Ir  Ir6  1  0.625000  0.125000  0.625000  1
  Ir  Ir7  1  0.625000  0.625000  0.125000  1
  O  O8  1  0.960861  0.539885  0.539885  1
  O  O9  1  0.289139  0.290629  0.710115  1
  O  O10  1  0.960861  0.539885  0.959371  1
  O  O11  1  0.716946  0.290799  0.290799  1
  O  O12  1  0.533054  0.548543  0.959201  1
  O  O13  1  0.533054  0.959201  0.548543  1
  O  O14  1  0.533054  0.959201  0.959201  1
  O  O15  1  0.243108  0.252297  0.252297  1
  O  O16  1  0.289139  0.710115  0.710115  1
  O  O17  1  0.716946  0.290799  0.701457  1
  O  O18  1  0.006892  0.997703  0.997703  1
  O  O19  1  0.960861  0.959371  0.539885  1
  O  O20  1  0.289139  0.710115  0.290629  1
  O  O21  1  0.716946  0.701457  0.290799  1
