# generated using pymatgen
data_ScTi4Co10CuB4
_symmetry_space_group_name_H-M   'P 1'
_cell_length_a   8.54090767
_cell_length_b   8.50340235
_cell_length_c   2.98941600
_cell_angle_alpha   90.00000000
_cell_angle_beta   90.00000000
_cell_angle_gamma   89.31444328
_symmetry_Int_Tables_number   1
_chemical_formula_structural   ScTi4Co10CuB4
_chemical_formula_sum   'Sc1 Ti4 Co10 Cu1 B4'
_cell_volume   217.09609991
_cell_formula_units_Z   1
loop_
 _symmetry_equiv_pos_site_id
 _symmetry_equiv_pos_as_xyz
  1  'x, y, z'
loop_
 _atom_site_type_symbol
 _atom_site_label
 _atom_site_symmetry_multiplicity
 _atom_site_fract_x
 _atom_site_fract_y
 _atom_site_fract_z
 _atom_site_occupancy
  Sc  Sc0  1  0.830795  0.316715  0.000000  1
  Ti  Ti1  1  0.501264  0.499923  0.000000  1
  Ti  Ti2  1  0.321034  0.171753  0.000000  1
  Ti  Ti3  1  0.677433  0.826937  0.000000  1
  Ti  Ti4  1  0.170144  0.681748  0.000000  1
  Co  Co5  1  0.495633  0.996896  0.500000  1
  Co  Co6  1  0.005826  0.505749  0.500000  1
  Co  Co7  1  0.084476  0.220081  0.500000  1
  Co  Co8  1  0.217927  0.929032  0.500000  1
  Co  Co9  1  0.772917  0.056819  0.500000  1
  Co  Co10  1  0.928606  0.784069  0.500000  1
  Co  Co11  1  0.427961  0.719631  0.500000  1
  Co  Co12  1  0.562244  0.274415  0.500000  1
  Co  Co13  1  0.721171  0.576805  0.500000  1
  Co  Co14  1  0.282494  0.433342  0.500000  1
  Cu  Cu15  1  0.999182  0.003997  0.000000  1
  B  B16  1  0.619704  0.114769  0.000000  1
  B  B17  1  0.125790  0.379483  0.000000  1
  B  B18  1  0.882729  0.628641  0.000000  1
  B  B19  1  0.372671  0.879196  0.000000  1
