# generated using pymatgen
data_CeNd2ThSe6
_symmetry_space_group_name_H-M   'P 1'
_cell_length_a   11.56208200
_cell_length_b   4.18918600
_cell_length_c   11.37231400
_cell_angle_alpha   90.00000000
_cell_angle_beta   90.00000000
_cell_angle_gamma   90.00000000
_symmetry_Int_Tables_number   1
_chemical_formula_structural   CeNd2ThSe6
_chemical_formula_sum   'Ce2 Nd4 Th2 Se12'
_cell_volume   550.82612619
_cell_formula_units_Z   2
loop_
 _symmetry_equiv_pos_site_id
 _symmetry_equiv_pos_as_xyz
  1  'x, y, z'
loop_
 _atom_site_type_symbol
 _atom_site_label
 _atom_site_symmetry_multiplicity
 _atom_site_fract_x
 _atom_site_fract_y
 _atom_site_fract_z
 _atom_site_occupancy
  Ce  Ce0  1  0.487175  0.250000  0.185445  1
  Ce  Ce1  1  0.987175  0.250000  0.314555  1
  Nd  Nd2  1  0.512422  0.750000  0.813718  1
  Nd  Nd3  1  0.012422  0.750000  0.686282  1
  Nd  Nd4  1  0.693183  0.750000  0.490353  1
  Nd  Nd5  1  0.193183  0.750000  0.009647  1
  Th  Th6  1  0.309595  0.250000  0.498272  1
  Th  Th7  1  0.809595  0.250000  0.001728  1
  Se  Se8  1  0.545604  0.250000  0.624110  1
  Se  Se9  1  0.045604  0.250000  0.875890  1
  Se  Se10  1  0.449871  0.750000  0.372715  1
  Se  Se11  1  0.949871  0.750000  0.127285  1
  Se  Se12  1  0.622133  0.750000  0.054936  1
  Se  Se13  1  0.122133  0.750000  0.445064  1
  Se  Se14  1  0.376217  0.250000  0.944280  1
  Se  Se15  1  0.876217  0.250000  0.555720  1
  Se  Se16  1  0.726848  0.250000  0.294759  1
  Se  Se17  1  0.226848  0.250000  0.205241  1
  Se  Se18  1  0.276952  0.750000  0.690008  1
  Se  Se19  1  0.776952  0.750000  0.809992  1
