# generated using pymatgen
data_Pr7Dy(Tm3Pt4)4
_symmetry_space_group_name_H-M   'P 1'
_cell_length_a   7.61373740
_cell_length_b   7.65766200
_cell_length_c   14.60788873
_cell_angle_alpha   89.90606081
_cell_angle_beta   89.89880033
_cell_angle_gamma   90.10034780
_symmetry_Int_Tables_number   1
_chemical_formula_structural   Pr7Dy(Tm3Pt4)4
_chemical_formula_sum   'Pr7 Dy1 Tm12 Pt16'
_cell_volume   851.68619933
_cell_formula_units_Z   1
loop_
 _symmetry_equiv_pos_site_id
 _symmetry_equiv_pos_as_xyz
  1  'x, y, z'
loop_
 _atom_site_type_symbol
 _atom_site_label
 _atom_site_symmetry_multiplicity
 _atom_site_fract_x
 _atom_site_fract_y
 _atom_site_fract_z
 _atom_site_occupancy
  Pr  Pr0  1  0.500540  0.675609  0.594581  1
  Pr  Pr1  1  0.000806  0.824249  0.903938  1
  Pr  Pr2  1  0.498054  0.326318  0.094939  1
  Pr  Pr3  1  0.998054  0.170895  0.406869  1
  Pr  Pr4  1  0.498596  0.325699  0.404427  1
  Pr  Pr5  1  0.998946  0.175946  0.094922  1
  Pr  Pr6  1  0.502259  0.674968  0.903210  1
  Dy  Dy7  1  0.999997  0.823316  0.598651  1
  Tm  Tm8  1  0.660222  0.166738  0.622203  1
  Tm  Tm9  1  0.158558  0.331626  0.875528  1
  Tm  Tm10  1  0.341910  0.832885  0.122869  1
  Tm  Tm11  1  0.843223  0.670350  0.378965  1
  Tm  Tm12  1  0.340846  0.834088  0.377064  1
  Tm  Tm13  1  0.841707  0.666939  0.123863  1
  Tm  Tm14  1  0.659139  0.166232  0.875641  1
  Tm  Tm15  1  0.158918  0.331863  0.622625  1
  Tm  Tm16  1  0.822939  0.506859  0.748575  1
  Tm  Tm17  1  0.321871  0.992338  0.748220  1
  Tm  Tm18  1  0.176538  0.493153  0.251449  1
  Tm  Tm19  1  0.677600  0.008351  0.250085  1
  Pt  Pt20  1  0.674836  0.960140  0.460158  1
  Pt  Pt21  1  0.175757  0.538069  0.042675  1
  Pt  Pt22  1  0.325347  0.036696  0.955080  1
  Pt  Pt23  1  0.828924  0.469956  0.546887  1
  Pt  Pt24  1  0.314114  0.030591  0.545022  1
  Pt  Pt25  1  0.824227  0.461503  0.956317  1
  Pt  Pt26  1  0.676777  0.962035  0.043047  1
  Pt  Pt27  1  0.175619  0.540823  0.457831  1
  Pt  Pt28  1  0.454113  0.371348  0.748996  1
  Pt  Pt29  1  0.956264  0.124490  0.747831  1
  Pt  Pt30  1  0.545684  0.629773  0.250757  1
  Pt  Pt31  1  0.045118  0.873659  0.250541  1
  Pt  Pt32  1  0.691915  0.863449  0.747462  1
  Pt  Pt33  1  0.186171  0.636843  0.746652  1
  Pt  Pt34  1  0.312474  0.136482  0.250214  1
  Pt  Pt35  1  0.811936  0.365722  0.251901  1
