# generated using pymatgen
data_Ac5IrPb3
_symmetry_space_group_name_H-M   'P 1'
_cell_length_a   10.02507600
_cell_length_b   10.02507644
_cell_length_c   7.64302100
_cell_angle_alpha   90.00000000
_cell_angle_beta   90.00000000
_cell_angle_gamma   119.99999855
_symmetry_Int_Tables_number   1
_chemical_formula_structural   Ac5IrPb3
_chemical_formula_sum   'Ac10 Ir2 Pb6'
_cell_volume   665.22882200
_cell_formula_units_Z   2
loop_
 _symmetry_equiv_pos_site_id
 _symmetry_equiv_pos_as_xyz
  1  'x, y, z'
loop_
 _atom_site_type_symbol
 _atom_site_label
 _atom_site_symmetry_multiplicity
 _atom_site_fract_x
 _atom_site_fract_y
 _atom_site_fract_z
 _atom_site_occupancy
  Ac  Ac0  1  0.000000  0.767880  0.750000  1
  Ac  Ac1  1  0.333333  0.666667  0.500000  1
  Ac  Ac2  1  0.767880  0.767880  0.250000  1
  Ac  Ac3  1  0.767880  0.000000  0.750000  1
  Ac  Ac4  1  0.232120  0.000000  0.250000  1
  Ac  Ac5  1  0.666667  0.333333  0.500000  1
  Ac  Ac6  1  0.232120  0.232120  0.750000  1
  Ac  Ac7  1  0.333333  0.666667  0.000000  1
  Ac  Ac8  1  0.000000  0.232120  0.250000  1
  Ac  Ac9  1  0.666667  0.333333  0.000000  1
  Ir  Ir10  1  0.000000  0.000000  0.000000  1
  Ir  Ir11  1  0.000000  0.000000  0.500000  1
  Pb  Pb12  1  0.410387  0.410387  0.250000  1
  Pb  Pb13  1  0.589613  0.589613  0.750000  1
  Pb  Pb14  1  0.589613  0.000000  0.250000  1
  Pb  Pb15  1  0.410387  0.000000  0.750000  1
  Pb  Pb16  1  0.000000  0.589613  0.250000  1
  Pb  Pb17  1  0.000000  0.410387  0.750000  1
