# generated using pymatgen
data_Tb8Ta2Ti7Si16W3
_symmetry_space_group_name_H-M   'P 1'
_cell_length_a   7.01435378
_cell_length_b   7.01251368
_cell_length_c   12.92081098
_cell_angle_alpha   89.98508940
_cell_angle_beta   90.02035511
_cell_angle_gamma   90.00237094
_symmetry_Int_Tables_number   1
_chemical_formula_structural   Tb8Ta2Ti7Si16W3
_chemical_formula_sum   'Tb8 Ta2 Ti7 Si16 W3'
_cell_volume   635.55204207
_cell_formula_units_Z   1
loop_
 _symmetry_equiv_pos_site_id
 _symmetry_equiv_pos_as_xyz
  1  'x, y, z'
loop_
 _atom_site_type_symbol
 _atom_site_label
 _atom_site_symmetry_multiplicity
 _atom_site_fract_x
 _atom_site_fract_y
 _atom_site_fract_z
 _atom_site_occupancy
  Tb  Tb0  1  0.340219  0.001548  0.466895  1
  Tb  Tb1  1  0.498289  0.841063  0.718475  1
  Tb  Tb2  1  0.500755  0.159777  0.216828  1
  Tb  Tb3  1  0.841304  0.498509  0.281875  1
  Tb  Tb4  1  0.159608  0.501125  0.783097  1
  Tb  Tb5  1  0.659047  0.998942  0.967529  1
  Tb  Tb6  1  0.001388  0.340104  0.532783  1
  Tb  Tb7  1  0.999086  0.659664  0.032532  1
  Ta  Ta8  1  0.673755  0.673573  0.499930  1
  Ta  Ta9  1  0.152959  0.008946  0.876501  1
  Ti  Ti10  1  0.490940  0.654409  0.125476  1
  Ti  Ti11  1  0.508022  0.345934  0.627045  1
  Ti  Ti12  1  0.653779  0.490335  0.874434  1
  Ti  Ti13  1  0.345998  0.508917  0.373068  1
  Ti  Ti14  1  0.846395  0.991040  0.376003  1
  Ti  Ti15  1  0.009061  0.153022  0.123400  1
  Ti  Ti16  1  0.990850  0.845890  0.624255  1
  Si  Si17  1  0.201081  0.130139  0.684195  1
  Si  Si18  1  0.371191  0.699407  0.934712  1
  Si  Si19  1  0.630189  0.298314  0.435334  1
  Si  Si20  1  0.699076  0.370616  0.065130  1
  Si  Si21  1  0.298274  0.630406  0.564676  1
  Si  Si22  1  0.800351  0.870175  0.185356  1
  Si  Si23  1  0.129392  0.199848  0.314522  1
  Si  Si24  1  0.867965  0.798468  0.815438  1
  Si  Si25  1  0.292752  0.952843  0.066433  1
  Si  Si26  1  0.545552  0.791849  0.314250  1
  Si  Si27  1  0.454869  0.210102  0.814925  1
  Si  Si28  1  0.792183  0.544992  0.685403  1
  Si  Si29  1  0.209243  0.453267  0.184519  1
  Si  Si30  1  0.708718  0.047986  0.565972  1
  Si  Si31  1  0.951864  0.293877  0.935182  1
  Si  Si32  1  0.047979  0.708293  0.433929  1
  W  W33  1  0.326477  0.326496  0.999852  1
  W  W34  1  0.173179  0.827252  0.249089  1
  W  W35  1  0.828206  0.172870  0.750954  1
