# generated using pymatgen
data_K2La3Ce3F20
_symmetry_space_group_name_H-M   'P 1'
_cell_length_a   8.77213155
_cell_length_b   8.72766827
_cell_length_c   8.75540029
_cell_angle_alpha   60.23145755
_cell_angle_beta   59.72759027
_cell_angle_gamma   60.04095381
_symmetry_Int_Tables_number   1
_chemical_formula_structural   K2La3Ce3F20
_chemical_formula_sum   'K2 La3 Ce3 F20'
_cell_volume   473.96609393
_cell_formula_units_Z   1
loop_
 _symmetry_equiv_pos_site_id
 _symmetry_equiv_pos_as_xyz
  1  'x, y, z'
loop_
 _atom_site_type_symbol
 _atom_site_label
 _atom_site_symmetry_multiplicity
 _atom_site_fract_x
 _atom_site_fract_y
 _atom_site_fract_z
 _atom_site_occupancy
  K  K0  1  0.248378  0.248378  0.251622  1
  K  K1  1  0.748378  0.748378  0.751622  1
  La  La2  1  0.240309  0.759385  0.240615  1
  La  La3  1  0.240404  0.240404  0.759596  1
  La  La4  1  0.759385  0.240309  0.759691  1
  Ce  Ce5  1  0.759829  0.759829  0.240171  1
  Ce  Ce6  1  0.759835  0.240389  0.240165  1
  Ce  Ce7  1  0.240389  0.759835  0.759611  1
  F  F8  1  0.887828  0.886478  0.888021  1
  F  F9  1  0.662326  0.111979  0.113522  1
  F  F10  1  0.113004  0.111113  0.661972  1
  F  F11  1  0.111979  0.662326  0.112172  1
  F  F12  1  0.886478  0.887828  0.337674  1
  F  F13  1  0.886090  0.338028  0.888887  1
  F  F14  1  0.338028  0.886090  0.886996  1
  F  F15  1  0.111113  0.113004  0.113910  1
  F  F16  1  0.501157  0.169812  0.498843  1
  F  F17  1  0.170016  0.499470  0.500530  1
  F  F18  1  0.499470  0.170016  0.829984  1
  F  F19  1  0.832675  0.500042  0.167325  1
  F  F20  1  0.169812  0.501157  0.830188  1
  F  F21  1  0.503244  0.498395  0.170533  1
  F  F22  1  0.829467  0.172172  0.496756  1
  F  F23  1  0.502167  0.827628  0.172372  1
  F  F24  1  0.498395  0.503244  0.827828  1
  F  F25  1  0.172172  0.829467  0.501605  1
  F  F26  1  0.827628  0.502167  0.497833  1
  F  F27  1  0.500042  0.832675  0.499958  1
