# generated using pymatgen
data_Nb8FeCoSe16
_symmetry_space_group_name_H-M   'P 1'
_cell_length_a   6.96050800
_cell_length_b   6.96050872
_cell_length_c   12.42745300
_cell_angle_alpha   90.00000000
_cell_angle_beta   90.00000000
_cell_angle_gamma   120.00000610
_symmetry_Int_Tables_number   1
_chemical_formula_structural   Nb8FeCoSe16
_chemical_formula_sum   'Nb8 Fe1 Co1 Se16'
_cell_volume   521.42836543
_cell_formula_units_Z   1
loop_
 _symmetry_equiv_pos_site_id
 _symmetry_equiv_pos_as_xyz
  1  'x, y, z'
loop_
 _atom_site_type_symbol
 _atom_site_label
 _atom_site_symmetry_multiplicity
 _atom_site_fract_x
 _atom_site_fract_y
 _atom_site_fract_z
 _atom_site_occupancy
  Nb  Nb0  1  0.016521  0.508261  0.247867  1
  Nb  Nb1  1  0.983479  0.491739  0.752133  1
  Nb  Nb2  1  0.491739  0.508261  0.247867  1
  Nb  Nb3  1  0.508261  0.491739  0.752133  1
  Nb  Nb4  1  0.491739  0.983479  0.247867  1
  Nb  Nb5  1  0.508261  0.016521  0.752133  1
  Nb  Nb6  1  0.000000  0.000000  0.250829  1
  Nb  Nb7  1  0.000000  0.000000  0.749171  1
  Fe  Fe8  1  0.000000  0.000000  0.000000  1
  Co  Co9  1  0.000000  0.000000  0.500000  1
  Se  Se10  1  0.329832  0.164917  0.114695  1
  Se  Se11  1  0.670168  0.835083  0.885305  1
  Se  Se12  1  0.835083  0.164917  0.114695  1
  Se  Se13  1  0.663612  0.831806  0.617579  1
  Se  Se14  1  0.164917  0.835083  0.885305  1
  Se  Se15  1  0.336388  0.168194  0.382421  1
  Se  Se16  1  0.835083  0.670168  0.114695  1
  Se  Se17  1  0.168194  0.831806  0.617579  1
  Se  Se18  1  0.164917  0.329832  0.885305  1
  Se  Se19  1  0.831806  0.168194  0.382421  1
  Se  Se20  1  0.168194  0.336388  0.617579  1
  Se  Se21  1  0.831806  0.663612  0.382421  1
  Se  Se22  1  0.333333  0.666667  0.107291  1
  Se  Se23  1  0.666667  0.333333  0.892709  1
  Se  Se24  1  0.666667  0.333333  0.611908  1
  Se  Se25  1  0.333333  0.666667  0.388092  1
