# generated using pymatgen
data_YbScB6Rh
_symmetry_space_group_name_H-M   'P 1'
_cell_length_a   3.54215200
_cell_length_b   8.98226700
_cell_length_c   11.35743600
_cell_angle_alpha   90.00000000
_cell_angle_beta   90.00000000
_cell_angle_gamma   90.00000000
_symmetry_Int_Tables_number   1
_chemical_formula_structural   YbScB6Rh
_chemical_formula_sum   'Yb4 Sc4 B24 Rh4'
_cell_volume   361.35448736
_cell_formula_units_Z   4
loop_
 _symmetry_equiv_pos_site_id
 _symmetry_equiv_pos_as_xyz
  1  'x, y, z'
loop_
 _atom_site_type_symbol
 _atom_site_label
 _atom_site_symmetry_multiplicity
 _atom_site_fract_x
 _atom_site_fract_y
 _atom_site_fract_z
 _atom_site_occupancy
  Yb  Yb0  1  0.000000  0.322026  0.414638  1
  Yb  Yb1  1  0.000000  0.677974  0.585362  1
  Yb  Yb2  1  0.000000  0.822026  0.085362  1
  Yb  Yb3  1  0.000000  0.177974  0.914638  1
  Sc  Sc4  1  0.000000  0.945471  0.374700  1
  Sc  Sc5  1  0.000000  0.054529  0.625301  1
  Sc  Sc6  1  0.000000  0.445471  0.125300  1
  Sc  Sc7  1  0.000000  0.554529  0.874699  1
  B  B8  1  0.500000  0.555492  0.432642  1
  B  B9  1  0.500000  0.444508  0.567358  1
  B  B10  1  0.500000  0.055492  0.067358  1
  B  B11  1  0.500000  0.944508  0.932642  1
  B  B12  1  0.500000  0.753142  0.418859  1
  B  B13  1  0.500000  0.246858  0.581141  1
  B  B14  1  0.500000  0.253142  0.081141  1
  B  B15  1  0.500000  0.746858  0.918859  1
  B  B16  1  0.500000  0.793506  0.264517  1
  B  B17  1  0.500000  0.206494  0.735483  1
  B  B18  1  0.500000  0.293505  0.235483  1
  B  B19  1  0.500000  0.706494  0.764517  1
  B  B20  1  0.500000  0.629685  0.181504  1
  B  B21  1  0.500000  0.370315  0.818496  1
  B  B22  1  0.500000  0.129685  0.318496  1
  B  B23  1  0.500000  0.870315  0.681504  1
  B  B24  1  0.500000  0.982799  0.214266  1
  B  B25  1  0.500000  0.017201  0.785734  1
  B  B26  1  0.500000  0.482799  0.285734  1
  B  B27  1  0.500000  0.517201  0.714266  1
  B  B28  1  0.500000  0.599667  0.026616  1
  B  B29  1  0.500000  0.400333  0.973384  1
  B  B30  1  0.500000  0.099667  0.473384  1
  B  B31  1  0.500000  0.900333  0.526616  1
  Rh  Rh32  1  0.000000  0.640666  0.318274  1
  Rh  Rh33  1  0.000000  0.359334  0.681726  1
  Rh  Rh34  1  0.000000  0.140666  0.181726  1
  Rh  Rh35  1  0.000000  0.859334  0.818274  1
