# generated using pymatgen
data_ThSiPRu2
_symmetry_space_group_name_H-M   'P 1'
_cell_length_a   5.72664427
_cell_length_b   5.72664410
_cell_length_c   5.72664390
_cell_angle_alpha   137.44400968
_cell_angle_beta   137.44400817
_cell_angle_gamma   61.75560475
_symmetry_Int_Tables_number   1
_chemical_formula_structural   ThSiPRu2
_chemical_formula_sum   'Th1 Si1 P1 Ru2'
_cell_volume   84.90621341
_cell_formula_units_Z   1
loop_
 _symmetry_equiv_pos_site_id
 _symmetry_equiv_pos_as_xyz
  1  'x, y, z'
loop_
 _atom_site_type_symbol
 _atom_site_label
 _atom_site_symmetry_multiplicity
 _atom_site_fract_x
 _atom_site_fract_y
 _atom_site_fract_z
 _atom_site_occupancy
  Th  Th0  1  0.001862  0.001862  0.000000  1
  Si  Si1  1  0.372881  0.372881  0.000000  1
  P  P2  1  0.629023  0.629023  0.000000  1
  Ru  Ru3  1  0.248117  0.748117  0.500000  1
  Ru  Ru4  1  0.748117  0.248117  0.500000  1
