# generated using pymatgen
data_Sr7Rh2PbO12
_symmetry_space_group_name_H-M   'P 1'
_cell_length_a   6.92783812
_cell_length_b   6.92783870
_cell_length_c   6.92783798
_cell_angle_alpha   89.77430350
_cell_angle_beta   89.77430665
_cell_angle_gamma   89.77430343
_symmetry_Int_Tables_number   1
_chemical_formula_structural   Sr7Rh2PbO12
_chemical_formula_sum   'Sr7 Rh2 Pb1 O12'
_cell_volume   332.49348409
_cell_formula_units_Z   1
loop_
 _symmetry_equiv_pos_site_id
 _symmetry_equiv_pos_as_xyz
  1  'x, y, z'
loop_
 _atom_site_type_symbol
 _atom_site_label
 _atom_site_symmetry_multiplicity
 _atom_site_fract_x
 _atom_site_fract_y
 _atom_site_fract_z
 _atom_site_occupancy
  Sr  Sr0  1  0.882546  0.617454  0.250000  1
  Sr  Sr1  1  0.121002  0.378998  0.750000  1
  Sr  Sr2  1  0.250000  0.882546  0.617454  1
  Sr  Sr3  1  0.617454  0.250000  0.882546  1
  Sr  Sr4  1  0.378998  0.750000  0.121002  1
  Sr  Sr5  1  0.250000  0.250000  0.250000  1
  Sr  Sr6  1  0.750000  0.121002  0.378998  1
  Rh  Rh7  1  0.000957  0.000957  0.000957  1
  Rh  Rh8  1  0.499043  0.499043  0.499043  1
  Pb  Pb9  1  0.750000  0.750000  0.750000  1
  O  O10  1  0.452163  0.585837  0.783514  1
  O  O11  1  0.585837  0.783514  0.452163  1
  O  O12  1  0.942807  0.287610  0.076756  1
  O  O13  1  0.557193  0.423244  0.212390  1
  O  O14  1  0.212390  0.557193  0.423244  1
  O  O15  1  0.047837  0.716486  0.914163  1
  O  O16  1  0.783514  0.452163  0.585837  1
  O  O17  1  0.716486  0.914163  0.047837  1
  O  O18  1  0.076756  0.942807  0.287610  1
  O  O19  1  0.914163  0.047837  0.716486  1
  O  O20  1  0.423244  0.212390  0.557193  1
  O  O21  1  0.287610  0.076756  0.942807  1
