# generated using pymatgen
data_Y10TlHg2Rh
_symmetry_space_group_name_H-M   'P 1'
_cell_length_a   9.71519700
_cell_length_b   9.71519718
_cell_length_c   9.71412400
_cell_angle_alpha   90.00000000
_cell_angle_beta   90.00000000
_cell_angle_gamma   119.93730347
_symmetry_Int_Tables_number   1
_chemical_formula_structural   Y10TlHg2Rh
_chemical_formula_sum   'Y20 Tl2 Hg4 Rh2'
_cell_volume   794.53225730
_cell_formula_units_Z   2
loop_
 _symmetry_equiv_pos_site_id
 _symmetry_equiv_pos_as_xyz
  1  'x, y, z'
loop_
 _atom_site_type_symbol
 _atom_site_label
 _atom_site_symmetry_multiplicity
 _atom_site_fract_x
 _atom_site_fract_y
 _atom_site_fract_z
 _atom_site_occupancy
  Y  Y0  1  0.002235  0.997765  0.489390  1
  Y  Y1  1  0.002235  0.997765  0.010610  1
  Y  Y2  1  0.208674  0.791326  0.437228  1
  Y  Y3  1  0.208264  0.417119  0.437661  1
  Y  Y4  1  0.582881  0.791736  0.437661  1
  Y  Y5  1  0.791381  0.208619  0.560589  1
  Y  Y6  1  0.791008  0.582533  0.560462  1
  Y  Y7  1  0.417467  0.208992  0.560462  1
  Y  Y8  1  0.791381  0.208619  0.939411  1
  Y  Y9  1  0.791008  0.582533  0.939538  1
  Y  Y10  1  0.417467  0.208992  0.939538  1
  Y  Y11  1  0.208674  0.791326  0.062772  1
  Y  Y12  1  0.208264  0.417119  0.062339  1
  Y  Y13  1  0.582881  0.791736  0.062339  1
  Y  Y14  1  0.542023  0.457977  0.250000  1
  Y  Y15  1  0.542684  0.084711  0.250000  1
  Y  Y16  1  0.915289  0.457316  0.250000  1
  Y  Y17  1  0.457851  0.542149  0.750000  1
  Y  Y18  1  0.453643  0.917759  0.750000  1
  Y  Y19  1  0.082241  0.546357  0.750000  1
  Tl  Tl20  1  0.116218  0.232420  0.750000  1
  Tl  Tl21  1  0.767580  0.883782  0.750000  1
  Hg  Hg22  1  0.879205  0.120795  0.250000  1
  Hg  Hg23  1  0.878662  0.757170  0.250000  1
  Hg  Hg24  1  0.242830  0.121338  0.250000  1
  Hg  Hg25  1  0.117597  0.882403  0.750000  1
  Rh  Rh26  1  0.333932  0.666068  0.250000  1
  Rh  Rh27  1  0.666423  0.333577  0.750000  1
