# generated using pymatgen
data_LiDy3Ho2(Si3Ru)8
_symmetry_space_group_name_H-M   'P 1'
_cell_length_a   10.12782516
_cell_length_b   10.12770849
_cell_length_c   8.10675304
_cell_angle_alpha   90.00352420
_cell_angle_beta   89.99044633
_cell_angle_gamma   132.75409176
_symmetry_Int_Tables_number   1
_chemical_formula_structural   LiDy3Ho2(Si3Ru)8
_chemical_formula_sum   'Li1 Dy3 Ho2 Si24 Ru8'
_cell_volume   610.56582592
_cell_formula_units_Z   1
loop_
 _symmetry_equiv_pos_site_id
 _symmetry_equiv_pos_as_xyz
  1  'x, y, z'
loop_
 _atom_site_type_symbol
 _atom_site_label
 _atom_site_symmetry_multiplicity
 _atom_site_fract_x
 _atom_site_fract_y
 _atom_site_fract_z
 _atom_site_occupancy
  Li  Li0  1  0.500002  0.500000  0.500002  1
  Dy  Dy1  1  0.501974  0.001976  0.749237  1
  Dy  Dy2  1  0.998025  0.498025  0.250765  1
  Dy  Dy3  1  0.498026  0.998024  0.250759  1
  Ho  Ho4  1  0.999997  0.999996  0.999989  1
  Ho  Ho5  1  0.001963  0.501962  0.749238  1
  Si  Si6  1  0.796869  0.203321  0.500096  1
  Si  Si7  1  0.296385  0.703398  0.999898  1
  Si  Si8  1  0.203115  0.796672  0.500109  1
  Si  Si9  1  0.703605  0.296581  0.999908  1
  Si  Si10  1  0.336692  0.336697  0.827353  1
  Si  Si11  1  0.663311  0.663299  0.172646  1
  Si  Si12  1  0.172329  0.172343  0.336585  1
  Si  Si13  1  0.827663  0.827656  0.663417  1
  Si  Si14  1  0.123458  0.890203  0.728622  1
  Si  Si15  1  0.109744  0.876512  0.271364  1
  Si  Si16  1  0.607424  0.378200  0.234452  1
  Si  Si17  1  0.621869  0.392609  0.765567  1
  Si  Si18  1  0.876522  0.109755  0.271358  1
  Si  Si19  1  0.890285  0.123556  0.728630  1
  Si  Si20  1  0.392535  0.621782  0.765575  1
  Si  Si21  1  0.378192  0.607418  0.234445  1
  Si  Si22  1  0.349484  0.120628  0.507267  1
  Si  Si23  1  0.879397  0.650518  0.492768  1
  Si  Si24  1  0.387791  0.154685  0.006225  1
  Si  Si25  1  0.845314  0.612168  0.993732  1
  Si  Si26  1  0.650509  0.879362  0.492731  1
  Si  Si27  1  0.120593  0.349483  0.507305  1
  Si  Si28  1  0.612199  0.845305  0.993776  1
  Si  Si29  1  0.154687  0.387824  0.006187  1
  Ru  Ru30  1  0.672002  0.328231  0.500118  1
  Ru  Ru31  1  0.170719  0.829050  0.999868  1
  Ru  Ru32  1  0.327993  0.671768  0.500138  1
  Ru  Ru33  1  0.829280  0.170949  0.999879  1
  Ru  Ru34  1  0.123782  0.123793  0.628655  1
  Ru  Ru35  1  0.876224  0.876246  0.371335  1
  Ru  Ru36  1  0.371413  0.371391  0.123909  1
  Ru  Ru37  1  0.628628  0.628613  0.876095  1
