# generated using pymatgen
data_YErTh2(Al3Re)2
_symmetry_space_group_name_H-M   'P 1'
_cell_length_a   5.52711300
_cell_length_b   5.52711302
_cell_length_c   9.09943100
_cell_angle_alpha   90.00000000
_cell_angle_beta   90.00000000
_cell_angle_gamma   120.00000588
_symmetry_Int_Tables_number   1
_chemical_formula_structural   YErTh2(Al3Re)2
_chemical_formula_sum   'Y1 Er1 Th2 Al6 Re2'
_cell_volume   240.73627204
_cell_formula_units_Z   1
loop_
 _symmetry_equiv_pos_site_id
 _symmetry_equiv_pos_as_xyz
  1  'x, y, z'
loop_
 _atom_site_type_symbol
 _atom_site_label
 _atom_site_symmetry_multiplicity
 _atom_site_fract_x
 _atom_site_fract_y
 _atom_site_fract_z
 _atom_site_occupancy
  Y  Y0  1  0.666667  0.333333  0.443105  1
  Er  Er1  1  0.333333  0.666667  0.556942  1
  Th  Th2  1  0.333333  0.666667  0.956285  1
  Th  Th3  1  0.666667  0.333333  0.043710  1
  Al  Al4  1  0.675024  0.837512  0.257438  1
  Al  Al5  1  0.162488  0.837512  0.257438  1
  Al  Al6  1  0.162488  0.324976  0.257438  1
  Al  Al7  1  0.324952  0.162476  0.742553  1
  Al  Al8  1  0.837524  0.162476  0.742553  1
  Al  Al9  1  0.837524  0.675048  0.742553  1
  Re  Re10  1  0.000000  0.000000  0.500100  1
  Re  Re11  1  0.000000  0.000000  0.999885  1
