# generated using pymatgen
data_Nd2Si6PRh12
_symmetry_space_group_name_H-M   'P 1'
_cell_length_a   9.77778531
_cell_length_b   9.75733413
_cell_length_c   3.89736502
_cell_angle_alpha   89.98368915
_cell_angle_beta   90.10572384
_cell_angle_gamma   120.06272122
_symmetry_Int_Tables_number   1
_chemical_formula_structural   Nd2Si6PRh12
_chemical_formula_sum   'Nd2 Si6 P1 Rh12'
_cell_volume   321.80864112
_cell_formula_units_Z   1
loop_
 _symmetry_equiv_pos_site_id
 _symmetry_equiv_pos_as_xyz
  1  'x, y, z'
loop_
 _atom_site_type_symbol
 _atom_site_label
 _atom_site_symmetry_multiplicity
 _atom_site_fract_x
 _atom_site_fract_y
 _atom_site_fract_z
 _atom_site_occupancy
  Nd  Nd0  1  0.332608  0.665831  0.747852  1
  Nd  Nd1  1  0.664909  0.332271  0.251505  1
  Si  Si2  1  0.000309  0.999531  0.506901  1
  Si  Si3  1  0.397380  0.288765  0.750727  1
  Si  Si4  1  0.709979  0.107908  0.751563  1
  Si  Si5  1  0.890093  0.601141  0.751847  1
  Si  Si6  1  0.603078  0.710842  0.248501  1
  Si  Si7  1  0.290141  0.891970  0.248203  1
  P  P8  1  0.109211  0.398822  0.246007  1
  Rh  Rh9  1  0.441722  0.060945  0.751531  1
  Rh  Rh10  1  0.937996  0.380876  0.751580  1
  Rh  Rh11  1  0.617175  0.557598  0.751080  1
  Rh  Rh12  1  0.559660  0.939569  0.248432  1
  Rh  Rh13  1  0.061500  0.615198  0.248580  1
  Rh  Rh14  1  0.377654  0.442490  0.247474  1
  Rh  Rh15  1  0.143533  0.265060  0.744453  1
  Rh  Rh16  1  0.740620  0.882166  0.745439  1
  Rh  Rh17  1  0.119114  0.855631  0.744628  1
  Rh  Rh18  1  0.858420  0.737289  0.255154  1
  Rh  Rh19  1  0.259134  0.118537  0.253693  1
  Rh  Rh20  1  0.885763  0.147559  0.254850  1
