# generated using pymatgen
data_Hf6Ti5Al11Ir7
_symmetry_space_group_name_H-M   'P 1'
_cell_length_a   8.77939929
_cell_length_b   8.77939944
_cell_length_c   8.76605238
_cell_angle_alpha   59.94961786
_cell_angle_beta   59.94961926
_cell_angle_gamma   60.00000359
_symmetry_Int_Tables_number   1
_chemical_formula_structural   Hf6Ti5Al11Ir7
_chemical_formula_sum   'Hf6 Ti5 Al11 Ir7'
_cell_volume   477.40563761
_cell_formula_units_Z   1
loop_
 _symmetry_equiv_pos_site_id
 _symmetry_equiv_pos_as_xyz
  1  'x, y, z'
loop_
 _atom_site_type_symbol
 _atom_site_label
 _atom_site_symmetry_multiplicity
 _atom_site_fract_x
 _atom_site_fract_y
 _atom_site_fract_z
 _atom_site_occupancy
  Hf  Hf0  1  0.688966  0.688966  0.311908  1
  Hf  Hf1  1  0.310161  0.688966  0.311908  1
  Hf  Hf2  1  0.688966  0.310161  0.311908  1
  Hf  Hf3  1  0.314732  0.314732  0.687037  1
  Hf  Hf4  1  0.683497  0.314732  0.687037  1
  Hf  Hf5  1  0.314732  0.683497  0.687037  1
  Ti  Ti6  1  0.880149  0.880149  0.359554  1
  Ti  Ti7  1  0.876702  0.362470  0.884126  1
  Ti  Ti8  1  0.362470  0.876702  0.884126  1
  Ti  Ti9  1  0.876702  0.876702  0.884126  1
  Ti  Ti10  1  0.122252  0.122252  0.633244  1
  Al  Al11  1  0.119480  0.640964  0.120075  1
  Al  Al12  1  0.640964  0.119480  0.120075  1
  Al  Al13  1  0.119480  0.119480  0.120075  1
  Al  Al14  1  0.660972  0.660972  0.017083  1
  Al  Al15  1  0.662609  0.014389  0.660391  1
  Al  Al16  1  0.014389  0.662609  0.660391  1
  Al  Al17  1  0.662609  0.662609  0.660391  1
  Al  Al18  1  0.336014  0.336014  0.991957  1
  Al  Al19  1  0.337944  0.988470  0.335643  1
  Al  Al20  1  0.988470  0.337944  0.335643  1
  Al  Al21  1  0.337944  0.337944  0.335643  1
  Ir  Ir22  1  0.003334  0.003334  0.989998  1
  Ir  Ir23  1  0.998863  0.998863  0.504863  1
  Ir  Ir24  1  0.497411  0.998863  0.504863  1
  Ir  Ir25  1  0.998863  0.497411  0.504863  1
  Ir  Ir26  1  0.501329  0.501329  0.998679  1
  Ir  Ir27  1  0.998663  0.501329  0.998679  1
  Ir  Ir28  1  0.501329  0.998663  0.998679  1
