# generated using pymatgen
data_YbThB4Ir5
_symmetry_space_group_name_H-M   'P 1'
_cell_length_a   7.55488649
_cell_length_b   6.33810453
_cell_length_c   5.67391868
_cell_angle_alpha   77.72718668
_cell_angle_beta   55.06159891
_cell_angle_gamma   47.21119228
_symmetry_Int_Tables_number   1
_chemical_formula_structural   YbThB4Ir5
_chemical_formula_sum   'Yb1 Th1 B4 Ir5'
_cell_volume   156.25712683
_cell_formula_units_Z   1
loop_
 _symmetry_equiv_pos_site_id
 _symmetry_equiv_pos_as_xyz
  1  'x, y, z'
loop_
 _atom_site_type_symbol
 _atom_site_label
 _atom_site_symmetry_multiplicity
 _atom_site_fract_x
 _atom_site_fract_y
 _atom_site_fract_z
 _atom_site_occupancy
  Yb  Yb0  1  0.354410  0.354411  0.645590  1
  Th  Th1  1  0.637198  0.637199  0.362802  1
  B  B2  1  0.291195  0.976395  0.023605  1
  B  B3  1  0.026030  0.712522  0.287478  1
  B  B4  1  0.976395  0.291195  0.708805  1
  B  B5  1  0.712522  0.026030  0.973970  1
  Ir  Ir6  1  0.001366  0.001366  0.998634  1
  Ir  Ir7  1  0.499092  0.499092  0.000908  1
  Ir  Ir8  1  0.251349  0.251349  0.248652  1
  Ir  Ir9  1  0.999092  0.999092  0.500908  1
  Ir  Ir10  1  0.751348  0.751349  0.748652  1
