# generated using pymatgen
data_Hf16VNi4Rh3
_symmetry_space_group_name_H-M   'P 1'
_cell_length_a   8.66863854
_cell_length_b   8.56016867
_cell_length_c   8.56017000
_cell_angle_alpha   59.99999486
_cell_angle_beta   60.41306249
_cell_angle_gamma   60.41306639
_symmetry_Int_Tables_number   1
_chemical_formula_structural   Hf16VNi4Rh3
_chemical_formula_sum   'Hf16 V1 Ni4 Rh3'
_cell_volume   451.94341701
_cell_formula_units_Z   1
loop_
 _symmetry_equiv_pos_site_id
 _symmetry_equiv_pos_as_xyz
  1  'x, y, z'
loop_
 _atom_site_type_symbol
 _atom_site_label
 _atom_site_symmetry_multiplicity
 _atom_site_fract_x
 _atom_site_fract_y
 _atom_site_fract_z
 _atom_site_occupancy
  Hf  Hf0  1  0.665679  0.111440  0.111440  1
  Hf  Hf1  1  0.104937  0.685619  0.104721  1
  Hf  Hf2  1  0.104937  0.104721  0.685619  1
  Hf  Hf3  1  0.104937  0.104721  0.104721  1
  Hf  Hf4  1  0.317178  0.314989  0.683917  1
  Hf  Hf5  1  0.696475  0.674901  0.314313  1
  Hf  Hf6  1  0.317178  0.683917  0.314989  1
  Hf  Hf7  1  0.696475  0.314313  0.674901  1
  Hf  Hf8  1  0.696475  0.314313  0.314313  1
  Hf  Hf9  1  0.317178  0.683917  0.683917  1
  Hf  Hf10  1  0.946268  0.951640  0.551047  1
  Hf  Hf11  1  0.553807  0.552536  0.946829  1
  Hf  Hf12  1  0.946268  0.551047  0.951640  1
  Hf  Hf13  1  0.553807  0.946829  0.552536  1
  Hf  Hf14  1  0.553807  0.946829  0.946829  1
  Hf  Hf15  1  0.946268  0.551047  0.551047  1
  V  V16  1  0.002016  0.332661  0.332661  1
  Ni  Ni17  1  0.324914  0.891696  0.891696  1
  Ni  Ni18  1  0.887423  0.317080  0.897749  1
  Ni  Ni19  1  0.887423  0.897749  0.317080  1
  Ni  Ni20  1  0.887423  0.897749  0.897749  1
  Rh  Rh21  1  0.329709  0.992738  0.338776  1
  Rh  Rh22  1  0.329709  0.338776  0.992738  1
  Rh  Rh23  1  0.329709  0.338776  0.338776  1
