# generated using pymatgen
data_LaHo2Fe2Sb3O14
_symmetry_space_group_name_H-M   'P 1'
_cell_length_a   7.27651426
_cell_length_b   7.27466772
_cell_length_c   7.19933248
_cell_angle_alpha   117.58996882
_cell_angle_beta   62.42443378
_cell_angle_gamma   117.82348916
_symmetry_Int_Tables_number   1
_chemical_formula_structural   LaHo2Fe2Sb3O14
_chemical_formula_sum   'La1 Ho2 Fe2 Sb3 O14'
_cell_volume   283.52026830
_cell_formula_units_Z   1
loop_
 _symmetry_equiv_pos_site_id
 _symmetry_equiv_pos_as_xyz
  1  'x, y, z'
loop_
 _atom_site_type_symbol
 _atom_site_label
 _atom_site_symmetry_multiplicity
 _atom_site_fract_x
 _atom_site_fract_y
 _atom_site_fract_z
 _atom_site_occupancy
  La  La0  1  0.500000  0.500006  0.500006  1
  Ho  Ho1  1  0.000009  0.500013  0.999997  1
  Ho  Ho2  1  0.500008  0.999996  0.000008  1
  Fe  Fe3  1  0.500024  0.499976  0.999992  1
  Fe  Fe4  1  0.999989  0.999994  0.499998  1
  Sb  Sb5  1  0.499993  0.000003  0.500003  1
  Sb  Sb6  1  0.999996  0.500007  0.499999  1
  Sb  Sb7  1  0.000000  0.000003  0.999994  1
  O  O8  1  0.624933  0.375536  0.098745  1
  O  O9  1  0.375100  0.624439  0.901269  1
  O  O10  1  0.076662  0.321484  0.177592  1
  O  O11  1  0.678289  0.921978  0.177324  1
  O  O12  1  0.678054  0.322030  0.584111  1
  O  O13  1  0.923331  0.678521  0.822407  1
  O  O14  1  0.321708  0.078032  0.822678  1
  O  O15  1  0.321938  0.677978  0.415893  1
  O  O16  1  0.647533  0.913649  0.601768  1
  O  O17  1  0.086460  0.352333  0.601460  1
  O  O18  1  0.094976  0.905326  0.146770  1
  O  O19  1  0.352456  0.086359  0.398229  1
  O  O20  1  0.913528  0.647667  0.398536  1
  O  O21  1  0.905016  0.094671  0.853222  1
