# generated using pymatgen
data_U3Ag2(PO5)4
_symmetry_space_group_name_H-M   'P 1'
_cell_length_a   5.46193664
_cell_length_b   6.85708216
_cell_length_c   12.76880023
_cell_angle_alpha   93.33755916
_cell_angle_beta   98.69273210
_cell_angle_gamma   108.66879165
_symmetry_Int_Tables_number   1
_chemical_formula_structural   U3Ag2(PO5)4
_chemical_formula_sum   'U3 Ag2 P4 O20'
_cell_volume   444.95203061
_cell_formula_units_Z   1
loop_
 _symmetry_equiv_pos_site_id
 _symmetry_equiv_pos_as_xyz
  1  'x, y, z'
loop_
 _atom_site_type_symbol
 _atom_site_label
 _atom_site_symmetry_multiplicity
 _atom_site_fract_x
 _atom_site_fract_y
 _atom_site_fract_z
 _atom_site_occupancy
  U  U0  1  0.000009  0.499973  0.000002  1
  U  U1  1  0.138605  0.169282  0.373622  1
  U  U2  1  0.861351  0.830725  0.626369  1
  Ag  Ag3  1  0.444867  0.940091  0.160416  1
  Ag  Ag4  1  0.555109  0.059907  0.839579  1
  P  P5  1  0.535331  0.443996  0.186748  1
  P  P6  1  0.004731  0.679082  0.356179  1
  P  P7  1  0.995278  0.320938  0.643825  1
  P  P8  1  0.464693  0.556003  0.813256  1
  O  O9  1  0.023674  0.768510  0.031505  1
  O  O10  1  0.724429  0.389438  0.122021  1
  O  O11  1  0.382912  0.569078  0.124533  1
  O  O12  1  0.340129  0.254125  0.221267  1
  O  O13  1  0.159453  0.844884  0.293419  1
  O  O14  1  0.806544  0.076416  0.296568  1
  O  O15  1  0.700769  0.590771  0.293287  1
  O  O16  1  0.102168  0.497042  0.370479  1
  O  O17  1  0.466049  0.248859  0.448066  1
  O  O18  1  0.990269  0.802814  0.458661  1
  O  O19  1  0.009722  0.197205  0.541339  1
  O  O20  1  0.533904  0.751150  0.551928  1
  O  O21  1  0.897849  0.502982  0.629526  1
  O  O22  1  0.299244  0.409239  0.706714  1
  O  O23  1  0.193416  0.923590  0.703421  1
  O  O24  1  0.840554  0.155139  0.706585  1
  O  O25  1  0.659876  0.745884  0.778739  1
  O  O26  1  0.617124  0.430916  0.875462  1
  O  O27  1  0.275596  0.610541  0.877991  1
  O  O28  1  0.976349  0.231417  0.968497  1
