# generated using pymatgen
data_Tb12Si8Os7Ru
_symmetry_space_group_name_H-M   'P 1'
_cell_length_a   5.65372471
_cell_length_b   7.65169032
_cell_length_c   13.35432781
_cell_angle_alpha   90.06555767
_cell_angle_beta   90.05551768
_cell_angle_gamma   90.01699236
_symmetry_Int_Tables_number   1
_chemical_formula_structural   Tb12Si8Os7Ru
_chemical_formula_sum   'Tb12 Si8 Os7 Ru1'
_cell_volume   577.71489990
_cell_formula_units_Z   1
loop_
 _symmetry_equiv_pos_site_id
 _symmetry_equiv_pos_as_xyz
  1  'x, y, z'
loop_
 _atom_site_type_symbol
 _atom_site_label
 _atom_site_symmetry_multiplicity
 _atom_site_fract_x
 _atom_site_fract_y
 _atom_site_fract_z
 _atom_site_occupancy
  Tb  Tb0  1  0.143898  0.396892  0.601490  1
  Tb  Tb1  1  0.855832  0.603015  0.101166  1
  Tb  Tb2  1  0.142809  0.102948  0.398777  1
  Tb  Tb3  1  0.857099  0.897642  0.898580  1
  Tb  Tb4  1  0.856698  0.602429  0.398419  1
  Tb  Tb5  1  0.145584  0.398046  0.899072  1
  Tb  Tb6  1  0.856907  0.897078  0.601668  1
  Tb  Tb7  1  0.142560  0.102844  0.101302  1
  Tb  Tb8  1  0.627939  0.252535  0.750001  1
  Tb  Tb9  1  0.370369  0.745512  0.249908  1
  Tb  Tb10  1  0.626551  0.247135  0.250087  1
  Tb  Tb11  1  0.372321  0.753438  0.750276  1
  Si  Si12  1  0.140724  0.100250  0.750033  1
  Si  Si13  1  0.856006  0.899967  0.250094  1
  Si  Si14  1  0.138808  0.398588  0.249945  1
  Si  Si15  1  0.858971  0.599211  0.750147  1
  Si  Si16  1  0.596290  0.249697  0.500279  1
  Si  Si17  1  0.403949  0.750436  0.999131  1
  Si  Si18  1  0.405211  0.750016  0.499949  1
  Si  Si19  1  0.598841  0.250048  0.999853  1
  Os  Os20  1  0.349780  0.028087  0.590936  1
  Os  Os21  1  0.649801  0.971993  0.091092  1
  Os  Os22  1  0.350112  0.472058  0.408761  1
  Os  Os23  1  0.652346  0.528001  0.909346  1
  Os  Os24  1  0.650612  0.971901  0.408963  1
  Os  Os25  1  0.349632  0.029661  0.909407  1
  Os  Os26  1  0.651252  0.528114  0.591002  1
  Ru  Ru27  1  0.349100  0.472455  0.090313  1
