# generated using pymatgen
data_Dy3Th(MoN2)4
_symmetry_space_group_name_H-M   'P 1'
_cell_length_a   3.24363000
_cell_length_b   5.76469090
_cell_length_c   10.72551801
_cell_angle_alpha   89.49068419
_cell_angle_beta   90.00000000
_cell_angle_gamma   90.00000000
_symmetry_Int_Tables_number   1
_chemical_formula_structural   Dy3Th(MoN2)4
_chemical_formula_sum   'Dy3 Th1 Mo4 N8'
_cell_volume   200.54343608
_cell_formula_units_Z   1
loop_
 _symmetry_equiv_pos_site_id
 _symmetry_equiv_pos_as_xyz
  1  'x, y, z'
loop_
 _atom_site_type_symbol
 _atom_site_label
 _atom_site_symmetry_multiplicity
 _atom_site_fract_x
 _atom_site_fract_y
 _atom_site_fract_z
 _atom_site_occupancy
  Dy  Dy0  1  0.250000  0.577792  0.643054  1
  Dy  Dy1  1  0.750000  0.921233  0.152170  1
  Dy  Dy2  1  0.750000  0.421325  0.352474  1
  Th  Th3  1  0.250000  0.077945  0.853859  1
  Mo  Mo4  1  0.250000  0.437004  0.095715  1
  Mo  Mo5  1  0.250000  0.934703  0.406456  1
  Mo  Mo6  1  0.750000  0.569855  0.907755  1
  Mo  Mo7  1  0.750000  0.062768  0.586752  1
  N  N8  1  0.250000  0.163833  0.249626  1
  N  N9  1  0.250000  0.665122  0.251586  1
  N  N10  1  0.750000  0.830554  0.748203  1
  N  N11  1  0.750000  0.335821  0.747569  1
  N  N12  1  0.250000  0.755436  0.996139  1
  N  N13  1  0.250000  0.256667  0.504705  1
  N  N14  1  0.750000  0.248471  0.011785  1
  N  N15  1  0.750000  0.741471  0.492152  1
