# generated using pymatgen
data_Ac8DyThIn6
_symmetry_space_group_name_H-M   'P 1'
_cell_length_a   6.48564005
_cell_length_b   9.90561976
_cell_length_c   9.90562100
_cell_angle_alpha   83.92239239
_cell_angle_beta   70.93738688
_cell_angle_gamma   70.93738762
_symmetry_Int_Tables_number   1
_chemical_formula_structural   Ac8DyThIn6
_chemical_formula_sum   'Ac8 Dy1 Th1 In6'
_cell_volume   568.49774726
_cell_formula_units_Z   1
loop_
 _symmetry_equiv_pos_site_id
 _symmetry_equiv_pos_as_xyz
  1  'x, y, z'
loop_
 _atom_site_type_symbol
 _atom_site_label
 _atom_site_symmetry_multiplicity
 _atom_site_fract_x
 _atom_site_fract_y
 _atom_site_fract_z
 _atom_site_occupancy
  Ac  Ac0  1  0.721054  0.864854  0.693069  1
  Ac  Ac1  1  0.280757  0.135363  0.308225  1
  Ac  Ac2  1  0.778946  0.306931  0.135146  1
  Ac  Ac3  1  0.219243  0.691775  0.864637  1
  Ac  Ac4  1  0.582186  0.694379  0.135564  1
  Ac  Ac5  1  0.414044  0.305864  0.864134  1
  Ac  Ac6  1  0.085956  0.135866  0.694136  1
  Ac  Ac7  1  0.917814  0.864436  0.305621  1
  Dy  Dy8  1  0.250000  0.500284  0.499716  1
  Th  Th9  1  0.750000  0.499814  0.500186  1
  In  In10  1  0.156131  0.499682  0.189374  1
  In  In11  1  0.846146  0.500709  0.810320  1
  In  In12  1  0.343869  0.810626  0.500318  1
  In  In13  1  0.653854  0.189680  0.499291  1
  In  In14  1  0.250000  0.999828  0.000172  1
  In  In15  1  0.750000  0.999910  0.000090  1
