# generated using pymatgen
data_Zr8In4Cu5IrAu2
_symmetry_space_group_name_H-M   'P 1'
_cell_length_a   7.39431627
_cell_length_b   7.38480401
_cell_length_c   7.00060959
_cell_angle_alpha   90.12637199
_cell_angle_beta   90.16881656
_cell_angle_gamma   90.10625694
_symmetry_Int_Tables_number   1
_chemical_formula_structural   Zr8In4Cu5IrAu2
_chemical_formula_sum   'Zr8 In4 Cu5 Ir1 Au2'
_cell_volume   382.26907050
_cell_formula_units_Z   1
loop_
 _symmetry_equiv_pos_site_id
 _symmetry_equiv_pos_as_xyz
  1  'x, y, z'
loop_
 _atom_site_type_symbol
 _atom_site_label
 _atom_site_symmetry_multiplicity
 _atom_site_fract_x
 _atom_site_fract_y
 _atom_site_fract_z
 _atom_site_occupancy
  Zr  Zr0  1  0.147802  0.153534  0.012078  1
  Zr  Zr1  1  0.847419  0.851377  0.001828  1
  Zr  Zr2  1  0.650254  0.344939  0.489128  1
  Zr  Zr3  1  0.351187  0.646116  0.486774  1
  Zr  Zr4  1  0.694336  0.305557  0.006973  1
  Zr  Zr5  1  0.308697  0.691880  0.009586  1
  Zr  Zr6  1  0.801876  0.806570  0.496637  1
  Zr  Zr7  1  0.192595  0.198254  0.490653  1
  In  In8  1  0.502749  0.996351  0.248025  1
  In  In9  1  0.509202  0.993991  0.749422  1
  In  In10  1  0.995510  0.504851  0.248170  1
  In  In11  1  0.988522  0.495298  0.748730  1
  Cu  Cu12  1  0.628964  0.627919  0.794246  1
  Cu  Cu13  1  0.631180  0.628651  0.199172  1
  Cu  Cu14  1  0.871517  0.128689  0.703692  1
  Cu  Cu15  1  0.877310  0.120290  0.298977  1
  Cu  Cu16  1  0.120711  0.877228  0.296461  1
  Ir  Ir17  1  0.378324  0.376597  0.219695  1
  Au  Au18  1  0.376577  0.375636  0.794473  1
  Au  Au19  1  0.125266  0.876268  0.705283  1
