# generated using pymatgen
data_HfCo5As3
_symmetry_space_group_name_H-M   'P 1'
_cell_length_a   3.70072300
_cell_length_b   12.08723600
_cell_length_c   10.57345200
_cell_angle_alpha   90.00000000
_cell_angle_beta   90.00000000
_cell_angle_gamma   90.00000000
_symmetry_Int_Tables_number   1
_chemical_formula_structural   HfCo5As3
_chemical_formula_sum   'Hf4 Co20 As12'
_cell_volume   472.96649789
_cell_formula_units_Z   4
loop_
 _symmetry_equiv_pos_site_id
 _symmetry_equiv_pos_as_xyz
  1  'x, y, z'
loop_
 _atom_site_type_symbol
 _atom_site_label
 _atom_site_symmetry_multiplicity
 _atom_site_fract_x
 _atom_site_fract_y
 _atom_site_fract_z
 _atom_site_occupancy
  Hf  Hf0  1  0.750000  0.701957  0.076755  1
  Hf  Hf1  1  0.250000  0.298043  0.923245  1
  Hf  Hf2  1  0.250000  0.798043  0.576755  1
  Hf  Hf3  1  0.750000  0.201957  0.423245  1
  Co  Co4  1  0.750000  0.698676  0.387748  1
  Co  Co5  1  0.250000  0.301324  0.612252  1
  Co  Co6  1  0.250000  0.801324  0.887748  1
  Co  Co7  1  0.750000  0.198676  0.112252  1
  Co  Co8  1  0.750000  0.995332  0.217020  1
  Co  Co9  1  0.250000  0.004668  0.782980  1
  Co  Co10  1  0.250000  0.504668  0.717020  1
  Co  Co11  1  0.750000  0.495332  0.282980  1
  Co  Co12  1  0.750000  0.681353  0.783611  1
  Co  Co13  1  0.250000  0.318647  0.216389  1
  Co  Co14  1  0.250000  0.818647  0.283611  1
  Co  Co15  1  0.750000  0.181353  0.716389  1
  Co  Co16  1  0.750000  0.929712  0.969618  1
  Co  Co17  1  0.250000  0.070288  0.030382  1
  Co  Co18  1  0.250000  0.570288  0.469618  1
  Co  Co19  1  0.750000  0.429712  0.530382  1
  Co  Co20  1  0.750000  0.984071  0.589706  1
  Co  Co21  1  0.250000  0.015929  0.410294  1
  Co  Co22  1  0.250000  0.515929  0.089706  1
  Co  Co23  1  0.750000  0.484070  0.910294  1
  As  As24  1  0.750000  0.615222  0.587420  1
  As  As25  1  0.250000  0.384778  0.412580  1
  As  As26  1  0.250000  0.884778  0.087420  1
  As  As27  1  0.750000  0.115222  0.912580  1
  As  As28  1  0.750000  0.888791  0.400110  1
  As  As29  1  0.250000  0.111209  0.599890  1
  As  As30  1  0.250000  0.611209  0.900110  1
  As  As31  1  0.750000  0.388791  0.099890  1
  As  As32  1  0.750000  0.870921  0.764968  1
  As  As33  1  0.250000  0.129079  0.235032  1
  As  As34  1  0.250000  0.629079  0.264968  1
  As  As35  1  0.750000  0.370921  0.735032  1
