# generated using pymatgen
data_Hf10Ga2Sn5Bi
_symmetry_space_group_name_H-M   'P 1'
_cell_length_a   8.68834875
_cell_length_b   8.68834934
_cell_length_c   5.82400300
_cell_angle_alpha   90.00000000
_cell_angle_beta   90.00000000
_cell_angle_gamma   119.86811241
_symmetry_Int_Tables_number   1
_chemical_formula_structural   Hf10Ga2Sn5Bi
_chemical_formula_sum   'Hf10 Ga2 Sn5 Bi1'
_cell_volume   381.24344112
_cell_formula_units_Z   1
loop_
 _symmetry_equiv_pos_site_id
 _symmetry_equiv_pos_as_xyz
  1  'x, y, z'
loop_
 _atom_site_type_symbol
 _atom_site_label
 _atom_site_symmetry_multiplicity
 _atom_site_fract_x
 _atom_site_fract_y
 _atom_site_fract_z
 _atom_site_occupancy
  Hf  Hf0  1  0.735817  0.735817  0.750000  1
  Hf  Hf1  1  0.265480  0.994345  0.750000  1
  Hf  Hf2  1  0.994345  0.265480  0.750000  1
  Hf  Hf3  1  0.266848  0.266848  0.250000  1
  Hf  Hf4  1  0.731847  0.999802  0.250000  1
  Hf  Hf5  1  0.999802  0.731847  0.250000  1
  Hf  Hf6  1  0.669567  0.332468  0.001354  1
  Hf  Hf7  1  0.332468  0.669567  0.001354  1
  Hf  Hf8  1  0.332468  0.669567  0.498646  1
  Hf  Hf9  1  0.669567  0.332468  0.498646  1
  Ga  Ga10  1  0.000541  0.000541  0.000824  1
  Ga  Ga11  1  0.000541  0.000541  0.499176  1
  Sn  Sn12  1  0.610347  0.999162  0.750000  1
  Sn  Sn13  1  0.999162  0.610347  0.750000  1
  Sn  Sn14  1  0.611663  0.611663  0.250000  1
  Sn  Sn15  1  0.389036  0.001225  0.250000  1
  Sn  Sn16  1  0.001225  0.389036  0.250000  1
  Bi  Bi17  1  0.389276  0.389276  0.750000  1
