# generated using pymatgen
data_Yb3DyAl13Si5Ir6
_symmetry_space_group_name_H-M   'P 1'
_cell_length_a   7.48011719
_cell_length_b   7.44886567
_cell_length_c   9.41926921
_cell_angle_alpha   89.96739027
_cell_angle_beta   90.05986022
_cell_angle_gamma   119.83869717
_symmetry_Int_Tables_number   1
_chemical_formula_structural   Yb3DyAl13Si5Ir6
_chemical_formula_sum   'Yb3 Dy1 Al13 Si5 Ir6'
_cell_volume   455.24979140
_cell_formula_units_Z   1
loop_
 _symmetry_equiv_pos_site_id
 _symmetry_equiv_pos_as_xyz
  1  'x, y, z'
loop_
 _atom_site_type_symbol
 _atom_site_label
 _atom_site_symmetry_multiplicity
 _atom_site_fract_x
 _atom_site_fract_y
 _atom_site_fract_z
 _atom_site_occupancy
  Yb  Yb0  1  0.005217  0.341680  0.749223  1
  Yb  Yb1  1  0.674911  0.007432  0.252510  1
  Yb  Yb2  1  0.319669  0.991502  0.745170  1
  Dy  Dy3  1  0.000125  0.662598  0.253451  1
  Al  Al4  1  0.129247  0.127579  0.250437  1
  Al  Al5  1  0.871202  0.872229  0.750539  1
  Al  Al6  1  0.664990  0.997020  0.578231  1
  Al  Al7  1  0.662105  0.997729  0.923679  1
  Al  Al8  1  0.339328  0.003261  0.071740  1
  Al  Al9  1  0.336450  0.334670  0.559135  1
  Al  Al10  1  0.664287  0.669244  0.439649  1
  Al  Al11  1  0.663714  0.669172  0.059117  1
  Al  Al12  1  0.336288  0.331566  0.940614  1
  Al  Al13  1  0.337412  0.546464  0.250386  1
  Al  Al14  1  0.660320  0.449730  0.750538  1
  Al  Al15  1  0.546498  0.344036  0.250139  1
  Al  Al16  1  0.453576  0.658101  0.749339  1
  Si  Si17  1  0.001092  0.326754  0.067899  1
  Si  Si18  1  0.997882  0.671036  0.932009  1
  Si  Si19  1  0.991184  0.665694  0.572617  1
  Si  Si20  1  0.340481  0.006511  0.422696  1
  Si  Si21  1  0.002890  0.327535  0.429619  1
  Ir  Ir22  1  0.688660  0.338391  0.004181  1
  Ir  Ir23  1  0.311147  0.661171  0.999761  1
  Ir  Ir24  1  0.311376  0.670629  0.499059  1
  Ir  Ir25  1  0.682264  0.331735  0.497184  1
  Ir  Ir26  1  0.000723  0.998783  0.002000  1
  Ir  Ir27  1  0.006965  0.997752  0.499082  1
