# generated using pymatgen
data_Y2Si5NiRh2
_symmetry_space_group_name_H-M   'P 1'
_cell_length_a   8.06131631
_cell_length_b   8.03035634
_cell_length_c   8.03035609
_cell_angle_alpha   138.28521884
_cell_angle_beta   104.61479063
_cell_angle_gamma   90.01378853
_symmetry_Int_Tables_number   1
_chemical_formula_structural   Y2Si5NiRh2
_chemical_formula_sum   'Y4 Si10 Ni2 Rh4'
_cell_volume   320.04683791
_cell_formula_units_Z   2
loop_
 _symmetry_equiv_pos_site_id
 _symmetry_equiv_pos_as_xyz
  1  'x, y, z'
loop_
 _atom_site_type_symbol
 _atom_site_label
 _atom_site_symmetry_multiplicity
 _atom_site_fract_x
 _atom_site_fract_y
 _atom_site_fract_z
 _atom_site_occupancy
  Y  Y0  1  0.635494  0.867947  0.767548  1
  Y  Y1  1  0.364506  0.132053  0.232452  1
  Y  Y2  1  0.102566  0.368362  0.734204  1
  Y  Y3  1  0.897434  0.631638  0.265796  1
  Si  Si4  1  0.276165  0.013390  0.744733  1
  Si  Si5  1  0.723835  0.986610  0.255267  1
  Si  Si6  1  0.723835  0.468567  0.737225  1
  Si  Si7  1  0.276165  0.531433  0.262775  1
  Si  Si8  1  0.447643  0.607360  0.840283  1
  Si  Si9  1  0.552357  0.392640  0.159717  1
  Si  Si10  1  0.764156  0.106077  0.658077  1
  Si  Si11  1  0.235844  0.893923  0.341923  1
  Si  Si12  1  0.000000  0.727173  0.727173  1
  Si  Si13  1  0.000000  0.272827  0.272827  1
  Ni  Ni14  1  0.252466  0.639117  0.613348  1
  Ni  Ni15  1  0.747534  0.360883  0.386652  1
  Rh  Rh16  1  0.029994  0.135697  0.894298  1
  Rh  Rh17  1  0.970006  0.864303  0.105702  1
  Rh  Rh18  1  0.500000  0.751055  0.251055  1
  Rh  Rh19  1  0.500000  0.248945  0.748945  1
