# generated using pymatgen
data_TbCe3(Rh2Au)2
_symmetry_space_group_name_H-M   'P 1'
_cell_length_a   7.55596033
_cell_length_b   7.55595944
_cell_length_c   3.68144100
_cell_angle_alpha   90.00000000
_cell_angle_beta   90.00000000
_cell_angle_gamma   88.18720555
_symmetry_Int_Tables_number   1
_chemical_formula_structural   TbCe3(Rh2Au)2
_chemical_formula_sum   'Tb1 Ce3 Rh4 Au2'
_cell_volume   210.07758787
_cell_formula_units_Z   1
loop_
 _symmetry_equiv_pos_site_id
 _symmetry_equiv_pos_as_xyz
  1  'x, y, z'
loop_
 _atom_site_type_symbol
 _atom_site_label
 _atom_site_symmetry_multiplicity
 _atom_site_fract_x
 _atom_site_fract_y
 _atom_site_fract_z
 _atom_site_occupancy
  Tb  Tb0  1  0.672144  0.172144  0.500000  1
  Ce  Ce1  1  0.327556  0.827556  0.500000  1
  Ce  Ce2  1  0.170206  0.325283  0.500000  1
  Ce  Ce3  1  0.825283  0.670206  0.500000  1
  Rh  Rh4  1  0.142643  0.642643  0.000000  1
  Rh  Rh5  1  0.878329  0.378329  0.000000  1
  Rh  Rh6  1  0.633056  0.857426  0.000000  1
  Rh  Rh7  1  0.357426  0.133056  0.000000  1
  Au  Au8  1  0.990047  0.003308  0.000000  1
  Au  Au9  1  0.503308  0.490047  0.000000  1
