# generated using pymatgen
data_Ac3InSn2Pd3
_symmetry_space_group_name_H-M   'P 1'
_cell_length_a   7.91481200
_cell_length_b   7.91481173
_cell_length_c   4.34690100
_cell_angle_alpha   90.00000000
_cell_angle_beta   90.00000000
_cell_angle_gamma   119.88984115
_symmetry_Int_Tables_number   1
_chemical_formula_structural   Ac3InSn2Pd3
_chemical_formula_sum   'Ac3 In1 Sn2 Pd3'
_cell_volume   236.08727832
_cell_formula_units_Z   1
loop_
 _symmetry_equiv_pos_site_id
 _symmetry_equiv_pos_as_xyz
  1  'x, y, z'
loop_
 _atom_site_type_symbol
 _atom_site_label
 _atom_site_symmetry_multiplicity
 _atom_site_fract_x
 _atom_site_fract_y
 _atom_site_fract_z
 _atom_site_occupancy
  Ac  Ac0  1  0.000700  0.585648  0.000000  1
  Ac  Ac1  1  0.414444  0.414444  0.000000  1
  Ac  Ac2  1  0.585648  0.000700  0.000000  1
  In  In3  1  0.756149  0.756149  0.500000  1
  Sn  Sn4  1  0.997755  0.239658  0.500000  1
  Sn  Sn5  1  0.239658  0.997755  0.500000  1
  Pd  Pd6  1  0.666610  0.332716  0.500000  1
  Pd  Pd7  1  0.006322  0.006322  0.000000  1
  Pd  Pd8  1  0.332716  0.666610  0.500000  1
