# generated using pymatgen
data_Pr4DyP12Ir13Ru6
_symmetry_space_group_name_H-M   'P 1'
_cell_length_a   12.72244859
_cell_length_b   12.71056772
_cell_length_c   4.02281500
_cell_angle_alpha   90.00000000
_cell_angle_beta   90.00000000
_cell_angle_gamma   119.76034065
_symmetry_Int_Tables_number   1
_chemical_formula_structural   Pr4DyP12Ir13Ru6
_chemical_formula_sum   'Pr4 Dy1 P12 Ir13 Ru6'
_cell_volume   564.72900607
_cell_formula_units_Z   1
loop_
 _symmetry_equiv_pos_site_id
 _symmetry_equiv_pos_as_xyz
  1  'x, y, z'
loop_
 _atom_site_type_symbol
 _atom_site_label
 _atom_site_symmetry_multiplicity
 _atom_site_fract_x
 _atom_site_fract_y
 _atom_site_fract_z
 _atom_site_occupancy
  Pr  Pr0  1  0.667798  0.333045  0.000000  1
  Pr  Pr1  1  0.815020  0.001840  0.500000  1
  Pr  Pr2  1  0.185409  0.185902  0.500000  1
  Pr  Pr3  1  0.999563  0.813638  0.500000  1
  Dy  Dy4  1  0.333027  0.665526  0.000000  1
  P  P5  1  0.642078  0.005536  0.000000  1
  P  P6  1  0.366357  0.365380  0.000000  1
  P  P7  1  0.998485  0.633687  0.000000  1
  P  P8  1  0.689005  0.520836  0.500000  1
  P  P9  1  0.830897  0.307883  0.500000  1
  P  P10  1  0.307422  0.826030  0.500000  1
  P  P11  1  0.518157  0.688630  0.500000  1
  P  P12  1  0.183868  0.999872  0.000000  1
  P  P13  1  0.816444  0.818322  0.000000  1
  P  P14  1  0.999045  0.184342  0.000000  1
  P  P15  1  0.479088  0.169861  0.500000  1
  P  P16  1  0.170704  0.481393  0.500000  1
  Ir  Ir17  1  0.620174  0.804296  0.000000  1
  Ir  Ir18  1  0.183469  0.380466  0.000000  1
  Ir  Ir19  1  0.379691  0.180868  0.000000  1
  Ir  Ir20  1  0.198022  0.816672  0.000000  1
  Ir  Ir21  1  0.800193  0.621008  0.000000  1
  Ir  Ir22  1  0.872375  0.509232  0.500000  1
  Ir  Ir23  1  0.490134  0.365174  0.500000  1
  Ir  Ir24  1  0.635006  0.124899  0.500000  1
  Ir  Ir25  1  0.129820  0.635973  0.500000  1
  Ir  Ir26  1  0.361985  0.494407  0.500000  1
  Ir  Ir27  1  0.502451  0.864964  0.500000  1
  Ir  Ir28  1  0.000592  0.999993  0.000000  1
  Ir  Ir29  1  0.457007  0.995297  0.000000  1
  Ru  Ru30  1  0.708883  0.710935  0.500000  1
  Ru  Ru31  1  0.003017  0.292078  0.500000  1
  Ru  Ru32  1  0.544085  0.548022  0.000000  1
  Ru  Ru33  1  0.001772  0.455021  0.000000  1
  Ru  Ru34  1  0.820493  0.200598  0.000000  1
  Ru  Ru35  1  0.288463  0.998377  0.500000  1
