# generated using pymatgen
data_Tb8SiGeI12
_symmetry_space_group_name_H-M   'P 1'
_cell_length_a   4.23656600
_cell_length_b   14.07337090
_cell_length_c   14.84885843
_cell_angle_alpha   89.99629045
_cell_angle_beta   90.00000000
_cell_angle_gamma   90.00000000
_symmetry_Int_Tables_number   1
_chemical_formula_structural   Tb8SiGeI12
_chemical_formula_sum   'Tb8 Si1 Ge1 I12'
_cell_volume   885.32998988
_cell_formula_units_Z   1
loop_
 _symmetry_equiv_pos_site_id
 _symmetry_equiv_pos_as_xyz
  1  'x, y, z'
loop_
 _atom_site_type_symbol
 _atom_site_label
 _atom_site_symmetry_multiplicity
 _atom_site_fract_x
 _atom_site_fract_y
 _atom_site_fract_z
 _atom_site_occupancy
  Tb  Tb0  1  0.500000  0.115088  0.346137  1
  Tb  Tb1  1  0.500000  0.884912  0.653863  1
  Tb  Tb2  1  0.500000  0.613959  0.152386  1
  Tb  Tb3  1  0.500000  0.386041  0.847614  1
  Tb  Tb4  1  0.000000  0.112768  0.575341  1
  Tb  Tb5  1  0.000000  0.887232  0.424659  1
  Tb  Tb6  1  0.000000  0.611565  0.925442  1
  Tb  Tb7  1  0.000000  0.388435  0.074558  1
  Si  Si8  1  0.500000  0.500000  0.000000  1
  Ge  Ge9  1  0.500000  0.000000  0.500000  1
  I  I10  1  0.500000  0.245103  0.161292  1
  I  I11  1  0.500000  0.754897  0.838708  1
  I  I12  1  0.500000  0.744786  0.338445  1
  I  I13  1  0.500000  0.255214  0.661555  1
  I  I14  1  0.000000  0.258686  0.414007  1
  I  I15  1  0.000000  0.741314  0.585993  1
  I  I16  1  0.000000  0.758379  0.086075  1
  I  I17  1  0.000000  0.241621  0.913925  1
  I  I18  1  0.000000  0.999052  0.240508  1
  I  I19  1  0.000000  0.000948  0.759492  1
  I  I20  1  0.000000  0.499169  0.259305  1
  I  I21  1  0.000000  0.500831  0.740695  1
