# generated using pymatgen
data_Dy2Fe7
_symmetry_space_group_name_H-M   'P 1'
_cell_length_a   5.08132091
_cell_length_b   5.08132097
_cell_length_c   12.35071800
_cell_angle_alpha   78.12895278
_cell_angle_beta   78.12895264
_cell_angle_gamma   59.99998881
_symmetry_Int_Tables_number   1
_chemical_formula_structural   Dy2Fe7
_chemical_formula_sum   'Dy4 Fe14'
_cell_volume   268.26557861
_cell_formula_units_Z   2
loop_
 _symmetry_equiv_pos_site_id
 _symmetry_equiv_pos_as_xyz
  1  'x, y, z'
loop_
 _atom_site_type_symbol
 _atom_site_label
 _atom_site_symmetry_multiplicity
 _atom_site_fract_x
 _atom_site_fract_y
 _atom_site_fract_z
 _atom_site_occupancy
  Dy  Dy0  1  0.051858  0.051858  0.844426  1
  Dy  Dy1  1  0.948142  0.948142  0.155574  1
  Dy  Dy2  1  0.149234  0.149234  0.552299  1
  Dy  Dy3  1  0.850766  0.850766  0.447701  1
  Fe  Fe4  1  0.500000  0.500000  0.500000  1
  Fe  Fe5  1  0.278804  0.278804  0.163587  1
  Fe  Fe6  1  0.721196  0.721196  0.836413  1
  Fe  Fe7  1  0.387383  0.387383  0.837850  1
  Fe  Fe8  1  0.612617  0.612617  0.162150  1
  Fe  Fe9  1  0.500000  0.500000  0.000000  1
  Fe  Fe10  1  0.500000  0.000000  0.000000  1
  Fe  Fe11  1  0.000000  0.500000  0.000000  1
  Fe  Fe12  1  0.109162  0.608968  0.672903  1
  Fe  Fe13  1  0.608968  0.608968  0.672903  1
  Fe  Fe14  1  0.608968  0.109162  0.672903  1
  Fe  Fe15  1  0.890838  0.391032  0.327097  1
  Fe  Fe16  1  0.391032  0.391032  0.327097  1
  Fe  Fe17  1  0.391032  0.890838  0.327097  1
