# generated using pymatgen
data_AgBi3(Ir2O7)2
_symmetry_space_group_name_H-M   'P 1'
_cell_length_a   7.25501988
_cell_length_b   7.25502052
_cell_length_c   7.25502013
_cell_angle_alpha   61.42299938
_cell_angle_beta   61.42299818
_cell_angle_gamma   61.42299794
_symmetry_Int_Tables_number   1
_chemical_formula_structural   AgBi3(Ir2O7)2
_chemical_formula_sum   'Ag1 Bi3 Ir4 O14'
_cell_volume   278.65297345
_cell_formula_units_Z   1
loop_
 _symmetry_equiv_pos_site_id
 _symmetry_equiv_pos_as_xyz
  1  'x, y, z'
loop_
 _atom_site_type_symbol
 _atom_site_label
 _atom_site_symmetry_multiplicity
 _atom_site_fract_x
 _atom_site_fract_y
 _atom_site_fract_z
 _atom_site_occupancy
  Ag  Ag0  1  0.125000  0.125000  0.125000  1
  Bi  Bi1  1  0.625000  0.125000  0.125000  1
  Bi  Bi2  1  0.125000  0.625000  0.125000  1
  Bi  Bi3  1  0.125000  0.125000  0.625000  1
  Ir  Ir4  1  0.125000  0.625000  0.625000  1
  Ir  Ir5  1  0.625000  0.125000  0.625000  1
  Ir  Ir6  1  0.625000  0.625000  0.125000  1
  Ir  Ir7  1  0.625000  0.625000  0.625000  1
  O  O8  1  0.707066  0.707066  0.295576  1
  O  O9  1  0.301246  0.301246  0.690654  1
  O  O10  1  0.707066  0.295576  0.707066  1
  O  O11  1  0.301246  0.690654  0.301246  1
  O  O12  1  0.295576  0.707066  0.707066  1
  O  O13  1  0.690654  0.301246  0.301246  1
  O  O14  1  0.542934  0.542934  0.954424  1
  O  O15  1  0.948754  0.948754  0.559346  1
  O  O16  1  0.542934  0.954424  0.542934  1
  O  O17  1  0.948754  0.559346  0.948754  1
  O  O18  1  0.954424  0.542934  0.542934  1
  O  O19  1  0.559346  0.948754  0.948754  1
  O  O20  1  0.246065  0.246065  0.246065  1
  O  O21  1  0.003935  0.003935  0.003935  1
