# generated using pymatgen
data_Sc4MnBe4Rh10W
_symmetry_space_group_name_H-M   'P 1'
_cell_length_a   9.46995900
_cell_length_b   9.46995900
_cell_length_c   3.17083600
_cell_angle_alpha   90.00000000
_cell_angle_beta   90.00000000
_cell_angle_gamma   90.00000000
_symmetry_Int_Tables_number   1
_chemical_formula_structural   Sc4MnBe4Rh10W
_chemical_formula_sum   'Sc4 Mn1 Be4 Rh10 W1'
_cell_volume   284.36096396
_cell_formula_units_Z   1
loop_
 _symmetry_equiv_pos_site_id
 _symmetry_equiv_pos_as_xyz
  1  'x, y, z'
loop_
 _atom_site_type_symbol
 _atom_site_label
 _atom_site_symmetry_multiplicity
 _atom_site_fract_x
 _atom_site_fract_y
 _atom_site_fract_z
 _atom_site_occupancy
  Sc  Sc0  1  0.819794  0.330744  0.000000  1
  Sc  Sc1  1  0.330744  0.180206  0.000000  1
  Sc  Sc2  1  0.669256  0.819794  0.000000  1
  Sc  Sc3  1  0.180206  0.669256  0.000000  1
  Mn  Mn4  1  0.500000  0.500000  0.000000  1
  Be  Be5  1  0.619349  0.125862  0.000000  1
  Be  Be6  1  0.125862  0.380651  0.000000  1
  Be  Be7  1  0.874138  0.619349  0.000000  1
  Be  Be8  1  0.380651  0.874138  0.000000  1
  Rh  Rh9  1  0.068576  0.209080  0.500000  1
  Rh  Rh10  1  0.209080  0.931424  0.500000  1
  Rh  Rh11  1  0.790920  0.068576  0.500000  1
  Rh  Rh12  1  0.931424  0.790920  0.500000  1
  Rh  Rh13  1  0.426963  0.710618  0.500000  1
  Rh  Rh14  1  0.573037  0.289382  0.500000  1
  Rh  Rh15  1  0.710618  0.573037  0.500000  1
  Rh  Rh16  1  0.289382  0.426963  0.500000  1
  Rh  Rh17  1  0.500000  0.000000  0.500000  1
  Rh  Rh18  1  0.000000  0.500000  0.500000  1
  W  W19  1  0.000000  0.000000  0.000000  1
