# generated using pymatgen
data_Gd5Pb3N
_symmetry_space_group_name_H-M   'P 1'
_cell_length_a   9.33654750
_cell_length_b   9.33654678
_cell_length_c   9.33659700
_cell_angle_alpha   126.09064078
_cell_angle_beta   126.09064517
_cell_angle_gamma   79.73882563
_symmetry_Int_Tables_number   1
_chemical_formula_structural   Gd5Pb3N
_chemical_formula_sum   'Gd10 Pb6 N2'
_cell_volume   513.39021189
_cell_formula_units_Z   2
loop_
 _symmetry_equiv_pos_site_id
 _symmetry_equiv_pos_as_xyz
  1  'x, y, z'
loop_
 _atom_site_type_symbol
 _atom_site_label
 _atom_site_symmetry_multiplicity
 _atom_site_fract_x
 _atom_site_fract_y
 _atom_site_fract_z
 _atom_site_occupancy
  Gd  Gd0  1  0.994659  0.202199  0.499950  1
  Gd  Gd1  1  0.797826  0.297655  0.792482  1
  Gd  Gd2  1  0.494620  0.994666  0.792405  1
  Gd  Gd3  1  0.505380  0.005334  0.207595  1
  Gd  Gd4  1  0.005341  0.797801  0.500050  1
  Gd  Gd5  1  0.500000  0.500000  0.000000  1
  Gd  Gd6  1  0.202174  0.702345  0.207518  1
  Gd  Gd7  1  0.702200  0.494783  0.500057  1
  Gd  Gd8  1  0.297800  0.505217  0.499943  1
  Gd  Gd9  1  0.000000  0.000000  0.000000  1
  Pb  Pb10  1  0.849339  0.349328  0.198619  1
  Pb  Pb11  1  0.150661  0.650672  0.801381  1
  Pb  Pb12  1  0.349320  0.150615  0.499982  1
  Pb  Pb13  1  0.750098  0.750034  0.000064  1
  Pb  Pb14  1  0.650680  0.849385  0.500018  1
  Pb  Pb15  1  0.249902  0.249966  0.999936  1
  N  N16  1  0.749988  0.250060  0.499972  1
  N  N17  1  0.250012  0.749940  0.500028  1
