# generated using pymatgen
data_NdSc4V3(P3Ir4)4
_symmetry_space_group_name_H-M   'P 1'
_cell_length_a   12.63288400
_cell_length_b   12.63288223
_cell_length_c   3.91826500
_cell_angle_alpha   90.00000000
_cell_angle_beta   90.00000000
_cell_angle_gamma   119.99999940
_symmetry_Int_Tables_number   1
_chemical_formula_structural   NdSc4V3(P3Ir4)4
_chemical_formula_sum   'Nd1 Sc4 V3 P12 Ir16'
_cell_volume   541.53857135
_cell_formula_units_Z   1
loop_
 _symmetry_equiv_pos_site_id
 _symmetry_equiv_pos_as_xyz
  1  'x, y, z'
loop_
 _atom_site_type_symbol
 _atom_site_label
 _atom_site_symmetry_multiplicity
 _atom_site_fract_x
 _atom_site_fract_y
 _atom_site_fract_z
 _atom_site_occupancy
  Nd  Nd0  1  0.333333  0.666667  0.000000  1
  Sc  Sc1  1  0.666667  0.333333  0.000000  1
  Sc  Sc2  1  0.811693  0.999763  0.500000  1
  Sc  Sc3  1  0.000237  0.811930  0.500000  1
  Sc  Sc4  1  0.188070  0.188307  0.500000  1
  V  V5  1  0.451506  0.001551  0.000000  1
  V  V6  1  0.998449  0.449954  0.000000  1
  V  V7  1  0.550046  0.548494  0.000000  1
  P  P8  1  0.175560  0.001611  0.000000  1
  P  P9  1  0.998389  0.173950  0.000000  1
  P  P10  1  0.826050  0.824440  0.000000  1
  P  P11  1  0.163611  0.480437  0.500000  1
  P  P12  1  0.519563  0.683173  0.500000  1
  P  P13  1  0.316827  0.836389  0.500000  1
  P  P14  1  0.684626  0.515593  0.500000  1
  P  P15  1  0.830965  0.315374  0.500000  1
  P  P16  1  0.484407  0.169035  0.500000  1
  P  P17  1  0.638315  0.999870  0.000000  1
  P  P18  1  0.000130  0.638445  0.000000  1
  P  P19  1  0.361555  0.361685  0.000000  1
  Ir  Ir20  1  0.358088  0.486538  0.500000  1
  Ir  Ir21  1  0.513462  0.871551  0.500000  1
  Ir  Ir22  1  0.128449  0.641912  0.500000  1
  Ir  Ir23  1  0.864281  0.506547  0.500000  1
  Ir  Ir24  1  0.642266  0.135719  0.500000  1
  Ir  Ir25  1  0.493453  0.357734  0.500000  1
  Ir  Ir26  1  0.177533  0.368622  0.000000  1
  Ir  Ir27  1  0.631378  0.808912  0.000000  1
  Ir  Ir28  1  0.191088  0.822467  0.000000  1
  Ir  Ir29  1  0.808693  0.628503  0.000000  1
  Ir  Ir30  1  0.819812  0.191307  0.000000  1
  Ir  Ir31  1  0.371497  0.180188  0.000000  1
  Ir  Ir32  1  0.283772  0.001816  0.500000  1
  Ir  Ir33  1  0.998184  0.281957  0.500000  1
  Ir  Ir34  1  0.718043  0.716228  0.500000  1
  Ir  Ir35  1  0.000000  0.000000  0.000000  1
