# generated using pymatgen
data_LiHo4Lu3Hg8
_symmetry_space_group_name_H-M   'P 1'
_cell_length_a   7.33371705
_cell_length_b   7.33530800
_cell_length_c   7.34442400
_cell_angle_alpha   90.00000000
_cell_angle_beta   89.99313268
_cell_angle_gamma   90.00000000
_symmetry_Int_Tables_number   1
_chemical_formula_structural   LiHo4Lu3Hg8
_chemical_formula_sum   'Li1 Ho4 Lu3 Hg8'
_cell_volume   395.09382507
_cell_formula_units_Z   1
loop_
 _symmetry_equiv_pos_site_id
 _symmetry_equiv_pos_as_xyz
  1  'x, y, z'
loop_
 _atom_site_type_symbol
 _atom_site_label
 _atom_site_symmetry_multiplicity
 _atom_site_fract_x
 _atom_site_fract_y
 _atom_site_fract_z
 _atom_site_occupancy
  Li  Li0  1  0.749994  0.250000  0.999343  1
  Ho  Ho1  1  0.249854  0.250000  0.000038  1
  Ho  Ho2  1  0.750082  0.750000  0.000056  1
  Ho  Ho3  1  0.749969  0.750000  0.500002  1
  Ho  Ho4  1  0.249929  0.250000  0.499905  1
  Lu  Lu5  1  0.250022  0.750000  0.000398  1
  Lu  Lu6  1  0.750002  0.250000  0.499539  1
  Lu  Lu7  1  0.250048  0.750000  0.500580  1
  Hg  Hg8  1  0.502867  0.002773  0.247399  1
  Hg  Hg9  1  0.502867  0.497227  0.247399  1
  Hg  Hg10  1  0.997510  0.497429  0.247563  1
  Hg  Hg11  1  0.997510  0.002571  0.247563  1
  Hg  Hg12  1  0.997153  0.002887  0.752552  1
  Hg  Hg13  1  0.997153  0.497113  0.752552  1
  Hg  Hg14  1  0.502519  0.497551  0.752557  1
  Hg  Hg15  1  0.502519  0.002449  0.752557  1
