# generated using pymatgen
data_TbPr2Mg3Ga2Hg
_symmetry_space_group_name_H-M   'P 1'
_cell_length_a   7.51940327
_cell_length_b   7.58134443
_cell_length_c   4.51421500
_cell_angle_alpha   90.00000000
_cell_angle_beta   90.00000000
_cell_angle_gamma   120.27286146
_symmetry_Int_Tables_number   1
_chemical_formula_structural   TbPr2Mg3Ga2Hg
_chemical_formula_sum   'Tb1 Pr2 Mg3 Ga2 Hg1'
_cell_volume   222.25001063
_cell_formula_units_Z   1
loop_
 _symmetry_equiv_pos_site_id
 _symmetry_equiv_pos_as_xyz
  1  'x, y, z'
loop_
 _atom_site_type_symbol
 _atom_site_label
 _atom_site_symmetry_multiplicity
 _atom_site_fract_x
 _atom_site_fract_y
 _atom_site_fract_z
 _atom_site_occupancy
  Tb  Tb0  1  0.000000  0.424697  0.000000  1
  Pr  Pr1  1  0.574345  0.573440  0.000000  1
  Pr  Pr2  1  0.425655  0.999095  0.000000  1
  Mg  Mg3  1  0.000000  0.751219  0.500000  1
  Mg  Mg4  1  0.245607  0.247713  0.500000  1
  Mg  Mg5  1  0.754393  0.002105  0.500000  1
  Ga  Ga6  1  0.327555  0.662181  0.500000  1
  Ga  Ga7  1  0.672445  0.334624  0.500000  1
  Hg  Hg8  1  0.000000  0.004925  0.000000  1
