# generated using pymatgen
data_Cs4Ta2Si8O23
_symmetry_space_group_name_H-M   'P 1'
_cell_length_a   7.12067979
_cell_length_b   8.00332910
_cell_length_c   11.19878194
_cell_angle_alpha   103.05724353
_cell_angle_beta   89.75490301
_cell_angle_gamma   108.38528836
_symmetry_Int_Tables_number   1
_chemical_formula_structural   Cs4Ta2Si8O23
_chemical_formula_sum   'Cs4 Ta2 Si8 O23'
_cell_volume   588.42348129
_cell_formula_units_Z   1
loop_
 _symmetry_equiv_pos_site_id
 _symmetry_equiv_pos_as_xyz
  1  'x, y, z'
loop_
 _atom_site_type_symbol
 _atom_site_label
 _atom_site_symmetry_multiplicity
 _atom_site_fract_x
 _atom_site_fract_y
 _atom_site_fract_z
 _atom_site_occupancy
  Cs  Cs0  1  0.794715  0.218769  0.987939  1
  Cs  Cs1  1  0.171824  0.716626  0.361185  1
  Cs  Cs2  1  0.828176  0.283374  0.638815  1
  Cs  Cs3  1  0.205285  0.781231  0.012061  1
  Ta  Ta4  1  0.704808  0.742978  0.186258  1
  Ta  Ta5  1  0.295192  0.257022  0.813742  1
  Si  Si6  1  0.343303  0.330150  0.131363  1
  Si  Si7  1  0.566962  0.139634  0.286827  1
  Si  Si8  1  0.647357  0.703773  0.501412  1
  Si  Si9  1  0.995678  0.812941  0.704551  1
  Si  Si10  1  0.433038  0.860366  0.713173  1
  Si  Si11  1  0.004322  0.187059  0.295449  1
  Si  Si12  1  0.352643  0.296227  0.498588  1
  Si  Si13  1  0.656697  0.669850  0.868637  1
  O  O14  1  0.455267  0.153683  0.417009  1
  O  O15  1  0.518353  0.754697  0.798566  1
  O  O16  1  0.860370  0.601740  0.152507  1
  O  O17  1  0.303847  0.221971  0.987889  1
  O  O18  1  0.869963  0.702437  0.801918  1
  O  O19  1  0.466977  0.067518  0.779563  1
  O  O20  1  0.440626  0.547838  0.150361  1
  O  O21  1  0.679987  0.737315  0.366449  1
  O  O22  1  0.559374  0.452162  0.849639  1
  O  O23  1  0.136010  0.263165  0.428638  1
  O  O24  1  0.533023  0.932482  0.220437  1
  O  O25  1  0.696153  0.778029  0.012111  1
  O  O26  1  0.130037  0.297563  0.198082  1
  O  O27  1  0.192954  0.747507  0.678293  1
  O  O28  1  0.947085  0.971572  0.241682  1
  O  O29  1  0.863990  0.736835  0.571362  1
  O  O30  1  0.500000  0.500000  0.500000  1
  O  O31  1  0.481647  0.245303  0.201434  1
  O  O32  1  0.139630  0.398260  0.847493  1
  O  O33  1  0.052915  0.028428  0.758318  1
  O  O34  1  0.807046  0.252493  0.321707  1
  O  O35  1  0.320013  0.262685  0.633551  1
  O  O36  1  0.544733  0.846317  0.582991  1
