# generated using pymatgen
data_Hf3Nb3Fe16Si6Ge
_symmetry_space_group_name_H-M   'P 1'
_cell_length_a   7.98853680
_cell_length_b   8.02822754
_cell_length_c   8.01804677
_cell_angle_alpha   59.82167447
_cell_angle_beta   60.23709376
_cell_angle_gamma   60.07165115
_symmetry_Int_Tables_number   1
_chemical_formula_structural   Hf3Nb3Fe16Si6Ge
_chemical_formula_sum   'Hf3 Nb3 Fe16 Si6 Ge1'
_cell_volume   363.96253746
_cell_formula_units_Z   1
loop_
 _symmetry_equiv_pos_site_id
 _symmetry_equiv_pos_as_xyz
  1  'x, y, z'
loop_
 _atom_site_type_symbol
 _atom_site_label
 _atom_site_symmetry_multiplicity
 _atom_site_fract_x
 _atom_site_fract_y
 _atom_site_fract_z
 _atom_site_occupancy
  Hf  Hf0  1  0.797897  0.205285  0.794759  1
  Hf  Hf1  1  0.793880  0.791495  0.208583  1
  Hf  Hf2  1  0.202777  0.795815  0.204311  1
  Nb  Nb3  1  0.203353  0.206776  0.793300  1
  Nb  Nb4  1  0.207370  0.793300  0.792448  1
  Nb  Nb5  1  0.793220  0.207492  0.206656  1
  Fe  Fe6  1  0.863445  0.376105  0.378038  1
  Fe  Fe7  1  0.624183  0.612752  0.136706  1
  Fe  Fe8  1  0.373742  0.385723  0.859988  1
  Fe  Fe9  1  0.827488  0.522807  0.824751  1
  Fe  Fe10  1  0.829642  0.822869  0.821972  1
  Fe  Fe11  1  0.825986  0.825428  0.524115  1
  Fe  Fe12  1  0.380922  0.376480  0.383046  1
  Fe  Fe13  1  0.140453  0.616872  0.623482  1
  Fe  Fe14  1  0.617661  0.621854  0.623815  1
  Fe  Fe15  1  0.171511  0.177373  0.175560  1
  Fe  Fe16  1  0.175783  0.475660  0.174570  1
  Fe  Fe17  1  0.524484  0.824405  0.822689  1
  Fe  Fe18  1  0.619312  0.140249  0.614177  1
  Fe  Fe19  1  0.175242  0.175388  0.476767  1
  Fe  Fe20  1  0.373676  0.863404  0.387168  1
  Fe  Fe21  1  0.474489  0.178237  0.177101  1
  Si  Si22  1  0.999917  0.499956  0.000319  1
  Si  Si23  1  0.500238  0.500359  0.999329  1
  Si  Si24  1  0.503144  0.502964  0.497174  1
  Si  Si25  1  0.999863  0.500222  0.499902  1
  Si  Si26  1  0.000130  0.000656  0.499548  1
  Si  Si27  1  0.500098  0.999656  0.499951  1
  Ge  Ge28  1  0.500094  0.000414  0.999776  1
