# generated using pymatgen
data_Tb7Sn22BiIr6
_symmetry_space_group_name_H-M   'P 1'
_cell_length_a   9.87415700
_cell_length_b   9.87415655
_cell_length_c   10.22488300
_cell_angle_alpha   90.00000000
_cell_angle_beta   90.00000000
_cell_angle_gamma   120.00000484
_symmetry_Int_Tables_number   1
_chemical_formula_structural   Tb7Sn22BiIr6
_chemical_formula_sum   'Tb7 Sn22 Bi1 Ir6'
_cell_volume   863.35417728
_cell_formula_units_Z   1
loop_
 _symmetry_equiv_pos_site_id
 _symmetry_equiv_pos_as_xyz
  1  'x, y, z'
loop_
 _atom_site_type_symbol
 _atom_site_label
 _atom_site_symmetry_multiplicity
 _atom_site_fract_x
 _atom_site_fract_y
 _atom_site_fract_z
 _atom_site_occupancy
  Tb  Tb0  1  0.000000  0.000000  0.000000  1
  Tb  Tb1  1  0.479112  0.520888  0.307119  1
  Tb  Tb2  1  0.520888  0.479112  0.692881  1
  Tb  Tb3  1  0.479112  0.958223  0.307119  1
  Tb  Tb4  1  0.520888  0.041777  0.692881  1
  Tb  Tb5  1  0.041777  0.520888  0.307119  1
  Tb  Tb6  1  0.958223  0.479112  0.692881  1
  Sn  Sn7  1  0.350852  0.000000  0.000000  1
  Sn  Sn8  1  0.649148  0.000000  0.000000  1
  Sn  Sn9  1  0.000000  0.350852  0.000000  1
  Sn  Sn10  1  0.000000  0.649148  0.000000  1
  Sn  Sn11  1  0.649148  0.649148  0.000000  1
  Sn  Sn12  1  0.350852  0.350852  0.000000  1
  Sn  Sn13  1  0.333333  0.666667  0.824789  1
  Sn  Sn14  1  0.666667  0.333333  0.175211  1
  Sn  Sn15  1  0.777261  0.222739  0.455292  1
  Sn  Sn16  1  0.222739  0.777261  0.544708  1
  Sn  Sn17  1  0.777261  0.554522  0.455292  1
  Sn  Sn18  1  0.222739  0.445478  0.544708  1
  Sn  Sn19  1  0.445478  0.222739  0.455292  1
  Sn  Sn20  1  0.554522  0.777261  0.544708  1
  Sn  Sn21  1  0.333333  0.666667  0.121408  1
  Sn  Sn22  1  0.666667  0.333333  0.878592  1
  Sn  Sn23  1  0.121430  0.878570  0.277733  1
  Sn  Sn24  1  0.878570  0.121430  0.722267  1
  Sn  Sn25  1  0.121430  0.242860  0.277733  1
  Sn  Sn26  1  0.878570  0.757140  0.722267  1
  Sn  Sn27  1  0.757140  0.878570  0.277733  1
  Sn  Sn28  1  0.242860  0.121430  0.722267  1
  Bi  Bi29  1  0.000000  0.000000  0.500000  1
  Ir  Ir30  1  0.831139  0.168861  0.199449  1
  Ir  Ir31  1  0.168861  0.831139  0.800551  1
  Ir  Ir32  1  0.831139  0.662278  0.199449  1
  Ir  Ir33  1  0.168861  0.337722  0.800551  1
  Ir  Ir34  1  0.337722  0.168861  0.199449  1
  Ir  Ir35  1  0.662278  0.831139  0.800551  1
