# generated using pymatgen
data_Ce2ThN4
_symmetry_space_group_name_H-M   'P 1'
_cell_length_a   9.22992424
_cell_length_b   9.22992457
_cell_length_c   9.22992490
_cell_angle_alpha   23.76180378
_cell_angle_beta   23.76180006
_cell_angle_gamma   23.76180059
_symmetry_Int_Tables_number   1
_chemical_formula_structural   Ce2ThN4
_chemical_formula_sum   'Ce2 Th1 N4'
_cell_volume   112.14310686
_cell_formula_units_Z   1
loop_
 _symmetry_equiv_pos_site_id
 _symmetry_equiv_pos_as_xyz
  1  'x, y, z'
loop_
 _atom_site_type_symbol
 _atom_site_label
 _atom_site_symmetry_multiplicity
 _atom_site_fract_x
 _atom_site_fract_y
 _atom_site_fract_z
 _atom_site_occupancy
  Ce  Ce0  1  0.221191  0.221191  0.221191  1
  Ce  Ce1  1  0.778809  0.778809  0.778809  1
  Th  Th2  1  0.000000  0.000000  0.000000  1
  N  N3  1  0.132391  0.132391  0.132391  1
  N  N4  1  0.378262  0.378262  0.378262  1
  N  N5  1  0.621738  0.621738  0.621738  1
  N  N6  1  0.867609  0.867609  0.867609  1
