# generated using pymatgen
data_SrAl5SiPt
_symmetry_space_group_name_H-M   'P 1'
_cell_length_a   4.28284000
_cell_length_b   4.28284000
_cell_length_c   8.41998400
_cell_angle_alpha   90.00000000
_cell_angle_beta   90.00000000
_cell_angle_gamma   90.00000000
_symmetry_Int_Tables_number   1
_chemical_formula_structural   SrAl5SiPt
_chemical_formula_sum   'Sr1 Al5 Si1 Pt1'
_cell_volume   154.44539600
_cell_formula_units_Z   1
loop_
 _symmetry_equiv_pos_site_id
 _symmetry_equiv_pos_as_xyz
  1  'x, y, z'
loop_
 _atom_site_type_symbol
 _atom_site_label
 _atom_site_symmetry_multiplicity
 _atom_site_fract_x
 _atom_site_fract_y
 _atom_site_fract_z
 _atom_site_occupancy
  Sr  Sr0  1  0.000000  0.000000  0.001819  1
  Al  Al1  1  0.499999  0.000000  0.333107  1
  Al  Al2  1  0.000000  0.499999  0.333107  1
  Al  Al3  1  0.499999  0.000000  0.665709  1
  Al  Al4  1  0.000000  0.499999  0.665709  1
  Al  Al5  1  0.499999  0.499999  0.854530  1
  Si  Si6  1  0.499999  0.499999  0.152573  1
  Pt  Pt7  1  0.000000  0.000000  0.493445  1
