# generated using pymatgen
data_Sc2(TiRe8)3
_symmetry_space_group_name_H-M   'P 1'
_cell_length_a   8.40296769
_cell_length_b   8.40966521
_cell_length_c   8.40966533
_cell_angle_alpha   109.48734984
_cell_angle_beta   109.45508557
_cell_angle_gamma   109.45508985
_symmetry_Int_Tables_number   1
_chemical_formula_structural   Sc2(TiRe8)3
_chemical_formula_sum   'Sc2 Ti3 Re24'
_cell_volume   457.56694960
_cell_formula_units_Z   1
loop_
 _symmetry_equiv_pos_site_id
 _symmetry_equiv_pos_as_xyz
  1  'x, y, z'
loop_
 _atom_site_type_symbol
 _atom_site_label
 _atom_site_symmetry_multiplicity
 _atom_site_fract_x
 _atom_site_fract_y
 _atom_site_fract_z
 _atom_site_occupancy
  Sc  Sc0  1  0.000708  0.000000  0.000000  1
  Sc  Sc1  1  0.632079  0.000000  0.000000  1
  Ti  Ti2  1  0.999979  0.631526  0.000000  1
  Ti  Ti3  1  0.999979  0.000000  0.631526  1
  Ti  Ti4  1  0.368453  0.368474  0.368474  1
  Re  Re5  1  0.397057  0.675975  0.000000  1
  Re  Re6  1  0.721082  0.324025  0.324025  1
  Re  Re7  1  0.397057  0.000000  0.675975  1
  Re  Re8  1  0.682270  0.400245  0.000000  1
  Re  Re9  1  0.998999  0.400978  0.681792  1
  Re  Re10  1  0.317207  0.719186  0.318208  1
  Re  Re11  1  0.317207  0.318208  0.719186  1
  Re  Re12  1  0.998999  0.681792  0.400978  1
  Re  Re13  1  0.682270  0.000000  0.400245  1
  Re  Re14  1  0.598022  0.599022  0.280814  1
  Re  Re15  1  0.282025  0.599755  0.599755  1
  Re  Re16  1  0.598022  0.280814  0.599022  1
  Re  Re17  1  0.376881  0.193239  0.000000  1
  Re  Re18  1  0.183642  0.806761  0.806761  1
  Re  Re19  1  0.376881  0.000000  0.193239  1
  Re  Re20  1  0.193323  0.375653  0.000000  1
  Re  Re21  1  0.001701  0.378172  0.193500  1
  Re  Re22  1  0.808201  0.184672  0.806500  1
  Re  Re23  1  0.808201  0.806500  0.184672  1
  Re  Re24  1  0.001701  0.193500  0.378172  1
  Re  Re25  1  0.193323  0.000000  0.375653  1
  Re  Re26  1  0.623530  0.621828  0.815328  1
  Re  Re27  1  0.817669  0.624347  0.624347  1
  Re  Re28  1  0.623530  0.815328  0.621828  1
