# generated using pymatgen
data_Ce6Mn3Al24Ru4Au
_symmetry_space_group_name_H-M   'P 1'
_cell_length_a   8.91207111
_cell_length_b   8.89510515
_cell_length_c   9.56027181
_cell_angle_alpha   89.96355753
_cell_angle_beta   90.24782227
_cell_angle_gamma   119.63667378
_symmetry_Int_Tables_number   1
_chemical_formula_structural   Ce6Mn3Al24Ru4Au
_chemical_formula_sum   'Ce6 Mn3 Al24 Ru4 Au1'
_cell_volume   658.72519959
_cell_formula_units_Z   1
loop_
 _symmetry_equiv_pos_site_id
 _symmetry_equiv_pos_as_xyz
  1  'x, y, z'
loop_
 _atom_site_type_symbol
 _atom_site_label
 _atom_site_symmetry_multiplicity
 _atom_site_fract_x
 _atom_site_fract_y
 _atom_site_fract_z
 _atom_site_occupancy
  Ce  Ce0  1  0.809869  0.613998  0.750071  1
  Ce  Ce1  1  0.193045  0.805123  0.252897  1
  Ce  Ce2  1  0.614064  0.809115  0.252986  1
  Ce  Ce3  1  0.385936  0.190885  0.747014  1
  Ce  Ce4  1  0.806955  0.194877  0.747103  1
  Ce  Ce5  1  0.190131  0.386002  0.249929  1
  Mn  Mn6  1  0.500000  0.000000  0.500000  1
  Mn  Mn7  1  0.000000  0.500000  0.000000  1
  Mn  Mn8  1  0.500000  0.500000  0.500000  1
  Al  Al9  1  0.333408  0.666717  0.485810  1
  Al  Al10  1  0.674829  0.330263  0.982308  1
  Al  Al11  1  0.666592  0.333283  0.514190  1
  Al  Al12  1  0.325171  0.669737  0.017692  1
  Al  Al13  1  0.162354  0.325308  0.576045  1
  Al  Al14  1  0.676350  0.838540  0.578815  1
  Al  Al15  1  0.163252  0.836151  0.578633  1
  Al  Al16  1  0.838182  0.164214  0.078233  1
  Al  Al17  1  0.836748  0.163849  0.421367  1
  Al  Al18  1  0.850313  0.677669  0.077462  1
  Al  Al19  1  0.321883  0.151826  0.077474  1
  Al  Al20  1  0.678117  0.848174  0.922526  1
  Al  Al21  1  0.149687  0.322331  0.922538  1
  Al  Al22  1  0.837646  0.674692  0.423955  1
  Al  Al23  1  0.998229  0.000541  0.250189  1
  Al  Al24  1  0.001771  0.999459  0.749811  1
  Al  Al25  1  0.561263  0.123101  0.250634  1
  Al  Al26  1  0.436545  0.563419  0.741133  1
  Al  Al27  1  0.123053  0.561225  0.753658  1
  Al  Al28  1  0.876947  0.438775  0.246342  1
  Al  Al29  1  0.563455  0.436581  0.258867  1
  Al  Al30  1  0.438737  0.876899  0.749366  1
  Al  Al31  1  0.161818  0.835786  0.921767  1
  Al  Al32  1  0.323650  0.161460  0.421185  1
  Ru  Ru33  1  0.000000  0.000000  0.500000  1
  Ru  Ru34  1  0.000000  0.000000  0.000000  1
  Ru  Ru35  1  0.000000  0.500000  0.500000  1
  Ru  Ru36  1  0.500000  0.000000  0.000000  1
  Au  Au37  1  0.500000  0.500000  0.000000  1
