# generated using pymatgen
data_Y5Mg2P12Ir17
_symmetry_space_group_name_H-M   'P 1'
_cell_length_a   12.67368800
_cell_length_b   12.83816532
_cell_length_c   3.98492000
_cell_angle_alpha   90.00000000
_cell_angle_beta   90.00000000
_cell_angle_gamma   119.57709325
_symmetry_Int_Tables_number   1
_chemical_formula_structural   Y5Mg2P12Ir17
_chemical_formula_sum   'Y5 Mg2 P12 Ir17'
_cell_volume   563.88588797
_cell_formula_units_Z   1
loop_
 _symmetry_equiv_pos_site_id
 _symmetry_equiv_pos_as_xyz
  1  'x, y, z'
loop_
 _atom_site_type_symbol
 _atom_site_label
 _atom_site_symmetry_multiplicity
 _atom_site_fract_x
 _atom_site_fract_y
 _atom_site_fract_z
 _atom_site_occupancy
  Y  Y0  1  0.332729  0.664001  0.500000  1
  Y  Y1  1  0.668728  0.335999  0.500000  1
  Y  Y2  1  0.002351  0.813186  0.000000  1
  Y  Y3  1  0.189165  0.186814  0.000000  1
  Y  Y4  1  0.809993  0.000000  0.000000  1
  Mg  Mg5  1  0.997294  0.443780  0.500000  1
  Mg  Mg6  1  0.553514  0.556220  0.500000  1
  P  P7  1  0.002882  0.642772  0.500000  1
  P  P8  1  0.360110  0.357228  0.500000  1
  P  P9  1  0.642655  0.000000  0.500000  1
  P  P10  1  0.513876  0.685974  0.000000  1
  P  P11  1  0.308164  0.823884  0.000000  1
  P  P12  1  0.168295  0.480978  0.000000  1
  P  P13  1  0.484280  0.176116  0.000000  1
  P  P14  1  0.687316  0.519022  0.000000  1
  P  P15  1  0.827902  0.314026  0.000000  1
  P  P16  1  0.998717  0.175720  0.500000  1
  P  P17  1  0.822997  0.824280  0.500000  1
  P  P18  1  0.179252  0.000000  0.500000  1
  Ir  Ir19  1  0.504919  0.866094  0.000000  1
  Ir  Ir20  1  0.127950  0.639415  0.000000  1
  Ir  Ir21  1  0.357630  0.492598  0.000000  1
  Ir  Ir22  1  0.488536  0.360585  0.000000  1
  Ir  Ir23  1  0.865032  0.507402  0.000000  1
  Ir  Ir24  1  0.638826  0.133906  0.000000  1
  Ir  Ir25  1  0.462130  0.000000  0.500000  1
  Ir  Ir26  1  0.996225  0.279471  0.000000  1
  Ir  Ir27  1  0.716754  0.720529  0.000000  1
  Ir  Ir28  1  0.288287  0.000000  0.000000  1
  Ir  Ir29  1  0.622922  0.807220  0.500000  1
  Ir  Ir30  1  0.201249  0.824692  0.500000  1
  Ir  Ir31  1  0.176777  0.367433  0.500000  1
  Ir  Ir32  1  0.376557  0.175308  0.500000  1
  Ir  Ir33  1  0.809344  0.632567  0.500000  1
  Ir  Ir34  1  0.815701  0.192780  0.500000  1
  Ir  Ir35  1  0.000937  0.000000  0.500000  1
