# generated using pymatgen
data_Pr6Zn17Pt6Se
_symmetry_space_group_name_H-M   'P 1'
_cell_length_a   9.27047984
_cell_length_b   9.27047980
_cell_length_c   9.27048000
_cell_angle_alpha   59.99999929
_cell_angle_beta   59.99999943
_cell_angle_gamma   59.99999948
_symmetry_Int_Tables_number   1
_chemical_formula_structural   Pr6Zn17Pt6Se
_chemical_formula_sum   'Pr6 Zn17 Pt6 Se1'
_cell_volume   563.36731033
_cell_formula_units_Z   1
loop_
 _symmetry_equiv_pos_site_id
 _symmetry_equiv_pos_as_xyz
  1  'x, y, z'
loop_
 _atom_site_type_symbol
 _atom_site_label
 _atom_site_symmetry_multiplicity
 _atom_site_fract_x
 _atom_site_fract_y
 _atom_site_fract_z
 _atom_site_occupancy
  Pr  Pr0  1  0.726631  0.273369  0.273369  1
  Pr  Pr1  1  0.273369  0.726631  0.726631  1
  Pr  Pr2  1  0.273369  0.726631  0.273369  1
  Pr  Pr3  1  0.726631  0.273369  0.726631  1
  Pr  Pr4  1  0.273369  0.273369  0.726631  1
  Pr  Pr5  1  0.726631  0.726631  0.273369  1
  Zn  Zn6  1  0.129798  0.129798  0.129798  1
  Zn  Zn7  1  0.870202  0.870202  0.870202  1
  Zn  Zn8  1  0.129798  0.129798  0.610607  1
  Zn  Zn9  1  0.129798  0.610607  0.129798  1
  Zn  Zn10  1  0.870202  0.870202  0.389393  1
  Zn  Zn11  1  0.870202  0.389393  0.870202  1
  Zn  Zn12  1  0.610607  0.129798  0.129798  1
  Zn  Zn13  1  0.389393  0.870202  0.870202  1
  Zn  Zn14  1  0.330679  0.330679  0.330679  1
  Zn  Zn15  1  0.669321  0.669321  0.669321  1
  Zn  Zn16  1  0.330679  0.330679  0.007966  1
  Zn  Zn17  1  0.330679  0.007966  0.330679  1
  Zn  Zn18  1  0.669321  0.669321  0.992034  1
  Zn  Zn19  1  0.669321  0.992034  0.669321  1
  Zn  Zn20  1  0.007966  0.330679  0.330679  1
  Zn  Zn21  1  0.992034  0.669321  0.669321  1
  Zn  Zn22  1  0.000000  0.000000  0.000000  1
  Pt  Pt23  1  0.500000  0.000000  0.000000  1
  Pt  Pt24  1  0.000000  0.500000  0.500000  1
  Pt  Pt25  1  0.000000  0.500000  0.000000  1
  Pt  Pt26  1  0.500000  0.000000  0.500000  1
  Pt  Pt27  1  0.000000  0.000000  0.500000  1
  Pt  Pt28  1  0.500000  0.500000  0.000000  1
  Se  Se29  1  0.500000  0.500000  0.500000  1
