# generated using pymatgen
data_La3Hg3PtAu2
_symmetry_space_group_name_H-M   'P 1'
_cell_length_a   8.12650100
_cell_length_b   8.12649998
_cell_length_c   3.95149700
_cell_angle_alpha   90.00000000
_cell_angle_beta   90.00000000
_cell_angle_gamma   119.99999193
_symmetry_Int_Tables_number   1
_chemical_formula_structural   La3Hg3PtAu2
_chemical_formula_sum   'La3 Hg3 Pt1 Au2'
_cell_volume   225.99532505
_cell_formula_units_Z   1
loop_
 _symmetry_equiv_pos_site_id
 _symmetry_equiv_pos_as_xyz
  1  'x, y, z'
loop_
 _atom_site_type_symbol
 _atom_site_label
 _atom_site_symmetry_multiplicity
 _atom_site_fract_x
 _atom_site_fract_y
 _atom_site_fract_z
 _atom_site_occupancy
  La  La0  1  0.587589  0.984645  0.000000  1
  La  La1  1  0.015355  0.602945  0.000000  1
  La  La2  1  0.397055  0.412411  0.000000  1
  Hg  Hg3  1  0.266505  0.001016  0.500000  1
  Hg  Hg4  1  0.998984  0.265489  0.500000  1
  Hg  Hg5  1  0.734511  0.733495  0.500000  1
  Pt  Pt6  1  0.333333  0.666667  0.500000  1
  Au  Au7  1  0.666667  0.333333  0.500000  1
  Au  Au8  1  0.000000  0.000000  0.000000  1
