# generated using pymatgen
data_Pr8Ho2Si5Sn
_symmetry_space_group_name_H-M   'P 1'
_cell_length_a   7.72733350
_cell_length_b   7.72733413
_cell_length_c   9.18274700
_cell_angle_alpha   114.88214227
_cell_angle_beta   114.88213204
_cell_angle_gamma   89.99999631
_symmetry_Int_Tables_number   1
_chemical_formula_structural   Pr8Ho2Si5Sn
_chemical_formula_sum   'Pr8 Ho2 Si5 Sn1'
_cell_volume   440.68268196
_cell_formula_units_Z   1
loop_
 _symmetry_equiv_pos_site_id
 _symmetry_equiv_pos_as_xyz
  1  'x, y, z'
loop_
 _atom_site_type_symbol
 _atom_site_label
 _atom_site_symmetry_multiplicity
 _atom_site_fract_x
 _atom_site_fract_y
 _atom_site_fract_z
 _atom_site_occupancy
  Pr  Pr0  1  0.973427  0.827132  0.281683  1
  Pr  Pr1  1  0.308255  0.454550  0.281683  1
  Pr  Pr2  1  0.827132  0.308255  0.281683  1
  Pr  Pr3  1  0.454550  0.973427  0.281683  1
  Pr  Pr4  1  0.045450  0.191745  0.718317  1
  Pr  Pr5  1  0.672868  0.526573  0.718317  1
  Pr  Pr6  1  0.191745  0.672868  0.718317  1
  Pr  Pr7  1  0.526573  0.045450  0.718317  1
  Ho  Ho8  1  0.513537  0.513537  0.027075  1
  Ho  Ho9  1  0.986463  0.986463  0.972925  1
  Si  Si10  1  0.250000  0.250000  0.500000  1
  Si  Si11  1  0.618720  0.881280  0.000000  1
  Si  Si12  1  0.381280  0.118720  0.000000  1
  Si  Si13  1  0.881280  0.381280  0.000000  1
  Si  Si14  1  0.118720  0.618720  0.000000  1
  Sn  Sn15  1  0.750000  0.750000  0.500000  1
