# generated using pymatgen
data_KRb2Ba(H4Pt)2
_symmetry_space_group_name_H-M   'P 1'
_cell_length_a   5.81137700
_cell_length_b   5.81137700
_cell_length_c   8.47673300
_cell_angle_alpha   90.00000000
_cell_angle_beta   90.00000000
_cell_angle_gamma   90.00000000
_symmetry_Int_Tables_number   1
_chemical_formula_structural   KRb2Ba(H4Pt)2
_chemical_formula_sum   'K1 Rb2 Ba1 H8 Pt2'
_cell_volume   286.27709690
_cell_formula_units_Z   1
loop_
 _symmetry_equiv_pos_site_id
 _symmetry_equiv_pos_as_xyz
  1  'x, y, z'
loop_
 _atom_site_type_symbol
 _atom_site_label
 _atom_site_symmetry_multiplicity
 _atom_site_fract_x
 _atom_site_fract_y
 _atom_site_fract_z
 _atom_site_occupancy
  K  K0  1  0.000000  0.500000  0.250000  1
  Rb  Rb1  1  0.500000  0.000000  0.750000  1
  Rb  Rb2  1  0.000000  0.500000  0.750000  1
  Ba  Ba3  1  0.500000  0.000000  0.250000  1
  H  H4  1  0.214424  0.190415  0.019117  1
  H  H5  1  0.785576  0.809585  0.019117  1
  H  H6  1  0.000000  0.000000  0.221514  1
  H  H7  1  0.500000  0.500000  0.278486  1
  H  H8  1  0.690415  0.285576  0.480883  1
  H  H9  1  0.309585  0.714424  0.480883  1
  H  H10  1  0.500000  0.500000  0.671382  1
  H  H11  1  0.000000  0.000000  0.828618  1
  Pt  Pt12  1  0.000000  0.000000  0.024047  1
  Pt  Pt13  1  0.500000  0.500000  0.475953  1
