# generated using pymatgen
data_Hf13Nb3(Co2N)4
_symmetry_space_group_name_H-M   'P 1'
_cell_length_a   8.48818129
_cell_length_b   8.48818100
_cell_length_c   8.43133115
_cell_angle_alpha   59.77670822
_cell_angle_beta   59.77671223
_cell_angle_gamma   60.00000223
_symmetry_Int_Tables_number   1
_chemical_formula_structural   Hf13Nb3(Co2N)4
_chemical_formula_sum   'Hf13 Nb3 Co8 N4'
_cell_volume   428.09130413
_cell_formula_units_Z   1
loop_
 _symmetry_equiv_pos_site_id
 _symmetry_equiv_pos_as_xyz
  1  'x, y, z'
loop_
 _atom_site_type_symbol
 _atom_site_label
 _atom_site_symmetry_multiplicity
 _atom_site_fract_x
 _atom_site_fract_y
 _atom_site_fract_z
 _atom_site_occupancy
  Hf  Hf0  1  0.625000  0.625000  0.125000  1
  Hf  Hf1  1  0.813952  0.813952  0.186576  1
  Hf  Hf2  1  0.187805  0.187805  0.811854  1
  Hf  Hf3  1  0.812536  0.187805  0.811854  1
  Hf  Hf4  1  0.185520  0.813952  0.186576  1
  Hf  Hf5  1  0.187805  0.812536  0.811854  1
  Hf  Hf6  1  0.813952  0.185520  0.186576  1
  Hf  Hf7  1  0.436048  0.436048  0.063424  1
  Hf  Hf8  1  0.062195  0.062195  0.438146  1
  Hf  Hf9  1  0.437464  0.062195  0.438146  1
  Hf  Hf10  1  0.064480  0.436048  0.063424  1
  Hf  Hf11  1  0.062195  0.437464  0.438146  1
  Hf  Hf12  1  0.436048  0.064480  0.063424  1
  Nb  Nb13  1  0.125000  0.625000  0.625000  1
  Nb  Nb14  1  0.625000  0.125000  0.625000  1
  Nb  Nb15  1  0.625000  0.625000  0.625000  1
  Co  Co16  1  0.758518  0.410647  0.420190  1
  Co  Co17  1  0.410647  0.758518  0.420190  1
  Co  Co18  1  0.416842  0.416842  0.749475  1
  Co  Co19  1  0.410647  0.410647  0.420190  1
  Co  Co20  1  0.491482  0.839353  0.829810  1
  Co  Co21  1  0.839353  0.491482  0.829810  1
  Co  Co22  1  0.833158  0.833158  0.500525  1
  Co  Co23  1  0.839353  0.839353  0.829810  1
  N  N24  1  0.625000  0.125000  0.125000  1
  N  N25  1  0.125000  0.625000  0.125000  1
  N  N26  1  0.125000  0.125000  0.625000  1
  N  N27  1  0.125000  0.125000  0.125000  1
