# generated using pymatgen
data_Pr5Dy(BiO7)2
_symmetry_space_group_name_H-M   'P 1'
_cell_length_a   6.75476991
_cell_length_b   6.78367010
_cell_length_c   7.96755954
_cell_angle_alpha   106.88429783
_cell_angle_beta   89.85716412
_cell_angle_gamma   98.57664397
_symmetry_Int_Tables_number   1
_chemical_formula_structural   Pr5Dy(BiO7)2
_chemical_formula_sum   'Pr5 Dy1 Bi2 O14'
_cell_volume   345.12431990
_cell_formula_units_Z   1
loop_
 _symmetry_equiv_pos_site_id
 _symmetry_equiv_pos_as_xyz
  1  'x, y, z'
loop_
 _atom_site_type_symbol
 _atom_site_label
 _atom_site_symmetry_multiplicity
 _atom_site_fract_x
 _atom_site_fract_y
 _atom_site_fract_z
 _atom_site_occupancy
  Pr  Pr0  1  0.538662  0.995853  0.746954  1
  Pr  Pr1  1  0.267663  0.539513  0.884693  1
  Pr  Pr2  1  0.730625  0.463913  0.118998  1
  Pr  Pr3  1  0.738970  0.477845  0.613248  1
  Pr  Pr4  1  0.259903  0.518862  0.381531  1
  Dy  Dy5  1  0.461349  0.005040  0.253187  1
  Bi  Bi6  1  0.000343  0.000318  0.497716  1
  Bi  Bi7  1  0.999722  0.999972  0.002816  1
  O  O8  1  0.444890  0.657349  0.171177  1
  O  O9  1  0.558316  0.357359  0.834658  1
  O  O10  1  0.299537  0.931568  0.962032  1
  O  O11  1  0.701666  0.067565  0.052764  1
  O  O12  1  0.295590  0.929819  0.504965  1
  O  O13  1  0.705264  0.068838  0.479498  1
  O  O14  1  0.542332  0.351696  0.341420  1
  O  O15  1  0.449563  0.635746  0.652628  1
  O  O16  1  0.925929  0.673685  0.954267  1
  O  O17  1  0.073292  0.326259  0.045695  1
  O  O18  1  0.069787  0.335975  0.615140  1
  O  O19  1  0.925920  0.662322  0.386610  1
  O  O20  1  0.889982  0.915861  0.728248  1
  O  O21  1  0.120695  0.084641  0.271755  1
