# generated using pymatgen
data_Pd(SO4)2
_symmetry_space_group_name_H-M   'P 1'
_cell_length_a   8.89530565
_cell_length_b   8.89531086
_cell_length_c   8.89530534
_cell_angle_alpha   54.94651740
_cell_angle_beta   54.94646266
_cell_angle_gamma   54.94650003
_symmetry_Int_Tables_number   1
_chemical_formula_structural   Pd(SO4)2
_chemical_formula_sum   'Pd3 S6 O24'
_cell_volume   439.16793502
_cell_formula_units_Z   3
loop_
 _symmetry_equiv_pos_site_id
 _symmetry_equiv_pos_as_xyz
  1  'x, y, z'
loop_
 _atom_site_type_symbol
 _atom_site_label
 _atom_site_symmetry_multiplicity
 _atom_site_fract_x
 _atom_site_fract_y
 _atom_site_fract_z
 _atom_site_occupancy
  Pd  Pd0  1  0.846088  0.846088  0.846087  1
  Pd  Pd1  1  0.352694  0.352694  0.352694  1
  Pd  Pd2  1  0.155344  0.155344  0.155345  1
  S  S3  1  0.947357  0.246006  0.551778  1
  S  S4  1  0.551777  0.947358  0.246006  1
  S  S5  1  0.246006  0.551777  0.947357  1
  S  S6  1  0.748053  0.459258  0.039575  1
  S  S7  1  0.459258  0.039575  0.748053  1
  S  S8  1  0.039575  0.748054  0.459258  1
  O  O9  1  0.891118  0.703495  0.490219  1
  O  O10  1  0.703495  0.490220  0.891118  1
  O  O11  1  0.014435  0.024574  0.662611  1
  O  O12  1  0.490221  0.891117  0.703495  1
  O  O13  1  0.964292  0.297619  0.348018  1
  O  O14  1  0.748700  0.353418  0.649305  1
  O  O15  1  0.649304  0.748700  0.353418  1
  O  O16  1  0.662611  0.014435  0.024574  1
  O  O17  1  0.353419  0.649303  0.748700  1
  O  O18  1  0.961965  0.325432  0.007598  1
  O  O19  1  0.704077  0.649048  0.047886  1
  O  O20  1  0.649048  0.047887  0.704077  1
  O  O21  1  0.348017  0.964293  0.297620  1
  O  O22  1  0.297620  0.348016  0.964293  1
  O  O23  1  0.024574  0.662611  0.014435  1
  O  O24  1  0.626267  0.362582  0.249967  1
  O  O25  1  0.325432  0.007598  0.961965  1
  O  O26  1  0.362582  0.249967  0.626267  1
  O  O27  1  0.249967  0.626267  0.362582  1
  O  O28  1  0.047885  0.704077  0.649048  1
  O  O29  1  0.532418  0.089073  0.304769  1
  O  O30  1  0.007598  0.961965  0.325432  1
  O  O31  1  0.304769  0.532418  0.089073  1
  O  O32  1  0.089072  0.304769  0.532418  1
