# generated using pymatgen
data_Rb18Bi5Sb
_symmetry_space_group_name_H-M   'P 1'
_cell_length_a   11.28176589
_cell_length_b   11.27962610
_cell_length_c   11.54754216
_cell_angle_alpha   89.76952346
_cell_angle_beta   90.11521597
_cell_angle_gamma   119.99371910
_symmetry_Int_Tables_number   1
_chemical_formula_structural   Rb18Bi5Sb
_chemical_formula_sum   'Rb18 Bi5 Sb1'
_cell_volume   1272.67040412
_cell_formula_units_Z   1
loop_
 _symmetry_equiv_pos_site_id
 _symmetry_equiv_pos_as_xyz
  1  'x, y, z'
loop_
 _atom_site_type_symbol
 _atom_site_label
 _atom_site_symmetry_multiplicity
 _atom_site_fract_x
 _atom_site_fract_y
 _atom_site_fract_z
 _atom_site_occupancy
  Rb  Rb0  1  0.630085  0.999440  0.511983  1
  Rb  Rb1  1  0.629874  0.631189  0.011195  1
  Rb  Rb2  1  0.000000  0.371725  0.009379  1
  Rb  Rb3  1  0.000000  0.631737  0.513836  1
  Rb  Rb4  1  0.369915  0.369355  0.511983  1
  Rb  Rb5  1  0.370126  0.001315  0.011195  1
  Rb  Rb6  1  0.710154  0.001161  0.176507  1
  Rb  Rb7  1  0.710189  0.708512  0.678534  1
  Rb  Rb8  1  0.000000  0.288871  0.676797  1
  Rb  Rb9  1  0.000000  0.706873  0.173872  1
  Rb  Rb10  1  0.289846  0.291007  0.176507  1
  Rb  Rb11  1  0.289811  0.998322  0.678534  1
  Rb  Rb12  1  0.000000  0.999742  0.410402  1
  Rb  Rb13  1  0.000000  0.995934  0.910292  1
  Rb  Rb14  1  0.666413  0.333229  0.303267  1
  Rb  Rb15  1  0.329177  0.666741  0.803542  1
  Rb  Rb16  1  0.670823  0.337563  0.803542  1
  Rb  Rb17  1  0.333587  0.666816  0.303267  1
  Bi  Bi18  1  0.000000  0.329270  0.343800  1
  Bi  Bi19  1  0.671598  0.999734  0.844118  1
  Bi  Bi20  1  0.328402  0.328136  0.844118  1
  Bi  Bi21  1  0.672678  0.671765  0.344059  1
  Bi  Bi22  1  0.327322  0.999087  0.344059  1
  Sb  Sb23  1  0.000000  0.672475  0.843209  1
