# generated using pymatgen
data_Hf2CuSn2Ir
_symmetry_space_group_name_H-M   'P 1'
_cell_length_a   4.46180200
_cell_length_b   4.46180227
_cell_length_c   6.80941601
_cell_angle_alpha   90.00010566
_cell_angle_beta   89.99989483
_cell_angle_gamma   120.00217279
_symmetry_Int_Tables_number   1
_chemical_formula_structural   Hf2CuSn2Ir
_chemical_formula_sum   'Hf2 Cu1 Sn2 Ir1'
_cell_volume   117.39554165
_cell_formula_units_Z   1
loop_
 _symmetry_equiv_pos_site_id
 _symmetry_equiv_pos_as_xyz
  1  'x, y, z'
loop_
 _atom_site_type_symbol
 _atom_site_label
 _atom_site_symmetry_multiplicity
 _atom_site_fract_x
 _atom_site_fract_y
 _atom_site_fract_z
 _atom_site_occupancy
  Hf  Hf0  1  0.999978  0.000022  0.493415  1
  Hf  Hf1  1  0.999982  0.000018  0.979589  1
  Cu  Cu2  1  0.666785  0.333215  0.329391  1
  Sn  Sn3  1  0.333301  0.666699  0.235027  1
  Sn  Sn4  1  0.666641  0.333359  0.724625  1
  Ir  Ir5  1  0.333314  0.666686  0.833954  1
