# generated using pymatgen
data_Dy3ErGaSi3Ni4
_symmetry_space_group_name_H-M   'P 1'
_cell_length_a   4.19314500
_cell_length_b   6.86841831
_cell_length_c   7.17082277
_cell_angle_alpha   90.27648136
_cell_angle_beta   90.00000000
_cell_angle_gamma   90.00000000
_symmetry_Int_Tables_number   1
_chemical_formula_structural   Dy3ErGaSi3Ni4
_chemical_formula_sum   'Dy3 Er1 Ga1 Si3 Ni4'
_cell_volume   206.51925552
_cell_formula_units_Z   1
loop_
 _symmetry_equiv_pos_site_id
 _symmetry_equiv_pos_as_xyz
  1  'x, y, z'
loop_
 _atom_site_type_symbol
 _atom_site_label
 _atom_site_symmetry_multiplicity
 _atom_site_fract_x
 _atom_site_fract_y
 _atom_site_fract_z
 _atom_site_occupancy
  Dy  Dy0  1  0.250000  0.009120  0.799600  1
  Dy  Dy1  1  0.250000  0.512272  0.699335  1
  Dy  Dy2  1  0.750000  0.490774  0.302305  1
  Er  Er3  1  0.750000  0.984932  0.203913  1
  Ga  Ga4  1  0.750000  0.307890  0.913150  1
  Si  Si5  1  0.250000  0.188457  0.411064  1
  Si  Si6  1  0.250000  0.684546  0.085122  1
  Si  Si7  1  0.750000  0.810671  0.588085  1
  Ni  Ni8  1  0.250000  0.810627  0.414271  1
  Ni  Ni9  1  0.250000  0.313409  0.094831  1
  Ni  Ni10  1  0.750000  0.180468  0.573511  1
  Ni  Ni11  1  0.750000  0.706834  0.914816  1
