# generated using pymatgen
data_Nd4Cd2Cu3Ni
_symmetry_space_group_name_H-M   'P 1'
_cell_length_a   7.76324447
_cell_length_b   7.76324320
_cell_length_c   3.79751900
_cell_angle_alpha   90.00000000
_cell_angle_beta   90.00000000
_cell_angle_gamma   90.56159147
_symmetry_Int_Tables_number   1
_chemical_formula_structural   Nd4Cd2Cu3Ni
_chemical_formula_sum   'Nd4 Cd2 Cu3 Ni1'
_cell_volume   228.85770978
_cell_formula_units_Z   1
loop_
 _symmetry_equiv_pos_site_id
 _symmetry_equiv_pos_as_xyz
  1  'x, y, z'
loop_
 _atom_site_type_symbol
 _atom_site_label
 _atom_site_symmetry_multiplicity
 _atom_site_fract_x
 _atom_site_fract_y
 _atom_site_fract_z
 _atom_site_occupancy
  Nd  Nd0  1  0.684374  0.184374  0.000000  1
  Nd  Nd1  1  0.327477  0.827477  0.000000  1
  Nd  Nd2  1  0.162566  0.321478  0.000000  1
  Nd  Nd3  1  0.821478  0.662566  0.000000  1
  Cd  Cd4  1  0.495371  0.499561  0.500000  1
  Cd  Cd5  1  0.999561  0.995371  0.500000  1
  Cu  Cu6  1  0.117162  0.617162  0.500000  1
  Cu  Cu7  1  0.386377  0.120496  0.500000  1
  Cu  Cu8  1  0.620496  0.886377  0.500000  1
  Ni  Ni9  1  0.885139  0.385139  0.500000  1
