# generated using pymatgen
data_Dy7Tm3(GePb3)2
_symmetry_space_group_name_H-M   'P 1'
_cell_length_a   9.30804800
_cell_length_b   9.30804798
_cell_length_c   6.54073300
_cell_angle_alpha   90.00000000
_cell_angle_beta   90.00000000
_cell_angle_gamma   120.00000009
_symmetry_Int_Tables_number   1
_chemical_formula_structural   Dy7Tm3(GePb3)2
_chemical_formula_sum   'Dy7 Tm3 Ge2 Pb6'
_cell_volume   490.76578790
_cell_formula_units_Z   1
loop_
 _symmetry_equiv_pos_site_id
 _symmetry_equiv_pos_as_xyz
  1  'x, y, z'
loop_
 _atom_site_type_symbol
 _atom_site_label
 _atom_site_symmetry_multiplicity
 _atom_site_fract_x
 _atom_site_fract_y
 _atom_site_fract_z
 _atom_site_occupancy
  Dy  Dy0  1  0.251949  0.000152  0.250216  1
  Dy  Dy1  1  0.748204  0.000152  0.749784  1
  Dy  Dy2  1  0.999848  0.251796  0.250216  1
  Dy  Dy3  1  0.999848  0.748051  0.749784  1
  Dy  Dy4  1  0.748204  0.748051  0.250216  1
  Dy  Dy5  1  0.251949  0.251796  0.749784  1
  Dy  Dy6  1  0.333333  0.666667  0.500000  1
  Tm  Tm7  1  0.333333  0.666667  0.000000  1
  Tm  Tm8  1  0.666667  0.333333  0.000000  1
  Tm  Tm9  1  0.666667  0.333333  0.500000  1
  Ge  Ge10  1  0.000000  0.000000  0.000000  1
  Ge  Ge11  1  0.000000  0.000000  0.500000  1
  Pb  Pb12  1  0.607302  0.000352  0.249893  1
  Pb  Pb13  1  0.393050  0.000352  0.750107  1
  Pb  Pb14  1  0.999648  0.606950  0.249893  1
  Pb  Pb15  1  0.999648  0.392698  0.750107  1
  Pb  Pb16  1  0.393050  0.392698  0.249893  1
  Pb  Pb17  1  0.607302  0.606950  0.750107  1
