# generated using pymatgen
data_La3Pr3Nd6(RhBr3)4
_symmetry_space_group_name_H-M   'P 1'
_cell_length_a   10.54567985
_cell_length_b   10.54995525
_cell_length_c   10.51186039
_cell_angle_alpha   108.64356760
_cell_angle_beta   109.84713079
_cell_angle_gamma   109.84950923
_symmetry_Int_Tables_number   1
_chemical_formula_structural   La3Pr3Nd6(RhBr3)4
_chemical_formula_sum   'La3 Pr3 Nd6 Rh4 Br12'
_cell_volume   901.00687742
_cell_formula_units_Z   1
loop_
 _symmetry_equiv_pos_site_id
 _symmetry_equiv_pos_as_xyz
  1  'x, y, z'
loop_
 _atom_site_type_symbol
 _atom_site_label
 _atom_site_symmetry_multiplicity
 _atom_site_fract_x
 _atom_site_fract_y
 _atom_site_fract_z
 _atom_site_occupancy
  La  La0  1  0.463894  0.482259  0.232064  1
  La  La1  1  0.751549  0.234453  0.266498  1
  La  La2  1  0.750297  0.016238  0.484206  1
  Pr  Pr3  1  0.021151  0.489588  0.759570  1
  Pr  Pr4  1  0.267543  0.013615  0.031500  1
  Pr  Pr5  1  0.231379  0.263075  0.745019  1
  Nd  Nd6  1  0.230997  0.467190  0.485225  1
  Nd  Nd7  1  0.268043  0.753738  0.235886  1
  Nd  Nd8  1  0.029736  0.264857  0.015229  1
  Nd  Nd9  1  0.021550  0.032718  0.262138  1
  Nd  Nd10  1  0.484136  0.747746  0.012673  1
  Nd  Nd11  1  0.483705  0.236284  0.471320  1
  Rh  Rh12  1  0.251358  0.252293  0.250519  1
  Rh  Rh13  1  0.505265  0.002256  0.252966  1
  Rh  Rh14  1  0.995419  0.247434  0.496759  1
  Rh  Rh15  1  0.252071  0.500339  0.002794  1
  Br  Br16  1  0.250485  0.755277  0.744632  1
  Br  Br17  1  0.509713  0.505155  0.754636  1
  Br  Br18  1  0.989773  0.745111  0.995627  1
  Br  Br19  1  0.745411  0.253136  0.756204  1
  Br  Br20  1  0.996228  0.991442  0.747638  1
  Br  Br21  1  0.249935  0.994360  0.504541  1
  Br  Br22  1  0.754331  0.507462  0.508322  1
  Br  Br23  1  0.499656  0.246527  0.990841  1
  Br  Br24  1  0.754665  0.747206  0.245993  1
  Br  Br25  1  0.745896  0.992227  0.989704  1
  Br  Br26  1  0.997150  0.505269  0.249173  1
  Br  Br27  1  0.498667  0.752743  0.508321  1
