# generated using pymatgen
data_BaNa16Sr5Au
_symmetry_space_group_name_H-M   'P 1'
_cell_length_a   10.73779595
_cell_length_b   10.73779671
_cell_length_c   10.73779631
_cell_angle_alpha   110.01868908
_cell_angle_beta   110.01868957
_cell_angle_gamma   108.38173870
_symmetry_Int_Tables_number   1
_chemical_formula_structural   BaNa16Sr5Au
_chemical_formula_sum   'Ba1 Na16 Sr5 Au1'
_cell_volume   952.80958587
_cell_formula_units_Z   1
loop_
 _symmetry_equiv_pos_site_id
 _symmetry_equiv_pos_as_xyz
  1  'x, y, z'
loop_
 _atom_site_type_symbol
 _atom_site_label
 _atom_site_symmetry_multiplicity
 _atom_site_fract_x
 _atom_site_fract_y
 _atom_site_fract_z
 _atom_site_occupancy
  Ba  Ba0  1  0.745170  0.745170  0.000000  1
  Na  Na1  1  0.499314  0.499314  0.498772  1
  Na  Na2  1  0.000542  0.000542  0.501228  1
  Na  Na3  1  0.499314  0.000542  0.000000  1
  Na  Na4  1  0.000542  0.499314  0.000000  1
  Na  Na5  1  0.344930  0.689441  0.344511  1
  Na  Na6  1  0.655069  0.000079  0.345010  1
  Na  Na7  1  0.344930  0.000419  0.655489  1
  Na  Na8  1  0.654784  0.342677  0.000000  1
  Na  Na9  1  0.342677  0.342677  0.687893  1
  Na  Na10  1  0.689441  0.344930  0.344511  1
  Na  Na11  1  0.000419  0.344930  0.655489  1
  Na  Na12  1  0.310059  0.655069  0.654990  1
  Na  Na13  1  0.342677  0.654784  0.000000  1
  Na  Na14  1  0.000079  0.655069  0.345010  1
  Na  Na15  1  0.654784  0.654784  0.312107  1
  Na  Na16  1  0.655069  0.310059  0.654990  1
  Sr  Sr17  1  0.252812  0.252812  0.000000  1
  Sr  Sr18  1  0.000980  0.255578  0.254598  1
  Sr  Sr19  1  0.000980  0.746381  0.745402  1
  Sr  Sr20  1  0.746381  0.000980  0.745402  1
  Sr  Sr21  1  0.255578  0.000980  0.254598  1
  Au  Au22  1  0.003472  0.003472  0.000000  1
