# generated using pymatgen
data_Ho8AlSi4B16W
_symmetry_space_group_name_H-M   'P 1'
_cell_length_a   7.11204400
_cell_length_b   7.11204400
_cell_length_c   7.61431800
_cell_angle_alpha   90.00000000
_cell_angle_beta   90.00000000
_cell_angle_gamma   90.00000000
_symmetry_Int_Tables_number   1
_chemical_formula_structural   Ho8AlSi4B16W
_chemical_formula_sum   'Ho8 Al1 Si4 B16 W1'
_cell_volume   385.14111211
_cell_formula_units_Z   1
loop_
 _symmetry_equiv_pos_site_id
 _symmetry_equiv_pos_as_xyz
  1  'x, y, z'
loop_
 _atom_site_type_symbol
 _atom_site_label
 _atom_site_symmetry_multiplicity
 _atom_site_fract_x
 _atom_site_fract_y
 _atom_site_fract_z
 _atom_site_occupancy
  Ho  Ho0  1  0.680789  0.180550  0.235233  1
  Ho  Ho1  1  0.319211  0.819450  0.764767  1
  Ho  Ho2  1  0.319211  0.819450  0.235233  1
  Ho  Ho3  1  0.819450  0.680789  0.235233  1
  Ho  Ho4  1  0.819450  0.680789  0.764767  1
  Ho  Ho5  1  0.680789  0.180550  0.764767  1
  Ho  Ho6  1  0.180550  0.319211  0.764767  1
  Ho  Ho7  1  0.180550  0.319211  0.235233  1
  Al  Al8  1  0.000000  0.000000  0.500000  1
  Si  Si9  1  0.131139  0.608256  0.500000  1
  Si  Si10  1  0.868861  0.391744  0.500000  1
  Si  Si11  1  0.391744  0.131139  0.500000  1
  Si  Si12  1  0.608256  0.868861  0.500000  1
  B  B13  1  0.172913  0.039911  0.000000  1
  B  B14  1  0.827087  0.960089  0.000000  1
  B  B15  1  0.960089  0.172913  0.000000  1
  B  B16  1  0.328317  0.540127  0.000000  1
  B  B17  1  0.039911  0.827087  0.000000  1
  B  B18  1  0.671683  0.459873  0.000000  1
  B  B19  1  0.540127  0.671683  0.000000  1
  B  B20  1  0.459873  0.328317  0.000000  1
  B  B21  1  0.089949  0.589832  0.000000  1
  B  B22  1  0.910051  0.410168  0.000000  1
  B  B23  1  0.410168  0.089949  0.000000  1
  B  B24  1  0.589832  0.910051  0.000000  1
  B  B25  1  0.000000  0.000000  0.170436  1
  B  B26  1  0.000000  0.000000  0.829564  1
  B  B27  1  0.500000  0.500000  0.823161  1
  B  B28  1  0.500000  0.500000  0.176839  1
  W  W29  1  0.500000  0.500000  0.500000  1
