# generated using pymatgen
data_Ba6EuBiF20
_symmetry_space_group_name_H-M   'P 1'
_cell_length_a   8.94445800
_cell_length_b   8.94445823
_cell_length_c   6.23330700
_cell_angle_alpha   90.00000000
_cell_angle_beta   90.00000000
_cell_angle_gamma   100.52424230
_symmetry_Int_Tables_number   1
_chemical_formula_structural   Ba6EuBiF20
_chemical_formula_sum   'Ba6 Eu1 Bi1 F20'
_cell_volume   490.29629609
_cell_formula_units_Z   1
loop_
 _symmetry_equiv_pos_site_id
 _symmetry_equiv_pos_as_xyz
  1  'x, y, z'
loop_
 _atom_site_type_symbol
 _atom_site_label
 _atom_site_symmetry_multiplicity
 _atom_site_fract_x
 _atom_site_fract_y
 _atom_site_fract_z
 _atom_site_occupancy
  Ba  Ba0  1  0.819842  0.588542  0.750000  1
  Ba  Ba1  1  0.170114  0.380702  0.250000  1
  Ba  Ba2  1  0.411458  0.180158  0.750000  1
  Ba  Ba3  1  0.619297  0.829886  0.250000  1
  Ba  Ba4  1  0.888663  0.111336  0.750000  1
  Ba  Ba5  1  0.105257  0.894743  0.250000  1
  Eu  Eu6  1  0.680900  0.319100  0.250000  1
  Bi  Bi7  1  0.317785  0.682215  0.750000  1
  F  F8  1  0.138988  0.134705  0.503612  1
  F  F9  1  0.865295  0.861012  0.503612  1
  F  F10  1  0.865295  0.861012  0.996388  1
  F  F11  1  0.138988  0.134705  0.996388  1
  F  F12  1  0.117205  0.656917  0.544255  1
  F  F13  1  0.903163  0.352415  0.481616  1
  F  F14  1  0.903163  0.352415  0.018384  1
  F  F15  1  0.343083  0.882795  0.955745  1
  F  F16  1  0.117205  0.656917  0.955745  1
  F  F17  1  0.647585  0.096837  0.018384  1
  F  F18  1  0.647585  0.096837  0.481616  1
  F  F19  1  0.343083  0.882795  0.544255  1
  F  F20  1  0.246667  0.439753  0.750000  1
  F  F21  1  0.762156  0.585368  0.250000  1
  F  F22  1  0.560247  0.753333  0.750000  1
  F  F23  1  0.414633  0.237844  0.250000  1
  F  F24  1  0.594270  0.405730  0.550558  1
  F  F25  1  0.391898  0.608101  0.453208  1
  F  F26  1  0.391898  0.608101  0.046792  1
  F  F27  1  0.594270  0.405730  0.949442  1
