# generated using pymatgen
data_CaTb4CoRuO12
_symmetry_space_group_name_H-M   'P 1'
_cell_length_a   6.83637874
_cell_length_b   6.81194822
_cell_length_c   7.30962080
_cell_angle_alpha   74.20775985
_cell_angle_beta   74.33217825
_cell_angle_gamma   51.06393811
_symmetry_Int_Tables_number   1
_chemical_formula_structural   CaTb4CoRuO12
_chemical_formula_sum   'Ca1 Tb4 Co1 Ru1 O12'
_cell_volume   252.54714166
_cell_formula_units_Z   1
loop_
 _symmetry_equiv_pos_site_id
 _symmetry_equiv_pos_as_xyz
  1  'x, y, z'
loop_
 _atom_site_type_symbol
 _atom_site_label
 _atom_site_symmetry_multiplicity
 _atom_site_fract_x
 _atom_site_fract_y
 _atom_site_fract_z
 _atom_site_occupancy
  Ca  Ca0  1  0.683467  0.693297  0.672465  1
  Tb  Tb1  1  0.677703  0.712226  0.137152  1
  Tb  Tb2  1  0.999394  0.005406  0.999955  1
  Tb  Tb3  1  0.284344  0.321179  0.860589  1
  Tb  Tb4  1  0.305992  0.315020  0.327885  1
  Co  Co5  1  0.263911  0.737082  0.500077  1
  Ru  Ru6  1  0.772123  0.227373  0.502069  1
  O  O7  1  0.390481  0.920205  0.928139  1
  O  O8  1  0.581568  0.106804  0.576308  1
  O  O9  1  0.897671  0.415236  0.415820  1
  O  O10  1  0.087050  0.601493  0.080216  1
  O  O11  1  0.020117  0.978339  0.329264  1
  O  O12  1  0.497562  0.499766  0.675967  1
  O  O13  1  0.897702  0.400992  0.936139  1
  O  O14  1  0.110068  0.571505  0.576633  1
  O  O15  1  0.417504  0.904078  0.414564  1
  O  O16  1  0.593535  0.108708  0.072465  1
  O  O17  1  0.501804  0.499617  0.319152  1
  O  O18  1  0.018003  0.981675  0.675139  1
