# generated using pymatgen
data_Y5Ho7Co4BiIr
_symmetry_space_group_name_H-M   'P 1'
_cell_length_a   8.32353133
_cell_length_b   8.33325315
_cell_length_c   8.32353099
_cell_angle_alpha   110.98723697
_cell_angle_beta   110.60928355
_cell_angle_gamma   106.80352932
_symmetry_Int_Tables_number   1
_chemical_formula_structural   Y5Ho7Co4BiIr
_chemical_formula_sum   'Y5 Ho7 Co4 Bi1 Ir1'
_cell_volume   443.97120222
_cell_formula_units_Z   1
loop_
 _symmetry_equiv_pos_site_id
 _symmetry_equiv_pos_as_xyz
  1  'x, y, z'
loop_
 _atom_site_type_symbol
 _atom_site_label
 _atom_site_symmetry_multiplicity
 _atom_site_fract_x
 _atom_site_fract_y
 _atom_site_fract_z
 _atom_site_occupancy
  Y  Y0  1  0.816583  0.714381  0.530149  1
  Y  Y1  1  0.183007  0.285838  0.469433  1
  Y  Y2  1  0.184234  0.714381  0.897799  1
  Y  Y3  1  0.816404  0.285838  0.102830  1
  Y  Y4  1  0.688297  0.380505  0.692209  1
  Ho  Ho5  1  0.311965  0.621785  0.309820  1
  Ho  Ho6  1  0.687896  0.997854  0.309958  1
  Ho  Ho7  1  0.311877  0.001914  0.690037  1
  Ho  Ho8  1  0.591576  0.789553  0.803059  1
  Ho  Ho9  1  0.407815  0.210664  0.196715  1
  Ho  Ho10  1  0.986495  0.789553  0.197976  1
  Ho  Ho11  1  0.013948  0.210664  0.802848  1
  Co  Co12  1  0.622442  0.998421  0.622064  1
  Co  Co13  1  0.376357  0.998421  0.375979  1
  Co  Co14  1  0.111530  0.611817  0.500287  1
  Co  Co15  1  0.889745  0.388789  0.499044  1
  Bi  Bi16  1  0.499972  0.500044  0.000072  1
  Ir  Ir17  1  0.999858  0.999578  0.999720  1
