# generated using pymatgen
data_Tm4MnV(B8Mo)2
_symmetry_space_group_name_H-M   'P 1'
_cell_length_a   3.50984300
_cell_length_b   5.95884045
_cell_length_c   11.50905563
_cell_angle_alpha   89.86394392
_cell_angle_beta   90.00000000
_cell_angle_gamma   90.00000000
_symmetry_Int_Tables_number   1
_chemical_formula_structural   Tm4MnV(B8Mo)2
_chemical_formula_sum   'Tm4 Mn1 V1 B16 Mo2'
_cell_volume   240.70655222
_cell_formula_units_Z   1
loop_
 _symmetry_equiv_pos_site_id
 _symmetry_equiv_pos_as_xyz
  1  'x, y, z'
loop_
 _atom_site_type_symbol
 _atom_site_label
 _atom_site_symmetry_multiplicity
 _atom_site_fract_x
 _atom_site_fract_y
 _atom_site_fract_z
 _atom_site_occupancy
  Tm  Tm0  1  0.500000  0.376009  0.147108  1
  Tm  Tm1  1  0.500000  0.625550  0.853614  1
  Tm  Tm2  1  0.500000  0.127584  0.653575  1
  Tm  Tm3  1  0.500000  0.872252  0.345753  1
  Mn  Mn4  1  0.500000  0.875153  0.080227  1
  V  V5  1  0.500000  0.125477  0.921159  1
  B  B6  1  0.000000  0.110247  0.049038  1
  B  B7  1  0.000000  0.884113  0.955129  1
  B  B8  1  0.000000  0.383580  0.547665  1
  B  B9  1  0.000000  0.616023  0.451084  1
  B  B10  1  0.000000  0.130816  0.467350  1
  B  B11  1  0.000000  0.869023  0.532307  1
  B  B12  1  0.000000  0.364799  0.969676  1
  B  B13  1  0.000000  0.637835  0.032715  1
  B  B14  1  0.000000  0.019880  0.190161  1
  B  B15  1  0.000000  0.976843  0.809550  1
  B  B16  1  0.000000  0.474100  0.696187  1
  B  B17  1  0.000000  0.527848  0.302740  1
  B  B18  1  0.000000  0.209845  0.309762  1
  B  B19  1  0.000000  0.788711  0.689139  1
  B  B20  1  0.000000  0.284401  0.816935  1
  B  B21  1  0.000000  0.719556  0.181083  1
  Mo  Mo22  1  0.500000  0.370156  0.413507  1
  Mo  Mo23  1  0.500000  0.630198  0.584533  1
