# generated using pymatgen
data_Tb2Dy2BBr6
_symmetry_space_group_name_H-M   'P 1'
_cell_length_a   3.92612600
_cell_length_b   13.08906200
_cell_length_c   13.56962200
_cell_angle_alpha   90.00000000
_cell_angle_beta   90.00000000
_cell_angle_gamma   90.00000000
_symmetry_Int_Tables_number   1
_chemical_formula_structural   Tb2Dy2BBr6
_chemical_formula_sum   'Tb4 Dy4 B2 Br12'
_cell_volume   697.33346586
_cell_formula_units_Z   2
loop_
 _symmetry_equiv_pos_site_id
 _symmetry_equiv_pos_as_xyz
  1  'x, y, z'
loop_
 _atom_site_type_symbol
 _atom_site_label
 _atom_site_symmetry_multiplicity
 _atom_site_fract_x
 _atom_site_fract_y
 _atom_site_fract_z
 _atom_site_occupancy
  Tb  Tb0  1  0.500000  0.124002  0.854410  1
  Tb  Tb1  1  0.500000  0.875998  0.145590  1
  Tb  Tb2  1  0.500000  0.624002  0.645590  1
  Tb  Tb3  1  0.500000  0.375998  0.354410  1
  Dy  Dy4  1  0.000000  0.102165  0.081223  1
  Dy  Dy5  1  0.000000  0.897835  0.918777  1
  Dy  Dy6  1  0.000000  0.602165  0.418777  1
  Dy  Dy7  1  0.000000  0.397835  0.581223  1
  B  B8  1  0.500000  0.000000  0.000000  1
  B  B9  1  0.500000  0.500000  0.500000  1
  Br  Br10  1  0.500000  0.268028  0.681771  1
  Br  Br11  1  0.500000  0.731972  0.318229  1
  Br  Br12  1  0.500000  0.768028  0.818229  1
  Br  Br13  1  0.500000  0.231972  0.181771  1
  Br  Br14  1  0.000000  0.263851  0.933046  1
  Br  Br15  1  0.000000  0.736149  0.066954  1
  Br  Br16  1  0.000000  0.482777  0.237028  1
  Br  Br17  1  0.000000  0.517223  0.762972  1
  Br  Br18  1  0.000000  0.982777  0.262972  1
  Br  Br19  1  0.000000  0.017223  0.737028  1
  Br  Br20  1  0.000000  0.236149  0.433046  1
  Br  Br21  1  0.000000  0.763851  0.566954  1
