# generated using pymatgen
data_Dy7(HoPt6)3
_symmetry_space_group_name_H-M   'P 1'
_cell_length_a   9.76566509
_cell_length_b   9.77002209
_cell_length_c   5.77235000
_cell_angle_alpha   90.00000000
_cell_angle_beta   90.00000000
_cell_angle_gamma   90.01543867
_symmetry_Int_Tables_number   1
_chemical_formula_structural   Dy7(HoPt6)3
_chemical_formula_sum   'Dy7 Ho3 Pt18'
_cell_volume   550.74430143
_cell_formula_units_Z   1
loop_
 _symmetry_equiv_pos_site_id
 _symmetry_equiv_pos_as_xyz
  1  'x, y, z'
loop_
 _atom_site_type_symbol
 _atom_site_label
 _atom_site_symmetry_multiplicity
 _atom_site_fract_x
 _atom_site_fract_y
 _atom_site_fract_z
 _atom_site_occupancy
  Dy  Dy0  1  0.452225  0.809333  0.000000  1
  Dy  Dy1  1  0.547766  0.190666  0.000000  1
  Dy  Dy2  1  0.190641  0.547710  0.000000  1
  Dy  Dy3  1  0.809386  0.452205  0.000000  1
  Dy  Dy4  1  0.309265  0.047826  0.500000  1
  Dy  Dy5  1  0.690684  0.952243  0.500000  1
  Dy  Dy6  1  0.952246  0.690609  0.500000  1
  Ho  Ho7  1  0.499982  0.499984  0.500000  1
  Ho  Ho8  1  0.047778  0.309346  0.500000  1
  Ho  Ho9  1  0.999999  0.000040  0.000000  1
  Pt  Pt10  1  0.191361  0.808620  0.250842  1
  Pt  Pt11  1  0.808845  0.191438  0.749017  1
  Pt  Pt12  1  0.808845  0.191438  0.250983  1
  Pt  Pt13  1  0.191361  0.808620  0.749158  1
  Pt  Pt14  1  0.440081  0.781191  0.500000  1
  Pt  Pt15  1  0.559917  0.218799  0.500000  1
  Pt  Pt16  1  0.218652  0.559735  0.500000  1
  Pt  Pt17  1  0.781433  0.440018  0.500000  1
  Pt  Pt18  1  0.308397  0.308642  0.249356  1
  Pt  Pt19  1  0.691366  0.691356  0.750836  1
  Pt  Pt20  1  0.691366  0.691356  0.249164  1
  Pt  Pt21  1  0.308397  0.308642  0.750644  1
  Pt  Pt22  1  0.281213  0.059896  0.000000  1
  Pt  Pt23  1  0.718800  0.940114  0.000000  1
  Pt  Pt24  1  0.940108  0.718805  0.000000  1
  Pt  Pt25  1  0.059869  0.281225  0.000000  1
  Pt  Pt26  1  0.000025  0.000153  0.500000  1
  Pt  Pt27  1  0.499989  0.499990  0.000000  1
