# generated using pymatgen
data_Ca2MgTeO6
_symmetry_space_group_name_H-M   'P 1'
_cell_length_a   5.62441600
_cell_length_b   5.49232384
_cell_length_c   9.55336693
_cell_angle_alpha   55.03297616
_cell_angle_beta   90.00000000
_cell_angle_gamma   90.00000000
_symmetry_Int_Tables_number   1
_chemical_formula_structural   Ca2MgTeO6
_chemical_formula_sum   'Ca4 Mg2 Te2 O12'
_cell_volume   241.84074002
_cell_formula_units_Z   2
loop_
 _symmetry_equiv_pos_site_id
 _symmetry_equiv_pos_as_xyz
  1  'x, y, z'
loop_
 _atom_site_type_symbol
 _atom_site_label
 _atom_site_symmetry_multiplicity
 _atom_site_fract_x
 _atom_site_fract_y
 _atom_site_fract_z
 _atom_site_occupancy
  Ca  Ca0  1  0.049051  0.762942  0.249011  1
  Ca  Ca1  1  0.450949  0.762942  0.749011  1
  Ca  Ca2  1  0.950949  0.237058  0.750989  1
  Ca  Ca3  1  0.549051  0.237058  0.250989  1
  Mg  Mg4  1  0.500000  0.000000  0.000000  1
  Mg  Mg5  1  0.000000  0.000000  0.500000  1
  Te  Te6  1  0.500000  0.500000  0.500000  1
  Te  Te7  1  0.000000  0.500000  0.000000  1
  O  O8  1  0.215109  0.259427  0.550065  1
  O  O9  1  0.284891  0.259427  0.050065  1
  O  O10  1  0.784891  0.740573  0.449935  1
  O  O11  1  0.715109  0.740573  0.949935  1
  O  O12  1  0.694937  0.167891  0.545064  1
  O  O13  1  0.805063  0.167891  0.045064  1
  O  O14  1  0.305063  0.832109  0.454936  1
  O  O15  1  0.194937  0.832109  0.954936  1
  O  O16  1  0.468694  0.648739  0.260046  1
  O  O17  1  0.031306  0.648739  0.760046  1
  O  O18  1  0.531306  0.351261  0.739954  1
  O  O19  1  0.968694  0.351261  0.239954  1
