# generated using pymatgen
data_Hf13Zr(Pt9Au)2
_symmetry_space_group_name_H-M   'P 1'
_cell_length_a   8.18940461
_cell_length_b   8.18940470
_cell_length_c   9.68313548
_cell_angle_alpha   90.05240620
_cell_angle_beta   90.05240538
_cell_angle_gamma   107.34068211
_symmetry_Int_Tables_number   1
_chemical_formula_structural   Hf13Zr(Pt9Au)2
_chemical_formula_sum   'Hf13 Zr1 Pt18 Au2'
_cell_volume   619.89561901
_cell_formula_units_Z   1
loop_
 _symmetry_equiv_pos_site_id
 _symmetry_equiv_pos_as_xyz
  1  'x, y, z'
loop_
 _atom_site_type_symbol
 _atom_site_label
 _atom_site_symmetry_multiplicity
 _atom_site_fract_x
 _atom_site_fract_y
 _atom_site_fract_z
 _atom_site_occupancy
  Hf  Hf0  1  0.301650  0.698350  0.000000  1
  Hf  Hf1  1  0.808956  0.191044  0.500000  1
  Hf  Hf2  1  0.190940  0.809060  0.500000  1
  Hf  Hf3  1  0.999739  0.000261  0.000000  1
  Hf  Hf4  1  0.499955  0.500045  0.500000  1
  Hf  Hf5  1  0.001379  0.502656  0.251019  1
  Hf  Hf6  1  0.998975  0.497642  0.748900  1
  Hf  Hf7  1  0.497344  0.998621  0.748981  1
  Hf  Hf8  1  0.502358  0.001025  0.251100  1
  Hf  Hf9  1  0.310574  0.310842  0.191335  1
  Hf  Hf10  1  0.689158  0.689426  0.808665  1
  Hf  Hf11  1  0.175394  0.175426  0.675769  1
  Hf  Hf12  1  0.824574  0.824606  0.324231  1
  Zr  Zr13  1  0.697495  0.302505  0.000000  1
  Pt  Pt14  1  0.853141  0.143352  0.209603  1
  Pt  Pt15  1  0.147283  0.855982  0.790868  1
  Pt  Pt16  1  0.649022  0.357087  0.707574  1
  Pt  Pt17  1  0.642913  0.350978  0.292426  1
  Pt  Pt18  1  0.350761  0.642790  0.291403  1
  Pt  Pt19  1  0.357210  0.649239  0.708597  1
  Pt  Pt20  1  0.856648  0.146859  0.790397  1
  Pt  Pt21  1  0.144018  0.852717  0.209132  1
  Pt  Pt22  1  0.936552  0.645149  0.997288  1
  Pt  Pt23  1  0.065605  0.356355  0.003018  1
  Pt  Pt24  1  0.562895  0.854819  0.498480  1
  Pt  Pt25  1  0.145181  0.437105  0.501520  1
  Pt  Pt26  1  0.437000  0.144872  0.501556  1
  Pt  Pt27  1  0.855128  0.563000  0.498444  1
  Pt  Pt28  1  0.354851  0.063448  0.002712  1
  Pt  Pt29  1  0.643645  0.934395  0.996982  1
  Pt  Pt30  1  0.107104  0.106794  0.394216  1
  Pt  Pt31  1  0.893206  0.892896  0.605784  1
  Au  Au32  1  0.390660  0.391315  0.891070  1
  Au  Au33  1  0.608685  0.609340  0.108930  1
