# generated using pymatgen
data_Tb3Ce(ZnIr)4
_symmetry_space_group_name_H-M   'P 1'
_cell_length_a   6.97999194
_cell_length_b   4.08215700
_cell_length_c   8.17690860
_cell_angle_alpha   90.00000000
_cell_angle_beta   90.33224585
_cell_angle_gamma   90.00000000
_symmetry_Int_Tables_number   1
_chemical_formula_structural   Tb3Ce(ZnIr)4
_chemical_formula_sum   'Tb3 Ce1 Zn4 Ir4'
_cell_volume   232.98419791
_cell_formula_units_Z   1
loop_
 _symmetry_equiv_pos_site_id
 _symmetry_equiv_pos_as_xyz
  1  'x, y, z'
loop_
 _atom_site_type_symbol
 _atom_site_label
 _atom_site_symmetry_multiplicity
 _atom_site_fract_x
 _atom_site_fract_y
 _atom_site_fract_z
 _atom_site_occupancy
  Tb  Tb0  1  0.962033  0.250000  0.183489  1
  Tb  Tb1  1  0.465484  0.250000  0.312670  1
  Tb  Tb2  1  0.033525  0.750000  0.816993  1
  Ce  Ce3  1  0.534157  0.750000  0.684534  1
  Zn  Zn4  1  0.867470  0.250000  0.564164  1
  Zn  Zn5  1  0.355210  0.250000  0.939149  1
  Zn  Zn6  1  0.139799  0.750000  0.432708  1
  Zn  Zn7  1  0.640189  0.750000  0.067843  1
  Ir  Ir8  1  0.736107  0.250000  0.872646  1
  Ir  Ir9  1  0.252815  0.250000  0.622170  1
  Ir  Ir10  1  0.254503  0.750000  0.121135  1
  Ir  Ir11  1  0.758710  0.750000  0.382497  1
