# generated using pymatgen
data_Tm2Lu(SiRh2)3
_symmetry_space_group_name_H-M   'P 1'
_cell_length_a   5.53985400
_cell_length_b   5.53985288
_cell_length_c   14.94710300
_cell_angle_alpha   90.00000000
_cell_angle_beta   90.00000000
_cell_angle_gamma   120.00000671
_symmetry_Int_Tables_number   1
_chemical_formula_structural   Tm2Lu(SiRh2)3
_chemical_formula_sum   'Tm4 Lu2 Si6 Rh12'
_cell_volume   397.26854525
_cell_formula_units_Z   2
loop_
 _symmetry_equiv_pos_site_id
 _symmetry_equiv_pos_as_xyz
  1  'x, y, z'
loop_
 _atom_site_type_symbol
 _atom_site_label
 _atom_site_symmetry_multiplicity
 _atom_site_fract_x
 _atom_site_fract_y
 _atom_site_fract_z
 _atom_site_occupancy
  Tm  Tm0  1  0.666667  0.333333  0.037232  1
  Tm  Tm1  1  0.666667  0.333333  0.250000  1
  Tm  Tm2  1  0.666667  0.333333  0.462768  1
  Tm  Tm3  1  0.333334  0.666667  0.750000  1
  Lu  Lu4  1  0.333334  0.666667  0.537282  1
  Lu  Lu5  1  0.333334  0.666667  0.962718  1
  Si  Si6  1  0.000000  0.000000  0.000028  1
  Si  Si7  1  0.000000  0.000000  0.250000  1
  Si  Si8  1  0.333334  0.666667  0.250000  1
  Si  Si9  1  0.000000  0.000000  0.499972  1
  Si  Si10  1  0.000000  0.000000  0.750000  1
  Si  Si11  1  0.666667  0.333333  0.750000  1
  Rh  Rh12  1  0.167179  0.334359  0.129259  1
  Rh  Rh13  1  0.167180  0.832821  0.129259  1
  Rh  Rh14  1  0.665640  0.832821  0.129259  1
  Rh  Rh15  1  0.167179  0.334359  0.370741  1
  Rh  Rh16  1  0.167180  0.832821  0.370741  1
  Rh  Rh17  1  0.665640  0.832821  0.370741  1
  Rh  Rh18  1  0.334020  0.167010  0.629355  1
  Rh  Rh19  1  0.832989  0.167010  0.629355  1
  Rh  Rh20  1  0.832990  0.665980  0.629355  1
  Rh  Rh21  1  0.334020  0.167010  0.870645  1
  Rh  Rh22  1  0.832989  0.167010  0.870645  1
  Rh  Rh23  1  0.832990  0.665980  0.870645  1
