# generated using pymatgen
data_Tb4Fe4P12Ir15Ru
_symmetry_space_group_name_H-M   'P 1'
_cell_length_a   3.92323400
_cell_length_b   10.74229796
_cell_length_c   12.38728099
_cell_angle_alpha   90.21560026
_cell_angle_beta   90.00000000
_cell_angle_gamma   90.00000000
_symmetry_Int_Tables_number   1
_chemical_formula_structural   Tb4Fe4P12Ir15Ru
_chemical_formula_sum   'Tb4 Fe4 P12 Ir15 Ru1'
_cell_volume   522.05266943
_cell_formula_units_Z   1
loop_
 _symmetry_equiv_pos_site_id
 _symmetry_equiv_pos_as_xyz
  1  'x, y, z'
loop_
 _atom_site_type_symbol
 _atom_site_label
 _atom_site_symmetry_multiplicity
 _atom_site_fract_x
 _atom_site_fract_y
 _atom_site_fract_z
 _atom_site_occupancy
  Tb  Tb0  1  0.250000  0.582858  0.711554  1
  Tb  Tb1  1  0.250000  0.917341  0.209504  1
  Tb  Tb2  1  0.750000  0.418843  0.290076  1
  Tb  Tb3  1  0.750000  0.081028  0.789872  1
  Fe  Fe4  1  0.250000  0.456381  0.933827  1
  Fe  Fe5  1  0.250000  0.042366  0.432222  1
  Fe  Fe6  1  0.750000  0.541151  0.067322  1
  Fe  Fe7  1  0.750000  0.958464  0.566796  1
  P  P8  1  0.250000  0.433365  0.106033  1
  P  P9  1  0.250000  0.067447  0.605232  1
  P  P10  1  0.750000  0.569660  0.896034  1
  P  P11  1  0.750000  0.933450  0.394030  1
  P  P12  1  0.250000  0.268113  0.868720  1
  P  P13  1  0.250000  0.231417  0.368932  1
  P  P14  1  0.750000  0.730628  0.129099  1
  P  P15  1  0.750000  0.769713  0.631134  1
  P  P16  1  0.250000  0.596845  0.387629  1
  P  P17  1  0.250000  0.898687  0.888693  1
  P  P18  1  0.750000  0.403850  0.613193  1
  P  P19  1  0.750000  0.096134  0.112203  1
  Ir  Ir20  1  0.250000  0.778737  0.486334  1
  Ir  Ir21  1  0.750000  0.277876  0.012386  1
  Ir  Ir22  1  0.750000  0.222250  0.512879  1
  Ir  Ir23  1  0.250000  0.408449  0.480460  1
  Ir  Ir24  1  0.250000  0.091119  0.980155  1
  Ir  Ir25  1  0.750000  0.592409  0.520149  1
  Ir  Ir26  1  0.750000  0.907125  0.018426  1
  Ir  Ir27  1  0.250000  0.237008  0.175753  1
  Ir  Ir28  1  0.250000  0.263852  0.676887  1
  Ir  Ir29  1  0.750000  0.765272  0.824174  1
  Ir  Ir30  1  0.750000  0.737803  0.322286  1
  Ir  Ir31  1  0.250000  0.882066  0.700888  1
  Ir  Ir32  1  0.250000  0.617817  0.202255  1
  Ir  Ir33  1  0.750000  0.119100  0.298141  1
  Ir  Ir34  1  0.750000  0.384044  0.798726  1
  Ru  Ru35  1  0.250000  0.717333  0.987995  1
