# generated using pymatgen
data_Li6Y3Ho3(WO6)4
_symmetry_space_group_name_H-M   'P 1'
_cell_length_a   10.67921593
_cell_length_b   10.67922863
_cell_length_c   10.67957500
_cell_angle_alpha   109.47139687
_cell_angle_beta   109.47122610
_cell_angle_gamma   109.47001637
_symmetry_Int_Tables_number   1
_chemical_formula_structural   Li6Y3Ho3(WO6)4
_chemical_formula_sum   'Li12 Y6 Ho6 W8 O48'
_cell_volume   937.59830257
_cell_formula_units_Z   2
loop_
 _symmetry_equiv_pos_site_id
 _symmetry_equiv_pos_as_xyz
  1  'x, y, z'
loop_
 _atom_site_type_symbol
 _atom_site_label
 _atom_site_symmetry_multiplicity
 _atom_site_fract_x
 _atom_site_fract_y
 _atom_site_fract_z
 _atom_site_occupancy
  Li  Li0  1  0.749982  0.375298  0.125554  1
  Li  Li1  1  0.875567  0.750253  0.125551  1
  Li  Li2  1  0.125345  0.375346  0.250002  1
  Li  Li3  1  0.624647  0.874647  0.249999  1
  Li  Li4  1  0.249749  0.124448  0.374466  1
  Li  Li5  1  0.624709  0.250016  0.374459  1
  Li  Li6  1  0.374692  0.750020  0.624426  1
  Li  Li7  1  0.749737  0.874411  0.624429  1
  Li  Li8  1  0.374627  0.124628  0.749999  1
  Li  Li9  1  0.875370  0.625369  0.749998  1
  Li  Li10  1  0.249982  0.625302  0.875561  1
  Li  Li11  1  0.125592  0.250263  0.875575  1
  Y  Y12  1  0.874955  0.249872  0.624734  1
  Y  Y13  1  0.249781  0.374863  0.624734  1
  Y  Y14  1  0.625000  0.375000  0.750001  1
  Y  Y15  1  0.124999  0.874999  0.749998  1
  Y  Y16  1  0.625138  0.750220  0.875266  1
  Y  Y17  1  0.750127  0.125047  0.875266  1
  Ho  Ho18  1  0.375168  0.250262  0.125326  1
  Ho  Ho19  1  0.250153  0.875063  0.125324  1
  Ho  Ho20  1  0.875003  0.125006  0.250003  1
  Ho  Ho21  1  0.374998  0.624992  0.249999  1
  Ho  Ho22  1  0.749735  0.624830  0.374678  1
  Ho  Ho23  1  0.124942  0.749847  0.374672  1
  W  W24  1  0.000800  0.000401  0.000952  1
  W  W25  1  0.500151  0.000549  0.000952  1
  W  W26  1  0.000769  0.500727  0.000784  1
  W  W27  1  0.500017  0.500057  0.000785  1
  W  W28  1  0.999597  0.999199  0.499047  1
  W  W29  1  0.499273  0.999231  0.499214  1
  W  W30  1  0.999450  0.499849  0.499046  1
  W  W31  1  0.499943  0.499984  0.499215  1
  O  O32  1  0.202285  0.620040  0.028795  1
  O  O33  1  0.326510  0.408753  0.028795  1
  O  O34  1  0.701773  0.174022  0.083424  1
  O  O35  1  0.881651  0.909402  0.083424  1
  O  O36  1  0.619824  0.918865  0.092544  1
  O  O37  1  0.972720  0.173680  0.092544  1
  O  O38  1  0.028712  0.702266  0.120166  1
  O  O39  1  0.591453  0.417901  0.120165  1
  O  O40  1  0.202504  0.082348  0.173879  1
  O  O41  1  0.471375  0.091534  0.173880  1
  O  O42  1  0.120114  0.528665  0.202327  1
  O  O43  1  0.582212  0.673660  0.202327  1
  O  O44  1  0.326338  0.417787  0.297672  1
  O  O45  1  0.471334  0.879885  0.297673  1
  O  O46  1  0.917653  0.797496  0.326121  1
  O  O47  1  0.908468  0.528625  0.326121  1
  O  O48  1  0.582100  0.408546  0.379835  1
  O  O49  1  0.297737  0.971292  0.379836  1
  O  O50  1  0.826319  0.027276  0.407453  1
  O  O51  1  0.081135  0.380176  0.407455  1
  O  O52  1  0.090598  0.118350  0.416576  1
  O  O53  1  0.825978  0.298226  0.416576  1
  O  O54  1  0.591246  0.673491  0.471205  1
  O  O55  1  0.379960  0.797715  0.471203  1
  O  O56  1  0.618208  0.200465  0.526578  1
  O  O57  1  0.408370  0.326114  0.526576  1
  O  O58  1  0.173352  0.700978  0.581042  1
  O  O59  1  0.907690  0.880065  0.581043  1
  O  O60  1  0.916629  0.618435  0.590327  1
  O  O61  1  0.173700  0.971895  0.590329  1
  O  O62  1  0.700483  0.026653  0.618090  1
  O  O63  1  0.417607  0.591436  0.618088  1
  O  O64  1  0.082148  0.200246  0.673512  1
  O  O65  1  0.091365  0.473267  0.673512  1
  O  O66  1  0.526699  0.118143  0.700417  1
  O  O67  1  0.673719  0.582275  0.700417  1
  O  O68  1  0.881857  0.473301  0.799582  1
  O  O69  1  0.417726  0.326281  0.799582  1
  O  O70  1  0.526730  0.908633  0.826485  1
  O  O71  1  0.799753  0.917850  0.826485  1
  O  O72  1  0.973347  0.299518  0.881909  1
  O  O73  1  0.408563  0.582391  0.881909  1
  O  O74  1  0.381564  0.083370  0.909672  1
  O  O75  1  0.028105  0.826299  0.909670  1
  O  O76  1  0.299021  0.826645  0.918956  1
  O  O77  1  0.119935  0.092309  0.918956  1
  O  O78  1  0.799537  0.381794  0.973424  1
  O  O79  1  0.673887  0.591632  0.973424  1
