# generated using pymatgen
data_HoEr9Ga3Bi2Ir
_symmetry_space_group_name_H-M   'P 1'
_cell_length_a   8.60070159
_cell_length_b   8.59859572
_cell_length_c   8.72328251
_cell_angle_alpha   124.95718136
_cell_angle_beta   124.96337465
_cell_angle_gamma   80.64536070
_symmetry_Int_Tables_number   1
_chemical_formula_structural   HoEr9Ga3Bi2Ir
_chemical_formula_sum   'Ho1 Er9 Ga3 Bi2 Ir1'
_cell_volume   419.89485983
_cell_formula_units_Z   1
loop_
 _symmetry_equiv_pos_site_id
 _symmetry_equiv_pos_as_xyz
  1  'x, y, z'
loop_
 _atom_site_type_symbol
 _atom_site_label
 _atom_site_symmetry_multiplicity
 _atom_site_fract_x
 _atom_site_fract_y
 _atom_site_fract_z
 _atom_site_occupancy
  Ho  Ho0  1  0.794481  0.984144  0.500016  1
  Er  Er1  1  0.999959  0.000171  0.000236  1
  Er  Er2  1  0.499727  0.499965  0.999765  1
  Er  Er3  1  0.015994  0.500322  0.798095  1
  Er  Er4  1  0.717883  0.202193  0.201905  1
  Er  Er5  1  0.515898  0.705804  0.500001  1
  Er  Er6  1  0.195307  0.039328  0.500009  1
  Er  Er7  1  0.999894  0.484070  0.202043  1
  Er  Er8  1  0.297799  0.782024  0.797933  1
  Er  Er9  1  0.460553  0.304991  0.499987  1
  Ga  Ga10  1  0.356957  0.855305  0.212464  1
  Ga  Ga11  1  0.644501  0.142826  0.787541  1
  Ga  Ga12  1  0.863987  0.635899  0.500008  1
  Bi  Bi13  1  0.755500  0.744397  0.999865  1
  Bi  Bi14  1  0.255629  0.244519  0.000119  1
  Ir  Ir15  1  0.125935  0.374038  0.500013  1
