# generated using pymatgen
data_Tm2Hf3Si7Pt9
_symmetry_space_group_name_H-M   'P 1'
_cell_length_a   10.02778400
_cell_length_b   10.02778427
_cell_length_c   3.99218000
_cell_angle_alpha   90.00000000
_cell_angle_beta   90.00000000
_cell_angle_gamma   119.99999911
_symmetry_Int_Tables_number   1
_chemical_formula_structural   Tm2Hf3Si7Pt9
_chemical_formula_sum   'Tm2 Hf3 Si7 Pt9'
_cell_volume   347.65677978
_cell_formula_units_Z   1
loop_
 _symmetry_equiv_pos_site_id
 _symmetry_equiv_pos_as_xyz
  1  'x, y, z'
loop_
 _atom_site_type_symbol
 _atom_site_label
 _atom_site_symmetry_multiplicity
 _atom_site_fract_x
 _atom_site_fract_y
 _atom_site_fract_z
 _atom_site_occupancy
  Tm  Tm0  1  0.000000  0.000000  0.000000  1
  Tm  Tm1  1  0.333333  0.666667  0.500000  1
  Hf  Hf2  1  0.892850  0.456735  0.500000  1
  Hf  Hf3  1  0.563885  0.107150  0.500000  1
  Hf  Hf4  1  0.543265  0.436115  0.500000  1
  Si  Si5  1  0.245339  0.195365  0.500000  1
  Si  Si6  1  0.804635  0.049976  0.500000  1
  Si  Si7  1  0.950024  0.754661  0.500000  1
  Si  Si8  1  0.557761  0.647770  0.000000  1
  Si  Si9  1  0.352230  0.909990  0.000000  1
  Si  Si10  1  0.090010  0.442239  0.000000  1
  Si  Si11  1  0.666667  0.333333  0.000000  1
  Pt  Pt12  1  0.217978  0.936929  0.500000  1
  Pt  Pt13  1  0.063071  0.281050  0.500000  1
  Pt  Pt14  1  0.718950  0.782022  0.500000  1
  Pt  Pt15  1  0.315445  0.415391  0.000000  1
  Pt  Pt16  1  0.584609  0.900052  0.000000  1
  Pt  Pt17  1  0.099948  0.684555  0.000000  1
  Pt  Pt18  1  0.387082  0.175515  0.000000  1
  Pt  Pt19  1  0.824485  0.211566  0.000000  1
  Pt  Pt20  1  0.788434  0.612918  0.000000  1
