# generated using pymatgen
data_Ac(ThH5)3
_symmetry_space_group_name_H-M   'P 1'
_cell_length_a   7.99312812
_cell_length_b   8.01991264
_cell_length_c   8.05395976
_cell_angle_alpha   109.53801226
_cell_angle_beta   109.40367563
_cell_angle_gamma   109.23212173
_symmetry_Int_Tables_number   1
_chemical_formula_structural   Ac(ThH5)3
_chemical_formula_sum   'Ac2 Th6 H30'
_cell_volume   398.61218330
_cell_formula_units_Z   2
loop_
 _symmetry_equiv_pos_site_id
 _symmetry_equiv_pos_as_xyz
  1  'x, y, z'
loop_
 _atom_site_type_symbol
 _atom_site_label
 _atom_site_symmetry_multiplicity
 _atom_site_fract_x
 _atom_site_fract_y
 _atom_site_fract_z
 _atom_site_occupancy
  Ac  Ac0  1  0.920155  0.918562  0.919803  1
  Ac  Ac1  1  0.500352  0.998759  0.080197  1
  Th  Th2  1  0.002630  0.086857  0.503612  1
  Th  Th3  1  0.083245  0.496657  0.997968  1
  Th  Th4  1  0.999018  0.583245  0.496388  1
  Th  Th5  1  0.585277  0.498690  0.002032  1
  Th  Th6  1  0.497129  0.001007  0.581212  1
  Th  Th7  1  0.415917  0.419795  0.418788  1
  H  H8  1  0.663469  0.972430  0.389557  1
  H  H9  1  0.218690  0.312644  0.846507  1
  H  H10  1  0.185168  0.405630  0.532753  1
  H  H11  1  0.104986  0.299329  0.140973  1
  H  H12  1  0.292475  0.151835  0.112918  1
  H  H13  1  0.140609  0.108515  0.300936  1
  H  H14  1  0.464013  0.158356  0.859027  1
  H  H15  1  0.718334  0.345302  0.816507  1
  H  H16  1  0.631604  0.392663  0.258279  1
  H  H17  1  0.246826  0.625861  0.371196  1
  H  H18  1  0.757891  0.866840  0.141964  1
  H  H19  1  0.115927  0.724877  0.858036  1
  H  H20  1  0.375631  0.254665  0.628804  1
  H  H21  1  0.873325  0.134384  0.741721  1
  H  H22  1  0.773912  0.582873  0.610443  1
  H  H23  1  0.303970  0.834995  0.221205  1
  H  H24  1  0.367683  0.636007  0.967982  1
  H  H25  1  0.973758  0.374720  0.654272  1
  H  H26  1  0.529958  0.194320  0.418015  1
  H  H27  1  0.401827  0.528795  0.183493  1
  H  H28  1  0.863065  0.227472  0.327633  1
  H  H29  1  0.899702  0.668025  0.032018  1
  H  H30  1  0.819486  0.720448  0.345728  1
  H  H31  1  0.152414  0.872876  0.467247  1
  H  H32  1  0.679557  0.038916  0.887082  1
  H  H33  1  0.339673  0.807579  0.699064  1
  H  H34  1  0.872183  0.466136  0.153493  1
  H  H35  1  0.611943  0.776306  0.581985  1
  H  H36  1  0.582765  0.613790  0.778795  1
  H  H37  1  0.035432  0.899839  0.672367  1
