# generated using pymatgen
data_Gd3TcB7
_symmetry_space_group_name_H-M   'P 1'
_cell_length_a   8.19007409
_cell_length_b   8.19007436
_cell_length_c   9.41845000
_cell_angle_alpha   90.00000000
_cell_angle_beta   90.00000000
_cell_angle_gamma   25.11289510
_symmetry_Int_Tables_number   1
_chemical_formula_structural   Gd3TcB7
_chemical_formula_sum   'Gd6 Tc2 B14'
_cell_volume   268.12282316
_cell_formula_units_Z   2
loop_
 _symmetry_equiv_pos_site_id
 _symmetry_equiv_pos_as_xyz
  1  'x, y, z'
loop_
 _atom_site_type_symbol
 _atom_site_label
 _atom_site_symmetry_multiplicity
 _atom_site_fract_x
 _atom_site_fract_y
 _atom_site_fract_z
 _atom_site_occupancy
  Gd  Gd0  1  0.104542  0.104542  0.061617  1
  Gd  Gd1  1  0.895457  0.895457  0.561617  1
  Gd  Gd2  1  0.895457  0.895457  0.938383  1
  Gd  Gd3  1  0.104542  0.104542  0.438382  1
  Gd  Gd4  1  0.758266  0.758266  0.250000  1
  Gd  Gd5  1  0.241734  0.241734  0.750001  1
  Tc  Tc6  1  0.946041  0.946041  0.250000  1
  Tc  Tc7  1  0.053959  0.053959  0.750001  1
  B  B8  1  0.539355  0.539355  0.250000  1
  B  B9  1  0.460645  0.460645  0.750001  1
  B  B10  1  0.273438  0.273438  0.031848  1
  B  B11  1  0.726561  0.726561  0.531847  1
  B  B12  1  0.726561  0.726561  0.968153  1
  B  B13  1  0.273438  0.273438  0.468154  1
  B  B14  1  0.368284  0.368284  0.348994  1
  B  B15  1  0.631716  0.631716  0.848995  1
  B  B16  1  0.631716  0.631716  0.651006  1
  B  B17  1  0.368284  0.368284  0.151005  1
  B  B18  1  0.477965  0.477965  0.403763  1
  B  B19  1  0.522035  0.522035  0.903763  1
  B  B20  1  0.522035  0.522035  0.596238  1
  B  B21  1  0.477965  0.477965  0.096238  1
