# generated using pymatgen
data_Zr5Fe12Co7P12
_symmetry_space_group_name_H-M   'P 1'
_cell_length_a   11.79633700
_cell_length_b   11.79633817
_cell_length_c   3.62741300
_cell_angle_alpha   90.00000000
_cell_angle_beta   90.00000000
_cell_angle_gamma   120.00000513
_symmetry_Int_Tables_number   1
_chemical_formula_structural   Zr5Fe12Co7P12
_chemical_formula_sum   'Zr5 Fe12 Co7 P12'
_cell_volume   437.14146118
_cell_formula_units_Z   1
loop_
 _symmetry_equiv_pos_site_id
 _symmetry_equiv_pos_as_xyz
  1  'x, y, z'
loop_
 _atom_site_type_symbol
 _atom_site_label
 _atom_site_symmetry_multiplicity
 _atom_site_fract_x
 _atom_site_fract_y
 _atom_site_fract_z
 _atom_site_occupancy
  Zr  Zr0  1  0.333333  0.666667  0.500000  1
  Zr  Zr1  1  0.666667  0.333333  0.500000  1
  Zr  Zr2  1  0.813227  0.000000  0.000000  1
  Zr  Zr3  1  0.000000  0.813227  0.000000  1
  Zr  Zr4  1  0.186773  0.186773  0.000000  1
  Fe  Fe5  1  0.621691  0.801987  0.500000  1
  Fe  Fe6  1  0.198013  0.819704  0.500000  1
  Fe  Fe7  1  0.180296  0.378309  0.500000  1
  Fe  Fe8  1  0.378309  0.180296  0.500000  1
  Fe  Fe9  1  0.801987  0.621691  0.500000  1
  Fe  Fe10  1  0.819704  0.198013  0.500000  1
  Fe  Fe11  1  0.284441  0.000000  0.000000  1
  Fe  Fe12  1  0.000000  0.284441  0.000000  1
  Fe  Fe13  1  0.715559  0.715559  0.000000  1
  Fe  Fe14  1  0.446470  0.000000  0.500000  1
  Fe  Fe15  1  0.000000  0.446470  0.500000  1
  Fe  Fe16  1  0.553530  0.553530  0.500000  1
  Co  Co17  1  0.513716  0.874283  0.000000  1
  Co  Co18  1  0.125717  0.639433  0.000000  1
  Co  Co19  1  0.360567  0.486284  0.000000  1
  Co  Co20  1  0.486284  0.360567  0.000000  1
  Co  Co21  1  0.874283  0.513716  0.000000  1
  Co  Co22  1  0.639433  0.125717  0.000000  1
  Co  Co23  1  0.000000  0.000000  0.500000  1
  P  P24  1  0.180205  0.000000  0.500000  1
  P  P25  1  0.000000  0.180205  0.500000  1
  P  P26  1  0.819795  0.819795  0.500000  1
  P  P27  1  0.520123  0.687356  0.000000  1
  P  P28  1  0.312644  0.832768  0.000000  1
  P  P29  1  0.167232  0.479877  0.000000  1
  P  P30  1  0.479877  0.167232  0.000000  1
  P  P31  1  0.687356  0.520123  0.000000  1
  P  P32  1  0.832768  0.312644  0.000000  1
  P  P33  1  0.635518  0.000000  0.500000  1
  P  P34  1  0.000000  0.635518  0.500000  1
  P  P35  1  0.364482  0.364482  0.500000  1
