# generated using pymatgen
data_PrU5O12
_symmetry_space_group_name_H-M   'P 1'
_cell_length_a   6.66872000
_cell_length_b   6.66872067
_cell_length_c   6.67650773
_cell_angle_alpha   80.41883966
_cell_angle_beta   80.41883394
_cell_angle_gamma   120.00575918
_symmetry_Int_Tables_number   1
_chemical_formula_structural   PrU5O12
_chemical_formula_sum   'Pr1 U5 O12'
_cell_volume   242.45497288
_cell_formula_units_Z   1
loop_
 _symmetry_equiv_pos_site_id
 _symmetry_equiv_pos_as_xyz
  1  'x, y, z'
loop_
 _atom_site_type_symbol
 _atom_site_label
 _atom_site_symmetry_multiplicity
 _atom_site_fract_x
 _atom_site_fract_y
 _atom_site_fract_z
 _atom_site_occupancy
  Pr  Pr0  1  0.500000  0.500000  0.500000  1
  U  U1  1  0.833260  0.166740  0.500000  1
  U  U2  1  0.166740  0.833260  0.500000  1
  U  U3  1  0.667414  0.332586  0.000000  1
  U  U4  1  0.000000  0.000000  0.000000  1
  U  U5  1  0.332586  0.667414  0.000000  1
  O  O6  1  0.110336  0.110336  0.632505  1
  O  O7  1  0.707252  0.042578  0.878103  1
  O  O8  1  0.957422  0.292748  0.121897  1
  O  O9  1  0.367972  0.367972  0.889201  1
  O  O10  1  0.042578  0.707252  0.878103  1
  O  O11  1  0.543347  0.198554  0.367538  1
  O  O12  1  0.889664  0.889664  0.367495  1
  O  O13  1  0.456653  0.801446  0.632462  1
  O  O14  1  0.632028  0.632028  0.110799  1
  O  O15  1  0.292748  0.957422  0.121897  1
  O  O16  1  0.801446  0.456653  0.632462  1
  O  O17  1  0.198554  0.543347  0.367538  1
