# generated using pymatgen
data_Er2Hf2ZrSi4
_symmetry_space_group_name_H-M   'P 1'
_cell_length_a   7.27707900
_cell_length_b   7.27707900
_cell_length_c   13.36936500
_cell_angle_alpha   90.00000000
_cell_angle_beta   90.00000000
_cell_angle_gamma   90.00000000
_symmetry_Int_Tables_number   1
_chemical_formula_structural   Er2Hf2ZrSi4
_chemical_formula_sum   'Er8 Hf8 Zr4 Si16'
_cell_volume   707.98647220
_cell_formula_units_Z   4
loop_
 _symmetry_equiv_pos_site_id
 _symmetry_equiv_pos_as_xyz
  1  'x, y, z'
loop_
 _atom_site_type_symbol
 _atom_site_label
 _atom_site_symmetry_multiplicity
 _atom_site_fract_x
 _atom_site_fract_y
 _atom_site_fract_z
 _atom_site_occupancy
  Er  Er0  1  0.996710  0.344346  0.214862  1
  Er  Er1  1  0.003290  0.655654  0.714862  1
  Er  Er2  1  0.155654  0.496710  0.464862  1
  Er  Er3  1  0.503290  0.844346  0.035138  1
  Er  Er4  1  0.844346  0.503290  0.964862  1
  Er  Er5  1  0.496710  0.155654  0.535138  1
  Er  Er6  1  0.344346  0.996710  0.785138  1
  Er  Er7  1  0.655654  0.003290  0.285138  1
  Hf  Hf8  1  0.148631  0.995821  0.374633  1
  Hf  Hf9  1  0.851369  0.004179  0.874633  1
  Hf  Hf10  1  0.504179  0.648631  0.624633  1
  Hf  Hf11  1  0.351369  0.495821  0.875367  1
  Hf  Hf12  1  0.495821  0.351369  0.124633  1
  Hf  Hf13  1  0.648631  0.504179  0.375367  1
  Hf  Hf14  1  0.995821  0.148631  0.625367  1
  Hf  Hf15  1  0.004179  0.851369  0.125367  1
  Zr  Zr16  1  0.174606  0.174606  0.000000  1
  Zr  Zr17  1  0.825394  0.825394  0.500000  1
  Zr  Zr18  1  0.325394  0.674606  0.250000  1
  Zr  Zr19  1  0.674606  0.325394  0.750000  1
  Si  Si20  1  0.361695  0.293769  0.317826  1
  Si  Si21  1  0.638305  0.706231  0.817826  1
  Si  Si22  1  0.206231  0.861695  0.567826  1
  Si  Si23  1  0.138305  0.793769  0.932174  1
  Si  Si24  1  0.793769  0.138305  0.067826  1
  Si  Si25  1  0.861695  0.206231  0.432174  1
  Si  Si26  1  0.293769  0.361695  0.682174  1
  Si  Si27  1  0.706231  0.638305  0.182174  1
  Si  Si28  1  0.296610  0.049480  0.186655  1
  Si  Si29  1  0.703390  0.950520  0.686655  1
  Si  Si30  1  0.450520  0.796610  0.436655  1
  Si  Si31  1  0.203390  0.549480  0.063345  1
  Si  Si32  1  0.549480  0.203390  0.936655  1
  Si  Si33  1  0.796610  0.450520  0.563345  1
  Si  Si34  1  0.049480  0.296610  0.813345  1
  Si  Si35  1  0.950520  0.703390  0.313345  1
