# generated using pymatgen
data_Dy3In3CuAgRu
_symmetry_space_group_name_H-M   'P 1'
_cell_length_a   7.66841400
_cell_length_b   7.66841248
_cell_length_c   3.92399800
_cell_angle_alpha   90.00000000
_cell_angle_beta   90.00000000
_cell_angle_gamma   120.00001518
_symmetry_Int_Tables_number   1
_chemical_formula_structural   Dy3In3CuAgRu
_chemical_formula_sum   'Dy3 In3 Cu1 Ag1 Ru1'
_cell_volume   199.83444995
_cell_formula_units_Z   1
loop_
 _symmetry_equiv_pos_site_id
 _symmetry_equiv_pos_as_xyz
  1  'x, y, z'
loop_
 _atom_site_type_symbol
 _atom_site_label
 _atom_site_symmetry_multiplicity
 _atom_site_fract_x
 _atom_site_fract_y
 _atom_site_fract_z
 _atom_site_occupancy
  Dy  Dy0  1  0.395014  0.970980  0.500000  1
  Dy  Dy1  1  0.029020  0.424034  0.500000  1
  Dy  Dy2  1  0.575966  0.604986  0.500000  1
  In  In3  1  0.748387  0.998208  0.000000  1
  In  In4  1  0.001792  0.750179  0.000000  1
  In  In5  1  0.249821  0.251613  0.000000  1
  Cu  Cu6  1  0.000000  0.000000  0.500000  1
  Ag  Ag7  1  0.666667  0.333333  0.000000  1
  Ru  Ru8  1  0.333333  0.666667  0.000000  1
