# generated using pymatgen
data_Ta2Ni3Se5
_symmetry_space_group_name_H-M   'P 1'
_cell_length_a   3.54053400
_cell_length_b   13.58015500
_cell_length_c   16.91151000
_cell_angle_alpha   90.00000000
_cell_angle_beta   90.00000000
_cell_angle_gamma   90.00000000
_symmetry_Int_Tables_number   1
_chemical_formula_structural   Ta2Ni3Se5
_chemical_formula_sum   'Ta8 Ni12 Se20'
_cell_volume   813.12232081
_cell_formula_units_Z   4
loop_
 _symmetry_equiv_pos_site_id
 _symmetry_equiv_pos_as_xyz
  1  'x, y, z'
loop_
 _atom_site_type_symbol
 _atom_site_label
 _atom_site_symmetry_multiplicity
 _atom_site_fract_x
 _atom_site_fract_y
 _atom_site_fract_z
 _atom_site_occupancy
  Ta  Ta0  1  0.250000  0.742663  0.914501  1
  Ta  Ta1  1  0.750000  0.257337  0.085499  1
  Ta  Ta2  1  0.750000  0.757337  0.414501  1
  Ta  Ta3  1  0.250000  0.242663  0.585499  1
  Ta  Ta4  1  0.250000  0.740598  0.163788  1
  Ta  Ta5  1  0.750000  0.259402  0.836212  1
  Ta  Ta6  1  0.750000  0.759402  0.663788  1
  Ta  Ta7  1  0.250000  0.240598  0.336212  1
  Ni  Ni8  1  0.250000  0.693912  0.768993  1
  Ni  Ni9  1  0.750000  0.306088  0.231007  1
  Ni  Ni10  1  0.750000  0.806088  0.268993  1
  Ni  Ni11  1  0.250000  0.193912  0.731007  1
  Ni  Ni12  1  0.250000  0.743530  0.539050  1
  Ni  Ni13  1  0.750000  0.256470  0.460950  1
  Ni  Ni14  1  0.750000  0.756470  0.039050  1
  Ni  Ni15  1  0.250000  0.243530  0.960950  1
  Ni  Ni16  1  0.250000  0.689493  0.309451  1
  Ni  Ni17  1  0.750000  0.310507  0.690549  1
  Ni  Ni18  1  0.750000  0.810507  0.809451  1
  Ni  Ni19  1  0.250000  0.189493  0.190549  1
  Se  Se20  1  0.250000  0.119554  0.059913  1
  Se  Se21  1  0.750000  0.880446  0.940087  1
  Se  Se22  1  0.750000  0.380446  0.559913  1
  Se  Se23  1  0.250000  0.619554  0.440087  1
  Se  Se24  1  0.250000  0.634483  0.038567  1
  Se  Se25  1  0.750000  0.365517  0.961433  1
  Se  Se26  1  0.750000  0.865517  0.538567  1
  Se  Se27  1  0.250000  0.134483  0.461433  1
  Se  Se28  1  0.250000  0.881821  0.344977  1
  Se  Se29  1  0.750000  0.118179  0.655023  1
  Se  Se30  1  0.750000  0.618179  0.844977  1
  Se  Se31  1  0.250000  0.381821  0.155023  1
  Se  Se32  1  0.250000  0.884486  0.733001  1
  Se  Se33  1  0.750000  0.115514  0.266999  1
  Se  Se34  1  0.750000  0.615514  0.233001  1
  Se  Se35  1  0.250000  0.384486  0.766999  1
  Se  Se36  1  0.250000  0.621480  0.639187  1
  Se  Se37  1  0.750000  0.378520  0.360813  1
  Se  Se38  1  0.750000  0.878520  0.139187  1
  Se  Se39  1  0.250000  0.121480  0.860813  1
