# generated using pymatgen
data_BaSmZn3GaO7
_symmetry_space_group_name_H-M   'P 1'
_cell_length_a   6.46541700
_cell_length_b   6.46539892
_cell_length_c   10.57595400
_cell_angle_alpha   90.00000000
_cell_angle_beta   90.00000000
_cell_angle_gamma   120.00007469
_symmetry_Int_Tables_number   1
_chemical_formula_structural   BaSmZn3GaO7
_chemical_formula_sum   'Ba2 Sm2 Zn6 Ga2 O14'
_cell_volume   382.86152554
_cell_formula_units_Z   2
loop_
 _symmetry_equiv_pos_site_id
 _symmetry_equiv_pos_as_xyz
  1  'x, y, z'
loop_
 _atom_site_type_symbol
 _atom_site_label
 _atom_site_symmetry_multiplicity
 _atom_site_fract_x
 _atom_site_fract_y
 _atom_site_fract_z
 _atom_site_occupancy
  Ba  Ba0  1  0.666675  0.333350  0.473481  1
  Ba  Ba1  1  0.333323  0.666649  0.973481  1
  Sm  Sm2  1  0.333333  0.666667  0.317465  1
  Sm  Sm3  1  0.666667  0.333334  0.817465  1
  Zn  Zn4  1  0.830017  0.659780  0.131556  1
  Zn  Zn5  1  0.829761  0.169980  0.131557  1
  Zn  Zn6  1  0.340217  0.170235  0.131556  1
  Zn  Zn7  1  0.169985  0.340221  0.631556  1
  Zn  Zn8  1  0.170240  0.830020  0.631555  1
  Zn  Zn9  1  0.659782  0.829766  0.631556  1
  Ga  Ga10  1  0.999999  0.999998  0.382351  1
  Ga  Ga11  1  0.000001  0.000002  0.882351  1
  O  O12  1  0.014191  0.506941  0.177740  1
  O  O13  1  0.493056  0.507248  0.177739  1
  O  O14  1  0.492747  0.985803  0.177735  1
  O  O15  1  0.999999  0.999999  0.202744  1
  O  O16  1  0.685722  0.841818  0.440358  1
  O  O17  1  0.156103  0.314276  0.440360  1
  O  O18  1  0.158166  0.843887  0.440360  1
  O  O19  1  0.985810  0.493060  0.677740  1
  O  O20  1  0.507253  0.014197  0.677735  1
  O  O21  1  0.506942  0.492751  0.677739  1
  O  O22  1  0.000001  0.000001  0.702744  1
  O  O23  1  0.843898  0.685725  0.940358  1
  O  O24  1  0.314279  0.158183  0.940358  1
  O  O25  1  0.841837  0.156114  0.940358  1
