# generated using pymatgen
data_Er6NbZn22Se
_symmetry_space_group_name_H-M   'P 1'
_cell_length_a   9.03629609
_cell_length_b   9.03629618
_cell_length_c   9.03629600
_cell_angle_alpha   60.00000067
_cell_angle_beta   60.00000034
_cell_angle_gamma   60.00000056
_symmetry_Int_Tables_number   1
_chemical_formula_structural   Er6NbZn22Se
_chemical_formula_sum   'Er6 Nb1 Zn22 Se1'
_cell_volume   521.74268200
_cell_formula_units_Z   1
loop_
 _symmetry_equiv_pos_site_id
 _symmetry_equiv_pos_as_xyz
  1  'x, y, z'
loop_
 _atom_site_type_symbol
 _atom_site_label
 _atom_site_symmetry_multiplicity
 _atom_site_fract_x
 _atom_site_fract_y
 _atom_site_fract_z
 _atom_site_occupancy
  Er  Er0  1  0.716806  0.283194  0.283194  1
  Er  Er1  1  0.716806  0.283194  0.716806  1
  Er  Er2  1  0.716806  0.716806  0.283194  1
  Er  Er3  1  0.283194  0.716806  0.716806  1
  Er  Er4  1  0.283194  0.716806  0.283194  1
  Er  Er5  1  0.283194  0.283194  0.716806  1
  Nb  Nb6  1  0.000000  0.000000  0.000000  1
  Zn  Zn7  1  0.627498  0.124167  0.124167  1
  Zn  Zn8  1  0.124167  0.627498  0.124167  1
  Zn  Zn9  1  0.124167  0.124167  0.627498  1
  Zn  Zn10  1  0.124167  0.124167  0.124167  1
  Zn  Zn11  1  0.372502  0.875833  0.875833  1
  Zn  Zn12  1  0.875833  0.372502  0.875833  1
  Zn  Zn13  1  0.875833  0.875833  0.372502  1
  Zn  Zn14  1  0.875833  0.875833  0.875833  1
  Zn  Zn15  1  0.500000  0.000000  0.000000  1
  Zn  Zn16  1  0.500000  0.000000  0.500000  1
  Zn  Zn17  1  0.500000  0.500000  0.000000  1
  Zn  Zn18  1  0.000000  0.500000  0.500000  1
  Zn  Zn19  1  0.000000  0.500000  0.000000  1
  Zn  Zn20  1  0.000000  0.000000  0.500000  1
  Zn  Zn21  1  0.011519  0.329493  0.329493  1
  Zn  Zn22  1  0.329493  0.011519  0.329493  1
  Zn  Zn23  1  0.329493  0.329493  0.011519  1
  Zn  Zn24  1  0.329493  0.329493  0.329493  1
  Zn  Zn25  1  0.988481  0.670507  0.670507  1
  Zn  Zn26  1  0.670507  0.988481  0.670507  1
  Zn  Zn27  1  0.670507  0.670507  0.988481  1
  Zn  Zn28  1  0.670507  0.670507  0.670507  1
  Se  Se29  1  0.500000  0.500000  0.500000  1
