# generated using pymatgen
data_SrPd3Au2
_symmetry_space_group_name_H-M   'P 1'
_cell_length_a   5.54996100
_cell_length_b   5.54996056
_cell_length_c   4.52723300
_cell_angle_alpha   90.00000000
_cell_angle_beta   90.00000000
_cell_angle_gamma   119.99999664
_symmetry_Int_Tables_number   1
_chemical_formula_structural   SrPd3Au2
_chemical_formula_sum   'Sr1 Pd3 Au2'
_cell_volume   120.76562169
_cell_formula_units_Z   1
loop_
 _symmetry_equiv_pos_site_id
 _symmetry_equiv_pos_as_xyz
  1  'x, y, z'
loop_
 _atom_site_type_symbol
 _atom_site_label
 _atom_site_symmetry_multiplicity
 _atom_site_fract_x
 _atom_site_fract_y
 _atom_site_fract_z
 _atom_site_occupancy
  Sr  Sr0  1  0.000000  0.000000  0.000000  1
  Pd  Pd1  1  0.500000  0.000000  0.500001  1
  Pd  Pd2  1  0.000000  0.499999  0.500001  1
  Pd  Pd3  1  0.500000  0.499999  0.500001  1
  Au  Au4  1  0.666667  0.333334  0.000000  1
  Au  Au5  1  0.333333  0.666666  0.000000  1
