# generated using pymatgen
data_Ho3Lu5(CoAg)2
_symmetry_space_group_name_H-M   'P 1'
_cell_length_a   9.26670617
_cell_length_b   9.26670631
_cell_length_c   9.26670700
_cell_angle_alpha   60.00000109
_cell_angle_beta   60.00000060
_cell_angle_gamma   59.99999883
_symmetry_Int_Tables_number   1
_chemical_formula_structural   Ho3Lu5(CoAg)2
_chemical_formula_sum   'Ho6 Lu10 Co4 Ag4'
_cell_volume   562.67967357
_cell_formula_units_Z   2
loop_
 _symmetry_equiv_pos_site_id
 _symmetry_equiv_pos_as_xyz
  1  'x, y, z'
loop_
 _atom_site_type_symbol
 _atom_site_label
 _atom_site_symmetry_multiplicity
 _atom_site_fract_x
 _atom_site_fract_y
 _atom_site_fract_z
 _atom_site_occupancy
  Ho  Ho0  1  0.938210  0.561790  0.561790  1
  Ho  Ho1  1  0.561790  0.938210  0.938210  1
  Ho  Ho2  1  0.561790  0.938210  0.561790  1
  Ho  Ho3  1  0.938210  0.561790  0.938210  1
  Ho  Ho4  1  0.561790  0.561790  0.938210  1
  Ho  Ho5  1  0.938210  0.938210  0.561790  1
  Lu  Lu6  1  0.347517  0.347517  0.347517  1
  Lu  Lu7  1  0.347517  0.347517  0.957450  1
  Lu  Lu8  1  0.347517  0.957450  0.347517  1
  Lu  Lu9  1  0.957450  0.347517  0.347517  1
  Lu  Lu10  1  0.812321  0.187679  0.187679  1
  Lu  Lu11  1  0.187679  0.812321  0.812321  1
  Lu  Lu12  1  0.187679  0.812321  0.187679  1
  Lu  Lu13  1  0.812321  0.187679  0.812321  1
  Lu  Lu14  1  0.187679  0.187679  0.812321  1
  Lu  Lu15  1  0.812321  0.812321  0.187679  1
  Co  Co16  1  0.141205  0.141205  0.141205  1
  Co  Co17  1  0.141205  0.141205  0.576386  1
  Co  Co18  1  0.141205  0.576386  0.141205  1
  Co  Co19  1  0.576386  0.141205  0.141205  1
  Ag  Ag20  1  0.580996  0.580996  0.580996  1
  Ag  Ag21  1  0.580996  0.580996  0.257010  1
  Ag  Ag22  1  0.580996  0.257010  0.580996  1
  Ag  Ag23  1  0.257010  0.580996  0.580996  1
