# generated using pymatgen
data_Nd3ZnCd2IrPd2
_symmetry_space_group_name_H-M   'P 1'
_cell_length_a   7.62551327
_cell_length_b   7.64079878
_cell_length_c   4.01171900
_cell_angle_alpha   90.00000000
_cell_angle_beta   90.00000000
_cell_angle_gamma   119.73101958
_symmetry_Int_Tables_number   1
_chemical_formula_structural   Nd3ZnCd2IrPd2
_chemical_formula_sum   'Nd3 Zn1 Cd2 Ir1 Pd2'
_cell_volume   202.97368374
_cell_formula_units_Z   1
loop_
 _symmetry_equiv_pos_site_id
 _symmetry_equiv_pos_as_xyz
  1  'x, y, z'
loop_
 _atom_site_type_symbol
 _atom_site_label
 _atom_site_symmetry_multiplicity
 _atom_site_fract_x
 _atom_site_fract_y
 _atom_site_fract_z
 _atom_site_occupancy
  Nd  Nd0  1  0.409456  0.400078  0.000000  1
  Nd  Nd1  1  0.604355  0.017148  0.000000  1
  Nd  Nd2  1  0.988144  0.572258  0.000000  1
  Zn  Zn3  1  0.997082  0.253666  0.500000  1
  Cd  Cd4  1  0.752646  0.750936  0.500000  1
  Cd  Cd5  1  0.245135  0.991647  0.500000  1
  Ir  Ir6  1  0.673059  0.331579  0.500000  1
  Pd  Pd7  1  0.002126  0.025880  0.000000  1
  Pd  Pd8  1  0.327997  0.656806  0.500000  1
