# generated using pymatgen
data_Nd8CuAu3O20
_symmetry_space_group_name_H-M   'P 1'
_cell_length_a   8.72540800
_cell_length_b   8.72540800
_cell_length_c   5.97308700
_cell_angle_alpha   90.00000000
_cell_angle_beta   90.00000000
_cell_angle_gamma   90.00000000
_symmetry_Int_Tables_number   1
_chemical_formula_structural   Nd8CuAu3O20
_chemical_formula_sum   'Nd8 Cu1 Au3 O20'
_cell_volume   454.74750804
_cell_formula_units_Z   1
loop_
 _symmetry_equiv_pos_site_id
 _symmetry_equiv_pos_as_xyz
  1  'x, y, z'
loop_
 _atom_site_type_symbol
 _atom_site_label
 _atom_site_symmetry_multiplicity
 _atom_site_fract_x
 _atom_site_fract_y
 _atom_site_fract_z
 _atom_site_occupancy
  Nd  Nd0  1  0.355362  0.655471  0.252541  1
  Nd  Nd1  1  0.850265  0.147425  0.746762  1
  Nd  Nd2  1  0.647425  0.649735  0.746762  1
  Nd  Nd3  1  0.644638  0.344529  0.252541  1
  Nd  Nd4  1  0.844529  0.855362  0.252541  1
  Nd  Nd5  1  0.149735  0.852575  0.746762  1
  Nd  Nd6  1  0.352575  0.350265  0.746762  1
  Nd  Nd7  1  0.155471  0.144638  0.252541  1
  Cu  Cu8  1  0.500000  0.000000  0.405045  1
  Au  Au9  1  0.500000  0.000000  0.900883  1
  Au  Au10  1  0.000000  0.500000  0.098709  1
  Au  Au11  1  0.000000  0.500000  0.597092  1
  O  O12  1  0.091265  0.288919  0.603975  1
  O  O13  1  0.907952  0.288944  0.106165  1
  O  O14  1  0.908735  0.711081  0.603975  1
  O  O15  1  0.711034  0.911064  0.892558  1
  O  O16  1  0.211081  0.591265  0.603975  1
  O  O17  1  0.411064  0.788966  0.892558  1
  O  O18  1  0.417826  0.196945  0.399363  1
  O  O19  1  0.788944  0.592048  0.106165  1
  O  O20  1  0.303055  0.917826  0.399363  1
  O  O21  1  0.588936  0.211034  0.892558  1
  O  O22  1  0.500000  0.500000  0.999610  1
  O  O23  1  0.500000  0.500000  0.496798  1
  O  O24  1  0.788919  0.408735  0.603975  1
  O  O25  1  0.092048  0.711056  0.106165  1
  O  O26  1  0.288966  0.088936  0.892558  1
  O  O27  1  0.582174  0.803055  0.399363  1
  O  O28  1  0.211056  0.407952  0.106165  1
  O  O29  1  0.000000  0.000000  0.999610  1
  O  O30  1  0.000000  0.000000  0.496798  1
  O  O31  1  0.696945  0.082174  0.399363  1
