# generated using pymatgen
data_TbHo4(RhO6)2
_symmetry_space_group_name_H-M   'P 1'
_cell_length_a   6.82775871
_cell_length_b   6.82775818
_cell_length_c   7.25945305
_cell_angle_alpha   74.50341833
_cell_angle_beta   74.50340971
_cell_angle_gamma   51.20587618
_symmetry_Int_Tables_number   1
_chemical_formula_structural   TbHo4(RhO6)2
_chemical_formula_sum   'Tb1 Ho4 Rh2 O12'
_cell_volume   251.92563120
_cell_formula_units_Z   1
loop_
 _symmetry_equiv_pos_site_id
 _symmetry_equiv_pos_as_xyz
  1  'x, y, z'
loop_
 _atom_site_type_symbol
 _atom_site_label
 _atom_site_symmetry_multiplicity
 _atom_site_fract_x
 _atom_site_fract_y
 _atom_site_fract_z
 _atom_site_occupancy
  Tb  Tb0  1  0.000000  0.000000  0.500000  1
  Ho  Ho1  1  0.302098  0.302098  0.360361  1
  Ho  Ho2  1  0.697902  0.697902  0.639639  1
  Ho  Ho3  1  0.308673  0.308673  0.829722  1
  Ho  Ho4  1  0.691327  0.691327  0.170278  1
  Rh  Rh5  1  0.752825  0.247175  0.000000  1
  Rh  Rh6  1  0.247175  0.752825  0.000000  1
  O  O7  1  0.901271  0.432377  0.915447  1
  O  O8  1  0.432377  0.901271  0.915447  1
  O  O9  1  0.098729  0.567623  0.084553  1
  O  O10  1  0.567623  0.098729  0.084553  1
  O  O11  1  0.096834  0.595655  0.574719  1
  O  O12  1  0.595655  0.096834  0.574719  1
  O  O13  1  0.903166  0.404345  0.425281  1
  O  O14  1  0.404345  0.903166  0.425281  1
  O  O15  1  0.000409  0.000409  0.817109  1
  O  O16  1  0.999591  0.999591  0.182891  1
  O  O17  1  0.500118  0.500118  0.808614  1
  O  O18  1  0.499882  0.499882  0.191386  1
