# generated using pymatgen
data_Sr3Ir4PbO14
_symmetry_space_group_name_H-M   'P 1'
_cell_length_a   7.42398559
_cell_length_b   7.42398499
_cell_length_c   7.39583684
_cell_angle_alpha   59.87401087
_cell_angle_beta   59.87401718
_cell_angle_gamma   59.99999609
_symmetry_Int_Tables_number   1
_chemical_formula_structural   Sr3Ir4PbO14
_chemical_formula_sum   'Sr3 Ir4 Pb1 O14'
_cell_volume   287.68476839
_cell_formula_units_Z   1
loop_
 _symmetry_equiv_pos_site_id
 _symmetry_equiv_pos_as_xyz
  1  'x, y, z'
loop_
 _atom_site_type_symbol
 _atom_site_label
 _atom_site_symmetry_multiplicity
 _atom_site_fract_x
 _atom_site_fract_y
 _atom_site_fract_z
 _atom_site_occupancy
  Sr  Sr0  1  0.625000  0.125000  0.125000  1
  Sr  Sr1  1  0.125000  0.625000  0.125000  1
  Sr  Sr2  1  0.125000  0.125000  0.125000  1
  Ir  Ir3  1  0.125000  0.625000  0.625000  1
  Ir  Ir4  1  0.625000  0.125000  0.625000  1
  Ir  Ir5  1  0.625000  0.625000  0.125000  1
  Ir  Ir6  1  0.625000  0.625000  0.625000  1
  Pb  Pb7  1  0.125000  0.125000  0.625000  1
  O  O8  1  0.697296  0.697296  0.304158  1
  O  O9  1  0.302412  0.302412  0.683857  1
  O  O10  1  0.711319  0.302412  0.683857  1
  O  O11  1  0.301251  0.697296  0.304158  1
  O  O12  1  0.302412  0.711319  0.683857  1
  O  O13  1  0.697296  0.301251  0.304158  1
  O  O14  1  0.552704  0.552704  0.945842  1
  O  O15  1  0.947588  0.947588  0.566143  1
  O  O16  1  0.538681  0.947588  0.566143  1
  O  O17  1  0.948749  0.552704  0.945842  1
  O  O18  1  0.947588  0.538681  0.566143  1
  O  O19  1  0.552704  0.948749  0.945842  1
  O  O20  1  0.239250  0.239250  0.282250  1
  O  O21  1  0.010750  0.010750  0.967750  1
