# generated using pymatgen
data_Tb13Ho3InHg3Ir4
_symmetry_space_group_name_H-M   'P 1'
_cell_length_a   9.64675053
_cell_length_b   9.64208360
_cell_length_c   9.61855135
_cell_angle_alpha   60.05039628
_cell_angle_beta   60.05137061
_cell_angle_gamma   60.13994330
_symmetry_Int_Tables_number   1
_chemical_formula_structural   Tb13Ho3InHg3Ir4
_chemical_formula_sum   'Tb13 Ho3 In1 Hg3 Ir4'
_cell_volume   633.77940312
_cell_formula_units_Z   1
loop_
 _symmetry_equiv_pos_site_id
 _symmetry_equiv_pos_as_xyz
  1  'x, y, z'
loop_
 _atom_site_type_symbol
 _atom_site_label
 _atom_site_symmetry_multiplicity
 _atom_site_fract_x
 _atom_site_fract_y
 _atom_site_fract_z
 _atom_site_occupancy
  Tb  Tb0  1  0.310673  0.691482  0.310013  1
  Tb  Tb1  1  0.938553  0.559600  0.559600  1
  Tb  Tb2  1  0.311568  0.312791  0.687681  1
  Tb  Tb3  1  0.099265  0.100447  0.099671  1
  Tb  Tb4  1  0.558612  0.558374  0.938275  1
  Tb  Tb5  1  0.100980  0.100955  0.698534  1
  Tb  Tb6  1  0.691246  0.310745  0.686410  1
  Tb  Tb7  1  0.690279  0.689249  0.308578  1
  Tb  Tb8  1  0.690998  0.311962  0.309956  1
  Tb  Tb9  1  0.309658  0.691524  0.687331  1
  Tb  Tb10  1  0.559925  0.937442  0.559740  1
  Tb  Tb11  1  0.699778  0.100888  0.100581  1
  Tb  Tb12  1  0.558815  0.941915  0.939661  1
  Ho  Ho13  1  0.100386  0.700609  0.099744  1
  Ho  Ho14  1  0.940660  0.939189  0.559730  1
  Ho  Ho15  1  0.942783  0.558537  0.939492  1
  In  In16  1  0.330785  0.330692  0.007921  1
  Hg  Hg17  1  0.334108  0.334550  0.334414  1
  Hg  Hg18  1  0.993944  0.335720  0.334887  1
  Hg  Hg19  1  0.335198  0.993752  0.335449  1
  Ir  Ir20  1  0.892421  0.891172  0.892117  1
  Ir  Ir21  1  0.892645  0.891662  0.325059  1
  Ir  Ir22  1  0.324635  0.891329  0.892688  1
  Ir  Ir23  1  0.892085  0.325412  0.892466  1
