# generated using pymatgen
data_TbDy5Al24GaOs7
_symmetry_space_group_name_H-M   'P 1'
_cell_length_a   8.86775430
_cell_length_b   8.86735094
_cell_length_c   9.55700406
_cell_angle_alpha   90.14059180
_cell_angle_beta   89.84977532
_cell_angle_gamma   119.85554045
_symmetry_Int_Tables_number   1
_chemical_formula_structural   TbDy5Al24GaOs7
_chemical_formula_sum   'Tb1 Dy5 Al24 Ga1 Os7'
_cell_volume   651.76108681
_cell_formula_units_Z   1
loop_
 _symmetry_equiv_pos_site_id
 _symmetry_equiv_pos_as_xyz
  1  'x, y, z'
loop_
 _atom_site_type_symbol
 _atom_site_label
 _atom_site_symmetry_multiplicity
 _atom_site_fract_x
 _atom_site_fract_y
 _atom_site_fract_z
 _atom_site_occupancy
  Tb  Tb0  1  0.191810  0.384710  0.245363  1
  Dy  Dy1  1  0.808136  0.614946  0.754561  1
  Dy  Dy2  1  0.615008  0.808222  0.245452  1
  Dy  Dy3  1  0.385050  0.191847  0.754547  1
  Dy  Dy4  1  0.194337  0.805739  0.256002  1
  Dy  Dy5  1  0.805665  0.194357  0.743977  1
  Al  Al6  1  0.327282  0.672929  0.022070  1
  Al  Al7  1  0.672766  0.327217  0.977826  1
  Al  Al8  1  0.665926  0.334078  0.518633  1
  Al  Al9  1  0.334145  0.666057  0.481458  1
  Al  Al10  1  0.162578  0.325627  0.571693  1
  Al  Al11  1  0.837442  0.674361  0.428426  1
  Al  Al12  1  0.674371  0.837419  0.571605  1
  Al  Al13  1  0.852848  0.678797  0.082016  1
  Al  Al14  1  0.325665  0.162517  0.428450  1
  Al  Al15  1  0.147145  0.321190  0.917883  1
  Al  Al16  1  0.162933  0.837052  0.576385  1
  Al  Al17  1  0.321224  0.147072  0.081977  1
  Al  Al18  1  0.836967  0.162894  0.423660  1
  Al  Al19  1  0.678810  0.852865  0.917969  1
  Al  Al20  1  0.836698  0.163112  0.076940  1
  Al  Al21  1  0.163198  0.836829  0.923009  1
  Al  Al22  1  0.562007  0.121011  0.249511  1
  Al  Al23  1  0.437986  0.878973  0.750489  1
  Al  Al24  1  0.878805  0.438028  0.249520  1
  Al  Al25  1  0.121031  0.562014  0.750471  1
  Al  Al26  1  0.565878  0.434325  0.258104  1
  Al  Al27  1  0.434293  0.565704  0.741929  1
  Al  Al28  1  0.998696  0.001039  0.250803  1
  Al  Al29  1  0.001203  0.998778  0.749201  1
  Ga  Ga30  1  0.500030  0.500028  0.999972  1
  Os  Os31  1  0.500040  0.000050  0.999978  1
  Os  Os32  1  0.999913  0.500070  0.999870  1
  Os  Os33  1  0.500038  0.000069  0.500031  1
  Os  Os34  1  0.999936  0.500043  0.500103  1
  Os  Os35  1  0.500154  0.500057  0.500110  1
  Os  Os36  1  0.999999  0.999990  0.999966  1
  Os  Os37  1  0.999984  0.999982  0.500039  1
