# generated using pymatgen
data_Ho3Fe6Co(P3Ru)2
_symmetry_space_group_name_H-M   'P 1'
_cell_length_a   3.77565600
_cell_length_b   10.53997500
_cell_length_c   12.29169100
_cell_angle_alpha   90.00000000
_cell_angle_beta   90.00000000
_cell_angle_gamma   90.00000000
_symmetry_Int_Tables_number   1
_chemical_formula_structural   Ho3Fe6Co(P3Ru)2
_chemical_formula_sum   'Ho6 Fe12 Co2 P12 Ru4'
_cell_volume   489.15177483
_cell_formula_units_Z   2
loop_
 _symmetry_equiv_pos_site_id
 _symmetry_equiv_pos_as_xyz
  1  'x, y, z'
loop_
 _atom_site_type_symbol
 _atom_site_label
 _atom_site_symmetry_multiplicity
 _atom_site_fract_x
 _atom_site_fract_y
 _atom_site_fract_z
 _atom_site_occupancy
  Ho  Ho0  1  0.000000  0.500000  0.530798  1
  Ho  Ho1  1  0.500000  0.000000  0.475722  1
  Ho  Ho2  1  0.500000  0.819703  0.203912  1
  Ho  Ho3  1  0.500000  0.180297  0.203912  1
  Ho  Ho4  1  0.000000  0.680893  0.795454  1
  Ho  Ho5  1  0.000000  0.319107  0.795454  1
  Fe  Fe6  1  0.000000  0.500000  0.986857  1
  Fe  Fe7  1  0.500000  0.000000  0.011849  1
  Fe  Fe8  1  0.000000  0.199355  0.573178  1
  Fe  Fe9  1  0.000000  0.800645  0.573178  1
  Fe  Fe10  1  0.500000  0.882202  0.710154  1
  Fe  Fe11  1  0.500000  0.117798  0.710154  1
  Fe  Fe12  1  0.000000  0.618639  0.287338  1
  Fe  Fe13  1  0.000000  0.381361  0.287338  1
  Fe  Fe14  1  0.500000  0.327198  0.993095  1
  Fe  Fe15  1  0.500000  0.672802  0.993095  1
  Fe  Fe16  1  0.000000  0.171914  0.005482  1
  Fe  Fe17  1  0.000000  0.828086  0.005482  1
  Co  Co18  1  0.500000  0.500000  0.701103  1
  Co  Co19  1  0.000000  0.000000  0.299190  1
  P  P20  1  0.500000  0.304139  0.620984  1
  P  P21  1  0.500000  0.695861  0.620984  1
  P  P22  1  0.000000  0.188374  0.383745  1
  P  P23  1  0.000000  0.811626  0.383745  1
  P  P24  1  0.500000  0.500000  0.883888  1
  P  P25  1  0.000000  0.000000  0.115503  1
  P  P26  1  0.500000  0.848421  0.890662  1
  P  P27  1  0.500000  0.151579  0.890662  1
  P  P28  1  0.000000  0.652593  0.107486  1
  P  P29  1  0.000000  0.347407  0.107486  1
  P  P30  1  0.500000  0.500000  0.338336  1
  P  P31  1  0.000000  0.000000  0.656141  1
  Ru  Ru32  1  0.500000  0.298867  0.430404  1
  Ru  Ru33  1  0.500000  0.701133  0.430404  1
  Ru  Ru34  1  0.500000  0.500000  0.150336  1
  Ru  Ru35  1  0.000000  0.000000  0.846496  1
