# generated using pymatgen
data_ErThIr6
_symmetry_space_group_name_H-M   'P 1'
_cell_length_a   5.34923239
_cell_length_b   5.34923280
_cell_length_c   17.83683048
_cell_angle_alpha   98.62398297
_cell_angle_beta   98.62398453
_cell_angle_gamma   59.99999943
_symmetry_Int_Tables_number   1
_chemical_formula_structural   ErThIr6
_chemical_formula_sum   'Er3 Th3 Ir18'
_cell_volume   435.33310220
_cell_formula_units_Z   3
loop_
 _symmetry_equiv_pos_site_id
 _symmetry_equiv_pos_as_xyz
  1  'x, y, z'
loop_
 _atom_site_type_symbol
 _atom_site_label
 _atom_site_symmetry_multiplicity
 _atom_site_fract_x
 _atom_site_fract_y
 _atom_site_fract_z
 _atom_site_occupancy
  Er  Er0  1  0.429111  0.429111  0.287335  1
  Er  Er1  1  0.931465  0.931465  0.794396  1
  Er  Er2  1  0.070512  0.070512  0.211536  1
  Th  Th3  1  0.569974  0.569974  0.709920  1
  Th  Th4  1  0.000914  0.000914  0.002741  1
  Th  Th5  1  0.498206  0.498206  0.494616  1
  Ir  Ir6  1  0.458400  0.958101  0.374601  1
  Ir  Ir7  1  0.960523  0.458694  0.877911  1
  Ir  Ir8  1  0.958101  0.958101  0.374601  1
  Ir  Ir9  1  0.458694  0.458694  0.877911  1
  Ir  Ir10  1  0.958101  0.458400  0.374601  1
  Ir  Ir11  1  0.458694  0.960523  0.877911  1
  Ir  Ir12  1  0.040504  0.542146  0.124795  1
  Ir  Ir13  1  0.540403  0.040837  0.622077  1
  Ir  Ir14  1  0.542146  0.542146  0.124795  1
  Ir  Ir15  1  0.040837  0.040837  0.622077  1
  Ir  Ir16  1  0.542146  0.040504  0.124795  1
  Ir  Ir17  1  0.040837  0.540403  0.622077  1
  Ir  Ir18  1  0.334062  0.334062  0.002186  1
  Ir  Ir19  1  0.833057  0.833057  0.499172  1
  Ir  Ir20  1  0.166126  0.166126  0.498379  1
  Ir  Ir21  1  0.666802  0.666802  0.000405  1
  Ir  Ir22  1  0.750060  0.750060  0.250182  1
  Ir  Ir23  1  0.250329  0.250329  0.750987  1
