# generated using pymatgen
data_Lu4Ga2B4IrRh9
_symmetry_space_group_name_H-M   'P 1'
_cell_length_a   9.42967550
_cell_length_b   9.42967550
_cell_length_c   3.17241400
_cell_angle_alpha   90.00000000
_cell_angle_beta   90.00000000
_cell_angle_gamma   90.19392533
_symmetry_Int_Tables_number   1
_chemical_formula_structural   Lu4Ga2B4IrRh9
_chemical_formula_sum   'Lu4 Ga2 B4 Ir1 Rh9'
_cell_volume   282.08556707
_cell_formula_units_Z   1
loop_
 _symmetry_equiv_pos_site_id
 _symmetry_equiv_pos_as_xyz
  1  'x, y, z'
loop_
 _atom_site_type_symbol
 _atom_site_label
 _atom_site_symmetry_multiplicity
 _atom_site_fract_x
 _atom_site_fract_y
 _atom_site_fract_z
 _atom_site_occupancy
  Lu  Lu0  1  0.825628  0.325628  0.000000  1
  Lu  Lu1  1  0.323481  0.176519  0.000000  1
  Lu  Lu2  1  0.676519  0.823481  0.000000  1
  Lu  Lu3  1  0.174372  0.674372  0.000000  1
  Ga  Ga4  1  0.000000  0.000000  0.000000  1
  Ga  Ga5  1  0.500000  0.500000  0.000000  1
  B  B6  1  0.623160  0.123160  0.000000  1
  B  B7  1  0.122639  0.377361  0.000000  1
  B  B8  1  0.877361  0.622639  0.000000  1
  B  B9  1  0.376840  0.876840  0.000000  1
  Ir  Ir10  1  0.500000  0.000000  0.500000  1
  Rh  Rh11  1  0.070236  0.218174  0.500000  1
  Rh  Rh12  1  0.217690  0.929170  0.500000  1
  Rh  Rh13  1  0.782310  0.070830  0.500000  1
  Rh  Rh14  1  0.929764  0.781826  0.500000  1
  Rh  Rh15  1  0.429170  0.717690  0.500000  1
  Rh  Rh16  1  0.570830  0.282310  0.500000  1
  Rh  Rh17  1  0.718174  0.570236  0.500000  1
  Rh  Rh18  1  0.281826  0.429764  0.500000  1
  Rh  Rh19  1  0.000000  0.500000  0.500000  1
