# generated using pymatgen
data_HfZr9ZnSiSb6
_symmetry_space_group_name_H-M   'P 1'
_cell_length_a   8.65802513
_cell_length_b   8.66035138
_cell_length_c   5.86573209
_cell_angle_alpha   90.00978326
_cell_angle_beta   89.98043485
_cell_angle_gamma   119.99111105
_symmetry_Int_Tables_number   1
_chemical_formula_structural   HfZr9ZnSiSb6
_chemical_formula_sum   'Hf1 Zr9 Zn1 Si1 Sb6'
_cell_volume   380.93079009
_cell_formula_units_Z   1
loop_
 _symmetry_equiv_pos_site_id
 _symmetry_equiv_pos_as_xyz
  1  'x, y, z'
loop_
 _atom_site_type_symbol
 _atom_site_label
 _atom_site_symmetry_multiplicity
 _atom_site_fract_x
 _atom_site_fract_y
 _atom_site_fract_z
 _atom_site_occupancy
  Hf  Hf0  1  0.263715  0.000000  0.255716  1
  Zr  Zr1  1  0.264068  0.263725  0.744651  1
  Zr  Zr2  1  0.000343  0.736275  0.744651  1
  Zr  Zr3  1  0.999934  0.264185  0.255417  1
  Zr  Zr4  1  0.735748  0.735815  0.255417  1
  Zr  Zr5  1  0.735924  0.000000  0.744522  1
  Zr  Zr6  1  0.333222  0.666767  0.000076  1
  Zr  Zr7  1  0.666327  0.333156  0.499827  1
  Zr  Zr8  1  0.666456  0.333233  0.000076  1
  Zr  Zr9  1  0.333169  0.666844  0.499827  1
  Zn  Zn10  1  0.000548  0.000000  0.000501  1
  Si  Si11  1  0.000678  0.000000  0.499344  1
  Sb  Sb12  1  0.608552  0.000000  0.246998  1
  Sb  Sb13  1  0.609252  0.609274  0.753071  1
  Sb  Sb14  1  0.999977  0.390726  0.753071  1
  Sb  Sb15  1  0.000487  0.609883  0.246929  1
  Sb  Sb16  1  0.390604  0.390117  0.246929  1
  Sb  Sb17  1  0.390996  0.000000  0.752977  1
