# generated using pymatgen
data_Pr3Nd3Al24NiOs7
_symmetry_space_group_name_H-M   'P 1'
_cell_length_a   8.92762195
_cell_length_b   8.92623753
_cell_length_c   9.72007500
_cell_angle_alpha   90.14417293
_cell_angle_beta   89.84914279
_cell_angle_gamma   119.60346546
_symmetry_Int_Tables_number   1
_chemical_formula_structural   Pr3Nd3Al24NiOs7
_chemical_formula_sum   'Pr3 Nd3 Al24 Ni1 Os7'
_cell_volume   673.47898277
_cell_formula_units_Z   1
loop_
 _symmetry_equiv_pos_site_id
 _symmetry_equiv_pos_as_xyz
  1  'x, y, z'
loop_
 _atom_site_type_symbol
 _atom_site_label
 _atom_site_symmetry_multiplicity
 _atom_site_fract_x
 _atom_site_fract_y
 _atom_site_fract_z
 _atom_site_occupancy
  Pr  Pr0  1  0.189802  0.383856  0.249130  1
  Pr  Pr1  1  0.810166  0.616324  0.750950  1
  Pr  Pr2  1  0.615907  0.810033  0.249098  1
  Nd  Nd3  1  0.384320  0.189931  0.750885  1
  Nd  Nd4  1  0.193376  0.806574  0.251150  1
  Nd  Nd5  1  0.806787  0.193399  0.748828  1
  Al  Al6  1  0.334021  0.665912  0.011556  1
  Al  Al7  1  0.665635  0.334051  0.987507  1
  Al  Al8  1  0.666199  0.333417  0.509932  1
  Al  Al9  1  0.333460  0.666309  0.490913  1
  Al  Al10  1  0.163962  0.325859  0.574752  1
  Al  Al11  1  0.836284  0.673826  0.425669  1
  Al  Al12  1  0.673923  0.836369  0.574581  1
  Al  Al13  1  0.838673  0.674311  0.075745  1
  Al  Al14  1  0.326093  0.163649  0.426151  1
  Al  Al15  1  0.161610  0.325502  0.924077  1
  Al  Al16  1  0.163413  0.837202  0.573902  1
  Al  Al17  1  0.325723  0.161514  0.075186  1
  Al  Al18  1  0.836731  0.163173  0.426474  1
  Al  Al19  1  0.674372  0.838754  0.924141  1
  Al  Al20  1  0.835735  0.164260  0.071258  1
  Al  Al21  1  0.164392  0.836232  0.928425  1
  Al  Al22  1  0.561356  0.125151  0.248780  1
  Al  Al23  1  0.438527  0.875530  0.751119  1
  Al  Al24  1  0.874790  0.438481  0.248836  1
  Al  Al25  1  0.125051  0.561529  0.751188  1
  Al  Al26  1  0.561096  0.438583  0.247792  1
  Al  Al27  1  0.438766  0.560563  0.752330  1
  Al  Al28  1  0.999843  0.999957  0.250035  1
  Al  Al29  1  0.001163  0.000609  0.749892  1
  Ni  Ni30  1  0.499407  0.499301  0.999272  1
  Os  Os31  1  0.499890  0.000151  0.999757  1
  Os  Os32  1  0.999970  0.499994  0.999938  1
  Os  Os33  1  0.499863  0.000092  0.500145  1
  Os  Os34  1  0.999890  0.499907  0.500097  1
  Os  Os35  1  0.499853  0.499733  0.500298  1
  Os  Os36  1  0.999967  0.999998  0.000027  1
  Os  Os37  1  0.999984  0.999963  0.500191  1
