# generated using pymatgen
data_Rb3Al2Sb3
_symmetry_space_group_name_H-M   'P 1'
_cell_length_a   6.56506200
_cell_length_b   8.41446638
_cell_length_c   11.63770958
_cell_angle_alpha   69.85810346
_cell_angle_beta   90.00000000
_cell_angle_gamma   90.00000000
_symmetry_Int_Tables_number   1
_chemical_formula_structural   Rb3Al2Sb3
_chemical_formula_sum   'Rb6 Al4 Sb6'
_cell_volume   603.56738398
_cell_formula_units_Z   2
loop_
 _symmetry_equiv_pos_site_id
 _symmetry_equiv_pos_as_xyz
  1  'x, y, z'
loop_
 _atom_site_type_symbol
 _atom_site_label
 _atom_site_symmetry_multiplicity
 _atom_site_fract_x
 _atom_site_fract_y
 _atom_site_fract_z
 _atom_site_occupancy
  Rb  Rb0  1  0.250000  0.430703  0.426828  1
  Rb  Rb1  1  0.750000  0.128820  0.919622  1
  Rb  Rb2  1  0.750000  0.472070  0.151161  1
  Rb  Rb3  1  0.250000  0.527930  0.848839  1
  Rb  Rb4  1  0.750000  0.569297  0.573172  1
  Rb  Rb5  1  0.250000  0.871180  0.080378  1
  Al  Al6  1  0.999343  0.029303  0.344528  1
  Al  Al7  1  0.499343  0.970697  0.655472  1
  Al  Al8  1  0.500657  0.029303  0.344528  1
  Al  Al9  1  0.000657  0.970697  0.655472  1
  Sb  Sb10  1  0.250000  0.813197  0.528342  1
  Sb  Sb11  1  0.750000  0.186803  0.471658  1
  Sb  Sb12  1  0.250000  0.252235  0.181181  1
  Sb  Sb13  1  0.750000  0.747765  0.818819  1
  Sb  Sb14  1  0.250000  0.152608  0.747102  1
  Sb  Sb15  1  0.750000  0.847392  0.252898  1
