# generated using pymatgen
data_Dy3Er2Co19(SiP5)2
_symmetry_space_group_name_H-M   'P 1'
_cell_length_a   12.01396122
_cell_length_b   12.00616627
_cell_length_c   3.67653600
_cell_angle_alpha   90.00000000
_cell_angle_beta   90.00000000
_cell_angle_gamma   119.96830363
_symmetry_Int_Tables_number   1
_chemical_formula_structural   Dy3Er2Co19(SiP5)2
_chemical_formula_sum   'Dy3 Er2 Co19 Si2 P10'
_cell_volume   459.40810842
_cell_formula_units_Z   1
loop_
 _symmetry_equiv_pos_site_id
 _symmetry_equiv_pos_as_xyz
  1  'x, y, z'
loop_
 _atom_site_type_symbol
 _atom_site_label
 _atom_site_symmetry_multiplicity
 _atom_site_fract_x
 _atom_site_fract_y
 _atom_site_fract_z
 _atom_site_occupancy
  Dy  Dy0  1  0.334392  0.667314  0.000000  1
  Dy  Dy1  1  0.815279  0.000482  0.500000  1
  Dy  Dy2  1  0.000104  0.811998  0.500000  1
  Er  Er3  1  0.665345  0.332631  0.000000  1
  Er  Er4  1  0.185030  0.185142  0.500000  1
  Co  Co5  1  0.559034  0.556003  0.000000  1
  Co  Co6  1  0.440747  0.997013  0.000000  1
  Co  Co7  1  0.000067  0.447803  0.000000  1
  Co  Co8  1  0.824620  0.203914  0.000000  1
  Co  Co9  1  0.801692  0.622079  0.000000  1
  Co  Co10  1  0.377206  0.174878  0.000000  1
  Co  Co11  1  0.198219  0.820883  0.000000  1
  Co  Co12  1  0.622885  0.797484  0.000000  1
  Co  Co13  1  0.175354  0.378541  0.000000  1
  Co  Co14  1  0.640726  0.127154  0.500000  1
  Co  Co15  1  0.874552  0.515958  0.500000  1
  Co  Co16  1  0.485725  0.357942  0.500000  1
  Co  Co17  1  0.124844  0.641474  0.500000  1
  Co  Co18  1  0.514415  0.872758  0.500000  1
  Co  Co19  1  0.359045  0.485529  0.500000  1
  Co  Co20  1  0.717074  0.715336  0.500000  1
  Co  Co21  1  0.283115  0.998905  0.500000  1
  Co  Co22  1  0.000056  0.286140  0.500000  1
  Co  Co23  1  0.000581  0.001083  0.000000  1
  Si  Si24  1  0.368957  0.368996  0.000000  1
  Si  Si25  1  0.630398  0.000216  0.000000  1
  P  P26  1  0.999995  0.631241  0.000000  1
  P  P27  1  0.832518  0.313731  0.500000  1
  P  P28  1  0.685994  0.519544  0.500000  1
  P  P29  1  0.479069  0.165484  0.500000  1
  P  P30  1  0.313893  0.834435  0.500000  1
  P  P31  1  0.521493  0.686312  0.500000  1
  P  P32  1  0.166807  0.480475  0.500000  1
  P  P33  1  0.819194  0.818359  0.000000  1
  P  P34  1  0.181046  0.999977  0.000000  1
  P  P35  1  0.000526  0.182786  0.000000  1
