# generated using pymatgen
data_Ca5ReMoN7
_symmetry_space_group_name_H-M   'P 1'
_cell_length_a   6.13661118
_cell_length_b   9.10207099
_cell_length_c   8.98572397
_cell_angle_alpha   115.90419290
_cell_angle_beta   97.09102465
_cell_angle_gamma   88.60499190
_symmetry_Int_Tables_number   1
_chemical_formula_structural   Ca5ReMoN7
_chemical_formula_sum   'Ca10 Re2 Mo2 N14'
_cell_volume   447.77754959
_cell_formula_units_Z   2
loop_
 _symmetry_equiv_pos_site_id
 _symmetry_equiv_pos_as_xyz
  1  'x, y, z'
loop_
 _atom_site_type_symbol
 _atom_site_label
 _atom_site_symmetry_multiplicity
 _atom_site_fract_x
 _atom_site_fract_y
 _atom_site_fract_z
 _atom_site_occupancy
  Ca  Ca0  1  0.835637  0.608518  0.317258  1
  Ca  Ca1  1  0.259721  0.983810  0.549233  1
  Ca  Ca2  1  0.704111  0.417723  0.859366  1
  Ca  Ca3  1  0.295889  0.582277  0.140634  1
  Ca  Ca4  1  0.394659  0.789705  0.916921  1
  Ca  Ca5  1  0.605341  0.210295  0.083079  1
  Ca  Ca6  1  0.164363  0.391482  0.682742  1
  Ca  Ca7  1  0.891260  0.863578  0.754279  1
  Ca  Ca8  1  0.108740  0.136422  0.245721  1
  Ca  Ca9  1  0.740279  0.016190  0.450767  1
  Re  Re10  1  0.584245  0.349451  0.474965  1
  Re  Re11  1  0.415755  0.650549  0.525035  1
  Mo  Mo12  1  0.125600  0.216291  0.926483  1
  Mo  Mo13  1  0.874400  0.783709  0.073517  1
  N  N14  1  0.491746  0.540881  0.672073  1
  N  N15  1  0.508254  0.459119  0.327927  1
  N  N16  1  0.137299  0.726243  0.548921  1
  N  N17  1  0.862701  0.273757  0.451079  1
  N  N18  1  0.414561  0.180387  0.471969  1
  N  N19  1  0.585439  0.819613  0.528031  1
  N  N20  1  0.955591  0.126911  0.716597  1
  N  N21  1  0.044409  0.873089  0.283403  1
  N  N22  1  0.240038  0.051946  0.981323  1
  N  N23  1  0.759962  0.948054  0.018677  1
  N  N24  1  0.369847  0.327394  0.909766  1
  N  N25  1  0.957376  0.362389  0.090580  1
  N  N26  1  0.042624  0.637611  0.909420  1
  N  N27  1  0.630153  0.672606  0.090234  1
