# generated using pymatgen
data_Tb7DyHf3Si16W9
_symmetry_space_group_name_H-M   'P 1'
_cell_length_a   6.97591408
_cell_length_b   6.97632623
_cell_length_c   12.94204508
_cell_angle_alpha   89.98325857
_cell_angle_beta   90.03418721
_cell_angle_gamma   89.91375182
_symmetry_Int_Tables_number   1
_chemical_formula_structural   Tb7DyHf3Si16W9
_chemical_formula_sum   'Tb7 Dy1 Hf3 Si16 W9'
_cell_volume   629.83997942
_cell_formula_units_Z   1
loop_
 _symmetry_equiv_pos_site_id
 _symmetry_equiv_pos_as_xyz
  1  'x, y, z'
loop_
 _atom_site_type_symbol
 _atom_site_label
 _atom_site_symmetry_multiplicity
 _atom_site_fract_x
 _atom_site_fract_y
 _atom_site_fract_z
 _atom_site_occupancy
  Tb  Tb0  1  0.003758  0.662881  0.720393  1
  Tb  Tb1  1  0.162235  0.497945  0.468540  1
  Tb  Tb2  1  0.500243  0.839146  0.030850  1
  Tb  Tb3  1  0.839126  0.500132  0.969173  1
  Tb  Tb4  1  0.498039  0.162268  0.531432  1
  Tb  Tb5  1  0.336228  0.000921  0.783092  1
  Tb  Tb6  1  0.662891  0.003774  0.279588  1
  Dy  Dy7  1  0.001123  0.336412  0.216891  1
  Hf  Hf8  1  0.832654  0.832693  0.500007  1
  Hf  Hf9  1  0.330877  0.667360  0.247723  1
  Hf  Hf10  1  0.667438  0.330885  0.752266  1
  Si  Si11  1  0.372685  0.294927  0.317413  1
  Si  Si12  1  0.625395  0.706908  0.817568  1
  Si  Si13  1  0.205134  0.873696  0.568071  1
  Si  Si14  1  0.124485  0.802049  0.933688  1
  Si  Si15  1  0.802226  0.124754  0.066425  1
  Si  Si16  1  0.873710  0.205171  0.431845  1
  Si  Si17  1  0.294891  0.373056  0.682490  1
  Si  Si18  1  0.707063  0.625204  0.182434  1
  Si  Si19  1  0.289131  0.043896  0.184261  1
  Si  Si20  1  0.708302  0.959608  0.688579  1
  Si  Si21  1  0.458466  0.790952  0.437581  1
  Si  Si22  1  0.210160  0.531989  0.059347  1
  Si  Si23  1  0.532180  0.210319  0.940799  1
  Si  Si24  1  0.790943  0.458439  0.562416  1
  Si  Si25  1  0.043615  0.289230  0.815742  1
  Si  Si26  1  0.959590  0.707929  0.311366  1
  W  W27  1  0.166319  0.166409  0.000110  1
  W  W28  1  0.161986  0.995013  0.374917  1
  W  W29  1  0.833594  0.005580  0.876881  1
  W  W30  1  0.506023  0.661731  0.626696  1
  W  W31  1  0.340112  0.496992  0.873752  1
  W  W32  1  0.497056  0.340153  0.126314  1
  W  W33  1  0.661863  0.505836  0.373190  1
  W  W34  1  0.994927  0.162081  0.624992  1
  W  W35  1  0.005534  0.833666  0.123168  1
