# generated using pymatgen
data_Sc2Mn4Co8P7
_symmetry_space_group_name_H-M   'P 1'
_cell_length_a   8.96493600
_cell_length_b   8.98596893
_cell_length_c   3.55539900
_cell_angle_alpha   90.00000000
_cell_angle_beta   90.00000000
_cell_angle_gamma   119.92655310
_symmetry_Int_Tables_number   1
_chemical_formula_structural   Sc2Mn4Co8P7
_chemical_formula_sum   'Sc2 Mn4 Co8 P7'
_cell_volume   248.22872100
_cell_formula_units_Z   1
loop_
 _symmetry_equiv_pos_site_id
 _symmetry_equiv_pos_as_xyz
  1  'x, y, z'
loop_
 _atom_site_type_symbol
 _atom_site_label
 _atom_site_symmetry_multiplicity
 _atom_site_fract_x
 _atom_site_fract_y
 _atom_site_fract_z
 _atom_site_occupancy
  Sc  Sc0  1  0.001311  0.001088  0.000000  1
  Sc  Sc1  1  0.665783  0.333692  0.500000  1
  Mn  Mn2  1  0.213022  0.824084  0.000000  1
  Mn  Mn3  1  0.432866  0.540431  0.500000  1
  Mn  Mn4  1  0.105303  0.563412  0.500000  1
  Mn  Mn5  1  0.456933  0.892822  0.500000  1
  Co  Co6  1  0.396730  0.297114  0.000000  1
  Co  Co7  1  0.899087  0.601564  0.000000  1
  Co  Co8  1  0.704469  0.100607  0.000000  1
  Co  Co9  1  0.613536  0.786051  0.000000  1
  Co  Co10  1  0.172230  0.387202  0.000000  1
  Co  Co11  1  0.773609  0.719601  0.500000  1
  Co  Co12  1  0.946742  0.226309  0.500000  1
  Co  Co13  1  0.281812  0.055948  0.500000  1
  P  P14  1  0.630671  0.549956  0.000000  1
  P  P15  1  0.915801  0.365568  0.000000  1
  P  P16  1  0.450073  0.082676  0.000000  1
  P  P17  1  0.744830  0.955495  0.500000  1
  P  P18  1  0.215356  0.260026  0.500000  1
  P  P19  1  0.045340  0.791876  0.500000  1
  P  P20  1  0.334497  0.664478  0.000000  1
