# generated using pymatgen
data_Th2PCl2
_symmetry_space_group_name_H-M   'P 1'
_cell_length_a   10.51084919
_cell_length_b   10.51084916
_cell_length_c   10.51085000
_cell_angle_alpha   22.06171299
_cell_angle_beta   22.06171335
_cell_angle_gamma   22.06171172
_symmetry_Int_Tables_number   1
_chemical_formula_structural   Th2PCl2
_chemical_formula_sum   'Th2 P1 Cl2'
_cell_volume   143.62751508
_cell_formula_units_Z   1
loop_
 _symmetry_equiv_pos_site_id
 _symmetry_equiv_pos_as_xyz
  1  'x, y, z'
loop_
 _atom_site_type_symbol
 _atom_site_label
 _atom_site_symmetry_multiplicity
 _atom_site_fract_x
 _atom_site_fract_y
 _atom_site_fract_z
 _atom_site_occupancy
  Th  Th0  1  0.615659  0.615659  0.615659  1
  Th  Th1  1  0.384341  0.384342  0.384341  1
  P  P2  1  0.000000  0.000000  0.000000  1
  Cl  Cl3  1  0.223301  0.223301  0.223301  1
  Cl  Cl4  1  0.776699  0.776699  0.776699  1
