# generated using pymatgen
data_CuNiIrS4
_symmetry_space_group_name_H-M   'P 1'
_cell_length_a   6.90885836
_cell_length_b   6.86188274
_cell_length_c   6.90885876
_cell_angle_alpha   60.22467087
_cell_angle_beta   60.72144436
_cell_angle_gamma   60.22466757
_symmetry_Int_Tables_number   1
_chemical_formula_structural   CuNiIrS4
_chemical_formula_sum   'Cu2 Ni2 Ir2 S8'
_cell_volume   233.63378657
_cell_formula_units_Z   2
loop_
 _symmetry_equiv_pos_site_id
 _symmetry_equiv_pos_as_xyz
  1  'x, y, z'
loop_
 _atom_site_type_symbol
 _atom_site_label
 _atom_site_symmetry_multiplicity
 _atom_site_fract_x
 _atom_site_fract_y
 _atom_site_fract_z
 _atom_site_occupancy
  Cu  Cu0  1  0.001681  0.998319  0.001681  1
  Cu  Cu1  1  0.248319  0.251681  0.248319  1
  Ni  Ni2  1  0.625000  0.625000  0.625000  1
  Ni  Ni3  1  0.625000  0.125000  0.625000  1
  Ir  Ir4  1  0.625000  0.625000  0.125000  1
  Ir  Ir5  1  0.125000  0.625000  0.625000  1
  S  S6  1  0.394493  0.382687  0.840135  1
  S  S7  1  0.388890  0.380060  0.388890  1
  S  S8  1  0.861110  0.869940  0.861110  1
  S  S9  1  0.855507  0.867313  0.409865  1
  S  S10  1  0.388890  0.842161  0.388890  1
  S  S11  1  0.840135  0.382687  0.394493  1
  S  S12  1  0.409865  0.867313  0.855507  1
  S  S13  1  0.861110  0.407839  0.861110  1
