# generated using pymatgen
data_SiBiSe3
_symmetry_space_group_name_H-M   'P 1'
_cell_length_a   6.87901482
_cell_length_b   6.87901451
_cell_length_c   8.20242605
_cell_angle_alpha   89.99999496
_cell_angle_beta   114.79216860
_cell_angle_gamma   120.00000302
_symmetry_Int_Tables_number   1
_chemical_formula_structural   SiBiSe3
_chemical_formula_sum   'Si2 Bi2 Se6'
_cell_volume   294.11202478
_cell_formula_units_Z   2
loop_
 _symmetry_equiv_pos_site_id
 _symmetry_equiv_pos_as_xyz
  1  'x, y, z'
loop_
 _atom_site_type_symbol
 _atom_site_label
 _atom_site_symmetry_multiplicity
 _atom_site_fract_x
 _atom_site_fract_y
 _atom_site_fract_z
 _atom_site_occupancy
  Si  Si0  1  0.106902  0.053451  0.160353  1
  Si  Si1  1  0.893099  0.946549  0.839648  1
  Bi  Bi2  1  0.334012  0.667007  0.001019  1
  Bi  Bi3  1  0.665987  0.332993  0.998980  1
  Se  Se4  1  0.856894  0.767945  0.262002  1
  Se  Se5  1  0.494058  0.088949  0.262002  1
  Se  Se6  1  0.173054  0.405109  0.262002  1
  Se  Se7  1  0.143107  0.232056  0.737999  1
  Se  Se8  1  0.826946  0.594891  0.737999  1
  Se  Se9  1  0.505943  0.911053  0.737999  1
