# generated using pymatgen
data_Ce2Hf3Si4
_symmetry_space_group_name_H-M   'P 1'
_cell_length_a   7.32449300
_cell_length_b   7.32449300
_cell_length_c   13.48789100
_cell_angle_alpha   90.00000000
_cell_angle_beta   90.00000000
_cell_angle_gamma   90.00000000
_symmetry_Int_Tables_number   1
_chemical_formula_structural   Ce2Hf3Si4
_chemical_formula_sum   'Ce8 Hf12 Si16'
_cell_volume   723.60104302
_cell_formula_units_Z   4
loop_
 _symmetry_equiv_pos_site_id
 _symmetry_equiv_pos_as_xyz
  1  'x, y, z'
loop_
 _atom_site_type_symbol
 _atom_site_label
 _atom_site_symmetry_multiplicity
 _atom_site_fract_x
 _atom_site_fract_y
 _atom_site_fract_z
 _atom_site_occupancy
  Ce  Ce0  1  0.993335  0.341067  0.215074  1
  Ce  Ce1  1  0.006665  0.658933  0.715074  1
  Ce  Ce2  1  0.158933  0.493335  0.465074  1
  Ce  Ce3  1  0.506665  0.841067  0.034926  1
  Ce  Ce4  1  0.841067  0.506665  0.965074  1
  Ce  Ce5  1  0.493335  0.158933  0.534926  1
  Ce  Ce6  1  0.341067  0.993335  0.784926  1
  Ce  Ce7  1  0.658933  0.006665  0.284926  1
  Hf  Hf8  1  0.174137  0.174137  0.000000  1
  Hf  Hf9  1  0.825863  0.825863  0.500000  1
  Hf  Hf10  1  0.325863  0.674137  0.250000  1
  Hf  Hf11  1  0.674137  0.325863  0.750000  1
  Hf  Hf12  1  0.152066  0.997511  0.375127  1
  Hf  Hf13  1  0.847934  0.002489  0.875127  1
  Hf  Hf14  1  0.502489  0.652066  0.625127  1
  Hf  Hf15  1  0.347934  0.497511  0.874873  1
  Hf  Hf16  1  0.497511  0.347934  0.125127  1
  Hf  Hf17  1  0.652066  0.502489  0.374873  1
  Hf  Hf18  1  0.997511  0.152066  0.624873  1
  Hf  Hf19  1  0.002489  0.847934  0.124873  1
  Si  Si20  1  0.364354  0.296413  0.315122  1
  Si  Si21  1  0.635646  0.703587  0.815122  1
  Si  Si22  1  0.203587  0.864354  0.565122  1
  Si  Si23  1  0.135646  0.796413  0.934878  1
  Si  Si24  1  0.796413  0.135646  0.065122  1
  Si  Si25  1  0.864354  0.203587  0.434878  1
  Si  Si26  1  0.296413  0.364354  0.684878  1
  Si  Si27  1  0.703587  0.635646  0.184878  1
  Si  Si28  1  0.293626  0.047075  0.185252  1
  Si  Si29  1  0.706374  0.952925  0.685252  1
  Si  Si30  1  0.452925  0.793626  0.435252  1
  Si  Si31  1  0.206374  0.547075  0.064748  1
  Si  Si32  1  0.547075  0.206374  0.935252  1
  Si  Si33  1  0.793626  0.452925  0.564748  1
  Si  Si34  1  0.047075  0.293626  0.814748  1
  Si  Si35  1  0.952925  0.706374  0.314748  1
