# generated using pymatgen
data_Pr4Re3OsBr2
_symmetry_space_group_name_H-M   'P 1'
_cell_length_a   4.21814800
_cell_length_b   4.21814822
_cell_length_c   17.70636000
_cell_angle_alpha   90.00000000
_cell_angle_beta   90.00000000
_cell_angle_gamma   120.00001397
_symmetry_Int_Tables_number   1
_chemical_formula_structural   Pr4Re3OsBr2
_chemical_formula_sum   'Pr4 Re3 Os1 Br2'
_cell_volume   272.83715359
_cell_formula_units_Z   1
loop_
 _symmetry_equiv_pos_site_id
 _symmetry_equiv_pos_as_xyz
  1  'x, y, z'
loop_
 _atom_site_type_symbol
 _atom_site_label
 _atom_site_symmetry_multiplicity
 _atom_site_fract_x
 _atom_site_fract_y
 _atom_site_fract_z
 _atom_site_occupancy
  Pr  Pr0  1  0.000000  0.000000  0.116856  1
  Pr  Pr1  1  0.000000  0.000000  0.883946  1
  Pr  Pr2  1  0.000000  0.000000  0.618730  1
  Pr  Pr3  1  0.000000  0.000000  0.380976  1
  Re  Re4  1  0.333333  0.666667  0.515725  1
  Re  Re5  1  0.666667  0.333333  0.484173  1
  Re  Re6  1  0.666667  0.333333  0.013046  1
  Os  Os7  1  0.333333  0.666667  0.986275  1
  Br  Br8  1  0.333333  0.666667  0.249537  1
  Br  Br9  1  0.666667  0.333333  0.750735  1
