# generated using pymatgen
data_Ac4Cu3Bi8
_symmetry_space_group_name_H-M   'P 1'
_cell_length_a   11.46661813
_cell_length_b   11.46661808
_cell_length_c   11.46661738
_cell_angle_alpha   146.31513817
_cell_angle_beta   146.31514081
_cell_angle_gamma   48.37891235
_symmetry_Int_Tables_number   1
_chemical_formula_structural   Ac4Cu3Bi8
_chemical_formula_sum   'Ac4 Cu3 Bi8'
_cell_volume   461.82010661
_cell_formula_units_Z   1
loop_
 _symmetry_equiv_pos_site_id
 _symmetry_equiv_pos_as_xyz
  1  'x, y, z'
loop_
 _atom_site_type_symbol
 _atom_site_label
 _atom_site_symmetry_multiplicity
 _atom_site_fract_x
 _atom_site_fract_y
 _atom_site_fract_z
 _atom_site_occupancy
  Ac  Ac0  1  0.636954  0.636954  0.503301  1
  Ac  Ac1  1  0.133652  0.133652  0.496699  1
  Ac  Ac2  1  0.363046  0.866348  0.000000  1
  Ac  Ac3  1  0.866348  0.363046  0.000000  1
  Cu  Cu4  1  0.000000  0.000000  0.000000  1
  Cu  Cu5  1  0.000000  0.500000  0.500000  1
  Cu  Cu6  1  0.500000  0.000000  0.500000  1
  Bi  Bi7  1  0.321992  0.321992  0.504882  1
  Bi  Bi8  1  0.817109  0.817109  0.495118  1
  Bi  Bi9  1  0.678008  0.182891  0.000000  1
  Bi  Bi10  1  0.182891  0.678008  0.000000  1
  Bi  Bi11  1  0.250395  0.250395  0.000000  1
  Bi  Bi12  1  0.749605  0.749605  0.000000  1
  Bi  Bi13  1  0.750000  0.250000  0.500000  1
  Bi  Bi14  1  0.250000  0.750000  0.500000  1
