# generated using pymatgen
data_MgAl5(PdPt)5
_symmetry_space_group_name_H-M   'P 1'
_cell_length_a   4.10271800
_cell_length_b   5.43050290
_cell_length_c   10.68628323
_cell_angle_alpha   89.38503366
_cell_angle_beta   90.00000000
_cell_angle_gamma   90.00000000
_symmetry_Int_Tables_number   1
_chemical_formula_structural   MgAl5(PdPt)5
_chemical_formula_sum   'Mg1 Al5 Pd5 Pt5'
_cell_volume   238.07477410
_cell_formula_units_Z   1
loop_
 _symmetry_equiv_pos_site_id
 _symmetry_equiv_pos_as_xyz
  1  'x, y, z'
loop_
 _atom_site_type_symbol
 _atom_site_label
 _atom_site_symmetry_multiplicity
 _atom_site_fract_x
 _atom_site_fract_y
 _atom_site_fract_z
 _atom_site_occupancy
  Mg  Mg0  1  0.500000  0.177169  0.640488  1
  Al  Al1  1  0.500000  0.825894  0.359651  1
  Al  Al2  1  0.500000  0.676814  0.854915  1
  Al  Al3  1  0.500000  0.330077  0.141563  1
  Al  Al4  1  0.000000  0.483880  0.503326  1
  Al  Al5  1  0.000000  0.995914  0.998061  1
  Pd  Pd6  1  0.000000  0.433561  0.744810  1
  Pd  Pd7  1  0.000000  0.585713  0.267186  1
  Pd  Pd8  1  0.000000  0.929097  0.764272  1
  Pd  Pd9  1  0.000000  0.086174  0.229043  1
  Pd  Pd10  1  0.000000  0.499243  0.005210  1
  Pt  Pt11  1  0.500000  0.304548  0.386974  1
  Pt  Pt12  1  0.500000  0.686291  0.606688  1
  Pt  Pt13  1  0.500000  0.805755  0.107333  1
  Pt  Pt14  1  0.500000  0.198265  0.899726  1
  Pt  Pt15  1  0.000000  0.981606  0.490758  1
