# generated using pymatgen
data_Ce3Th7(Sn3P)2
_symmetry_space_group_name_H-M   'P 1'
_cell_length_a   9.50275800
_cell_length_b   9.50275814
_cell_length_c   6.58791600
_cell_angle_alpha   90.00000000
_cell_angle_beta   90.00000000
_cell_angle_gamma   119.99999950
_symmetry_Int_Tables_number   1
_chemical_formula_structural   Ce3Th7(Sn3P)2
_chemical_formula_sum   'Ce3 Th7 Sn6 P2'
_cell_volume   515.20258397
_cell_formula_units_Z   1
loop_
 _symmetry_equiv_pos_site_id
 _symmetry_equiv_pos_as_xyz
  1  'x, y, z'
loop_
 _atom_site_type_symbol
 _atom_site_label
 _atom_site_symmetry_multiplicity
 _atom_site_fract_x
 _atom_site_fract_y
 _atom_site_fract_z
 _atom_site_occupancy
  Ce  Ce0  1  0.333333  0.666667  0.000000  1
  Ce  Ce1  1  0.333333  0.666667  0.500000  1
  Ce  Ce2  1  0.666667  0.333333  0.500000  1
  Th  Th3  1  0.666667  0.333333  0.000000  1
  Th  Th4  1  0.750904  0.750652  0.750291  1
  Th  Th5  1  0.249348  0.000251  0.750291  1
  Th  Th6  1  0.999749  0.249096  0.750291  1
  Th  Th7  1  0.249348  0.249096  0.249709  1
  Th  Th8  1  0.750904  0.000251  0.249709  1
  Th  Th9  1  0.999749  0.750652  0.249709  1
  Sn  Sn10  1  0.393687  0.394268  0.749304  1
  Sn  Sn11  1  0.605732  0.999419  0.749304  1
  Sn  Sn12  1  0.000581  0.606313  0.749304  1
  Sn  Sn13  1  0.605732  0.606313  0.250696  1
  Sn  Sn14  1  0.393687  0.999419  0.250696  1
  Sn  Sn15  1  0.000581  0.394268  0.250696  1
  P  P16  1  0.000000  0.000000  0.000000  1
  P  P17  1  0.000000  0.000000  0.500000  1
