# generated using pymatgen
data_TbHo(Tc2P)4
_symmetry_space_group_name_H-M   'P 1'
_cell_length_a   7.41454981
_cell_length_b   7.41454981
_cell_length_c   3.95010500
_cell_angle_alpha   90.00000000
_cell_angle_beta   90.00000000
_cell_angle_gamma   89.94632493
_symmetry_Int_Tables_number   1
_chemical_formula_structural   TbHo(Tc2P)4
_chemical_formula_sum   'Tb1 Ho1 Tc8 P4'
_cell_volume   217.15909544
_cell_formula_units_Z   1
loop_
 _symmetry_equiv_pos_site_id
 _symmetry_equiv_pos_as_xyz
  1  'x, y, z'
loop_
 _atom_site_type_symbol
 _atom_site_label
 _atom_site_symmetry_multiplicity
 _atom_site_fract_x
 _atom_site_fract_y
 _atom_site_fract_z
 _atom_site_occupancy
  Tb  Tb0  1  0.500000  0.500000  0.000000  1
  Ho  Ho1  1  0.000000  0.000000  0.500000  1
  Tc  Tc2  1  0.582801  0.160174  0.500000  1
  Tc  Tc3  1  0.417199  0.839826  0.500000  1
  Tc  Tc4  1  0.082228  0.338865  0.000000  1
  Tc  Tc5  1  0.917772  0.661135  0.000000  1
  Tc  Tc6  1  0.160174  0.582801  0.500000  1
  Tc  Tc7  1  0.839826  0.417199  0.500000  1
  Tc  Tc8  1  0.338865  0.082228  0.000000  1
  Tc  Tc9  1  0.661135  0.917772  0.000000  1
  P  P10  1  0.712751  0.712751  0.500000  1
  P  P11  1  0.287249  0.287249  0.500000  1
  P  P12  1  0.211878  0.788122  0.000000  1
  P  P13  1  0.788122  0.211878  0.000000  1
