# generated using pymatgen
data_YHo3Ga18Ir5Pt
_symmetry_space_group_name_H-M   'P 1'
_cell_length_a   7.60972370
_cell_length_b   7.60973000
_cell_length_c   9.49310100
_cell_angle_alpha   89.97571048
_cell_angle_beta   89.97559478
_cell_angle_gamma   119.92362768
_symmetry_Int_Tables_number   1
_chemical_formula_structural   YHo3Ga18Ir5Pt
_chemical_formula_sum   'Y1 Ho3 Ga18 Ir5 Pt1'
_cell_volume   476.44241997
_cell_formula_units_Z   1
loop_
 _symmetry_equiv_pos_site_id
 _symmetry_equiv_pos_as_xyz
  1  'x, y, z'
loop_
 _atom_site_type_symbol
 _atom_site_label
 _atom_site_symmetry_multiplicity
 _atom_site_fract_x
 _atom_site_fract_y
 _atom_site_fract_z
 _atom_site_occupancy
  Y  Y0  1  0.995654  0.668441  0.251189  1
  Ho  Ho1  1  0.002308  0.330039  0.748793  1
  Ho  Ho2  1  0.669963  0.997697  0.251207  1
  Ho  Ho3  1  0.331549  0.004339  0.748803  1
  Ga  Ga4  1  0.128385  0.127171  0.250393  1
  Ga  Ga5  1  0.872856  0.871619  0.749608  1
  Ga  Ga6  1  0.002201  0.334341  0.081925  1
  Ga  Ga7  1  0.004936  0.668668  0.918074  1
  Ga  Ga8  1  0.001992  0.665658  0.580159  1
  Ga  Ga9  1  0.334373  0.998040  0.419879  1
  Ga  Ga10  1  0.998543  0.334139  0.419427  1
  Ga  Ga11  1  0.665830  0.001456  0.580588  1
  Ga  Ga12  1  0.665629  0.997799  0.918059  1
  Ga  Ga13  1  0.331365  0.995098  0.081888  1
  Ga  Ga14  1  0.331556  0.331713  0.564909  1
  Ga  Ga15  1  0.668259  0.668444  0.435109  1
  Ga  Ga16  1  0.668065  0.671279  0.068762  1
  Ga  Ga17  1  0.328722  0.331907  0.931220  1
  Ga  Ga18  1  0.340410  0.548585  0.250660  1
  Ga  Ga19  1  0.660219  0.455668  0.747507  1
  Ga  Ga20  1  0.544301  0.339755  0.252494  1
  Ga  Ga21  1  0.451410  0.659608  0.749340  1
  Ir  Ir22  1  0.329199  0.670812  0.999989  1
  Ir  Ir23  1  0.328537  0.671476  0.500012  1
  Ir  Ir24  1  0.671754  0.328218  0.500013  1
  Ir  Ir25  1  0.000321  0.999697  0.999987  1
  Ir  Ir26  1  0.000013  0.000007  0.500014  1
  Pt  Pt27  1  0.671656  0.328324  0.999991  1
