# generated using pymatgen
data_Nd12Cu3Si8Rh
_symmetry_space_group_name_H-M   'P 1'
_cell_length_a   4.27050100
_cell_length_b   11.69221420
_cell_length_c   11.80254832
_cell_angle_alpha   90.05312809
_cell_angle_beta   90.00000000
_cell_angle_gamma   90.00000000
_symmetry_Int_Tables_number   1
_chemical_formula_structural   Nd12Cu3Si8Rh
_chemical_formula_sum   'Nd12 Cu3 Si8 Rh1'
_cell_volume   589.32001543
_cell_formula_units_Z   1
loop_
 _symmetry_equiv_pos_site_id
 _symmetry_equiv_pos_as_xyz
  1  'x, y, z'
loop_
 _atom_site_type_symbol
 _atom_site_label
 _atom_site_symmetry_multiplicity
 _atom_site_fract_x
 _atom_site_fract_y
 _atom_site_fract_z
 _atom_site_occupancy
  Nd  Nd0  1  0.250000  0.379024  0.059995  1
  Nd  Nd1  1  0.750000  0.621760  0.943371  1
  Nd  Nd2  1  0.750000  0.881786  0.440965  1
  Nd  Nd3  1  0.250000  0.123857  0.559943  1
  Nd  Nd4  1  0.250000  0.697914  0.207222  1
  Nd  Nd5  1  0.750000  0.302720  0.790771  1
  Nd  Nd6  1  0.750000  0.197823  0.291827  1
  Nd  Nd7  1  0.250000  0.800387  0.706736  1
  Nd  Nd8  1  0.250000  0.437373  0.380644  1
  Nd  Nd9  1  0.750000  0.558337  0.621691  1
  Nd  Nd10  1  0.750000  0.937338  0.121157  1
  Nd  Nd11  1  0.250000  0.060546  0.880300  1
  Cu  Cu12  1  0.250000  0.135324  0.130513  1
  Cu  Cu13  1  0.750000  0.864706  0.869114  1
  Cu  Cu14  1  0.750000  0.636593  0.369630  1
  Si  Si15  1  0.250000  0.687509  0.470103  1
  Si  Si16  1  0.750000  0.313729  0.524190  1
  Si  Si17  1  0.750000  0.183232  0.027377  1
  Si  Si18  1  0.250000  0.816131  0.972037  1
  Si  Si19  1  0.250000  0.006521  0.302137  1
  Si  Si20  1  0.750000  0.990934  0.695276  1
  Si  Si21  1  0.750000  0.507536  0.197115  1
  Si  Si22  1  0.250000  0.492996  0.806449  1
  Rh  Rh23  1  0.250000  0.365924  0.631437  1
