# generated using pymatgen
data_CaPr3(Al8Pt3)3
_symmetry_space_group_name_H-M   'P 1'
_cell_length_a   7.54847255
_cell_length_b   7.56868584
_cell_length_c   13.36852000
_cell_angle_alpha   84.65596377
_cell_angle_beta   100.80260634
_cell_angle_gamma   119.71081236
_symmetry_Int_Tables_number   1
_chemical_formula_structural   CaPr3(Al8Pt3)3
_chemical_formula_sum   'Ca1 Pr3 Al24 Pt9'
_cell_volume   651.60804025
_cell_formula_units_Z   1
loop_
 _symmetry_equiv_pos_site_id
 _symmetry_equiv_pos_as_xyz
  1  'x, y, z'
loop_
 _atom_site_type_symbol
 _atom_site_label
 _atom_site_symmetry_multiplicity
 _atom_site_fract_x
 _atom_site_fract_y
 _atom_site_fract_z
 _atom_site_occupancy
  Ca  Ca0  1  0.233344  0.497964  0.193444  1
  Pr  Pr1  1  0.436836  0.830608  0.808700  1
  Pr  Pr2  1  0.562879  0.169132  0.192064  1
  Pr  Pr3  1  0.769154  0.502502  0.809090  1
  Al  Al4  1  0.479295  0.166061  0.946183  1
  Al  Al5  1  0.518655  0.831852  0.054606  1
  Al  Al6  1  0.021842  0.168293  0.560227  1
  Al  Al7  1  0.978350  0.831699  0.439611  1
  Al  Al8  1  0.354186  0.833428  0.558184  1
  Al  Al9  1  0.645922  0.166292  0.441919  1
  Al  Al10  1  0.618489  0.833153  0.332044  1
  Al  Al11  1  0.379991  0.165601  0.666884  1
  Al  Al12  1  0.055108  0.492863  0.666343  1
  Al  Al13  1  0.946276  0.508343  0.332284  1
  Al  Al14  1  0.730446  0.841019  0.664995  1
  Al  Al15  1  0.268578  0.160060  0.334088  1
  Al  Al16  1  0.148570  0.497911  0.949111  1
  Al  Al17  1  0.854218  0.501724  0.054144  1
  Al  Al18  1  0.819121  0.834113  0.956758  1
  Al  Al19  1  0.180669  0.166461  0.043831  1
  Al  Al20  1  0.313871  0.500567  0.440880  1
  Al  Al21  1  0.685867  0.499827  0.558496  1
  Al  Al22  1  0.100655  0.835198  0.183756  1
  Al  Al23  1  0.899746  0.164823  0.816006  1
  Al  Al24  1  0.303998  0.366454  0.814726  1
  Al  Al25  1  0.695049  0.633175  0.184524  1
  Al  Al26  1  0.102266  0.962282  0.815359  1
  Al  Al27  1  0.897932  0.039147  0.184189  1
  Pt  Pt28  1  0.384962  0.505334  0.635795  1
  Pt  Pt29  1  0.614526  0.494382  0.363502  1
  Pt  Pt30  1  0.171025  0.829591  0.999604  1
  Pt  Pt31  1  0.828294  0.169766  0.000385  1
  Pt  Pt32  1  0.293498  0.832434  0.363292  1
  Pt  Pt33  1  0.706175  0.167115  0.636240  1
  Pt  Pt34  1  0.046968  0.828099  0.635051  1
  Pt  Pt35  1  0.953105  0.173089  0.364053  1
  Pt  Pt36  1  0.500135  0.499640  0.999629  1
