# generated using pymatgen
data_Pr16Co3Ag4Os
_symmetry_space_group_name_H-M   'P 1'
_cell_length_a   9.90044058
_cell_length_b   9.90043955
_cell_length_c   9.90043994
_cell_angle_alpha   59.37869660
_cell_angle_beta   59.37869962
_cell_angle_gamma   59.37869975
_symmetry_Int_Tables_number   1
_chemical_formula_structural   Pr16Co3Ag4Os
_chemical_formula_sum   'Pr16 Co3 Ag4 Os1'
_cell_volume   676.49339024
_cell_formula_units_Z   1
loop_
 _symmetry_equiv_pos_site_id
 _symmetry_equiv_pos_as_xyz
  1  'x, y, z'
loop_
 _atom_site_type_symbol
 _atom_site_label
 _atom_site_symmetry_multiplicity
 _atom_site_fract_x
 _atom_site_fract_y
 _atom_site_fract_z
 _atom_site_occupancy
  Pr  Pr0  1  0.295351  0.899648  0.899648  1
  Pr  Pr1  1  0.688419  0.688419  0.312272  1
  Pr  Pr2  1  0.899648  0.899648  0.295351  1
  Pr  Pr3  1  0.308748  0.693588  0.308748  1
  Pr  Pr4  1  0.693588  0.308748  0.308748  1
  Pr  Pr5  1  0.061333  0.439357  0.439357  1
  Pr  Pr6  1  0.444713  0.059705  0.059705  1
  Pr  Pr7  1  0.059705  0.059705  0.444713  1
  Pr  Pr8  1  0.308748  0.308748  0.693588  1
  Pr  Pr9  1  0.439357  0.061333  0.439357  1
  Pr  Pr10  1  0.903451  0.903451  0.903451  1
  Pr  Pr11  1  0.439357  0.439357  0.061333  1
  Pr  Pr12  1  0.312272  0.688419  0.688419  1
  Pr  Pr13  1  0.688419  0.312272  0.688419  1
  Pr  Pr14  1  0.059705  0.444713  0.059705  1
  Pr  Pr15  1  0.899648  0.295351  0.899648  1
  Co  Co16  1  0.108149  0.108149  0.671704  1
  Co  Co17  1  0.671704  0.108149  0.108149  1
  Co  Co18  1  0.108149  0.671704  0.108149  1
  Ag  Ag19  1  0.670678  0.670678  0.988950  1
  Ag  Ag20  1  0.988950  0.670678  0.670678  1
  Ag  Ag21  1  0.670678  0.988950  0.670678  1
  Ag  Ag22  1  0.669492  0.669492  0.669492  1
  Os  Os23  1  0.109740  0.109740  0.109740  1
