# generated using pymatgen
data_TmLu2Mg2PaNi4
_symmetry_space_group_name_H-M   'P 1'
_cell_length_a   7.39257767
_cell_length_b   7.41532751
_cell_length_c   3.50431900
_cell_angle_alpha   90.00000000
_cell_angle_beta   90.00000000
_cell_angle_gamma   92.03438968
_symmetry_Int_Tables_number   1
_chemical_formula_structural   TmLu2Mg2PaNi4
_chemical_formula_sum   'Tm1 Lu2 Mg2 Pa1 Ni4'
_cell_volume   191.98002534
_cell_formula_units_Z   1
loop_
 _symmetry_equiv_pos_site_id
 _symmetry_equiv_pos_as_xyz
  1  'x, y, z'
loop_
 _atom_site_type_symbol
 _atom_site_label
 _atom_site_symmetry_multiplicity
 _atom_site_fract_x
 _atom_site_fract_y
 _atom_site_fract_z
 _atom_site_occupancy
  Tm  Tm0  1  0.834840  0.668599  0.500000  1
  Lu  Lu1  1  0.328297  0.828574  0.500000  1
  Lu  Lu2  1  0.168291  0.333810  0.500000  1
  Mg  Mg3  1  0.006380  0.998580  0.000000  1
  Mg  Mg4  1  0.497433  0.506280  0.000000  1
  Pa  Pa5  1  0.665102  0.166129  0.500000  1
  Ni  Ni6  1  0.119158  0.616647  0.000000  1
  Ni  Ni7  1  0.860818  0.359077  0.000000  1
  Ni  Ni8  1  0.631090  0.890288  0.000000  1
  Ni  Ni9  1  0.388592  0.132016  0.000000  1
