# generated using pymatgen
data_Y9Zn4
_symmetry_space_group_name_H-M   'P 1'
_cell_length_a   8.64117676
_cell_length_b   8.64117636
_cell_length_c   8.64130702
_cell_angle_alpha   94.95293933
_cell_angle_beta   94.95193042
_cell_angle_gamma   145.82646941
_symmetry_Int_Tables_number   1
_chemical_formula_structural   Y9Zn4
_chemical_formula_sum   'Y9 Zn4'
_cell_volume   346.43825627
_cell_formula_units_Z   1
loop_
 _symmetry_equiv_pos_site_id
 _symmetry_equiv_pos_as_xyz
  1  'x, y, z'
loop_
 _atom_site_type_symbol
 _atom_site_label
 _atom_site_symmetry_multiplicity
 _atom_site_fract_x
 _atom_site_fract_y
 _atom_site_fract_z
 _atom_site_occupancy
  Y  Y0  1  0.499999  0.499999  0.000000  1
  Y  Y1  1  0.182156  0.884840  0.066998  1
  Y  Y2  1  0.115158  0.182159  0.297317  1
  Y  Y3  1  0.882872  0.402416  0.285288  1
  Y  Y4  1  0.597589  0.882872  0.480462  1
  Y  Y5  1  0.402410  0.117127  0.519537  1
  Y  Y6  1  0.117127  0.597583  0.714712  1
  Y  Y7  1  0.884841  0.817840  0.702683  1
  Y  Y8  1  0.817843  0.115159  0.933002  1
  Zn  Zn9  1  0.394606  0.736737  0.131344  1
  Zn  Zn10  1  0.736733  0.605398  0.342132  1
  Zn  Zn11  1  0.263266  0.394601  0.657868  1
  Zn  Zn12  1  0.605393  0.263262  0.868656  1
