# generated using pymatgen
data_Nd2B2Pd3Pt3Au2
_symmetry_space_group_name_H-M   'P 1'
_cell_length_a   5.56048325
_cell_length_b   5.55944186
_cell_length_c   7.70701300
_cell_angle_alpha   90.00000000
_cell_angle_beta   90.00000000
_cell_angle_gamma   119.97196656
_symmetry_Int_Tables_number   1
_chemical_formula_structural   Nd2B2Pd3Pt3Au2
_chemical_formula_sum   'Nd2 B2 Pd3 Pt3 Au2'
_cell_volume   206.38734511
_cell_formula_units_Z   1
loop_
 _symmetry_equiv_pos_site_id
 _symmetry_equiv_pos_as_xyz
  1  'x, y, z'
loop_
 _atom_site_type_symbol
 _atom_site_label
 _atom_site_symmetry_multiplicity
 _atom_site_fract_x
 _atom_site_fract_y
 _atom_site_fract_z
 _atom_site_occupancy
  Nd  Nd0  1  0.000000  0.000000  0.504433  1
  Nd  Nd1  1  0.000000  0.000000  0.000818  1
  B  B2  1  0.333013  0.671554  0.998632  1
  B  B3  1  0.666987  0.328446  0.998632  1
  Pd  Pd4  1  0.000000  0.500000  0.196524  1
  Pd  Pd5  1  0.500000  0.500000  0.192424  1
  Pd  Pd6  1  0.500000  0.500000  0.805179  1
  Pt  Pt7  1  0.500000  0.000000  0.192278  1
  Pt  Pt8  1  0.500000  0.000000  0.804431  1
  Pt  Pt9  1  0.000000  0.500000  0.809328  1
  Au  Au10  1  0.333062  0.665762  0.498660  1
  Au  Au11  1  0.666938  0.334238  0.498660  1
