# generated using pymatgen
data_Er4Sc3AlRu4
_symmetry_space_group_name_H-M   'P 1'
_cell_length_a   4.05198800
_cell_length_b   7.19730643
_cell_length_c   8.53023722
_cell_angle_alpha   89.89217775
_cell_angle_beta   90.00000000
_cell_angle_gamma   90.00000000
_symmetry_Int_Tables_number   1
_chemical_formula_structural   Er4Sc3AlRu4
_chemical_formula_sum   'Er4 Sc3 Al1 Ru4'
_cell_volume   248.77027356
_cell_formula_units_Z   1
loop_
 _symmetry_equiv_pos_site_id
 _symmetry_equiv_pos_as_xyz
  1  'x, y, z'
loop_
 _atom_site_type_symbol
 _atom_site_label
 _atom_site_symmetry_multiplicity
 _atom_site_fract_x
 _atom_site_fract_y
 _atom_site_fract_z
 _atom_site_occupancy
  Er  Er0  1  0.250000  0.472232  0.175951  1
  Er  Er1  1  0.750000  0.519408  0.817288  1
  Er  Er2  1  0.750000  0.045479  0.667868  1
  Er  Er3  1  0.250000  0.973473  0.331707  1
  Sc  Sc4  1  0.250000  0.853726  0.937266  1
  Sc  Sc5  1  0.750000  0.141429  0.059180  1
  Sc  Sc6  1  0.750000  0.633035  0.448065  1
  Al  Al7  1  0.250000  0.361656  0.559058  1
  Ru  Ru8  1  0.250000  0.731641  0.627251  1
  Ru  Ru9  1  0.750000  0.268705  0.379528  1
  Ru  Ru10  1  0.750000  0.763816  0.128810  1
  Ru  Ru11  1  0.250000  0.235402  0.868028  1
