# generated using pymatgen
data_Ce3Ti(Co4P3)2
_symmetry_space_group_name_H-M   'P 1'
_cell_length_a   3.75831600
_cell_length_b   10.65379100
_cell_length_c   12.39399500
_cell_angle_alpha   90.00000000
_cell_angle_beta   90.00000000
_cell_angle_gamma   90.00000000
_symmetry_Int_Tables_number   1
_chemical_formula_structural   Ce3Ti(Co4P3)2
_chemical_formula_sum   'Ce6 Ti2 Co16 P12'
_cell_volume   496.25944130
_cell_formula_units_Z   2
loop_
 _symmetry_equiv_pos_site_id
 _symmetry_equiv_pos_as_xyz
  1  'x, y, z'
loop_
 _atom_site_type_symbol
 _atom_site_label
 _atom_site_symmetry_multiplicity
 _atom_site_fract_x
 _atom_site_fract_y
 _atom_site_fract_z
 _atom_site_occupancy
  Ce  Ce0  1  0.000000  0.500000  0.525975  1
  Ce  Ce1  1  0.500000  0.000000  0.474025  1
  Ce  Ce2  1  0.500000  0.820417  0.207139  1
  Ce  Ce3  1  0.500000  0.179583  0.207139  1
  Ce  Ce4  1  0.000000  0.679583  0.792861  1
  Ce  Ce5  1  0.000000  0.320417  0.792861  1
  Ti  Ti6  1  0.500000  0.500000  0.150294  1
  Ti  Ti7  1  0.000000  0.000000  0.849706  1
  Co  Co8  1  0.500000  0.500000  0.702202  1
  Co  Co9  1  0.000000  0.000000  0.297798  1
  Co  Co10  1  0.000000  0.500000  0.986808  1
  Co  Co11  1  0.500000  0.000000  0.013192  1
  Co  Co12  1  0.500000  0.332406  0.993948  1
  Co  Co13  1  0.500000  0.667594  0.993948  1
  Co  Co14  1  0.000000  0.167594  0.006052  1
  Co  Co15  1  0.000000  0.832406  0.006052  1
  Co  Co16  1  0.500000  0.299602  0.429977  1
  Co  Co17  1  0.500000  0.700398  0.429977  1
  Co  Co18  1  0.000000  0.200398  0.570023  1
  Co  Co19  1  0.000000  0.799602  0.570023  1
  Co  Co20  1  0.500000  0.879129  0.710557  1
  Co  Co21  1  0.500000  0.120871  0.710557  1
  Co  Co22  1  0.000000  0.620871  0.289443  1
  Co  Co23  1  0.000000  0.379129  0.289443  1
  P  P24  1  0.500000  0.500000  0.886325  1
  P  P25  1  0.000000  0.000000  0.113675  1
  P  P26  1  0.500000  0.500000  0.348787  1
  P  P27  1  0.000000  0.000000  0.651213  1
  P  P28  1  0.500000  0.305710  0.612809  1
  P  P29  1  0.500000  0.694290  0.612809  1
  P  P30  1  0.000000  0.194290  0.387191  1
  P  P31  1  0.000000  0.805710  0.387191  1
  P  P32  1  0.500000  0.843607  0.895204  1
  P  P33  1  0.500000  0.156393  0.895204  1
  P  P34  1  0.000000  0.656393  0.104796  1
  P  P35  1  0.000000  0.343607  0.104796  1
