# generated using pymatgen
data_Sm8Tm12Si15Au
_symmetry_space_group_name_H-M   'P 1'
_cell_length_a   7.40467951
_cell_length_b   7.69742000
_cell_length_c   14.64908177
_cell_angle_alpha   89.83785091
_cell_angle_beta   89.50443593
_cell_angle_gamma   90.16208856
_symmetry_Int_Tables_number   1
_chemical_formula_structural   Sm8Tm12Si15Au
_chemical_formula_sum   'Sm8 Tm12 Si15 Au1'
_cell_volume   834.91468772
_cell_formula_units_Z   1
loop_
 _symmetry_equiv_pos_site_id
 _symmetry_equiv_pos_as_xyz
  1  'x, y, z'
loop_
 _atom_site_type_symbol
 _atom_site_label
 _atom_site_symmetry_multiplicity
 _atom_site_fract_x
 _atom_site_fract_y
 _atom_site_fract_z
 _atom_site_occupancy
  Sm  Sm0  1  0.017783  0.179122  0.098861  1
  Sm  Sm1  1  0.982290  0.822419  0.903143  1
  Sm  Sm2  1  0.482046  0.678306  0.902979  1
  Sm  Sm3  1  0.984174  0.827208  0.598675  1
  Sm  Sm4  1  0.516373  0.320847  0.097267  1
  Sm  Sm5  1  0.013865  0.175807  0.399318  1
  Sm  Sm6  1  0.515058  0.320561  0.399355  1
  Sm  Sm7  1  0.487663  0.679997  0.599667  1
  Tm  Tm8  1  0.162609  0.508818  0.749790  1
  Tm  Tm9  1  0.838764  0.491935  0.251177  1
  Tm  Tm10  1  0.338387  0.005657  0.249270  1
  Tm  Tm11  1  0.663454  0.990306  0.750611  1
  Tm  Tm12  1  0.334316  0.178072  0.623328  1
  Tm  Tm13  1  0.667987  0.822472  0.375403  1
  Tm  Tm14  1  0.171393  0.672647  0.375669  1
  Tm  Tm15  1  0.673360  0.822806  0.123459  1
  Tm  Tm16  1  0.828608  0.325509  0.622930  1
  Tm  Tm17  1  0.326920  0.178009  0.877372  1
  Tm  Tm18  1  0.827302  0.320224  0.877910  1
  Tm  Tm19  1  0.171723  0.677800  0.123230  1
  Si  Si20  1  0.035573  0.114912  0.751340  1
  Si  Si21  1  0.966795  0.887255  0.249934  1
  Si  Si22  1  0.466565  0.610402  0.248139  1
  Si  Si23  1  0.536295  0.389274  0.752183  1
  Si  Si24  1  0.279340  0.878330  0.751105  1
  Si  Si25  1  0.718679  0.124830  0.248412  1
  Si  Si26  1  0.220805  0.372606  0.248025  1
  Si  Si27  1  0.780683  0.623694  0.753175  1
  Si  Si28  1  0.836936  0.533897  0.458745  1
  Si  Si29  1  0.342879  0.965936  0.460356  1
  Si  Si30  1  0.846616  0.533007  0.038646  1
  Si  Si31  1  0.655753  0.034284  0.537702  1
  Si  Si32  1  0.151412  0.467185  0.961718  1
  Si  Si33  1  0.652061  0.030943  0.960753  1
  Si  Si34  1  0.346888  0.967163  0.039232  1
  Au  Au35  1  0.158645  0.467764  0.541123  1
