# generated using pymatgen
data_Sm4Dy4Sc11Si16W
_symmetry_space_group_name_H-M   'P 1'
_cell_length_a   7.12542569
_cell_length_b   7.36838232
_cell_length_c   13.95717349
_cell_angle_alpha   90.19996297
_cell_angle_beta   89.67209916
_cell_angle_gamma   89.71129586
_symmetry_Int_Tables_number   1
_chemical_formula_structural   Sm4Dy4Sc11Si16W
_chemical_formula_sum   'Sm4 Dy4 Sc11 Si16 W1'
_cell_volume   732.76569553
_cell_formula_units_Z   1
loop_
 _symmetry_equiv_pos_site_id
 _symmetry_equiv_pos_as_xyz
  1  'x, y, z'
loop_
 _atom_site_type_symbol
 _atom_site_label
 _atom_site_symmetry_multiplicity
 _atom_site_fract_x
 _atom_site_fract_y
 _atom_site_fract_z
 _atom_site_occupancy
  Sm  Sm0  1  0.011683  0.172918  0.097565  1
  Sm  Sm1  1  0.989117  0.827139  0.898689  1
  Sm  Sm2  1  0.487551  0.675337  0.899596  1
  Sm  Sm3  1  0.992488  0.830182  0.594752  1
  Dy  Dy4  1  0.513007  0.324241  0.097891  1
  Dy  Dy5  1  0.011182  0.175650  0.402892  1
  Dy  Dy6  1  0.506818  0.324234  0.409538  1
  Dy  Dy7  1  0.487922  0.675273  0.596131  1
  Sc  Sc8  1  0.163595  0.493288  0.744313  1
  Sc  Sc9  1  0.837892  0.498036  0.252382  1
  Sc  Sc10  1  0.337494  0.002414  0.252798  1
  Sc  Sc11  1  0.657709  0.002956  0.746980  1
  Sc  Sc12  1  0.664788  0.825564  0.378971  1
  Sc  Sc13  1  0.168938  0.676622  0.378440  1
  Sc  Sc14  1  0.669283  0.824185  0.125513  1
  Sc  Sc15  1  0.832553  0.324348  0.622850  1
  Sc  Sc16  1  0.333446  0.177287  0.874552  1
  Sc  Sc17  1  0.829457  0.323542  0.871235  1
  Sc  Sc18  1  0.170522  0.675897  0.126351  1
  Si  Si19  1  0.043591  0.124001  0.744384  1
  Si  Si20  1  0.963717  0.882714  0.252705  1
  Si  Si21  1  0.466847  0.617997  0.251355  1
  Si  Si22  1  0.530559  0.372393  0.744671  1
  Si  Si23  1  0.289204  0.884303  0.744899  1
  Si  Si24  1  0.710099  0.125525  0.252215  1
  Si  Si25  1  0.216469  0.375004  0.251656  1
  Si  Si26  1  0.784011  0.621477  0.745573  1
  Si  Si27  1  0.177214  0.448970  0.540972  1
  Si  Si28  1  0.841472  0.530438  0.459293  1
  Si  Si29  1  0.335165  0.970679  0.470366  1
  Si  Si30  1  0.844769  0.535220  0.039413  1
  Si  Si31  1  0.643310  0.036536  0.545261  1
  Si  Si32  1  0.151988  0.464982  0.959312  1
  Si  Si33  1  0.657698  0.039082  0.959441  1
  Si  Si34  1  0.345167  0.964109  0.039404  1
  W  W35  1  0.333275  0.177460  0.627642  1
