# generated using pymatgen
data_CsNd(NbCl3)6
_symmetry_space_group_name_H-M   'P 1'
_cell_length_a   10.39221704
_cell_length_b   10.39221715
_cell_length_c   10.39221703
_cell_angle_alpha   55.25065069
_cell_angle_beta   55.25064764
_cell_angle_gamma   55.25064952
_symmetry_Int_Tables_number   1
_chemical_formula_structural   CsNd(NbCl3)6
_chemical_formula_sum   'Cs1 Nd1 Nb6 Cl18'
_cell_volume   706.00877444
_cell_formula_units_Z   1
loop_
 _symmetry_equiv_pos_site_id
 _symmetry_equiv_pos_as_xyz
  1  'x, y, z'
loop_
 _atom_site_type_symbol
 _atom_site_label
 _atom_site_symmetry_multiplicity
 _atom_site_fract_x
 _atom_site_fract_y
 _atom_site_fract_z
 _atom_site_occupancy
  Cs  Cs0  1  0.222630  0.222630  0.222630  1
  Nd  Nd1  1  0.497992  0.497992  0.497992  1
  Nb  Nb2  1  0.802506  0.147151  0.914368  1
  Nb  Nb3  1  0.914368  0.802506  0.147151  1
  Nb  Nb4  1  0.147151  0.914368  0.802506  1
  Nb  Nb5  1  0.198926  0.853311  0.084218  1
  Nb  Nb6  1  0.084218  0.198926  0.853311  1
  Nb  Nb7  1  0.853311  0.084218  0.198926  1
  Cl  Cl8  1  0.864446  0.407429  0.729896  1
  Cl  Cl9  1  0.729896  0.864446  0.407429  1
  Cl  Cl10  1  0.407429  0.729896  0.864446  1
  Cl  Cl11  1  0.134535  0.593065  0.272340  1
  Cl  Cl12  1  0.272340  0.134535  0.593065  1
  Cl  Cl13  1  0.593065  0.272340  0.134535  1
  Cl  Cl14  1  0.540748  0.337586  0.805148  1
  Cl  Cl15  1  0.805148  0.540748  0.337586  1
  Cl  Cl16  1  0.337586  0.805148  0.540748  1
  Cl  Cl17  1  0.457665  0.665475  0.194305  1
  Cl  Cl18  1  0.194305  0.457665  0.665475  1
  Cl  Cl19  1  0.665475  0.194305  0.457665  1
  Cl  Cl20  1  0.667536  0.938810  0.070921  1
  Cl  Cl21  1  0.070921  0.667536  0.938810  1
  Cl  Cl22  1  0.938810  0.070921  0.667536  1
  Cl  Cl23  1  0.335857  0.060264  0.924009  1
  Cl  Cl24  1  0.924009  0.335857  0.060264  1
  Cl  Cl25  1  0.060264  0.924009  0.335857  1
