# generated using pymatgen
data_HoHf8Sc3Sn10
_symmetry_space_group_name_H-M   'P 1'
_cell_length_a   11.00738861
_cell_length_b   11.02629705
_cell_length_c   11.02629700
_cell_angle_alpha   149.08335364
_cell_angle_beta   132.26520686
_cell_angle_gamma   57.97868453
_symmetry_Int_Tables_number   1
_chemical_formula_structural   HoHf8Sc3Sn10
_chemical_formula_sum   'Ho1 Hf8 Sc3 Sn10'
_cell_volume   504.98027556
_cell_formula_units_Z   1
loop_
 _symmetry_equiv_pos_site_id
 _symmetry_equiv_pos_as_xyz
  1  'x, y, z'
loop_
 _atom_site_type_symbol
 _atom_site_label
 _atom_site_symmetry_multiplicity
 _atom_site_fract_x
 _atom_site_fract_y
 _atom_site_fract_z
 _atom_site_occupancy
  Ho  Ho0  1  0.254959  0.143509  0.111449  1
  Hf  Hf1  1  0.310974  0.561220  0.249688  1
  Hf  Hf2  1  0.687689  0.439051  0.748801  1
  Hf  Hf3  1  0.687689  0.938888  0.248638  1
  Hf  Hf4  1  0.310974  0.061285  0.749754  1
  Hf  Hf5  1  0.673132  0.434765  0.238368  1
  Hf  Hf6  1  0.327371  0.565104  0.762264  1
  Hf  Hf7  1  0.195174  0.934583  0.260592  1
  Hf  Hf8  1  0.806113  0.065414  0.740699  1
  Sc  Sc9  1  0.745429  0.856260  0.889170  1
  Sc  Sc10  1  0.031338  0.644163  0.387175  1
  Sc  Sc11  1  0.967550  0.356618  0.610932  1
  Sn  Sn12  1  0.594025  0.290023  0.304001  1
  Sn  Sn13  1  0.409206  0.711404  0.697801  1
  Sn  Sn14  1  0.985698  0.788859  0.196839  1
  Sn  Sn15  1  0.009722  0.212496  0.797226  1
  Sn  Sn16  1  0.998656  0.250018  0.250693  1
  Sn  Sn17  1  0.998656  0.747963  0.748638  1
  Sn  Sn18  1  0.467522  0.065923  0.401599  1
  Sn  Sn19  1  0.538219  0.932342  0.605879  1
  Sn  Sn20  1  0.672809  0.567811  0.104997  1
  Sn  Sn21  1  0.327095  0.432299  0.894797  1
