# generated using pymatgen
data_DyTm3Co12(Ni2P3)4
_symmetry_space_group_name_H-M   'P 1'
_cell_length_a   3.66213800
_cell_length_b   10.22618962
_cell_length_c   11.80240472
_cell_angle_alpha   89.96006230
_cell_angle_beta   90.00000000
_cell_angle_gamma   90.00000000
_symmetry_Int_Tables_number   1
_chemical_formula_structural   DyTm3Co12(Ni2P3)4
_chemical_formula_sum   'Dy1 Tm3 Co12 Ni8 P12'
_cell_volume   441.99661635
_cell_formula_units_Z   1
loop_
 _symmetry_equiv_pos_site_id
 _symmetry_equiv_pos_as_xyz
  1  'x, y, z'
loop_
 _atom_site_type_symbol
 _atom_site_label
 _atom_site_symmetry_multiplicity
 _atom_site_fract_x
 _atom_site_fract_y
 _atom_site_fract_z
 _atom_site_occupancy
  Dy  Dy0  1  0.750000  0.081337  0.796348  1
  Tm  Tm1  1  0.250000  0.581035  0.703748  1
  Tm  Tm2  1  0.250000  0.918757  0.203793  1
  Tm  Tm3  1  0.750000  0.418969  0.296161  1
  Co  Co4  1  0.250000  0.222495  0.176351  1
  Co  Co5  1  0.250000  0.278664  0.675786  1
  Co  Co6  1  0.750000  0.777443  0.823968  1
  Co  Co7  1  0.750000  0.721980  0.323848  1
  Co  Co8  1  0.250000  0.879862  0.697565  1
  Co  Co9  1  0.250000  0.619188  0.198260  1
  Co  Co10  1  0.750000  0.119307  0.301697  1
  Co  Co11  1  0.750000  0.381573  0.801980  1
  Co  Co12  1  0.250000  0.467499  0.932724  1
  Co  Co13  1  0.250000  0.033150  0.431707  1
  Co  Co14  1  0.750000  0.533258  0.067754  1
  Co  Co15  1  0.750000  0.966235  0.566707  1
  Ni  Ni16  1  0.250000  0.713442  0.990555  1
  Ni  Ni17  1  0.250000  0.786079  0.489751  1
  Ni  Ni18  1  0.750000  0.286544  0.009989  1
  Ni  Ni19  1  0.750000  0.213636  0.509909  1
  Ni  Ni20  1  0.250000  0.408763  0.484183  1
  Ni  Ni21  1  0.250000  0.091294  0.985504  1
  Ni  Ni22  1  0.750000  0.591186  0.515654  1
  Ni  Ni23  1  0.750000  0.908097  0.016291  1
  P  P24  1  0.250000  0.420470  0.113559  1
  P  P25  1  0.250000  0.079616  0.612294  1
  P  P26  1  0.750000  0.579750  0.886732  1
  P  P27  1  0.750000  0.920337  0.386022  1
  P  P28  1  0.250000  0.271752  0.865772  1
  P  P29  1  0.250000  0.229644  0.365189  1
  P  P30  1  0.750000  0.729418  0.135000  1
  P  P31  1  0.750000  0.770355  0.634734  1
  P  P32  1  0.250000  0.604449  0.387277  1
  P  P33  1  0.250000  0.894341  0.887680  1
  P  P34  1  0.750000  0.395672  0.612734  1
  P  P35  1  0.750000  0.104404  0.112773  1
