# generated using pymatgen
data_NaLi2V2Ni9P7
_symmetry_space_group_name_H-M   'P 1'
_cell_length_a   9.09749440
_cell_length_b   9.09225797
_cell_length_c   3.60732200
_cell_angle_alpha   90.00000000
_cell_angle_beta   90.00000000
_cell_angle_gamma   119.89823443
_symmetry_Int_Tables_number   1
_chemical_formula_structural   NaLi2V2Ni9P7
_chemical_formula_sum   'Na1 Li2 V2 Ni9 P7'
_cell_volume   258.67444504
_cell_formula_units_Z   1
loop_
 _symmetry_equiv_pos_site_id
 _symmetry_equiv_pos_as_xyz
  1  'x, y, z'
loop_
 _atom_site_type_symbol
 _atom_site_label
 _atom_site_symmetry_multiplicity
 _atom_site_fract_x
 _atom_site_fract_y
 _atom_site_fract_z
 _atom_site_occupancy
  Na  Na0  1  0.331796  0.663697  0.000000  1
  Li  Li1  1  0.222720  0.102128  0.500000  1
  Li  Li2  1  0.667515  0.334684  0.500000  1
  V  V3  1  0.874465  0.782087  0.500000  1
  V  V4  1  0.900598  0.120044  0.500000  1
  Ni  Ni5  1  0.712633  0.877491  0.000000  1
  Ni  Ni6  1  0.164669  0.279277  0.000000  1
  Ni  Ni7  1  0.123768  0.844125  0.000000  1
  Ni  Ni8  1  0.628274  0.568130  0.000000  1
  Ni  Ni9  1  0.938750  0.372195  0.000000  1
  Ni  Ni10  1  0.435640  0.062406  0.000000  1
  Ni  Ni11  1  0.562286  0.951801  0.500000  1
  Ni  Ni12  1  0.389301  0.431121  0.500000  1
  Ni  Ni13  1  0.047252  0.612134  0.500000  1
  P  P14  1  0.590278  0.709828  0.500000  1
  P  P15  1  0.116920  0.405301  0.500000  1
  P  P16  1  0.289434  0.877192  0.500000  1
  P  P17  1  0.993322  0.997591  0.000000  1
  P  P18  1  0.881157  0.586443  0.000000  1
  P  P19  1  0.704004  0.121504  0.000000  1
  P  P20  1  0.425213  0.300819  0.000000  1
