# generated using pymatgen
data_La4B16Os5Ru9
_symmetry_space_group_name_H-M   'P 1'
_cell_length_a   6.49780502
_cell_length_b   6.49117802
_cell_length_c   10.17060300
_cell_angle_alpha   90.00000000
_cell_angle_beta   90.00000000
_cell_angle_gamma   90.00851343
_symmetry_Int_Tables_number   1
_chemical_formula_structural   La4B16Os5Ru9
_chemical_formula_sum   'La4 B16 Os5 Ru9'
_cell_volume   428.97984936
_cell_formula_units_Z   1
loop_
 _symmetry_equiv_pos_site_id
 _symmetry_equiv_pos_as_xyz
  1  'x, y, z'
loop_
 _atom_site_type_symbol
 _atom_site_label
 _atom_site_symmetry_multiplicity
 _atom_site_fract_x
 _atom_site_fract_y
 _atom_site_fract_z
 _atom_site_occupancy
  La  La0  1  0.733306  0.878902  0.000000  1
  La  La1  1  0.118105  0.734060  0.500000  1
  La  La2  1  0.881655  0.266320  0.500000  1
  La  La3  1  0.266895  0.118354  0.000000  1
  B  B4  1  0.499823  0.999995  0.589663  1
  B  B5  1  0.499823  0.999995  0.410337  1
  B  B6  1  0.897668  0.275177  0.168545  1
  B  B7  1  0.102175  0.726462  0.832778  1
  B  B8  1  0.500173  0.499843  0.340618  1
  B  B9  1  0.500477  0.500667  0.841093  1
  B  B10  1  0.273068  0.102186  0.667323  1
  B  B11  1  0.102175  0.726462  0.167222  1
  B  B12  1  0.273068  0.102186  0.332677  1
  B  B13  1  0.897668  0.275177  0.831455  1
  B  B14  1  0.500173  0.499843  0.659382  1
  B  B15  1  0.500477  0.500667  0.158907  1
  B  B16  1  0.999891  0.499398  0.910556  1
  B  B17  1  0.726875  0.897730  0.667393  1
  B  B18  1  0.726875  0.897730  0.332607  1
  B  B19  1  0.999891  0.499398  0.089444  1
  Os  Os20  1  0.399405  0.287084  0.500000  1
  Os  Os21  1  0.599878  0.713002  0.500000  1
  Os  Os22  1  0.286494  0.600292  0.000000  1
  Os  Os23  1  0.999883  0.000238  0.249729  1
  Os  Os24  1  0.999883  0.000238  0.750271  1
  Ru  Ru25  1  0.204830  0.399337  0.751787  1
  Ru  Ru26  1  0.399369  0.795302  0.251575  1
  Ru  Ru27  1  0.204830  0.399337  0.248213  1
  Ru  Ru28  1  0.601019  0.204356  0.748256  1
  Ru  Ru29  1  0.713305  0.400211  0.000000  1
  Ru  Ru30  1  0.795230  0.600198  0.248011  1
  Ru  Ru31  1  0.795230  0.600198  0.751989  1
  Ru  Ru32  1  0.399369  0.795302  0.748425  1
  Ru  Ru33  1  0.601019  0.204356  0.251744  1
