# generated using pymatgen
data_SrSb12(IrRu)2
_symmetry_space_group_name_H-M   'P 1'
_cell_length_a   8.15697757
_cell_length_b   8.17536016
_cell_length_c   8.15697626
_cell_angle_alpha   109.45954913
_cell_angle_beta   109.38646908
_cell_angle_gamma   109.47637114
_symmetry_Int_Tables_number   1
_chemical_formula_structural   SrSb12(IrRu)2
_chemical_formula_sum   'Sr1 Sb12 Ir2 Ru2'
_cell_volume   419.20985221
_cell_formula_units_Z   1
loop_
 _symmetry_equiv_pos_site_id
 _symmetry_equiv_pos_as_xyz
  1  'x, y, z'
loop_
 _atom_site_type_symbol
 _atom_site_label
 _atom_site_symmetry_multiplicity
 _atom_site_fract_x
 _atom_site_fract_y
 _atom_site_fract_z
 _atom_site_occupancy
  Sr  Sr0  1  0.000000  0.000000  0.000000  1
  Sb  Sb1  1  0.155646  0.498305  0.342659  1
  Sb  Sb2  1  0.501879  0.660873  0.845146  1
  Sb  Sb3  1  0.342907  0.844892  0.184263  1
  Sb  Sb4  1  0.815726  0.660873  0.158994  1
  Sb  Sb5  1  0.660630  0.844892  0.501985  1
  Sb  Sb6  1  0.184274  0.339127  0.841006  1
  Sb  Sb7  1  0.657093  0.155108  0.815737  1
  Sb  Sb8  1  0.339370  0.155108  0.498015  1
  Sb  Sb9  1  0.498121  0.339127  0.154854  1
  Sb  Sb10  1  0.844354  0.501695  0.657341  1
  Sb  Sb11  1  0.841794  0.181334  0.339538  1
  Sb  Sb12  1  0.158206  0.818666  0.660462  1
  Ir  Ir13  1  0.500000  0.500000  0.500000  1
  Ir  Ir14  1  0.000000  0.500000  0.000000  1
  Ru  Ru15  1  0.500000  0.000000  0.000000  1
  Ru  Ru16  1  0.000000  0.000000  0.500000  1
