# generated using pymatgen
data_Tb3Y5(PtI6)2
_symmetry_space_group_name_H-M   'P 1'
_cell_length_a   4.23320300
_cell_length_b   14.05180280
_cell_length_c   14.82424200
_cell_angle_alpha   90.01935574
_cell_angle_beta   90.00000000
_cell_angle_gamma   90.00000000
_symmetry_Int_Tables_number   1
_chemical_formula_structural   Tb3Y5(PtI6)2
_chemical_formula_sum   'Tb3 Y5 Pt2 I12'
_cell_volume   881.80714394
_cell_formula_units_Z   1
loop_
 _symmetry_equiv_pos_site_id
 _symmetry_equiv_pos_as_xyz
  1  'x, y, z'
loop_
 _atom_site_type_symbol
 _atom_site_label
 _atom_site_symmetry_multiplicity
 _atom_site_fract_x
 _atom_site_fract_y
 _atom_site_fract_z
 _atom_site_occupancy
  Tb  Tb0  1  0.000000  0.893242  0.427857  1
  Tb  Tb1  1  0.000000  0.606873  0.927868  1
  Tb  Tb2  1  0.000000  0.393221  0.072202  1
  Y  Y3  1  0.500000  0.117392  0.343624  1
  Y  Y4  1  0.500000  0.882785  0.656478  1
  Y  Y5  1  0.500000  0.617465  0.156698  1
  Y  Y6  1  0.500000  0.382655  0.843491  1
  Y  Y7  1  0.000000  0.107043  0.572314  1
  Pt  Pt8  1  0.500000  0.000092  0.500042  1
  Pt  Pt9  1  0.500000  0.499984  0.999937  1
  I  I10  1  0.500000  0.244622  0.163723  1
  I  I11  1  0.500000  0.755407  0.836278  1
  I  I12  1  0.500000  0.744503  0.336474  1
  I  I13  1  0.500000  0.254572  0.662972  1
  I  I14  1  0.000000  0.262379  0.414279  1
  I  I15  1  0.000000  0.737662  0.586034  1
  I  I16  1  0.000000  0.762615  0.086086  1
  I  I17  1  0.000000  0.237345  0.913802  1
  I  I18  1  0.000000  0.999831  0.236591  1
  I  I19  1  0.000000  0.000511  0.763372  1
  I  I20  1  0.000000  0.499788  0.263658  1
  I  I21  1  0.000000  0.500011  0.736224  1
