# generated using pymatgen
data_Pr8InHgRu2
_symmetry_space_group_name_H-M   'P 1'
_cell_length_a   9.98324085
_cell_length_b   9.98324121
_cell_length_c   9.99451700
_cell_angle_alpha   59.96262701
_cell_angle_beta   59.96262582
_cell_angle_gamma   59.98393120
_symmetry_Int_Tables_number   1
_chemical_formula_structural   Pr8InHgRu2
_chemical_formula_sum   'Pr16 In2 Hg2 Ru4'
_cell_volume   703.86869916
_cell_formula_units_Z   2
loop_
 _symmetry_equiv_pos_site_id
 _symmetry_equiv_pos_as_xyz
  1  'x, y, z'
loop_
 _atom_site_type_symbol
 _atom_site_label
 _atom_site_symmetry_multiplicity
 _atom_site_fract_x
 _atom_site_fract_y
 _atom_site_fract_z
 _atom_site_occupancy
  Pr  Pr0  1  0.347193  0.347193  0.347917  1
  Pr  Pr1  1  0.347193  0.347193  0.957696  1
  Pr  Pr2  1  0.347214  0.958749  0.347018  1
  Pr  Pr3  1  0.958749  0.347214  0.347018  1
  Pr  Pr4  1  0.807960  0.192174  0.191411  1
  Pr  Pr5  1  0.192174  0.807960  0.808456  1
  Pr  Pr6  1  0.192174  0.807960  0.191411  1
  Pr  Pr7  1  0.807960  0.192174  0.808456  1
  Pr  Pr8  1  0.191190  0.191190  0.808810  1
  Pr  Pr9  1  0.807345  0.807345  0.192655  1
  Pr  Pr10  1  0.942345  0.560272  0.559746  1
  Pr  Pr11  1  0.560272  0.942345  0.937636  1
  Pr  Pr12  1  0.560272  0.942345  0.559746  1
  Pr  Pr13  1  0.942345  0.560272  0.937636  1
  Pr  Pr14  1  0.561062  0.561062  0.938938  1
  Pr  Pr15  1  0.941801  0.941801  0.558199  1
  In  In16  1  0.579509  0.579509  0.579735  1
  In  In17  1  0.579509  0.579509  0.261245  1
  Hg  Hg18  1  0.583345  0.250956  0.582848  1
  Hg  Hg19  1  0.250956  0.583345  0.582848  1
  Ru  Ru20  1  0.137637  0.137637  0.138209  1
  Ru  Ru21  1  0.137637  0.137637  0.586517  1
  Ru  Ru22  1  0.139267  0.584887  0.137923  1
  Ru  Ru23  1  0.584887  0.139267  0.137923  1
