# generated using pymatgen
data_Cs2TaAuS4
_symmetry_space_group_name_H-M   'P 1'
_cell_length_a   14.54583708
_cell_length_b   12.95083427
_cell_length_c   7.82757308
_cell_angle_alpha   85.07288609
_cell_angle_beta   62.50565377
_cell_angle_gamma   32.42145970
_symmetry_Int_Tables_number   1
_chemical_formula_structural   Cs2TaAuS4
_chemical_formula_sum   'Cs4 Ta2 Au2 S8'
_cell_volume   539.54346693
_cell_formula_units_Z   2
loop_
 _symmetry_equiv_pos_site_id
 _symmetry_equiv_pos_as_xyz
  1  'x, y, z'
loop_
 _atom_site_type_symbol
 _atom_site_label
 _atom_site_symmetry_multiplicity
 _atom_site_fract_x
 _atom_site_fract_y
 _atom_site_fract_z
 _atom_site_occupancy
  Cs  Cs0  1  0.678349  0.678349  0.321651  1
  Cs  Cs1  1  0.321651  0.321651  0.678349  1
  Cs  Cs2  1  0.571651  0.571651  0.928349  1
  Cs  Cs3  1  0.928349  0.928349  0.571651  1
  Ta  Ta4  1  0.500000  0.500000  0.500000  1
  Ta  Ta5  1  0.750000  0.750000  0.750000  1
  Au  Au6  1  0.000000  0.000000  0.000000  1
  Au  Au7  1  0.250000  0.250000  0.250000  1
  S  S8  1  0.242140  0.865051  0.568697  1
  S  S9  1  0.324112  0.568697  0.865051  1
  S  S10  1  0.568697  0.324112  0.242140  1
  S  S11  1  0.865051  0.242140  0.324112  1
  S  S12  1  0.384949  0.007860  0.925888  1
  S  S13  1  0.925888  0.681303  0.384949  1
  S  S14  1  0.681303  0.925888  0.007860  1
  S  S15  1  0.007860  0.384949  0.681303  1
