# generated using pymatgen
data_MgMnTeO6
_symmetry_space_group_name_H-M   'P 1'
_cell_length_a   5.04312332
_cell_length_b   5.04314016
_cell_length_c   4.61592447
_cell_angle_alpha   90.08585052
_cell_angle_beta   90.08635083
_cell_angle_gamma   120.00312559
_symmetry_Int_Tables_number   1
_chemical_formula_structural   MgMnTeO6
_chemical_formula_sum   'Mg1 Mn1 Te1 O6'
_cell_volume   101.66566640
_cell_formula_units_Z   1
loop_
 _symmetry_equiv_pos_site_id
 _symmetry_equiv_pos_as_xyz
  1  'x, y, z'
loop_
 _atom_site_type_symbol
 _atom_site_label
 _atom_site_symmetry_multiplicity
 _atom_site_fract_x
 _atom_site_fract_y
 _atom_site_fract_z
 _atom_site_occupancy
  Mg  Mg0  1  0.517771  0.482225  0.500004  1
  Mn  Mn1  1  0.850921  0.149085  0.000007  1
  Te  Te2  1  0.184407  0.815595  0.000002  1
  O  O3  1  0.160621  0.128313  0.229658  1
  O  O4  1  0.521356  0.840887  0.229934  1
  O  O5  1  0.873362  0.479910  0.229954  1
  O  O6  1  0.520094  0.126642  0.770054  1
  O  O7  1  0.159111  0.478645  0.770072  1
  O  O8  1  0.871686  0.839386  0.770351  1
