# generated using pymatgen
data_Tm8Lu2OsRu3
_symmetry_space_group_name_H-M   'P 1'
_cell_length_a   6.22918179
_cell_length_b   7.24946655
_cell_length_c   8.30471760
_cell_angle_alpha   96.94233698
_cell_angle_beta   112.03865137
_cell_angle_gamma   89.93831498
_symmetry_Int_Tables_number   1
_chemical_formula_structural   Tm8Lu2OsRu3
_chemical_formula_sum   'Tm8 Lu2 Os1 Ru3'
_cell_volume   344.67520158
_cell_formula_units_Z   1
loop_
 _symmetry_equiv_pos_site_id
 _symmetry_equiv_pos_as_xyz
  1  'x, y, z'
loop_
 _atom_site_type_symbol
 _atom_site_label
 _atom_site_symmetry_multiplicity
 _atom_site_fract_x
 _atom_site_fract_y
 _atom_site_fract_z
 _atom_site_occupancy
  Tm  Tm0  1  0.522436  0.084188  0.815069  1
  Tm  Tm1  1  0.477123  0.917534  0.185480  1
  Tm  Tm2  1  0.710216  0.416202  0.185442  1
  Tm  Tm3  1  0.292881  0.584177  0.817973  1
  Tm  Tm4  1  0.296065  0.316193  0.434916  1
  Tm  Tm5  1  0.701742  0.683023  0.564149  1
  Tm  Tm6  1  0.862003  0.184109  0.565390  1
  Tm  Tm7  1  0.138376  0.815109  0.434166  1
  Lu  Lu8  1  0.080909  0.250403  0.000263  1
  Lu  Lu9  1  0.919902  0.749465  0.000132  1
  Os  Os10  1  0.320498  0.577887  0.217603  1
  Ru  Ru11  1  0.678079  0.421602  0.780590  1
  Ru  Ru12  1  0.101401  0.922922  0.778958  1
  Ru  Ru13  1  0.898368  0.077185  0.219867  1
