# generated using pymatgen
data_HfZr5Al16RuPt6
_symmetry_space_group_name_H-M   'P 1'
_cell_length_a   8.76512979
_cell_length_b   8.77366975
_cell_length_c   8.77366915
_cell_angle_alpha   59.93562111
_cell_angle_beta   60.03219155
_cell_angle_gamma   60.03218837
_symmetry_Int_Tables_number   1
_chemical_formula_structural   HfZr5Al16RuPt6
_chemical_formula_sum   'Hf1 Zr5 Al16 Ru1 Pt6'
_cell_volume   477.09522666
_cell_formula_units_Z   1
loop_
 _symmetry_equiv_pos_site_id
 _symmetry_equiv_pos_as_xyz
  1  'x, y, z'
loop_
 _atom_site_type_symbol
 _atom_site_label
 _atom_site_symmetry_multiplicity
 _atom_site_fract_x
 _atom_site_fract_y
 _atom_site_fract_z
 _atom_site_occupancy
  Hf  Hf0  1  0.185828  0.814172  0.814172  1
  Zr  Zr1  1  0.810695  0.189305  0.189305  1
  Zr  Zr2  1  0.813802  0.186198  0.812503  1
  Zr  Zr3  1  0.813802  0.812503  0.186198  1
  Zr  Zr4  1  0.187497  0.812503  0.186198  1
  Zr  Zr5  1  0.187497  0.186198  0.812503  1
  Al  Al6  1  0.835687  0.835420  0.835420  1
  Al  Al7  1  0.835319  0.835164  0.494198  1
  Al  Al8  1  0.493472  0.835420  0.835420  1
  Al  Al9  1  0.835319  0.494198  0.835164  1
  Al  Al10  1  0.164836  0.164681  0.164681  1
  Al  Al11  1  0.164580  0.164313  0.506528  1
  Al  Al12  1  0.164580  0.506528  0.164313  1
  Al  Al13  1  0.505802  0.164681  0.164681  1
  Al  Al14  1  0.617346  0.617992  0.617992  1
  Al  Al15  1  0.617895  0.617520  0.146691  1
  Al  Al16  1  0.146671  0.617992  0.617992  1
  Al  Al17  1  0.617895  0.146691  0.617520  1
  Al  Al18  1  0.382480  0.382105  0.382105  1
  Al  Al19  1  0.382008  0.382654  0.853329  1
  Al  Al20  1  0.382008  0.853329  0.382654  1
  Al  Al21  1  0.853309  0.382105  0.382105  1
  Ru  Ru22  1  0.500094  0.499906  0.499906  1
  Pt  Pt23  1  0.000257  0.499743  0.499743  1
  Pt  Pt24  1  0.500257  0.999743  0.999743  1
  Pt  Pt25  1  0.499588  0.999056  0.500412  1
  Pt  Pt26  1  0.499588  0.500412  0.999056  1
  Pt  Pt27  1  0.000944  0.500412  0.999056  1
  Pt  Pt28  1  0.000944  0.999056  0.500412  1
