# generated using pymatgen
data_NaAg(PO3)4
_symmetry_space_group_name_H-M   'P 1'
_cell_length_a   7.39138131
_cell_length_b   7.39138113
_cell_length_c   10.97726114
_cell_angle_alpha   70.28233928
_cell_angle_beta   70.28234214
_cell_angle_gamma   73.32820140
_symmetry_Int_Tables_number   1
_chemical_formula_structural   NaAg(PO3)4
_chemical_formula_sum   'Na2 Ag2 P8 O24'
_cell_volume   521.21767960
_cell_formula_units_Z   2
loop_
 _symmetry_equiv_pos_site_id
 _symmetry_equiv_pos_as_xyz
  1  'x, y, z'
loop_
 _atom_site_type_symbol
 _atom_site_label
 _atom_site_symmetry_multiplicity
 _atom_site_fract_x
 _atom_site_fract_y
 _atom_site_fract_z
 _atom_site_occupancy
  Na  Na0  1  0.965650  0.034350  0.750000  1
  Na  Na1  1  0.034350  0.965650  0.250000  1
  Ag  Ag2  1  0.000000  0.500000  0.500000  1
  Ag  Ag3  1  0.500000  0.000000  0.000000  1
  P  P4  1  0.683566  0.681981  0.825028  1
  P  P5  1  0.318019  0.316434  0.674972  1
  P  P6  1  0.316434  0.318019  0.174972  1
  P  P7  1  0.681981  0.683566  0.325028  1
  P  P8  1  0.735628  0.287426  0.023848  1
  P  P9  1  0.712574  0.264372  0.476152  1
  P  P10  1  0.264372  0.712574  0.976152  1
  P  P11  1  0.287426  0.735628  0.523848  1
  O  O12  1  0.460586  0.662198  0.859317  1
  O  O13  1  0.337802  0.539414  0.640683  1
  O  O14  1  0.539414  0.337802  0.140683  1
  O  O15  1  0.662198  0.460586  0.359317  1
  O  O16  1  0.772824  0.504063  0.935181  1
  O  O17  1  0.495937  0.227176  0.564819  1
  O  O18  1  0.227176  0.495937  0.064819  1
  O  O19  1  0.504063  0.772824  0.435181  1
  O  O20  1  0.791812  0.674046  0.685965  1
  O  O21  1  0.325954  0.208188  0.814035  1
  O  O22  1  0.208188  0.325954  0.314035  1
  O  O23  1  0.674046  0.791812  0.185965  1
  O  O24  1  0.688434  0.873264  0.851004  1
  O  O25  1  0.126736  0.311566  0.648996  1
  O  O26  1  0.311566  0.126736  0.148996  1
  O  O27  1  0.873264  0.688434  0.351004  1
  O  O28  1  0.678421  0.206474  0.931543  1
  O  O29  1  0.793526  0.321579  0.568457  1
  O  O30  1  0.321579  0.793526  0.068457  1
  O  O31  1  0.206474  0.678421  0.431543  1
  O  O32  1  0.900118  0.180347  0.082498  1
  O  O33  1  0.819653  0.099882  0.417502  1
  O  O34  1  0.099882  0.819653  0.917502  1
  O  O35  1  0.180347  0.900118  0.582498  1
