# generated using pymatgen
data_Hf12FeRe6Ir5
_symmetry_space_group_name_H-M   'P 1'
_cell_length_a   4.59905300
_cell_length_b   6.52086300
_cell_length_c   13.88018900
_cell_angle_alpha   90.00000000
_cell_angle_beta   89.99992120
_cell_angle_gamma   90.00000000
_symmetry_Int_Tables_number   1
_chemical_formula_structural   Hf12FeRe6Ir5
_chemical_formula_sum   'Hf12 Fe1 Re6 Ir5'
_cell_volume   416.26401632
_cell_formula_units_Z   1
loop_
 _symmetry_equiv_pos_site_id
 _symmetry_equiv_pos_as_xyz
  1  'x, y, z'
loop_
 _atom_site_type_symbol
 _atom_site_label
 _atom_site_symmetry_multiplicity
 _atom_site_fract_x
 _atom_site_fract_y
 _atom_site_fract_z
 _atom_site_occupancy
  Hf  Hf0  1  0.499999  0.244388  0.000000  1
  Hf  Hf1  1  0.499999  0.755612  0.000000  1
  Hf  Hf2  1  0.999987  0.247846  0.163362  1
  Hf  Hf3  1  0.999987  0.752154  0.163362  1
  Hf  Hf4  1  0.499986  0.250136  0.332644  1
  Hf  Hf5  1  0.499986  0.749863  0.332644  1
  Hf  Hf6  1  0.000000  0.250254  0.500000  1
  Hf  Hf7  1  0.000000  0.749745  0.500000  1
  Hf  Hf8  1  0.500015  0.250136  0.667356  1
  Hf  Hf9  1  0.500015  0.749863  0.667356  1
  Hf  Hf10  1  0.000013  0.247846  0.836639  1
  Hf  Hf11  1  0.000013  0.752154  0.836639  1
  Fe  Fe12  1  0.000000  0.000000  0.000000  1
  Re  Re13  1  0.000000  0.500001  0.000000  1
  Re  Re14  1  0.499985  0.000000  0.166541  1
  Re  Re15  1  0.999989  0.500001  0.332672  1
  Re  Re16  1  0.500001  0.000000  0.500000  1
  Re  Re17  1  0.000011  0.500001  0.667328  1
  Re  Re18  1  0.500014  0.000000  0.833458  1
  Ir  Ir19  1  0.499984  0.500001  0.166581  1
  Ir  Ir20  1  0.999989  0.000000  0.333337  1
  Ir  Ir21  1  0.500001  0.500001  0.500000  1
  Ir  Ir22  1  0.000011  0.000000  0.666664  1
  Ir  Ir23  1  0.500015  0.500001  0.833419  1
