# generated using pymatgen
data_Pr7Dy13Pb16
_symmetry_space_group_name_H-M   'P 1'
_cell_length_a   8.35307323
_cell_length_b   8.42092852
_cell_length_c   15.93360000
_cell_angle_alpha   90.00992700
_cell_angle_beta   89.61843793
_cell_angle_gamma   90.18609657
_symmetry_Int_Tables_number   1
_chemical_formula_structural   Pr7Dy13Pb16
_chemical_formula_sum   'Pr7 Dy13 Pb16'
_cell_volume   1120.74872487
_cell_formula_units_Z   1
loop_
 _symmetry_equiv_pos_site_id
 _symmetry_equiv_pos_as_xyz
  1  'x, y, z'
loop_
 _atom_site_type_symbol
 _atom_site_label
 _atom_site_symmetry_multiplicity
 _atom_site_fract_x
 _atom_site_fract_y
 _atom_site_fract_z
 _atom_site_occupancy
  Pr  Pr0  1  0.520853  0.321172  0.401556  1
  Pr  Pr1  1  0.477263  0.679091  0.903112  1
  Pr  Pr2  1  0.980342  0.821507  0.596334  1
  Pr  Pr3  1  0.977519  0.822557  0.903765  1
  Pr  Pr4  1  0.479687  0.678386  0.596610  1
  Pr  Pr5  1  0.522067  0.320553  0.097505  1
  Pr  Pr6  1  0.018719  0.178149  0.403784  1
  Dy  Dy7  1  0.864246  0.658364  0.122444  1
  Dy  Dy8  1  0.361296  0.840604  0.376828  1
  Dy  Dy9  1  0.634122  0.158374  0.878944  1
  Dy  Dy10  1  0.137720  0.340633  0.623026  1
  Dy  Dy11  1  0.133625  0.340897  0.878260  1
  Dy  Dy12  1  0.637275  0.160051  0.622393  1
  Dy  Dy13  1  0.365569  0.841706  0.121479  1
  Dy  Dy14  1  0.862357  0.658602  0.375451  1
  Dy  Dy15  1  0.027773  0.177370  0.099530  1
  Dy  Dy16  1  0.698200  0.996305  0.249084  1
  Dy  Dy17  1  0.197262  0.504750  0.248670  1
  Dy  Dy18  1  0.801944  0.494791  0.750256  1
  Dy  Dy19  1  0.301901  0.004188  0.751036  1
  Pb  Pb20  1  0.058778  0.872841  0.248889  1
  Pb  Pb21  1  0.558461  0.627780  0.249213  1
  Pb  Pb22  1  0.440640  0.371308  0.751027  1
  Pb  Pb23  1  0.940946  0.128402  0.750444  1
  Pb  Pb24  1  0.836032  0.347491  0.247631  1
  Pb  Pb25  1  0.329091  0.148625  0.249544  1
  Pb  Pb26  1  0.668293  0.851907  0.749840  1
  Pb  Pb27  1  0.167608  0.649587  0.750083  1
  Pb  Pb28  1  0.795597  0.460224  0.956887  1
  Pb  Pb29  1  0.298853  0.041737  0.543345  1
  Pb  Pb30  1  0.711492  0.965247  0.045178  1
  Pb  Pb31  1  0.201067  0.540199  0.456014  1
  Pb  Pb32  1  0.202732  0.536851  0.043950  1
  Pb  Pb33  1  0.700239  0.956900  0.456395  1
  Pb  Pb34  1  0.291748  0.043254  0.958960  1
  Pb  Pb35  1  0.798683  0.459599  0.542535  1
