# generated using pymatgen
data_Sc8BeGaPd23
_symmetry_space_group_name_H-M   'P 1'
_cell_length_a   7.83143200
_cell_length_b   8.04502600
_cell_length_c   8.04502600
_cell_angle_alpha   90.00000000
_cell_angle_beta   90.00000000
_cell_angle_gamma   90.00000000
_symmetry_Int_Tables_number   1
_chemical_formula_structural   Sc8BeGaPd23
_chemical_formula_sum   'Sc8 Be1 Ga1 Pd23'
_cell_volume   506.86941390
_cell_formula_units_Z   1
loop_
 _symmetry_equiv_pos_site_id
 _symmetry_equiv_pos_as_xyz
  1  'x, y, z'
loop_
 _atom_site_type_symbol
 _atom_site_label
 _atom_site_symmetry_multiplicity
 _atom_site_fract_x
 _atom_site_fract_y
 _atom_site_fract_z
 _atom_site_occupancy
  Sc  Sc0  1  0.251268  0.241479  0.241479  1
  Sc  Sc1  1  0.747989  0.746769  0.746769  1
  Sc  Sc2  1  0.747989  0.746769  0.253231  1
  Sc  Sc3  1  0.747989  0.253231  0.746769  1
  Sc  Sc4  1  0.251268  0.241479  0.758521  1
  Sc  Sc5  1  0.251268  0.758521  0.241479  1
  Sc  Sc6  1  0.251268  0.758521  0.758521  1
  Sc  Sc7  1  0.747989  0.253231  0.253231  1
  Be  Be8  1  0.000357  0.000000  0.000000  1
  Ga  Ga9  1  0.253896  0.500000  0.500000  1
  Pd  Pd10  1  0.252454  0.500000  0.000000  1
  Pd  Pd11  1  0.746276  0.500000  0.000000  1
  Pd  Pd12  1  0.008974  0.255661  0.500000  1
  Pd  Pd13  1  0.502540  0.256290  0.000000  1
  Pd  Pd14  1  0.008974  0.744339  0.500000  1
  Pd  Pd15  1  0.502540  0.743710  0.000000  1
  Pd  Pd16  1  0.502540  0.000000  0.256290  1
  Pd  Pd17  1  0.252454  0.000000  0.500000  1
  Pd  Pd18  1  0.502540  0.000000  0.743710  1
  Pd  Pd19  1  0.746276  0.000000  0.500000  1
  Pd  Pd20  1  0.008974  0.500000  0.255661  1
  Pd  Pd21  1  0.008974  0.500000  0.744339  1
  Pd  Pd22  1  0.748926  0.500000  0.500000  1
  Pd  Pd23  1  0.491289  0.253420  0.500000  1
  Pd  Pd24  1  0.491289  0.746580  0.500000  1
  Pd  Pd25  1  0.491289  0.500000  0.253420  1
  Pd  Pd26  1  0.491289  0.500000  0.746580  1
  Pd  Pd27  1  0.272683  0.000000  0.000000  1
  Pd  Pd28  1  0.730518  0.000000  0.000000  1
  Pd  Pd29  1  0.996979  0.266603  0.000000  1
  Pd  Pd30  1  0.996979  0.733397  0.000000  1
  Pd  Pd31  1  0.996979  0.000000  0.266603  1
  Pd  Pd32  1  0.996979  0.000000  0.733397  1
