# generated using pymatgen
data_CuBiAuO4
_symmetry_space_group_name_H-M   'P 1'
_cell_length_a   6.62647494
_cell_length_b   6.62647505
_cell_length_c   6.57261952
_cell_angle_alpha   125.65528381
_cell_angle_beta   126.10746517
_cell_angle_gamma   80.63739873
_symmetry_Int_Tables_number   1
_chemical_formula_structural   CuBiAuO4
_chemical_formula_sum   'Cu2 Bi2 Au2 O8'
_cell_volume   182.12829160
_cell_formula_units_Z   2
loop_
 _symmetry_equiv_pos_site_id
 _symmetry_equiv_pos_as_xyz
  1  'x, y, z'
loop_
 _atom_site_type_symbol
 _atom_site_label
 _atom_site_symmetry_multiplicity
 _atom_site_fract_x
 _atom_site_fract_y
 _atom_site_fract_z
 _atom_site_occupancy
  Cu  Cu0  1  0.375000  0.125000  0.750000  1
  Cu  Cu1  1  0.375000  0.625000  0.250000  1
  Bi  Bi2  1  0.000477  0.000477  0.000000  1
  Bi  Bi3  1  0.749523  0.249523  0.500000  1
  Au  Au4  1  0.875000  0.625000  0.250000  1
  Au  Au5  1  0.375000  0.625000  0.750000  1
  O  O6  1  0.399690  0.849653  0.150953  1
  O  O7  1  0.698698  0.248736  0.849047  1
  O  O8  1  0.350310  0.400347  0.349047  1
  O  O9  1  0.051302  0.001264  0.650953  1
  O  O10  1  0.020358  0.651335  0.062439  1
  O  O11  1  0.588897  0.957920  0.937561  1
  O  O12  1  0.161103  0.292080  0.562439  1
  O  O13  1  0.729642  0.598665  0.437561  1
