# generated using pymatgen
data_CaYb2Al3N5
_symmetry_space_group_name_H-M   'P 1'
_cell_length_a   5.65184795
_cell_length_b   6.90326587
_cell_length_c   8.29532073
_cell_angle_alpha   108.03222897
_cell_angle_beta   104.74494183
_cell_angle_gamma   95.75394938
_symmetry_Int_Tables_number   1
_chemical_formula_structural   CaYb2Al3N5
_chemical_formula_sum   'Ca2 Yb4 Al6 N10'
_cell_volume   291.92436336
_cell_formula_units_Z   2
loop_
 _symmetry_equiv_pos_site_id
 _symmetry_equiv_pos_as_xyz
  1  'x, y, z'
loop_
 _atom_site_type_symbol
 _atom_site_label
 _atom_site_symmetry_multiplicity
 _atom_site_fract_x
 _atom_site_fract_y
 _atom_site_fract_z
 _atom_site_occupancy
  Ca  Ca0  1  0.662199  0.640333  0.200452  1
  Ca  Ca1  1  0.337801  0.359667  0.799548  1
  Yb  Yb2  1  0.812411  0.421437  0.606045  1
  Yb  Yb3  1  0.187589  0.578563  0.393955  1
  Yb  Yb4  1  0.668169  0.863516  0.883805  1
  Yb  Yb5  1  0.331831  0.136484  0.116195  1
  Al  Al6  1  0.905262  0.313843  0.968906  1
  Al  Al7  1  0.094738  0.686157  0.031094  1
  Al  Al8  1  0.707180  0.952060  0.570052  1
  Al  Al9  1  0.292820  0.047940  0.429948  1
  Al  Al10  1  0.127725  0.875688  0.711505  1
  Al  Al11  1  0.872275  0.124312  0.288495  1
  N  N12  1  0.965381  0.102115  0.785997  1
  N  N13  1  0.034619  0.897885  0.214003  1
  N  N14  1  0.839642  0.706831  0.516086  1
  N  N15  1  0.160358  0.293169  0.483914  1
  N  N16  1  0.763362  0.523380  0.895146  1
  N  N17  1  0.236638  0.476620  0.104854  1
  N  N18  1  0.388999  0.933409  0.613984  1
  N  N19  1  0.611001  0.066591  0.386016  1
  N  N20  1  0.260675  0.779086  0.894405  1
  N  N21  1  0.739325  0.220914  0.105595  1
