# generated using pymatgen
data_Zr6Zn17Cu5SiAg
_symmetry_space_group_name_H-M   'P 1'
_cell_length_a   8.73665022
_cell_length_b   8.69956576
_cell_length_c   8.73665038
_cell_angle_alpha   60.14031962
_cell_angle_beta   59.87261420
_cell_angle_gamma   60.14031357
_symmetry_Int_Tables_number   1
_chemical_formula_structural   Zr6Zn17Cu5SiAg
_chemical_formula_sum   'Zr6 Zn17 Cu5 Si1 Ag1'
_cell_volume   470.07668975
_cell_formula_units_Z   1
loop_
 _symmetry_equiv_pos_site_id
 _symmetry_equiv_pos_as_xyz
  1  'x, y, z'
loop_
 _atom_site_type_symbol
 _atom_site_label
 _atom_site_symmetry_multiplicity
 _atom_site_fract_x
 _atom_site_fract_y
 _atom_site_fract_z
 _atom_site_occupancy
  Zr  Zr0  1  0.711181  0.288410  0.288819  1
  Zr  Zr1  1  0.288819  0.711590  0.711181  1
  Zr  Zr2  1  0.290553  0.709447  0.290553  1
  Zr  Zr3  1  0.709447  0.290553  0.709447  1
  Zr  Zr4  1  0.288819  0.288410  0.711181  1
  Zr  Zr5  1  0.711181  0.711590  0.288819  1
  Zn  Zn6  1  0.126012  0.126229  0.126012  1
  Zn  Zn7  1  0.873988  0.873771  0.873988  1
  Zn  Zn8  1  0.119077  0.129494  0.621936  1
  Zn  Zn9  1  0.126012  0.621748  0.126012  1
  Zn  Zn10  1  0.880923  0.870506  0.378064  1
  Zn  Zn11  1  0.873988  0.378252  0.873988  1
  Zn  Zn12  1  0.621936  0.129494  0.119077  1
  Zn  Zn13  1  0.378064  0.870506  0.880923  1
  Zn  Zn14  1  0.500000  0.000000  0.500000  1
  Zn  Zn15  1  0.334871  0.341589  0.334871  1
  Zn  Zn16  1  0.665129  0.658411  0.665129  1
  Zn  Zn17  1  0.336352  0.337920  0.987807  1
  Zn  Zn18  1  0.334871  0.988668  0.334871  1
  Zn  Zn19  1  0.663648  0.662080  0.012193  1
  Zn  Zn20  1  0.665129  0.011332  0.665129  1
  Zn  Zn21  1  0.987807  0.337920  0.336352  1
  Zn  Zn22  1  0.012193  0.662080  0.663648  1
  Cu  Cu23  1  0.500000  0.000000  0.000000  1
  Cu  Cu24  1  0.000000  0.500000  0.500000  1
  Cu  Cu25  1  0.000000  0.500000  0.000000  1
  Cu  Cu26  1  0.000000  0.000000  0.500000  1
  Cu  Cu27  1  0.500000  0.500000  0.000000  1
  Si  Si28  1  0.500000  0.500000  0.500000  1
  Ag  Ag29  1  0.000000  0.000000  0.000000  1
