# generated using pymatgen
data_Be6Ni2Mo3Ru
_symmetry_space_group_name_H-M   'P 1'
_cell_length_a   4.53332600
_cell_length_b   4.53332508
_cell_length_c   7.16262700
_cell_angle_alpha   90.00000000
_cell_angle_beta   90.00000000
_cell_angle_gamma   119.99999209
_symmetry_Int_Tables_number   1
_chemical_formula_structural   Be6Ni2Mo3Ru
_chemical_formula_sum   'Be6 Ni2 Mo3 Ru1'
_cell_volume   127.47846235
_cell_formula_units_Z   1
loop_
 _symmetry_equiv_pos_site_id
 _symmetry_equiv_pos_as_xyz
  1  'x, y, z'
loop_
 _atom_site_type_symbol
 _atom_site_label
 _atom_site_symmetry_multiplicity
 _atom_site_fract_x
 _atom_site_fract_y
 _atom_site_fract_z
 _atom_site_occupancy
  Be  Be0  1  0.830508  0.169492  0.252845  1
  Be  Be1  1  0.830508  0.661015  0.252845  1
  Be  Be2  1  0.338985  0.169492  0.252845  1
  Be  Be3  1  0.169276  0.830724  0.749089  1
  Be  Be4  1  0.169276  0.338553  0.749089  1
  Be  Be5  1  0.661447  0.830724  0.749089  1
  Ni  Ni6  1  0.000000  0.000000  0.501981  1
  Ni  Ni7  1  0.000000  0.000000  0.004801  1
  Mo  Mo8  1  0.666667  0.333333  0.565688  1
  Mo  Mo9  1  0.666667  0.333333  0.928902  1
  Mo  Mo10  1  0.333333  0.666667  0.069583  1
  Ru  Ru11  1  0.333333  0.666667  0.423245  1
