# generated using pymatgen
data_Dy5(GeB4)2
_symmetry_space_group_name_H-M   'P 1'
_cell_length_a   7.25530200
_cell_length_b   7.25530200
_cell_length_c   8.15222500
_cell_angle_alpha   90.00000000
_cell_angle_beta   90.00000000
_cell_angle_gamma   90.00000000
_symmetry_Int_Tables_number   1
_chemical_formula_structural   Dy5(GeB4)2
_chemical_formula_sum   'Dy10 Ge4 B16'
_cell_volume   429.12829064
_cell_formula_units_Z   2
loop_
 _symmetry_equiv_pos_site_id
 _symmetry_equiv_pos_as_xyz
  1  'x, y, z'
loop_
 _atom_site_type_symbol
 _atom_site_label
 _atom_site_symmetry_multiplicity
 _atom_site_fract_x
 _atom_site_fract_y
 _atom_site_fract_z
 _atom_site_occupancy
  Dy  Dy0  1  0.680500  0.180500  0.221009  1
  Dy  Dy1  1  0.319500  0.819500  0.778991  1
  Dy  Dy2  1  0.319500  0.819500  0.221009  1
  Dy  Dy3  1  0.819500  0.680500  0.221009  1
  Dy  Dy4  1  0.819500  0.680500  0.778991  1
  Dy  Dy5  1  0.680500  0.180500  0.778991  1
  Dy  Dy6  1  0.180500  0.319500  0.778991  1
  Dy  Dy7  1  0.180500  0.319500  0.221009  1
  Dy  Dy8  1  0.000000  0.000000  0.500000  1
  Dy  Dy9  1  0.500000  0.500000  0.500000  1
  Ge  Ge10  1  0.120345  0.620345  0.500000  1
  Ge  Ge11  1  0.879655  0.379655  0.500000  1
  Ge  Ge12  1  0.379655  0.120345  0.500000  1
  Ge  Ge13  1  0.620345  0.879655  0.500000  1
  B  B14  1  0.172167  0.039112  0.000000  1
  B  B15  1  0.827833  0.960888  0.000000  1
  B  B16  1  0.960888  0.172167  0.000000  1
  B  B17  1  0.327833  0.539112  0.000000  1
  B  B18  1  0.039112  0.827833  0.000000  1
  B  B19  1  0.672167  0.460888  0.000000  1
  B  B20  1  0.539112  0.672167  0.000000  1
  B  B21  1  0.460888  0.327833  0.000000  1
  B  B22  1  0.090453  0.590453  0.000000  1
  B  B23  1  0.909547  0.409547  0.000000  1
  B  B24  1  0.409547  0.090453  0.000000  1
  B  B25  1  0.590453  0.909547  0.000000  1
  B  B26  1  0.000000  0.000000  0.161833  1
  B  B27  1  0.000000  0.000000  0.838167  1
  B  B28  1  0.500000  0.500000  0.838167  1
  B  B29  1  0.500000  0.500000  0.161833  1
