# generated using pymatgen
data_Nb12Al8Ni3MoC4
_symmetry_space_group_name_H-M   'P 1'
_cell_length_a   8.28168150
_cell_length_b   8.28168209
_cell_length_c   8.33429778
_cell_angle_alpha   60.20862413
_cell_angle_beta   60.20862534
_cell_angle_gamma   60.00001098
_symmetry_Int_Tables_number   1
_chemical_formula_structural   Nb12Al8Ni3MoC4
_chemical_formula_sum   'Nb12 Al8 Ni3 Mo1 C4'
_cell_volume   405.46506936
_cell_formula_units_Z   1
loop_
 _symmetry_equiv_pos_site_id
 _symmetry_equiv_pos_as_xyz
  1  'x, y, z'
loop_
 _atom_site_type_symbol
 _atom_site_label
 _atom_site_symmetry_multiplicity
 _atom_site_fract_x
 _atom_site_fract_y
 _atom_site_fract_z
 _atom_site_occupancy
  Nb  Nb0  1  0.810112  0.810112  0.179918  1
  Nb  Nb1  1  0.186368  0.186368  0.814768  1
  Nb  Nb2  1  0.812496  0.186368  0.814768  1
  Nb  Nb3  1  0.199857  0.810112  0.179918  1
  Nb  Nb4  1  0.186368  0.812496  0.814768  1
  Nb  Nb5  1  0.810112  0.199857  0.179918  1
  Nb  Nb6  1  0.439888  0.439888  0.070082  1
  Nb  Nb7  1  0.063632  0.063632  0.435232  1
  Nb  Nb8  1  0.437504  0.063632  0.435232  1
  Nb  Nb9  1  0.050143  0.439888  0.070082  1
  Nb  Nb10  1  0.063632  0.437504  0.435232  1
  Nb  Nb11  1  0.439888  0.050143  0.070082  1
  Al  Al12  1  0.746501  0.411596  0.430307  1
  Al  Al13  1  0.411596  0.746501  0.430307  1
  Al  Al14  1  0.414765  0.414765  0.755705  1
  Al  Al15  1  0.411596  0.411596  0.430307  1
  Al  Al16  1  0.503499  0.838404  0.819693  1
  Al  Al17  1  0.838404  0.503499  0.819693  1
  Al  Al18  1  0.835235  0.835235  0.494295  1
  Al  Al19  1  0.838404  0.838404  0.819693  1
  Ni  Ni20  1  0.125000  0.625000  0.625000  1
  Ni  Ni21  1  0.625000  0.125000  0.625000  1
  Ni  Ni22  1  0.625000  0.625000  0.625000  1
  Mo  Mo23  1  0.625000  0.625000  0.125000  1
  C  C24  1  0.625000  0.125000  0.125000  1
  C  C25  1  0.125000  0.625000  0.125000  1
  C  C26  1  0.125000  0.125000  0.625000  1
  C  C27  1  0.125000  0.125000  0.125000  1
