# generated using pymatgen
data_BaLaBO4
_symmetry_space_group_name_H-M   'P 1'
_cell_length_a   3.95844600
_cell_length_b   10.19438600
_cell_length_c   11.63133900
_cell_angle_alpha   90.00000000
_cell_angle_beta   90.00000000
_cell_angle_gamma   90.00000000
_symmetry_Int_Tables_number   1
_chemical_formula_structural   BaLaBO4
_chemical_formula_sum   'Ba4 La4 B4 O16'
_cell_volume   469.37019892
_cell_formula_units_Z   4
loop_
 _symmetry_equiv_pos_site_id
 _symmetry_equiv_pos_as_xyz
  1  'x, y, z'
loop_
 _atom_site_type_symbol
 _atom_site_label
 _atom_site_symmetry_multiplicity
 _atom_site_fract_x
 _atom_site_fract_y
 _atom_site_fract_z
 _atom_site_occupancy
  Ba  Ba0  1  0.250000  0.660137  0.078476  1
  Ba  Ba1  1  0.750000  0.339863  0.921524  1
  Ba  Ba2  1  0.750000  0.160137  0.421524  1
  Ba  Ba3  1  0.250000  0.839863  0.578476  1
  La  La4  1  0.250000  0.077818  0.116445  1
  La  La5  1  0.750000  0.922182  0.883555  1
  La  La6  1  0.750000  0.577818  0.383555  1
  La  La7  1  0.250000  0.422182  0.616445  1
  B  B8  1  0.250000  0.361947  0.206349  1
  B  B9  1  0.750000  0.638053  0.793651  1
  B  B10  1  0.750000  0.861947  0.293651  1
  B  B11  1  0.250000  0.138053  0.706349  1
  O  O12  1  0.250000  0.485400  0.257725  1
  O  O13  1  0.750000  0.514600  0.742275  1
  O  O14  1  0.750000  0.985400  0.242275  1
  O  O15  1  0.250000  0.014600  0.757725  1
  O  O16  1  0.250000  0.247613  0.273243  1
  O  O17  1  0.750000  0.752387  0.726757  1
  O  O18  1  0.750000  0.747613  0.226757  1
  O  O19  1  0.250000  0.252387  0.773243  1
  O  O20  1  0.250000  0.350594  0.085674  1
  O  O21  1  0.750000  0.649406  0.914326  1
  O  O22  1  0.750000  0.850594  0.414326  1
  O  O23  1  0.250000  0.149406  0.585674  1
  O  O24  1  0.250000  0.606987  0.493056  1
  O  O25  1  0.750000  0.393013  0.506944  1
  O  O26  1  0.750000  0.106987  0.006944  1
  O  O27  1  0.250000  0.893013  0.993056  1
