# generated using pymatgen
data_Sc6Zn23S
_symmetry_space_group_name_H-M   'P 1'
_cell_length_a   8.78555200
_cell_length_b   8.78555172
_cell_length_c   8.78555200
_cell_angle_alpha   120.00000105
_cell_angle_beta   90.00000000
_cell_angle_gamma   120.00000105
_symmetry_Int_Tables_number   1
_chemical_formula_structural   Sc6Zn23S
_chemical_formula_sum   'Sc6 Zn23 S1'
_cell_volume   479.50389060
_cell_formula_units_Z   1
loop_
 _symmetry_equiv_pos_site_id
 _symmetry_equiv_pos_as_xyz
  1  'x, y, z'
loop_
 _atom_site_type_symbol
 _atom_site_label
 _atom_site_symmetry_multiplicity
 _atom_site_fract_x
 _atom_site_fract_y
 _atom_site_fract_z
 _atom_site_occupancy
  Sc  Sc0  1  0.205156  0.000000  0.205156  1
  Sc  Sc1  1  0.794844  0.000000  0.205156  1
  Sc  Sc2  1  0.205156  0.410312  0.205156  1
  Sc  Sc3  1  0.205156  0.000000  0.794844  1
  Sc  Sc4  1  0.794844  0.000000  0.794844  1
  Sc  Sc5  1  0.794844  0.589688  0.794844  1
  Zn  Zn6  1  0.499999  0.000000  0.000000  1
  Zn  Zn7  1  0.000000  0.499999  0.000000  1
  Zn  Zn8  1  0.499999  0.499999  0.000000  1
  Zn  Zn9  1  0.377183  0.754365  0.131548  1
  Zn  Zn10  1  0.501858  0.334571  0.167287  1
  Zn  Zn11  1  0.832713  0.334571  0.167287  1
  Zn  Zn12  1  0.832713  0.665429  0.167287  1
  Zn  Zn13  1  0.622817  0.245635  0.377183  1
  Zn  Zn14  1  0.131548  0.754365  0.377183  1
  Zn  Zn15  1  0.622817  0.754365  0.377183  1
  Zn  Zn16  1  0.167287  0.334571  0.501858  1
  Zn  Zn17  1  0.000000  0.000000  0.499999  1
  Zn  Zn18  1  0.000000  0.499999  0.499999  1
  Zn  Zn19  1  0.499999  0.499999  0.499999  1
  Zn  Zn20  1  0.500000  0.000000  0.500000  1
  Zn  Zn21  1  0.832713  0.665429  0.498142  1
  Zn  Zn22  1  0.377183  0.754365  0.622817  1
  Zn  Zn23  1  0.377183  0.245635  0.622817  1
  Zn  Zn24  1  0.868452  0.245635  0.622817  1
  Zn  Zn25  1  0.167287  0.334571  0.832713  1
  Zn  Zn26  1  0.167287  0.665429  0.832713  1
  Zn  Zn27  1  0.498142  0.665429  0.832713  1
  Zn  Zn28  1  0.622817  0.245635  0.868452  1
  S  S29  1  0.000000  0.000000  0.000000  1
