# generated using pymatgen
data_Tm12Al3Tc2
_symmetry_space_group_name_H-M   'P 1'
_cell_length_a   8.29702405
_cell_length_b   8.29702444
_cell_length_c   8.29702366
_cell_angle_alpha   110.03594959
_cell_angle_beta   110.03594732
_cell_angle_gamma   108.34756256
_symmetry_Int_Tables_number   1
_chemical_formula_structural   Tm12Al3Tc2
_chemical_formula_sum   'Tm12 Al3 Tc2'
_cell_volume   439.56208578
_cell_formula_units_Z   1
loop_
 _symmetry_equiv_pos_site_id
 _symmetry_equiv_pos_as_xyz
  1  'x, y, z'
loop_
 _atom_site_type_symbol
 _atom_site_label
 _atom_site_symmetry_multiplicity
 _atom_site_fract_x
 _atom_site_fract_y
 _atom_site_fract_z
 _atom_site_occupancy
  Tm  Tm0  1  0.446903  0.192874  0.254028  1
  Tm  Tm1  1  0.553097  0.807126  0.745972  1
  Tm  Tm2  1  0.938846  0.192874  0.745972  1
  Tm  Tm3  1  0.192874  0.938846  0.745972  1
  Tm  Tm4  1  0.061154  0.807126  0.254028  1
  Tm  Tm5  1  0.807126  0.061154  0.254028  1
  Tm  Tm6  1  0.192874  0.446903  0.254028  1
  Tm  Tm7  1  0.807126  0.553097  0.745972  1
  Tm  Tm8  1  0.317662  0.317662  0.635322  1
  Tm  Tm9  1  0.682338  0.682338  0.364678  1
  Tm  Tm10  1  0.317662  0.682338  0.000000  1
  Tm  Tm11  1  0.682338  0.317662  0.000000  1
  Al  Al12  1  0.500000  0.000000  0.500000  1
  Al  Al13  1  0.000000  0.500000  0.500000  1
  Al  Al14  1  0.000000  0.000000  0.000000  1
  Tc  Tc15  1  0.333862  0.333862  0.000000  1
  Tc  Tc16  1  0.666138  0.666138  0.000000  1
