# generated using pymatgen
data_Ac9TmIn6
_symmetry_space_group_name_H-M   'P 1'
_cell_length_a   6.74359459
_cell_length_b   9.90451646
_cell_length_c   9.90451700
_cell_angle_alpha   83.34487780
_cell_angle_beta   70.09690692
_cell_angle_gamma   70.09690312
_symmetry_Int_Tables_number   1
_chemical_formula_structural   Ac9TmIn6
_chemical_formula_sum   'Ac9 Tm1 In6'
_cell_volume   584.87485717
_cell_formula_units_Z   1
loop_
 _symmetry_equiv_pos_site_id
 _symmetry_equiv_pos_as_xyz
  1  'x, y, z'
loop_
 _atom_site_type_symbol
 _atom_site_label
 _atom_site_symmetry_multiplicity
 _atom_site_fract_x
 _atom_site_fract_y
 _atom_site_fract_z
 _atom_site_occupancy
  Ac  Ac0  1  0.722583  0.867596  0.697245  1
  Ac  Ac1  1  0.287313  0.132633  0.302398  1
  Ac  Ac2  1  0.777417  0.302755  0.132404  1
  Ac  Ac3  1  0.212687  0.697602  0.867367  1
  Ac  Ac4  1  0.579310  0.697629  0.133070  1
  Ac  Ac5  1  0.411229  0.302150  0.867296  1
  Ac  Ac6  1  0.088771  0.132704  0.697850  1
  Ac  Ac7  1  0.920690  0.866930  0.302371  1
  Ac  Ac8  1  0.750000  0.500411  0.499589  1
  Tm  Tm9  1  0.250000  0.499836  0.500164  1
  In  In10  1  0.173008  0.499796  0.186782  1
  In  In11  1  0.860560  0.500382  0.813461  1
  In  In12  1  0.326992  0.813218  0.500204  1
  In  In13  1  0.639440  0.186539  0.499618  1
  In  In14  1  0.250000  0.999639  0.000361  1
  In  In15  1  0.750000  0.000183  0.999817  1
