# generated using pymatgen
data_Hf15Sc3Ta2(Re3Ni)2
_symmetry_space_group_name_H-M   'P 1'
_cell_length_a   8.66695800
_cell_length_b   8.66695817
_cell_length_c   8.56420400
_cell_angle_alpha   90.00000000
_cell_angle_beta   90.00000000
_cell_angle_gamma   119.99999934
_symmetry_Int_Tables_number   1
_chemical_formula_structural   Hf15Sc3Ta2(Re3Ni)2
_chemical_formula_sum   'Hf15 Sc3 Ta2 Re6 Ni2'
_cell_volume   557.12292660
_cell_formula_units_Z   1
loop_
 _symmetry_equiv_pos_site_id
 _symmetry_equiv_pos_as_xyz
  1  'x, y, z'
loop_
 _atom_site_type_symbol
 _atom_site_label
 _atom_site_symmetry_multiplicity
 _atom_site_fract_x
 _atom_site_fract_y
 _atom_site_fract_z
 _atom_site_occupancy
  Hf  Hf0  1  0.199961  0.800039  0.441671  1
  Hf  Hf1  1  0.199961  0.399921  0.441671  1
  Hf  Hf2  1  0.600079  0.800039  0.441671  1
  Hf  Hf3  1  0.800297  0.199703  0.557712  1
  Hf  Hf4  1  0.800297  0.600595  0.557712  1
  Hf  Hf5  1  0.399405  0.199703  0.557712  1
  Hf  Hf6  1  0.800297  0.199703  0.942288  1
  Hf  Hf7  1  0.800297  0.600595  0.942288  1
  Hf  Hf8  1  0.399405  0.199703  0.942288  1
  Hf  Hf9  1  0.199961  0.800039  0.058329  1
  Hf  Hf10  1  0.199961  0.399921  0.058329  1
  Hf  Hf11  1  0.600079  0.800039  0.058329  1
  Hf  Hf12  1  0.457308  0.542692  0.750000  1
  Hf  Hf13  1  0.457308  0.914616  0.750000  1
  Hf  Hf14  1  0.085384  0.542692  0.750000  1
  Sc  Sc15  1  0.542213  0.457787  0.250000  1
  Sc  Sc16  1  0.542213  0.084427  0.250000  1
  Sc  Sc17  1  0.915573  0.457787  0.250000  1
  Ta  Ta18  1  0.000000  0.000000  0.498702  1
  Ta  Ta19  1  0.000000  0.000000  0.001298  1
  Re  Re20  1  0.887508  0.112492  0.250000  1
  Re  Re21  1  0.887508  0.775016  0.250000  1
  Re  Re22  1  0.224984  0.112492  0.250000  1
  Re  Re23  1  0.113418  0.886582  0.750000  1
  Re  Re24  1  0.113418  0.226835  0.750000  1
  Re  Re25  1  0.773165  0.886582  0.750000  1
  Ni  Ni26  1  0.333333  0.666667  0.250000  1
  Ni  Ni27  1  0.666667  0.333333  0.750000  1
