# generated using pymatgen
data_LaTbSmTaO7
_symmetry_space_group_name_H-M   'P 1'
_cell_length_a   6.59548743
_cell_length_b   6.59548785
_cell_length_c   7.69566200
_cell_angle_alpha   90.00000000
_cell_angle_beta   90.00000000
_cell_angle_gamma   109.04517573
_symmetry_Int_Tables_number   1
_chemical_formula_structural   LaTbSmTaO7
_chemical_formula_sum   'La2 Tb2 Sm2 Ta2 O14'
_cell_volume   316.44031930
_cell_formula_units_Z   2
loop_
 _symmetry_equiv_pos_site_id
 _symmetry_equiv_pos_as_xyz
  1  'x, y, z'
loop_
 _atom_site_type_symbol
 _atom_site_label
 _atom_site_symmetry_multiplicity
 _atom_site_fract_x
 _atom_site_fract_y
 _atom_site_fract_z
 _atom_site_occupancy
  La  La0  1  0.501211  0.501211  0.500000  1
  La  La1  1  0.501211  0.501211  0.000000  1
  Tb  Tb2  1  0.533510  0.000690  0.750000  1
  Tb  Tb3  1  0.000690  0.533510  0.250000  1
  Sm  Sm4  1  0.465055  0.000061  0.250000  1
  Sm  Sm5  1  0.000061  0.465055  0.750000  1
  Ta  Ta6  1  0.000055  0.000055  0.500000  1
  Ta  Ta7  1  0.000055  0.000055  0.000000  1
  O  O8  1  0.683366  0.933828  0.471653  1
  O  O9  1  0.933828  0.683366  0.528347  1
  O  O10  1  0.683366  0.933828  0.028347  1
  O  O11  1  0.933828  0.683366  0.971653  1
  O  O12  1  0.315180  0.065078  0.534156  1
  O  O13  1  0.065078  0.315180  0.465844  1
  O  O14  1  0.315180  0.065078  0.965844  1
  O  O15  1  0.065078  0.315180  0.034156  1
  O  O16  1  0.939361  0.060576  0.750000  1
  O  O17  1  0.060576  0.939361  0.250000  1
  O  O18  1  0.369283  0.639105  0.750000  1
  O  O19  1  0.639105  0.369283  0.250000  1
  O  O20  1  0.638625  0.356297  0.750000  1
  O  O21  1  0.356297  0.638625  0.250000  1
