# generated using pymatgen
data_Ti20Ga7S5
_symmetry_space_group_name_H-M   'P 1'
_cell_length_a   6.58980659
_cell_length_b   7.71651116
_cell_length_c   9.78893973
_cell_angle_alpha   89.87529409
_cell_angle_beta   89.89311478
_cell_angle_gamma   90.03589759
_symmetry_Int_Tables_number   1
_chemical_formula_structural   Ti20Ga7S5
_chemical_formula_sum   'Ti20 Ga7 S5'
_cell_volume   497.76853567
_cell_formula_units_Z   1
loop_
 _symmetry_equiv_pos_site_id
 _symmetry_equiv_pos_as_xyz
  1  'x, y, z'
loop_
 _atom_site_type_symbol
 _atom_site_label
 _atom_site_symmetry_multiplicity
 _atom_site_fract_x
 _atom_site_fract_y
 _atom_site_fract_z
 _atom_site_occupancy
  Ti  Ti0  1  0.818719  0.553328  0.054734  1
  Ti  Ti1  1  0.678989  0.943786  0.560611  1
  Ti  Ti2  1  0.181272  0.055677  0.940163  1
  Ti  Ti3  1  0.320266  0.445960  0.442102  1
  Ti  Ti4  1  0.180953  0.448127  0.939187  1
  Ti  Ti5  1  0.320516  0.054260  0.441411  1
  Ti  Ti6  1  0.819666  0.946481  0.058409  1
  Ti  Ti7  1  0.675392  0.552081  0.566247  1
  Ti  Ti8  1  0.168420  0.750625  0.217976  1
  Ti  Ti9  1  0.338329  0.739860  0.718616  1
  Ti  Ti10  1  0.825941  0.258537  0.782742  1
  Ti  Ti11  1  0.669631  0.249796  0.280274  1
  Ti  Ti12  1  0.479027  0.742441  0.000070  1
  Ti  Ti13  1  0.018671  0.750533  0.502668  1
  Ti  Ti14  1  0.523522  0.257997  0.995027  1
  Ti  Ti15  1  0.978007  0.248778  0.498322  1
  Ti  Ti16  1  0.655902  0.748938  0.291221  1
  Ti  Ti17  1  0.844193  0.744764  0.793091  1
  Ti  Ti18  1  0.345264  0.256131  0.708197  1
  Ti  Ti19  1  0.156116  0.248957  0.208340  1
  Ga  Ga20  1  0.937192  0.506433  0.324027  1
  Ga  Ga21  1  0.561765  0.993173  0.825142  1
  Ga  Ga22  1  0.063631  0.006887  0.677669  1
  Ga  Ga23  1  0.435880  0.492403  0.178411  1
  Ga  Ga24  1  0.063071  0.493025  0.673235  1
  Ga  Ga25  1  0.439010  0.006719  0.172438  1
  Ga  Ga26  1  0.936860  0.992980  0.324264  1
  S  S27  1  0.399078  0.749847  0.472309  1
  S  S28  1  0.098176  0.751736  0.975007  1
  S  S29  1  0.598454  0.248050  0.525056  1
  S  S30  1  0.903265  0.250005  0.026724  1
  S  S31  1  0.564820  0.511687  0.826312  1
