# generated using pymatgen
data_Dy10Ho10Co3Bi8Ru
_symmetry_space_group_name_H-M   'P 1'
_cell_length_a   7.97675241
_cell_length_b   8.91587400
_cell_length_c   12.41830211
_cell_angle_alpha   90.00000000
_cell_angle_beta   90.20324295
_cell_angle_gamma   90.00000000
_symmetry_Int_Tables_number   1
_chemical_formula_structural   Dy10Ho10Co3Bi8Ru
_chemical_formula_sum   'Dy10 Ho10 Co3 Bi8 Ru1'
_cell_volume   883.18060536
_cell_formula_units_Z   1
loop_
 _symmetry_equiv_pos_site_id
 _symmetry_equiv_pos_as_xyz
  1  'x, y, z'
loop_
 _atom_site_type_symbol
 _atom_site_label
 _atom_site_symmetry_multiplicity
 _atom_site_fract_x
 _atom_site_fract_y
 _atom_site_fract_z
 _atom_site_occupancy
  Dy  Dy0  1  0.152101  0.250000  0.198280  1
  Dy  Dy1  1  0.347868  0.250000  0.699192  1
  Dy  Dy2  1  0.378973  0.750000  0.692943  1
  Dy  Dy3  1  0.618174  0.250000  0.310719  1
  Dy  Dy4  1  0.881306  0.250000  0.811531  1
  Dy  Dy5  1  0.117840  0.750000  0.187064  1
  Dy  Dy6  1  0.948842  0.750000  0.503686  1
  Dy  Dy7  1  0.050675  0.250000  0.496890  1
  Dy  Dy8  1  0.450808  0.250000  0.997273  1
  Dy  Dy9  1  0.549925  0.750000  0.002506  1
  Ho  Ho10  1  0.847202  0.750000  0.800668  1
  Ho  Ho11  1  0.653634  0.750000  0.296432  1
  Ho  Ho12  1  0.676206  0.042252  0.564496  1
  Ho  Ho13  1  0.325018  0.965144  0.436291  1
  Ho  Ho14  1  0.174231  0.965037  0.936885  1
  Ho  Ho15  1  0.325018  0.534856  0.436291  1
  Ho  Ho16  1  0.824673  0.036486  0.062944  1
  Ho  Ho17  1  0.676206  0.457748  0.564496  1
  Ho  Ho18  1  0.824673  0.463514  0.062944  1
  Ho  Ho19  1  0.174231  0.534963  0.936885  1
  Co  Co20  1  0.434040  0.250000  0.490997  1
  Co  Co21  1  0.060979  0.250000  0.992204  1
  Co  Co22  1  0.937121  0.750000  0.006961  1
  Bi  Bi23  1  0.570891  0.491826  0.826815  1
  Bi  Bi24  1  0.429058  0.508293  0.173507  1
  Bi  Bi25  1  0.070564  0.508025  0.674522  1
  Bi  Bi26  1  0.429058  0.991707  0.173507  1
  Bi  Bi27  1  0.930280  0.492437  0.325963  1
  Bi  Bi28  1  0.570891  0.008174  0.826815  1
  Bi  Bi29  1  0.930280  0.007563  0.325963  1
  Bi  Bi30  1  0.070564  0.991975  0.674522  1
  Ru  Ru31  1  0.568673  0.750000  0.509809  1
