# generated using pymatgen
data_TbPr4US10
_symmetry_space_group_name_H-M   'P 1'
_cell_length_a   7.57492600
_cell_length_b   8.09987200
_cell_length_c   12.01875100
_cell_angle_alpha   90.00000000
_cell_angle_beta   90.00000000
_cell_angle_gamma   90.00000000
_symmetry_Int_Tables_number   1
_chemical_formula_structural   TbPr4US10
_chemical_formula_sum   'Tb2 Pr8 U2 S20'
_cell_volume   737.42165718
_cell_formula_units_Z   2
loop_
 _symmetry_equiv_pos_site_id
 _symmetry_equiv_pos_as_xyz
  1  'x, y, z'
loop_
 _atom_site_type_symbol
 _atom_site_label
 _atom_site_symmetry_multiplicity
 _atom_site_fract_x
 _atom_site_fract_y
 _atom_site_fract_z
 _atom_site_occupancy
  Tb  Tb0  1  0.072593  0.750000  0.493715  1
  Tb  Tb1  1  0.427407  0.750000  0.993715  1
  Pr  Pr2  1  0.527018  0.502118  0.323484  1
  Pr  Pr3  1  0.972982  0.997882  0.823484  1
  Pr  Pr4  1  0.478226  0.998151  0.676840  1
  Pr  Pr5  1  0.021774  0.501849  0.176840  1
  Pr  Pr6  1  0.478226  0.501849  0.676840  1
  Pr  Pr7  1  0.021774  0.998151  0.176840  1
  Pr  Pr8  1  0.527018  0.997882  0.323484  1
  Pr  Pr9  1  0.972982  0.502118  0.823484  1
  U  U10  1  0.944256  0.250000  0.505717  1
  U  U11  1  0.555744  0.250000  0.005717  1
  S  S12  1  0.838478  0.970773  0.595225  1
  S  S13  1  0.661522  0.529227  0.095225  1
  S  S14  1  0.161450  0.454120  0.405118  1
  S  S15  1  0.338550  0.045880  0.905118  1
  S  S16  1  0.161450  0.045880  0.405118  1
  S  S17  1  0.338550  0.454120  0.905118  1
  S  S18  1  0.838478  0.529227  0.595225  1
  S  S19  1  0.661522  0.970773  0.095225  1
  S  S20  1  0.829323  0.750000  0.311690  1
  S  S21  1  0.670677  0.750000  0.811690  1
  S  S22  1  0.166817  0.250000  0.682932  1
  S  S23  1  0.333183  0.250000  0.182932  1
  S  S24  1  0.453996  0.750000  0.497618  1
  S  S25  1  0.046004  0.750000  0.997618  1
  S  S26  1  0.552049  0.250000  0.500658  1
  S  S27  1  0.947951  0.250000  0.000658  1
  S  S28  1  0.194358  0.750000  0.714113  1
  S  S29  1  0.305642  0.750000  0.214113  1
  S  S30  1  0.809748  0.250000  0.292224  1
  S  S31  1  0.690252  0.250000  0.792224  1
