# generated using pymatgen
data_Ca2AlAgAu2
_symmetry_space_group_name_H-M   'P 1'
_cell_length_a   4.43729000
_cell_length_b   7.36580745
_cell_length_c   8.32711495
_cell_angle_alpha   88.63389595
_cell_angle_beta   90.00000000
_cell_angle_gamma   90.00000000
_symmetry_Int_Tables_number   1
_chemical_formula_structural   Ca2AlAgAu2
_chemical_formula_sum   'Ca4 Al2 Ag2 Au4'
_cell_volume   272.08793013
_cell_formula_units_Z   2
loop_
 _symmetry_equiv_pos_site_id
 _symmetry_equiv_pos_as_xyz
  1  'x, y, z'
loop_
 _atom_site_type_symbol
 _atom_site_label
 _atom_site_symmetry_multiplicity
 _atom_site_fract_x
 _atom_site_fract_y
 _atom_site_fract_z
 _atom_site_occupancy
  Ca  Ca0  1  0.250000  0.010444  0.305582  1
  Ca  Ca1  1  0.250000  0.526688  0.184797  1
  Ca  Ca2  1  0.750000  0.989556  0.694418  1
  Ca  Ca3  1  0.750000  0.473312  0.815203  1
  Al  Al4  1  0.250000  0.656870  0.567180  1
  Al  Al5  1  0.750000  0.343130  0.432820  1
  Ag  Ag6  1  0.750000  0.840284  0.072704  1
  Ag  Ag7  1  0.250000  0.159716  0.927296  1
  Au  Au8  1  0.250000  0.761411  0.863211  1
  Au  Au9  1  0.750000  0.238589  0.136789  1
  Au  Au10  1  0.750000  0.711158  0.411616  1
  Au  Au11  1  0.250000  0.288842  0.588384  1
