# generated using pymatgen
data_Ho9Lu7(ScSb3)4
_symmetry_space_group_name_H-M   'P 1'
_cell_length_a   7.90874437
_cell_length_b   9.11575502
_cell_length_c   11.68175854
_cell_angle_alpha   89.99516629
_cell_angle_beta   90.03448683
_cell_angle_gamma   90.00486927
_symmetry_Int_Tables_number   1
_chemical_formula_structural   Ho9Lu7(ScSb3)4
_chemical_formula_sum   'Ho9 Lu7 Sc4 Sb12'
_cell_volume   842.18659895
_cell_formula_units_Z   1
loop_
 _symmetry_equiv_pos_site_id
 _symmetry_equiv_pos_as_xyz
  1  'x, y, z'
loop_
 _atom_site_type_symbol
 _atom_site_label
 _atom_site_symmetry_multiplicity
 _atom_site_fract_x
 _atom_site_fract_y
 _atom_site_fract_z
 _atom_site_occupancy
  Ho  Ho0  1  0.196373  0.561238  0.440326  1
  Ho  Ho1  1  0.184504  0.750257  0.721303  1
  Ho  Ho2  1  0.684584  0.750085  0.779090  1
  Ho  Ho3  1  0.815838  0.249961  0.278812  1
  Ho  Ho4  1  0.315654  0.250015  0.221047  1
  Ho  Ho5  1  0.854690  0.750536  0.285020  1
  Ho  Ho6  1  0.355853  0.750501  0.214531  1
  Ho  Ho7  1  0.144921  0.250333  0.714787  1
  Ho  Ho8  1  0.645065  0.250061  0.785330  1
  Lu  Lu9  1  0.696959  0.937375  0.059516  1
  Lu  Lu10  1  0.802655  0.062698  0.559677  1
  Lu  Lu11  1  0.303341  0.437238  0.940446  1
  Lu  Lu12  1  0.803406  0.437216  0.559509  1
  Lu  Lu13  1  0.303174  0.062648  0.940423  1
  Lu  Lu14  1  0.197026  0.937134  0.440234  1
  Lu  Lu15  1  0.696930  0.562767  0.059555  1
  Sc  Sc16  1  0.027836  0.750014  0.988542  1
  Sc  Sc17  1  0.528291  0.750188  0.511421  1
  Sc  Sc18  1  0.971970  0.250188  0.011128  1
  Sc  Sc19  1  0.472090  0.250105  0.488618  1
  Sb  Sb20  1  0.933493  0.496165  0.832337  1
  Sb  Sb21  1  0.433769  0.004082  0.667982  1
  Sb  Sb22  1  0.066312  0.996332  0.167572  1
  Sb  Sb23  1  0.567122  0.503976  0.331935  1
  Sb  Sb24  1  0.066150  0.503968  0.167579  1
  Sb  Sb25  1  0.566469  0.996396  0.332069  1
  Sb  Sb26  1  0.933572  0.004045  0.832222  1
  Sb  Sb27  1  0.433795  0.496292  0.668275  1
  Sb  Sb28  1  0.906117  0.750726  0.541564  1
  Sb  Sb29  1  0.406783  0.749930  0.958680  1
  Sb  Sb30  1  0.092175  0.247512  0.459198  1
  Sb  Sb31  1  0.593082  0.250018  0.041273  1
