# generated using pymatgen
data_PrNd4Sn10(IrRh)2
_symmetry_space_group_name_H-M   'P 1'
_cell_length_a   14.21521343
_cell_length_b   14.21373643
_cell_length_c   4.65693500
_cell_angle_alpha   90.00000000
_cell_angle_beta   90.00000000
_cell_angle_gamma   89.97191335
_symmetry_Int_Tables_number   1
_chemical_formula_structural   PrNd4Sn10(IrRh)2
_chemical_formula_sum   'Pr2 Nd8 Sn20 Ir4 Rh4'
_cell_volume   940.93964329
_cell_formula_units_Z   2
loop_
 _symmetry_equiv_pos_site_id
 _symmetry_equiv_pos_as_xyz
  1  'x, y, z'
loop_
 _atom_site_type_symbol
 _atom_site_label
 _atom_site_symmetry_multiplicity
 _atom_site_fract_x
 _atom_site_fract_y
 _atom_site_fract_z
 _atom_site_occupancy
  Pr  Pr0  1  0.388420  0.113348  0.500000  1
  Pr  Pr1  1  0.611580  0.886652  0.500000  1
  Nd  Nd2  1  0.500000  0.500000  0.000000  1
  Nd  Nd3  1  0.000000  0.000000  0.000000  1
  Nd  Nd4  1  0.677508  0.178962  0.500000  1
  Nd  Nd5  1  0.322492  0.821038  0.500000  1
  Nd  Nd6  1  0.177382  0.321176  0.500000  1
  Nd  Nd7  1  0.822618  0.678824  0.500000  1
  Nd  Nd8  1  0.888505  0.386660  0.500000  1
  Nd  Nd9  1  0.111495  0.613340  0.500000  1
  Sn  Sn10  1  0.570296  0.069128  0.000000  1
  Sn  Sn11  1  0.429704  0.930872  0.000000  1
  Sn  Sn12  1  0.070216  0.430975  0.000000  1
  Sn  Sn13  1  0.929784  0.569025  0.000000  1
  Sn  Sn14  1  0.654365  0.698674  0.000000  1
  Sn  Sn15  1  0.345635  0.301326  0.000000  1
  Sn  Sn16  1  0.154335  0.801203  0.000000  1
  Sn  Sn17  1  0.845665  0.198797  0.000000  1
  Sn  Sn18  1  0.301419  0.653431  0.000000  1
  Sn  Sn19  1  0.698581  0.346569  0.000000  1
  Sn  Sn20  1  0.198430  0.153482  0.000000  1
  Sn  Sn21  1  0.801570  0.846518  0.000000  1
  Sn  Sn22  1  0.664112  0.504439  0.500000  1
  Sn  Sn23  1  0.335888  0.495561  0.500000  1
  Sn  Sn24  1  0.164032  0.995543  0.500000  1
  Sn  Sn25  1  0.835968  0.004457  0.500000  1
  Sn  Sn26  1  0.495011  0.662331  0.500000  1
  Sn  Sn27  1  0.504989  0.337669  0.500000  1
  Sn  Sn28  1  0.004984  0.162390  0.500000  1
  Sn  Sn29  1  0.995016  0.837610  0.500000  1
  Ir  Ir30  1  0.470707  0.746458  0.000000  1
  Ir  Ir31  1  0.529293  0.253542  0.000000  1
  Ir  Ir32  1  0.029079  0.246740  0.000000  1
  Ir  Ir33  1  0.970921  0.753260  0.000000  1
  Rh  Rh34  1  0.745420  0.528544  0.000000  1
  Rh  Rh35  1  0.254580  0.471456  0.000000  1
  Rh  Rh36  1  0.245160  0.971277  0.000000  1
  Rh  Rh37  1  0.754840  0.028723  0.000000  1
