# generated using pymatgen
data_Tb2Ho5Th(CdIr)2
_symmetry_space_group_name_H-M   'P 1'
_cell_length_a   9.67828235
_cell_length_b   9.67428617
_cell_length_c   9.66833778
_cell_angle_alpha   60.04712731
_cell_angle_beta   60.00746148
_cell_angle_gamma   60.16159517
_symmetry_Int_Tables_number   1
_chemical_formula_structural   Tb2Ho5Th(CdIr)2
_chemical_formula_sum   'Tb4 Ho10 Th2 Cd4 Ir4'
_cell_volume   641.15199196
_cell_formula_units_Z   2
loop_
 _symmetry_equiv_pos_site_id
 _symmetry_equiv_pos_as_xyz
  1  'x, y, z'
loop_
 _atom_site_type_symbol
 _atom_site_label
 _atom_site_symmetry_multiplicity
 _atom_site_fract_x
 _atom_site_fract_y
 _atom_site_fract_z
 _atom_site_occupancy
  Tb  Tb0  1  0.814413  0.187734  0.813372  1
  Tb  Tb1  1  0.187733  0.814422  0.184476  1
  Tb  Tb2  1  0.815387  0.815388  0.184610  1
  Tb  Tb3  1  0.190964  0.190968  0.809037  1
  Ho  Ho4  1  0.602265  0.197625  0.599970  1
  Ho  Ho5  1  0.197630  0.602268  0.600138  1
  Ho  Ho6  1  0.062003  0.438709  0.438576  1
  Ho  Ho7  1  0.438710  0.061995  0.060712  1
  Ho  Ho8  1  0.438471  0.062106  0.438844  1
  Ho  Ho9  1  0.062104  0.438466  0.060582  1
  Ho  Ho10  1  0.436237  0.436237  0.063766  1
  Ho  Ho11  1  0.061278  0.061277  0.438718  1
  Ho  Ho12  1  0.188451  0.813600  0.812419  1
  Ho  Ho13  1  0.813595  0.188453  0.185533  1
  Th  Th14  1  0.596821  0.596591  0.600147  1
  Th  Th15  1  0.596589  0.596820  0.206451  1
  Cd  Cd16  1  0.832125  0.831365  0.829334  1
  Cd  Cd17  1  0.831365  0.832119  0.507181  1
  Cd  Cd18  1  0.832469  0.503300  0.832465  1
  Cd  Cd19  1  0.503303  0.832477  0.831761  1
  Ir  Ir20  1  0.391590  0.390900  0.395128  1
  Ir  Ir21  1  0.390904  0.391583  0.822385  1
  Ir  Ir22  1  0.392657  0.822944  0.392557  1
  Ir  Ir23  1  0.822939  0.392656  0.391840  1
