# generated using pymatgen
data_CsP2PtS8
_symmetry_space_group_name_H-M   'P 1'
_cell_length_a   7.14368428
_cell_length_b   11.39597708
_cell_length_c   17.48079100
_cell_angle_alpha   99.01761533
_cell_angle_beta   89.98408737
_cell_angle_gamma   108.27451500
_symmetry_Int_Tables_number   1
_chemical_formula_structural   CsP2PtS8
_chemical_formula_sum   'Cs4 P8 Pt4 S32'
_cell_volume   1332.80898772
_cell_formula_units_Z   4
loop_
 _symmetry_equiv_pos_site_id
 _symmetry_equiv_pos_as_xyz
  1  'x, y, z'
loop_
 _atom_site_type_symbol
 _atom_site_label
 _atom_site_symmetry_multiplicity
 _atom_site_fract_x
 _atom_site_fract_y
 _atom_site_fract_z
 _atom_site_occupancy
  Cs  Cs0  1  0.700691  0.812925  0.345028  1
  Cs  Cs1  1  0.492971  0.511394  0.618266  1
  Cs  Cs2  1  0.018233  0.511294  0.118279  1
  Cs  Cs3  1  0.112082  0.813024  0.845046  1
  P  P4  1  0.425642  0.143940  0.212062  1
  P  P5  1  0.259919  0.152480  0.485706  1
  P  P6  1  0.892621  0.152435  0.985663  1
  P  P7  1  0.085812  0.714532  0.600844  1
  P  P8  1  0.628604  0.714512  0.100902  1
  P  P9  1  0.125614  0.531919  0.357296  1
  P  P10  1  0.718401  0.143894  0.712012  1
  P  P11  1  0.406257  0.531951  0.857313  1
  Pt  Pt12  1  0.657947  0.994390  0.103923  1
  Pt  Pt13  1  0.023481  0.297412  0.847926  1
  Pt  Pt14  1  0.336542  0.994396  0.603879  1
  Pt  Pt15  1  0.273939  0.297430  0.347986  1
  S  S16  1  0.136418  0.515358  0.906440  1
  S  S17  1  0.152793  0.686420  0.315843  1
  S  S18  1  0.904811  0.668551  0.494415  1
  S  S19  1  0.378828  0.515404  0.406454  1
  S  S20  1  0.434630  0.051480  0.738399  1
  S  S21  1  0.245376  0.966618  0.467326  1
  S  S22  1  0.556958  0.575026  0.159552  1
  S  S23  1  0.011948  0.875617  0.637072  1
  S  S24  1  0.763679  0.668505  0.994449  1
  S  S25  1  0.030204  0.359771  0.285596  1
  S  S26  1  0.828527  0.333899  0.748168  1
  S  S27  1  0.414637  0.097630  0.093319  1
  S  S28  1  0.616888  0.051496  0.238438  1
  S  S29  1  0.045494  0.211515  0.441960  1
  S  S30  1  0.505523  0.333944  0.248227  1
  S  S31  1  0.383634  0.792789  0.587036  1
  S  S32  1  0.863695  0.875557  0.137080  1
  S  S33  1  0.721325  0.966545  0.967375  1
  S  S34  1  0.919845  0.092345  0.771750  1
  S  S35  1  0.755264  0.255747  0.933407  1
  S  S36  1  0.897145  0.495232  0.439009  1
  S  S37  1  0.533616  0.686503  0.815900  1
  S  S38  1  0.597957  0.495235  0.939007  1
  S  S39  1  0.500578  0.255921  0.433444  1
  S  S40  1  0.256912  0.182354  0.604152  1
  S  S41  1  0.017849  0.575067  0.659511  1
  S  S42  1  0.683194  0.097613  0.593277  1
  S  S43  1  0.329659  0.359857  0.785557  1
  S  S44  1  0.166071  0.211553  0.941853  1
  S  S45  1  0.172553  0.092363  0.271786  1
  S  S46  1  0.409093  0.792791  0.087101  1
  S  S47  1  0.925620  0.182333  0.104114  1
