# generated using pymatgen
data_Ho11ErOs3Pd
_symmetry_space_group_name_H-M   'P 1'
_cell_length_a   6.38317422
_cell_length_b   7.33826809
_cell_length_c   9.04120200
_cell_angle_alpha   90.00000000
_cell_angle_beta   90.00000000
_cell_angle_gamma   90.33396761
_symmetry_Int_Tables_number   1
_chemical_formula_structural   Ho11ErOs3Pd
_chemical_formula_sum   'Ho11 Er1 Os3 Pd1'
_cell_volume   423.49576022
_cell_formula_units_Z   1
loop_
 _symmetry_equiv_pos_site_id
 _symmetry_equiv_pos_as_xyz
  1  'x, y, z'
loop_
 _atom_site_type_symbol
 _atom_site_label
 _atom_site_symmetry_multiplicity
 _atom_site_fract_x
 _atom_site_fract_y
 _atom_site_fract_z
 _atom_site_occupancy
  Ho  Ho0  1  0.338249  0.670120  0.057464  1
  Ho  Ho1  1  0.171554  0.183942  0.442242  1
  Ho  Ho2  1  0.670982  0.322974  0.562119  1
  Ho  Ho3  1  0.823408  0.823072  0.932434  1
  Ho  Ho4  1  0.670982  0.322974  0.937881  1
  Ho  Ho5  1  0.823408  0.823072  0.567566  1
  Ho  Ho6  1  0.338249  0.670120  0.442536  1
  Ho  Ho7  1  0.171554  0.183942  0.057758  1
  Ho  Ho8  1  0.872789  0.532419  0.250000  1
  Ho  Ho9  1  0.620779  0.039023  0.250000  1
  Ho  Ho10  1  0.122548  0.463462  0.750000  1
  Er  Er11  1  0.370016  0.963039  0.750000  1
  Os  Os12  1  0.462444  0.384195  0.250000  1
  Os  Os13  1  0.963637  0.114612  0.750000  1
  Os  Os14  1  0.533023  0.614838  0.750000  1
  Pd  Pd15  1  0.046373  0.888194  0.250000  1
