# generated using pymatgen
data_Ho8CdNi8Hg3
_symmetry_space_group_name_H-M   'P 1'
_cell_length_a   7.30503500
_cell_length_b   7.31976100
_cell_length_c   7.33028700
_cell_angle_alpha   90.00000000
_cell_angle_beta   90.00000000
_cell_angle_gamma   89.94011925
_symmetry_Int_Tables_number   1
_chemical_formula_structural   Ho8CdNi8Hg3
_chemical_formula_sum   'Ho8 Cd1 Ni8 Hg3'
_cell_volume   391.95837049
_cell_formula_units_Z   1
loop_
 _symmetry_equiv_pos_site_id
 _symmetry_equiv_pos_as_xyz
  1  'x, y, z'
loop_
 _atom_site_type_symbol
 _atom_site_label
 _atom_site_symmetry_multiplicity
 _atom_site_fract_x
 _atom_site_fract_y
 _atom_site_fract_z
 _atom_site_occupancy
  Ho  Ho0  1  0.176964  0.820323  0.500289  1
  Ho  Ho1  1  0.320304  0.323130  0.999913  1
  Ho  Ho2  1  0.676469  0.673873  0.500032  1
  Ho  Ho3  1  0.823036  0.179677  0.500289  1
  Ho  Ho4  1  0.173913  0.823581  0.999737  1
  Ho  Ho5  1  0.323531  0.326127  0.500032  1
  Ho  Ho6  1  0.679696  0.676870  0.999913  1
  Ho  Ho7  1  0.826087  0.176419  0.999737  1
  Cd  Cd8  1  0.500000  0.000000  0.249962  1
  Ni  Ni9  1  0.120942  0.113022  0.253629  1
  Ni  Ni10  1  0.883333  0.883536  0.746052  1
  Ni  Ni11  1  0.879058  0.886978  0.253629  1
  Ni  Ni12  1  0.116667  0.116464  0.746052  1
  Ni  Ni13  1  0.386857  0.621026  0.246304  1
  Ni  Ni14  1  0.616523  0.383960  0.754079  1
  Ni  Ni15  1  0.383477  0.616040  0.754079  1
  Ni  Ni16  1  0.613143  0.378974  0.246304  1
  Hg  Hg17  1  0.500000  0.000000  0.749997  1
  Hg  Hg18  1  0.000000  0.500000  0.249995  1
  Hg  Hg19  1  0.000000  0.500000  0.749977  1
