# generated using pymatgen
data_Dy8Ti6Nb6Si15P
_symmetry_space_group_name_H-M   'P 1'
_cell_length_a   7.03779575
_cell_length_b   7.04450231
_cell_length_c   12.94740679
_cell_angle_alpha   89.95906779
_cell_angle_beta   90.01057945
_cell_angle_gamma   89.97292620
_symmetry_Int_Tables_number   1
_chemical_formula_structural   Dy8Ti6Nb6Si15P
_chemical_formula_sum   'Dy8 Ti6 Nb6 Si15 P1'
_cell_volume   641.90328957
_cell_formula_units_Z   1
loop_
 _symmetry_equiv_pos_site_id
 _symmetry_equiv_pos_as_xyz
  1  'x, y, z'
loop_
 _atom_site_type_symbol
 _atom_site_label
 _atom_site_symmetry_multiplicity
 _atom_site_fract_x
 _atom_site_fract_y
 _atom_site_fract_z
 _atom_site_occupancy
  Dy  Dy0  1  0.997892  0.657537  0.033816  1
  Dy  Dy1  1  0.003182  0.345376  0.532270  1
  Dy  Dy2  1  0.657662  0.997735  0.966289  1
  Dy  Dy3  1  0.159403  0.504023  0.782903  1
  Dy  Dy4  1  0.843600  0.498279  0.284349  1
  Dy  Dy5  1  0.503962  0.159750  0.217148  1
  Dy  Dy6  1  0.496971  0.843246  0.716899  1
  Dy  Dy7  1  0.339304  0.000389  0.467059  1
  Ti  Ti8  1  0.675221  0.673671  0.499558  1
  Ti  Ti9  1  0.827964  0.171433  0.749789  1
  Ti  Ti10  1  0.170222  0.826967  0.251485  1
  Ti  Ti11  1  0.325180  0.324950  0.000162  1
  Ti  Ti12  1  0.492814  0.653719  0.125302  1
  Ti  Ti13  1  0.654083  0.493250  0.874815  1
  Nb  Nb14  1  0.342848  0.509909  0.376220  1
  Nb  Nb15  1  0.849858  0.990517  0.375788  1
  Nb  Nb16  1  0.006642  0.152611  0.126267  1
  Nb  Nb17  1  0.994803  0.845675  0.621760  1
  Nb  Nb18  1  0.508329  0.344864  0.624476  1
  Nb  Nb19  1  0.152613  0.006566  0.873997  1
  Si  Si20  1  0.951986  0.293588  0.935429  1
  Si  Si21  1  0.707133  0.046956  0.563669  1
  Si  Si22  1  0.209441  0.453656  0.185152  1
  Si  Si23  1  0.791660  0.547065  0.687082  1
  Si  Si24  1  0.453360  0.209631  0.815036  1
  Si  Si25  1  0.546756  0.792031  0.313022  1
  Si  Si26  1  0.293400  0.951756  0.064917  1
  Si  Si27  1  0.795035  0.865123  0.182960  1
  Si  Si28  1  0.301934  0.632655  0.568784  1
  Si  Si29  1  0.700465  0.368192  0.066036  1
  Si  Si30  1  0.632724  0.297056  0.432642  1
  Si  Si31  1  0.368503  0.700838  0.934170  1
  Si  Si32  1  0.133977  0.203237  0.316192  1
  Si  Si33  1  0.201711  0.133914  0.683061  1
  Si  Si34  1  0.865355  0.796387  0.815849  1
  P  P35  1  0.044003  0.707448  0.435647  1
