# generated using pymatgen
data_La12Nd2Ir5Rh
_symmetry_space_group_name_H-M   'P 1'
_cell_length_a   6.47214816
_cell_length_b   10.24932592
_cell_length_c   10.24932533
_cell_angle_alpha   119.96645630
_cell_angle_beta   90.02187761
_cell_angle_gamma   89.97812421
_symmetry_Int_Tables_number   1
_chemical_formula_structural   La12Nd2Ir5Rh
_chemical_formula_sum   'La12 Nd2 Ir5 Rh1'
_cell_volume   589.00138725
_cell_formula_units_Z   1
loop_
 _symmetry_equiv_pos_site_id
 _symmetry_equiv_pos_as_xyz
  1  'x, y, z'
loop_
 _atom_site_type_symbol
 _atom_site_label
 _atom_site_symmetry_multiplicity
 _atom_site_fract_x
 _atom_site_fract_y
 _atom_site_fract_z
 _atom_site_occupancy
  La  La0  1  0.250993  0.125828  0.874172  1
  La  La1  1  0.251172  0.747932  0.873184  1
  La  La2  1  0.251172  0.126816  0.252068  1
  La  La3  1  0.750162  0.874383  0.125617  1
  La  La4  1  0.750927  0.251926  0.125990  1
  La  La5  1  0.750927  0.874010  0.748074  1
  La  La6  1  0.436445  0.539954  0.460046  1
  La  La7  1  0.436990  0.920253  0.460535  1
  La  La8  1  0.436990  0.539465  0.079747  1
  La  La9  1  0.936703  0.460106  0.539894  1
  La  La10  1  0.936301  0.079998  0.540378  1
  La  La11  1  0.936301  0.459622  0.920002  1
  Nd  Nd12  1  0.469222  0.333382  0.666618  1
  Nd  Nd13  1  0.968867  0.666394  0.333606  1
  Ir  Ir14  1  0.189917  0.376728  0.188264  1
  Ir  Ir15  1  0.189917  0.811736  0.623272  1
  Ir  Ir16  1  0.689648  0.188324  0.811676  1
  Ir  Ir17  1  0.689479  0.623943  0.812391  1
  Ir  Ir18  1  0.689479  0.187609  0.376057  1
  Rh  Rh19  1  0.190383  0.811592  0.188408  1
