# generated using pymatgen
data_Ho12Th4Mg4IrRu3
_symmetry_space_group_name_H-M   'P 1'
_cell_length_a   9.74414435
_cell_length_b   9.74414403
_cell_length_c   9.74414405
_cell_angle_alpha   60.00911073
_cell_angle_beta   60.00910794
_cell_angle_gamma   60.00911077
_symmetry_Int_Tables_number   1
_chemical_formula_structural   Ho12Th4Mg4IrRu3
_chemical_formula_sum   'Ho12 Th4 Mg4 Ir1 Ru3'
_cell_volume   654.34349206
_cell_formula_units_Z   1
loop_
 _symmetry_equiv_pos_site_id
 _symmetry_equiv_pos_as_xyz
  1  'x, y, z'
loop_
 _atom_site_type_symbol
 _atom_site_label
 _atom_site_symmetry_multiplicity
 _atom_site_fract_x
 _atom_site_fract_y
 _atom_site_fract_z
 _atom_site_occupancy
  Ho  Ho0  1  0.811227  0.187123  0.187123  1
  Ho  Ho1  1  0.185911  0.813556  0.813556  1
  Ho  Ho2  1  0.187123  0.811227  0.187123  1
  Ho  Ho3  1  0.813556  0.185911  0.813556  1
  Ho  Ho4  1  0.187123  0.187123  0.811227  1
  Ho  Ho5  1  0.813556  0.813556  0.185911  1
  Ho  Ho6  1  0.935595  0.565279  0.565279  1
  Ho  Ho7  1  0.564587  0.935720  0.935720  1
  Ho  Ho8  1  0.565279  0.935595  0.565279  1
  Ho  Ho9  1  0.935720  0.564587  0.935720  1
  Ho  Ho10  1  0.565279  0.565279  0.935595  1
  Ho  Ho11  1  0.935720  0.935720  0.564587  1
  Th  Th12  1  0.346086  0.346086  0.346086  1
  Th  Th13  1  0.349017  0.349017  0.957673  1
  Th  Th14  1  0.349017  0.957673  0.349017  1
  Th  Th15  1  0.957673  0.349017  0.349017  1
  Mg  Mg16  1  0.580299  0.580299  0.580299  1
  Mg  Mg17  1  0.579886  0.579886  0.259545  1
  Mg  Mg18  1  0.579886  0.259545  0.579886  1
  Mg  Mg19  1  0.259545  0.579886  0.579886  1
  Ir  Ir20  1  0.142114  0.142114  0.142114  1
  Ru  Ru21  1  0.143682  0.143682  0.568439  1
  Ru  Ru22  1  0.143682  0.568439  0.143682  1
  Ru  Ru23  1  0.568439  0.143682  0.143682  1
