# generated using pymatgen
data_Y11Ho5MgHg3Ir4
_symmetry_space_group_name_H-M   'P 1'
_cell_length_a   9.63467526
_cell_length_b   9.63631698
_cell_length_c   9.63631697
_cell_angle_alpha   59.93633692
_cell_angle_beta   60.03304283
_cell_angle_gamma   60.03303478
_symmetry_Int_Tables_number   1
_chemical_formula_structural   Y11Ho5MgHg3Ir4
_chemical_formula_sum   'Y11 Ho5 Mg1 Hg3 Ir4'
_cell_volume   632.63226603
_cell_formula_units_Z   1
loop_
 _symmetry_equiv_pos_site_id
 _symmetry_equiv_pos_as_xyz
  1  'x, y, z'
loop_
 _atom_site_type_symbol
 _atom_site_label
 _atom_site_symmetry_multiplicity
 _atom_site_fract_x
 _atom_site_fract_y
 _atom_site_fract_z
 _atom_site_occupancy
  Y  Y0  1  0.438495  0.060902  0.060902  1
  Y  Y1  1  0.439252  0.060600  0.438473  1
  Y  Y2  1  0.057834  0.441254  0.057990  1
  Y  Y3  1  0.439252  0.438473  0.060600  1
  Y  Y4  1  0.057834  0.057990  0.441254  1
  Y  Y5  1  0.187768  0.811172  0.811172  1
  Y  Y6  1  0.810793  0.188428  0.188428  1
  Y  Y7  1  0.810835  0.189857  0.811345  1
  Y  Y8  1  0.186978  0.810272  0.191176  1
  Y  Y9  1  0.810835  0.811345  0.189857  1
  Y  Y10  1  0.186978  0.191176  0.810272  1
  Ho  Ho11  1  0.598754  0.597810  0.597810  1
  Ho  Ho12  1  0.599070  0.598016  0.205605  1
  Ho  Ho13  1  0.599070  0.205605  0.598016  1
  Ho  Ho14  1  0.195070  0.601760  0.601760  1
  Ho  Ho15  1  0.058021  0.441647  0.441647  1
  Mg  Mg16  1  0.537085  0.820891  0.820891  1
  Hg  Hg17  1  0.831954  0.836499  0.836499  1
  Hg  Hg18  1  0.832084  0.836826  0.494260  1
  Hg  Hg19  1  0.832084  0.494260  0.836826  1
  Ir  Ir20  1  0.386868  0.394841  0.394841  1
  Ir  Ir21  1  0.389625  0.394530  0.822425  1
  Ir  Ir22  1  0.389625  0.822425  0.394530  1
  Ir  Ir23  1  0.823838  0.393420  0.393420  1
