# generated using pymatgen
data_LaHoMn(Si3Pd10)2
_symmetry_space_group_name_H-M   'P 1'
_cell_length_a   8.70087047
_cell_length_b   8.70087037
_cell_length_c   8.70087100
_cell_angle_alpha   60.00000142
_cell_angle_beta   60.00000179
_cell_angle_gamma   60.00000082
_symmetry_Int_Tables_number   1
_chemical_formula_structural   LaHoMn(Si3Pd10)2
_chemical_formula_sum   'La1 Ho1 Mn1 Si6 Pd20'
_cell_volume   465.77175333
_cell_formula_units_Z   1
loop_
 _symmetry_equiv_pos_site_id
 _symmetry_equiv_pos_as_xyz
  1  'x, y, z'
loop_
 _atom_site_type_symbol
 _atom_site_label
 _atom_site_symmetry_multiplicity
 _atom_site_fract_x
 _atom_site_fract_y
 _atom_site_fract_z
 _atom_site_occupancy
  La  La0  1  0.250000  0.250000  0.250000  1
  Ho  Ho1  1  0.750000  0.750000  0.750000  1
  Mn  Mn2  1  0.000000  0.000000  0.000000  1
  Si  Si3  1  0.733719  0.266281  0.266281  1
  Si  Si4  1  0.266281  0.733719  0.733719  1
  Si  Si5  1  0.266281  0.733719  0.266281  1
  Si  Si6  1  0.733719  0.266281  0.733719  1
  Si  Si7  1  0.266281  0.266281  0.733719  1
  Si  Si8  1  0.733719  0.733719  0.266281  1
  Pd  Pd9  1  0.385300  0.385300  0.385300  1
  Pd  Pd10  1  0.616963  0.616963  0.616963  1
  Pd  Pd11  1  0.385300  0.385300  0.844102  1
  Pd  Pd12  1  0.385300  0.844102  0.385300  1
  Pd  Pd13  1  0.616963  0.616963  0.149108  1
  Pd  Pd14  1  0.616963  0.149108  0.616963  1
  Pd  Pd15  1  0.844102  0.385300  0.385300  1
  Pd  Pd16  1  0.149108  0.616963  0.616963  1
  Pd  Pd17  1  0.343945  0.998871  0.998871  1
  Pd  Pd18  1  0.658313  0.998871  0.998871  1
  Pd  Pd19  1  0.998871  0.343945  0.658313  1
  Pd  Pd20  1  0.998871  0.658313  0.343945  1
  Pd  Pd21  1  0.998871  0.343945  0.998871  1
  Pd  Pd22  1  0.658313  0.998871  0.343945  1
  Pd  Pd23  1  0.998871  0.658313  0.998871  1
  Pd  Pd24  1  0.343945  0.998871  0.658313  1
  Pd  Pd25  1  0.998871  0.998871  0.343945  1
  Pd  Pd26  1  0.998871  0.998871  0.658313  1
  Pd  Pd27  1  0.658313  0.343945  0.998871  1
  Pd  Pd28  1  0.343945  0.658313  0.998871  1
