# generated using pymatgen
data_Dy3HoAl17GaIr6
_symmetry_space_group_name_H-M   'P 1'
_cell_length_a   7.54717502
_cell_length_b   7.54748339
_cell_length_c   9.49257100
_cell_angle_alpha   90.00000000
_cell_angle_beta   90.00000000
_cell_angle_gamma   119.39944774
_symmetry_Int_Tables_number   1
_chemical_formula_structural   Dy3HoAl17GaIr6
_chemical_formula_sum   'Dy3 Ho1 Al17 Ga1 Ir6'
_cell_volume   471.08313004
_cell_formula_units_Z   1
loop_
 _symmetry_equiv_pos_site_id
 _symmetry_equiv_pos_as_xyz
  1  'x, y, z'
loop_
 _atom_site_type_symbol
 _atom_site_label
 _atom_site_symmetry_multiplicity
 _atom_site_fract_x
 _atom_site_fract_y
 _atom_site_fract_z
 _atom_site_occupancy
  Dy  Dy0  1  0.993760  0.674647  0.250000  1
  Dy  Dy1  1  0.004866  0.327660  0.750000  1
  Dy  Dy2  1  0.674656  0.993762  0.250000  1
  Ho  Ho3  1  0.327641  0.004850  0.750000  1
  Al  Al4  1  0.869677  0.869607  0.750000  1
  Al  Al5  1  0.001398  0.335876  0.073572  1
  Al  Al6  1  0.998758  0.664351  0.925701  1
  Al  Al7  1  0.998758  0.664351  0.574299  1
  Al  Al8  1  0.335873  0.001397  0.426518  1
  Al  Al9  1  0.001398  0.335876  0.426428  1
  Al  Al10  1  0.664143  0.998660  0.574304  1
  Al  Al11  1  0.664143  0.998660  0.925696  1
  Al  Al12  1  0.335873  0.001397  0.073482  1
  Al  Al13  1  0.333161  0.333064  0.553850  1
  Al  Al14  1  0.665790  0.665788  0.449391  1
  Al  Al15  1  0.665790  0.665788  0.050609  1
  Al  Al16  1  0.333161  0.333064  0.946150  1
  Al  Al17  1  0.338871  0.549715  0.250000  1
  Al  Al18  1  0.660560  0.450942  0.750000  1
  Al  Al19  1  0.549707  0.338862  0.250000  1
  Al  Al20  1  0.451040  0.660733  0.750000  1
  Ga  Ga21  1  0.134631  0.134631  0.250000  1
  Ir  Ir22  1  0.671240  0.327546  0.000122  1
  Ir  Ir23  1  0.327595  0.671350  0.000123  1
  Ir  Ir24  1  0.327595  0.671350  0.499877  1
  Ir  Ir25  1  0.671240  0.327546  0.499878  1
  Ir  Ir26  1  0.999338  0.999264  0.997586  1
  Ir  Ir27  1  0.999338  0.999264  0.502414  1
