# generated using pymatgen
data_SmCo4P3Ru
_symmetry_space_group_name_H-M   'P 1'
_cell_length_a   3.73221600
_cell_length_b   10.51127200
_cell_length_c   11.89008600
_cell_angle_alpha   90.00000000
_cell_angle_beta   90.00000000
_cell_angle_gamma   90.00000000
_symmetry_Int_Tables_number   1
_chemical_formula_structural   SmCo4P3Ru
_chemical_formula_sum   'Sm4 Co16 P12 Ru4'
_cell_volume   466.45208714
_cell_formula_units_Z   4
loop_
 _symmetry_equiv_pos_site_id
 _symmetry_equiv_pos_as_xyz
  1  'x, y, z'
loop_
 _atom_site_type_symbol
 _atom_site_label
 _atom_site_symmetry_multiplicity
 _atom_site_fract_x
 _atom_site_fract_y
 _atom_site_fract_z
 _atom_site_occupancy
  Sm  Sm0  1  0.250000  0.586428  0.703779  1
  Sm  Sm1  1  0.250000  0.913572  0.203779  1
  Sm  Sm2  1  0.750000  0.413572  0.296221  1
  Sm  Sm3  1  0.750000  0.086428  0.796221  1
  Co  Co4  1  0.250000  0.408139  0.491059  1
  Co  Co5  1  0.250000  0.091861  0.991059  1
  Co  Co6  1  0.750000  0.591861  0.508941  1
  Co  Co7  1  0.750000  0.908139  0.008941  1
  Co  Co8  1  0.250000  0.221090  0.176055  1
  Co  Co9  1  0.250000  0.278910  0.676055  1
  Co  Co10  1  0.750000  0.778910  0.823945  1
  Co  Co11  1  0.750000  0.721090  0.323945  1
  Co  Co12  1  0.250000  0.886800  0.702068  1
  Co  Co13  1  0.250000  0.613200  0.202068  1
  Co  Co14  1  0.750000  0.113200  0.297932  1
  Co  Co15  1  0.750000  0.386800  0.797932  1
  Co  Co16  1  0.250000  0.465480  0.931271  1
  Co  Co17  1  0.250000  0.034520  0.431271  1
  Co  Co18  1  0.750000  0.534520  0.068729  1
  Co  Co19  1  0.750000  0.965480  0.568729  1
  P  P20  1  0.250000  0.419878  0.110459  1
  P  P21  1  0.250000  0.080122  0.610459  1
  P  P22  1  0.750000  0.580122  0.889541  1
  P  P23  1  0.750000  0.919878  0.389541  1
  P  P24  1  0.250000  0.274867  0.866946  1
  P  P25  1  0.250000  0.225133  0.366946  1
  P  P26  1  0.750000  0.725133  0.133054  1
  P  P27  1  0.750000  0.774867  0.633054  1
  P  P28  1  0.250000  0.597877  0.391382  1
  P  P29  1  0.250000  0.902123  0.891382  1
  P  P30  1  0.750000  0.402123  0.608618  1
  P  P31  1  0.750000  0.097877  0.108618  1
  Ru  Ru32  1  0.250000  0.715974  0.992199  1
  Ru  Ru33  1  0.250000  0.784026  0.492199  1
  Ru  Ru34  1  0.750000  0.284026  0.007801  1
  Ru  Ru35  1  0.750000  0.215974  0.507801  1
