# generated using pymatgen
data_Ca5Si3Sb9Rh19
_symmetry_space_group_name_H-M   'P 1'
_cell_length_a   13.55566900
_cell_length_b   13.55566949
_cell_length_c   4.18363300
_cell_angle_alpha   90.00000000
_cell_angle_beta   90.00000000
_cell_angle_gamma   120.00000124
_symmetry_Int_Tables_number   1
_chemical_formula_structural   Ca5Si3Sb9Rh19
_chemical_formula_sum   'Ca5 Si3 Sb9 Rh19'
_cell_volume   665.77293098
_cell_formula_units_Z   1
loop_
 _symmetry_equiv_pos_site_id
 _symmetry_equiv_pos_as_xyz
  1  'x, y, z'
loop_
 _atom_site_type_symbol
 _atom_site_label
 _atom_site_symmetry_multiplicity
 _atom_site_fract_x
 _atom_site_fract_y
 _atom_site_fract_z
 _atom_site_occupancy
  Ca  Ca0  1  0.000000  0.174979  0.500000  1
  Ca  Ca1  1  0.825021  0.825021  0.500000  1
  Ca  Ca2  1  0.174979  0.000000  0.500000  1
  Ca  Ca3  1  0.666667  0.333333  0.000000  1
  Ca  Ca4  1  0.333333  0.666667  0.000000  1
  Si  Si5  1  0.822626  0.000000  0.000000  1
  Si  Si6  1  0.177374  0.177374  0.000000  1
  Si  Si7  1  0.000000  0.822626  0.000000  1
  Sb  Sb8  1  0.474500  0.319722  0.500000  1
  Sb  Sb9  1  0.366688  0.000000  0.000000  1
  Sb  Sb10  1  0.680278  0.154778  0.500000  1
  Sb  Sb11  1  0.845222  0.525500  0.500000  1
  Sb  Sb12  1  0.525500  0.845222  0.500000  1
  Sb  Sb13  1  0.154778  0.680278  0.500000  1
  Sb  Sb14  1  0.319722  0.474500  0.500000  1
  Sb  Sb15  1  0.000000  0.366688  0.000000  1
  Sb  Sb16  1  0.633312  0.633312  0.000000  1
  Rh  Rh17  1  0.810087  0.170688  0.000000  1
  Rh  Rh18  1  0.360601  0.189913  0.000000  1
  Rh  Rh19  1  0.650774  0.521866  0.500000  1
  Rh  Rh20  1  0.871092  0.349226  0.500000  1
  Rh  Rh21  1  0.349226  0.871092  0.500000  1
  Rh  Rh22  1  0.521866  0.650774  0.500000  1
  Rh  Rh23  1  0.128908  0.478134  0.500000  1
  Rh  Rh24  1  0.829312  0.639399  0.000000  1
  Rh  Rh25  1  0.639399  0.829312  0.000000  1
  Rh  Rh26  1  0.170688  0.810087  0.000000  1
  Rh  Rh27  1  0.189913  0.360601  0.000000  1
  Rh  Rh28  1  0.000000  0.739599  0.500000  1
  Rh  Rh29  1  0.260401  0.260401  0.500000  1
  Rh  Rh30  1  0.739599  0.000000  0.500000  1
  Rh  Rh31  1  0.000000  0.558370  0.000000  1
  Rh  Rh32  1  0.441630  0.441630  0.000000  1
  Rh  Rh33  1  0.558370  0.000000  0.000000  1
  Rh  Rh34  1  0.000000  0.000000  0.000000  1
  Rh  Rh35  1  0.478134  0.128908  0.500000  1
