# generated using pymatgen
data_Ho4Al4Ir2PdPt
_symmetry_space_group_name_H-M   'P 1'
_cell_length_a   4.32432300
_cell_length_b   6.83318874
_cell_length_c   7.88615674
_cell_angle_alpha   89.98502543
_cell_angle_beta   90.00000000
_cell_angle_gamma   90.00000000
_symmetry_Int_Tables_number   1
_chemical_formula_structural   Ho4Al4Ir2PdPt
_chemical_formula_sum   'Ho4 Al4 Ir2 Pd1 Pt1'
_cell_volume   233.02736911
_cell_formula_units_Z   1
loop_
 _symmetry_equiv_pos_site_id
 _symmetry_equiv_pos_as_xyz
  1  'x, y, z'
loop_
 _atom_site_type_symbol
 _atom_site_label
 _atom_site_symmetry_multiplicity
 _atom_site_fract_x
 _atom_site_fract_y
 _atom_site_fract_z
 _atom_site_occupancy
  Ho  Ho0  1  0.250000  0.025211  0.678243  1
  Ho  Ho1  1  0.250000  0.539539  0.819458  1
  Ho  Ho2  1  0.750000  0.963800  0.320034  1
  Ho  Ho3  1  0.750000  0.475297  0.180266  1
  Al  Al4  1  0.250000  0.135947  0.062936  1
  Al  Al5  1  0.250000  0.642857  0.438079  1
  Al  Al6  1  0.750000  0.855603  0.938235  1
  Al  Al7  1  0.750000  0.363994  0.560197  1
  Ir  Ir8  1  0.250000  0.764956  0.121053  1
  Ir  Ir9  1  0.750000  0.734055  0.621374  1
  Pd  Pd10  1  0.750000  0.231126  0.880360  1
  Pt  Pt11  1  0.250000  0.267614  0.379767  1
