# generated using pymatgen
data_Cs12V3GeSe16
_symmetry_space_group_name_H-M   'P 1'
_cell_length_a   10.30586399
_cell_length_b   10.45288512
_cell_length_c   12.05944900
_cell_angle_alpha   90.00000000
_cell_angle_beta   90.00000000
_cell_angle_gamma   90.44370816
_symmetry_Int_Tables_number   1
_chemical_formula_structural   Cs12V3GeSe16
_chemical_formula_sum   'Cs12 V3 Ge1 Se16'
_cell_volume   1299.07739658
_cell_formula_units_Z   1
loop_
 _symmetry_equiv_pos_site_id
 _symmetry_equiv_pos_as_xyz
  1  'x, y, z'
loop_
 _atom_site_type_symbol
 _atom_site_label
 _atom_site_symmetry_multiplicity
 _atom_site_fract_x
 _atom_site_fract_y
 _atom_site_fract_z
 _atom_site_occupancy
  Cs  Cs0  1  0.639903  0.919175  0.250000  1
  Cs  Cs1  1  0.146616  0.584954  0.250000  1
  Cs  Cs2  1  0.857296  0.419359  0.750000  1
  Cs  Cs3  1  0.360213  0.078776  0.750000  1
  Cs  Cs4  1  0.048619  0.798220  0.958208  1
  Cs  Cs5  1  0.551301  0.702201  0.544691  1
  Cs  Cs6  1  0.448000  0.293476  0.044130  1
  Cs  Cs7  1  0.949115  0.205647  0.458926  1
  Cs  Cs8  1  0.949115  0.205647  0.041074  1
  Cs  Cs9  1  0.448000  0.293476  0.455870  1
  Cs  Cs10  1  0.551301  0.702201  0.955309  1
  Cs  Cs11  1  0.048619  0.798220  0.541792  1
  V  V12  1  0.779843  0.981816  0.750000  1
  V  V13  1  0.219108  0.018919  0.250000  1
  V  V14  1  0.724160  0.481108  0.250000  1
  Ge  Ge15  1  0.277589  0.515579  0.750000  1
  Se  Se16  1  0.329281  0.958130  0.093539  1
  Se  Se17  1  0.833734  0.542446  0.406938  1
  Se  Se18  1  0.164179  0.460223  0.915632  1
  Se  Se19  1  0.670447  0.041856  0.593050  1
  Se  Se20  1  0.014329  0.928404  0.250000  1
  Se  Se21  1  0.520907  0.571503  0.250000  1
  Se  Se22  1  0.485441  0.417685  0.750000  1
  Se  Se23  1  0.984205  0.072419  0.750000  1
  Se  Se24  1  0.670447  0.041856  0.906950  1
  Se  Se25  1  0.329281  0.958130  0.406461  1
  Se  Se26  1  0.833734  0.542446  0.093062  1
  Se  Se27  1  0.164179  0.460223  0.584368  1
  Se  Se28  1  0.798064  0.762967  0.750000  1
  Se  Se29  1  0.298495  0.743120  0.750000  1
  Se  Se30  1  0.703765  0.261956  0.250000  1
  Se  Se31  1  0.200717  0.237861  0.250000  1
