# generated using pymatgen
data_Y20Mg3Co2Ag3
_symmetry_space_group_name_H-M   'P 1'
_cell_length_a   9.70777700
_cell_length_b   9.70819885
_cell_length_c   9.67546100
_cell_angle_alpha   90.00000000
_cell_angle_beta   90.00000000
_cell_angle_gamma   119.99597868
_symmetry_Int_Tables_number   1
_chemical_formula_structural   Y20Mg3Co2Ag3
_chemical_formula_sum   'Y20 Mg3 Co2 Ag3'
_cell_volume   789.72947971
_cell_formula_units_Z   1
loop_
 _symmetry_equiv_pos_site_id
 _symmetry_equiv_pos_as_xyz
  1  'x, y, z'
loop_
 _atom_site_type_symbol
 _atom_site_label
 _atom_site_symmetry_multiplicity
 _atom_site_fract_x
 _atom_site_fract_y
 _atom_site_fract_z
 _atom_site_occupancy
  Y  Y0  1  0.000002  0.999999  0.461008  1
  Y  Y1  1  0.000002  0.999999  0.038992  1
  Y  Y2  1  0.541478  0.458522  0.250000  1
  Y  Y3  1  0.541477  0.082960  0.250000  1
  Y  Y4  1  0.917040  0.458524  0.250000  1
  Y  Y5  1  0.456873  0.543127  0.750000  1
  Y  Y6  1  0.456876  0.913747  0.750000  1
  Y  Y7  1  0.086253  0.543124  0.750000  1
  Y  Y8  1  0.212361  0.787638  0.436422  1
  Y  Y9  1  0.212360  0.424723  0.436420  1
  Y  Y10  1  0.575277  0.787639  0.436420  1
  Y  Y11  1  0.787973  0.212026  0.562017  1
  Y  Y12  1  0.787972  0.575945  0.562020  1
  Y  Y13  1  0.424054  0.212027  0.562019  1
  Y  Y14  1  0.787973  0.212026  0.937983  1
  Y  Y15  1  0.787972  0.575945  0.937980  1
  Y  Y16  1  0.424054  0.212027  0.937981  1
  Y  Y17  1  0.212361  0.787638  0.063578  1
  Y  Y18  1  0.212360  0.424723  0.063580  1
  Y  Y19  1  0.575277  0.787639  0.063580  1
  Mg  Mg20  1  0.107877  0.892127  0.750000  1
  Mg  Mg21  1  0.107875  0.215743  0.750000  1
  Mg  Mg22  1  0.784259  0.892127  0.750000  1
  Co  Co23  1  0.333332  0.666667  0.250000  1
  Co  Co24  1  0.666665  0.333330  0.750000  1
  Ag  Ag25  1  0.872252  0.127749  0.250000  1
  Ag  Ag26  1  0.872252  0.744505  0.250000  1
  Ag  Ag27  1  0.255499  0.127752  0.250000  1
