# generated using pymatgen
data_Zr3Ti3Si2Se
_symmetry_space_group_name_H-M   'P 1'
_cell_length_a   6.98982800
_cell_length_b   6.98982883
_cell_length_c   3.77515600
_cell_angle_alpha   90.00000000
_cell_angle_beta   90.00000000
_cell_angle_gamma   120.00000553
_symmetry_Int_Tables_number   1
_chemical_formula_structural   Zr3Ti3Si2Se
_chemical_formula_sum   'Zr3 Ti3 Si2 Se1'
_cell_volume   159.73443137
_cell_formula_units_Z   1
loop_
 _symmetry_equiv_pos_site_id
 _symmetry_equiv_pos_as_xyz
  1  'x, y, z'
loop_
 _atom_site_type_symbol
 _atom_site_label
 _atom_site_symmetry_multiplicity
 _atom_site_fract_x
 _atom_site_fract_y
 _atom_site_fract_z
 _atom_site_occupancy
  Zr  Zr0  1  0.403255  0.993478  0.500000  1
  Zr  Zr1  1  0.006522  0.409778  0.500000  1
  Zr  Zr2  1  0.590223  0.596745  0.500000  1
  Ti  Ti3  1  0.753947  0.995912  0.000000  1
  Ti  Ti4  1  0.241965  0.246053  0.000000  1
  Ti  Ti5  1  0.004088  0.758036  0.000000  1
  Si  Si6  1  0.333333  0.666666  0.000000  1
  Si  Si7  1  0.000000  0.000000  0.500000  1
  Se  Se8  1  0.666667  0.333334  0.000000  1
