# generated using pymatgen
data_Tm3CoReNi7P6
_symmetry_space_group_name_H-M   'P 1'
_cell_length_a   3.73759400
_cell_length_b   10.52395900
_cell_length_c   12.30821600
_cell_angle_alpha   90.00000000
_cell_angle_beta   90.00000000
_cell_angle_gamma   90.00000000
_symmetry_Int_Tables_number   1
_chemical_formula_structural   Tm3CoReNi7P6
_chemical_formula_sum   'Tm6 Co2 Re2 Ni14 P12'
_cell_volume   484.13488847
_cell_formula_units_Z   2
loop_
 _symmetry_equiv_pos_site_id
 _symmetry_equiv_pos_as_xyz
  1  'x, y, z'
loop_
 _atom_site_type_symbol
 _atom_site_label
 _atom_site_symmetry_multiplicity
 _atom_site_fract_x
 _atom_site_fract_y
 _atom_site_fract_z
 _atom_site_occupancy
  Tm  Tm0  1  0.000000  0.500000  0.524094  1
  Tm  Tm1  1  0.500000  0.000000  0.475906  1
  Tm  Tm2  1  0.500000  0.817234  0.208316  1
  Tm  Tm3  1  0.500000  0.182766  0.208316  1
  Tm  Tm4  1  0.000000  0.682766  0.791684  1
  Tm  Tm5  1  0.000000  0.317234  0.791684  1
  Co  Co6  1  0.000000  0.500000  0.984326  1
  Co  Co7  1  0.500000  0.000000  0.015674  1
  Re  Re8  1  0.500000  0.500000  0.153062  1
  Re  Re9  1  0.000000  0.000000  0.846938  1
  Ni  Ni10  1  0.500000  0.500000  0.701935  1
  Ni  Ni11  1  0.000000  0.000000  0.298065  1
  Ni  Ni12  1  0.500000  0.331683  0.984862  1
  Ni  Ni13  1  0.500000  0.668317  0.984862  1
  Ni  Ni14  1  0.000000  0.168317  0.015138  1
  Ni  Ni15  1  0.000000  0.831683  0.015138  1
  Ni  Ni16  1  0.500000  0.303114  0.428076  1
  Ni  Ni17  1  0.500000  0.696886  0.428076  1
  Ni  Ni18  1  0.000000  0.196886  0.571924  1
  Ni  Ni19  1  0.000000  0.803114  0.571924  1
  Ni  Ni20  1  0.500000  0.878924  0.710219  1
  Ni  Ni21  1  0.500000  0.121076  0.710219  1
  Ni  Ni22  1  0.000000  0.621076  0.289781  1
  Ni  Ni23  1  0.000000  0.378924  0.289781  1
  P  P24  1  0.500000  0.500000  0.877922  1
  P  P25  1  0.000000  0.000000  0.122078  1
  P  P26  1  0.500000  0.500000  0.348895  1
  P  P27  1  0.000000  0.000000  0.651105  1
  P  P28  1  0.500000  0.314748  0.614184  1
  P  P29  1  0.500000  0.685252  0.614184  1
  P  P30  1  0.000000  0.185252  0.385816  1
  P  P31  1  0.000000  0.814748  0.385816  1
  P  P32  1  0.500000  0.848848  0.891892  1
  P  P33  1  0.500000  0.151152  0.891892  1
  P  P34  1  0.000000  0.651152  0.108108  1
  P  P35  1  0.000000  0.348848  0.108108  1
