# generated using pymatgen
data_Er5ThBiO12
_symmetry_space_group_name_H-M   'P 1'
_cell_length_a   6.56210508
_cell_length_b   6.56809526
_cell_length_c   6.56364190
_cell_angle_alpha   99.14980865
_cell_angle_beta   98.82557029
_cell_angle_gamma   99.16406518
_symmetry_Int_Tables_number   1
_chemical_formula_structural   Er5ThBiO12
_chemical_formula_sum   'Er5 Th1 Bi1 O12'
_cell_volume   271.05531899
_cell_formula_units_Z   1
loop_
 _symmetry_equiv_pos_site_id
 _symmetry_equiv_pos_as_xyz
  1  'x, y, z'
loop_
 _atom_site_type_symbol
 _atom_site_label
 _atom_site_symmetry_multiplicity
 _atom_site_fract_x
 _atom_site_fract_y
 _atom_site_fract_z
 _atom_site_occupancy
  Er  Er0  1  0.146801  0.613672  0.319261  1
  Er  Er1  1  0.685866  0.857849  0.397957  1
  Er  Er2  1  0.306890  0.140391  0.605213  1
  Er  Er3  1  0.864600  0.392809  0.688893  1
  Er  Er4  1  0.387576  0.687221  0.852242  1
  Th  Th5  1  0.606114  0.311936  0.141452  1
  Bi  Bi6  1  0.996374  0.993989  0.997830  1
  O  O7  1  0.681818  0.924372  0.054483  1
  O  O8  1  0.958304  0.316839  0.073379  1
  O  O9  1  0.429454  0.591389  0.177746  1
  O  O10  1  0.075517  0.950020  0.314903  1
  O  O11  1  0.823589  0.572114  0.416846  1
  O  O12  1  0.587054  0.177495  0.435128  1
  O  O13  1  0.413400  0.822868  0.569705  1
  O  O14  1  0.178565  0.429829  0.585227  1
  O  O15  1  0.925196  0.051312  0.684423  1
  O  O16  1  0.570303  0.416022  0.819636  1
  O  O17  1  0.050542  0.681522  0.924723  1
  O  O18  1  0.312036  0.068351  0.940950  1
