# generated using pymatgen
data_La16Sm4Sn15Sb
_symmetry_space_group_name_H-M   'P 1'
_cell_length_a   8.46767338
_cell_length_b   8.55846506
_cell_length_c   16.32267057
_cell_angle_alpha   89.93638427
_cell_angle_beta   90.29789723
_cell_angle_gamma   89.95288425
_symmetry_Int_Tables_number   1
_chemical_formula_structural   La16Sm4Sn15Sb
_chemical_formula_sum   'La16 Sm4 Sn15 Sb1'
_cell_volume   1182.89149352
_cell_formula_units_Z   1
loop_
 _symmetry_equiv_pos_site_id
 _symmetry_equiv_pos_as_xyz
  1  'x, y, z'
loop_
 _atom_site_type_symbol
 _atom_site_label
 _atom_site_symmetry_multiplicity
 _atom_site_fract_x
 _atom_site_fract_y
 _atom_site_fract_z
 _atom_site_occupancy
  La  La0  1  0.970902  0.820453  0.898890  1
  La  La1  1  0.466708  0.680477  0.601675  1
  La  La2  1  0.529240  0.319475  0.100758  1
  La  La3  1  0.033687  0.176793  0.397290  1
  La  La4  1  0.967912  0.821945  0.601623  1
  La  La5  1  0.470549  0.680095  0.899015  1
  La  La6  1  0.529739  0.318563  0.398256  1
  La  La7  1  0.028981  0.180849  0.100604  1
  La  La8  1  0.881216  0.659446  0.384213  1
  La  La9  1  0.379017  0.840625  0.117526  1
  La  La10  1  0.618805  0.159874  0.617285  1
  La  La11  1  0.121764  0.341319  0.882079  1
  La  La12  1  0.120187  0.339992  0.616206  1
  La  La13  1  0.621768  0.158944  0.881943  1
  La  La14  1  0.380703  0.840313  0.382797  1
  La  La15  1  0.879039  0.658486  0.117516  1
  Sm  Sm16  1  0.286186  0.002020  0.750897  1
  Sm  Sm17  1  0.786653  0.497891  0.753619  1
  Sm  Sm18  1  0.213273  0.502739  0.249060  1
  Sm  Sm19  1  0.713500  0.997667  0.248960  1
  Sn  Sn20  1  0.280745  0.030734  0.953722  1
  Sn  Sn21  1  0.721578  0.972146  0.453788  1
  Sn  Sn22  1  0.219524  0.530171  0.045854  1
  Sn  Sn23  1  0.222417  0.527833  0.453373  1
  Sn  Sn24  1  0.719194  0.969803  0.045934  1
  Sn  Sn25  1  0.279466  0.028223  0.547021  1
  Sn  Sn26  1  0.780984  0.469818  0.953721  1
  Sn  Sn27  1  0.166000  0.642965  0.749312  1
  Sn  Sn28  1  0.665470  0.856710  0.749346  1
  Sn  Sn29  1  0.334198  0.143366  0.249758  1
  Sn  Sn30  1  0.833559  0.357447  0.250776  1
  Sn  Sn31  1  0.922528  0.119532  0.748651  1
  Sn  Sn32  1  0.421124  0.380960  0.748803  1
  Sn  Sn33  1  0.579379  0.618835  0.250811  1
  Sn  Sn34  1  0.077139  0.879931  0.250057  1
  Sb  Sb35  1  0.776865  0.473565  0.548861  1
