# generated using pymatgen
data_Er4(Al8Ni3)3
_symmetry_space_group_name_H-M   'P 1'
_cell_length_a   7.26076101
_cell_length_b   7.27502524
_cell_length_c   12.67596982
_cell_angle_alpha   84.58965416
_cell_angle_beta   100.88641227
_cell_angle_gamma   119.75473237
_symmetry_Int_Tables_number   1
_chemical_formula_structural   Er4(Al8Ni3)3
_chemical_formula_sum   'Er4 Al24 Ni9'
_cell_volume   570.83354138
_cell_formula_units_Z   1
loop_
 _symmetry_equiv_pos_site_id
 _symmetry_equiv_pos_as_xyz
  1  'x, y, z'
loop_
 _atom_site_type_symbol
 _atom_site_label
 _atom_site_symmetry_multiplicity
 _atom_site_fract_x
 _atom_site_fract_y
 _atom_site_fract_z
 _atom_site_occupancy
  Er  Er0  1  0.732485  0.997348  0.195246  1
  Er  Er1  1  0.267515  0.002652  0.804754  1
  Er  Er2  1  0.062540  0.668330  0.195230  1
  Er  Er3  1  0.937460  0.331670  0.804770  1
  Al  Al4  1  0.812463  0.874379  0.814109  1
  Al  Al5  1  0.187537  0.125621  0.185891  1
  Al  Al6  1  0.986484  0.666523  0.947690  1
  Al  Al7  1  0.013516  0.333477  0.052310  1
  Al  Al8  1  0.392958  0.664490  0.815533  1
  Al  Al9  1  0.607042  0.335510  0.184467  1
  Al  Al10  1  0.881548  0.666080  0.663967  1
  Al  Al11  1  0.118452  0.333920  0.336033  1
  Al  Al12  1  0.602889  0.454071  0.815069  1
  Al  Al13  1  0.397111  0.545929  0.184931  1
  Al  Al14  1  0.229773  0.341169  0.662503  1
  Al  Al15  1  0.770227  0.658831  0.337497  1
  Al  Al16  1  0.853281  0.333783  0.557335  1
  Al  Al17  1  0.186652  0.000079  0.557481  1
  Al  Al18  1  0.813348  0.999921  0.442519  1
  Al  Al19  1  0.350741  0.996296  0.052060  1
  Al  Al20  1  0.649259  0.003704  0.947940  1
  Al  Al21  1  0.555359  0.994355  0.663849  1
  Al  Al22  1  0.444641  0.005645  0.336151  1
  Al  Al23  1  0.521528  0.667243  0.560025  1
  Al  Al24  1  0.478472  0.332757  0.439975  1
  Al  Al25  1  0.682973  0.669589  0.039576  1
  Al  Al26  1  0.317027  0.330411  0.960424  1
  Al  Al27  1  0.146719  0.666217  0.442665  1
  Ni  Ni28  1  0.329908  0.670295  0.000507  1
  Ni  Ni29  1  0.548199  0.326402  0.637448  1
  Ni  Ni30  1  0.451801  0.673598  0.362552  1
  Ni  Ni31  1  0.888994  0.008051  0.637816  1
  Ni  Ni32  1  0.111006  0.991949  0.362184  1
  Ni  Ni33  1  0.670092  0.329705  0.999493  1
  Ni  Ni34  1  0.206227  0.668149  0.638061  1
  Ni  Ni35  1  0.793773  0.331851  0.361939  1
  Ni  Ni36  1  0.000000  0.000000  0.000000  1
