# generated using pymatgen
data_Tm4Si5Rh9
_symmetry_space_group_name_H-M   'P 1'
_cell_length_a   11.67213861
_cell_length_b   11.67213820
_cell_length_c   11.67213947
_cell_angle_alpha   27.27062256
_cell_angle_beta   27.27062615
_cell_angle_gamma   27.27062728
_symmetry_Int_Tables_number   1
_chemical_formula_structural   Tm4Si5Rh9
_chemical_formula_sum   'Tm4 Si5 Rh9'
_cell_volume   294.57439247
_cell_formula_units_Z   1
loop_
 _symmetry_equiv_pos_site_id
 _symmetry_equiv_pos_as_xyz
  1  'x, y, z'
loop_
 _atom_site_type_symbol
 _atom_site_label
 _atom_site_symmetry_multiplicity
 _atom_site_fract_x
 _atom_site_fract_y
 _atom_site_fract_z
 _atom_site_occupancy
  Tm  Tm0  1  0.948952  0.948952  0.948952  1
  Tm  Tm1  1  0.850893  0.850893  0.850893  1
  Tm  Tm2  1  0.149107  0.149107  0.149107  1
  Tm  Tm3  1  0.051048  0.051048  0.051048  1
  Si  Si4  1  0.278269  0.278269  0.278269  1
  Si  Si5  1  0.500000  0.500000  0.500000  1
  Si  Si6  1  0.388522  0.388522  0.388522  1
  Si  Si7  1  0.721731  0.721731  0.721731  1
  Si  Si8  1  0.611478  0.611478  0.611478  1
  Rh  Rh9  1  0.609382  0.609382  0.108357  1
  Rh  Rh10  1  0.891643  0.390618  0.390618  1
  Rh  Rh11  1  0.500000  0.000000  0.500000  1
  Rh  Rh12  1  0.390618  0.891643  0.390618  1
  Rh  Rh13  1  0.500000  0.500000  0.000000  1
  Rh  Rh14  1  0.108357  0.609382  0.609382  1
  Rh  Rh15  1  0.000000  0.500000  0.500000  1
  Rh  Rh16  1  0.390618  0.390618  0.891643  1
  Rh  Rh17  1  0.609382  0.108357  0.609382  1
