# generated using pymatgen
data_Ho8CdSn(HgAu4)2
_symmetry_space_group_name_H-M   'P 1'
_cell_length_a   8.00800700
_cell_length_b   8.00800700
_cell_length_c   7.31288400
_cell_angle_alpha   90.00000000
_cell_angle_beta   90.00000000
_cell_angle_gamma   90.00000000
_symmetry_Int_Tables_number   1
_chemical_formula_structural   Ho8CdSn(HgAu4)2
_chemical_formula_sum   'Ho8 Cd1 Sn1 Hg2 Au8'
_cell_volume   468.96191304
_cell_formula_units_Z   1
loop_
 _symmetry_equiv_pos_site_id
 _symmetry_equiv_pos_as_xyz
  1  'x, y, z'
loop_
 _atom_site_type_symbol
 _atom_site_label
 _atom_site_symmetry_multiplicity
 _atom_site_fract_x
 _atom_site_fract_y
 _atom_site_fract_z
 _atom_site_occupancy
  Ho  Ho0  1  0.844368  0.163000  0.500042  1
  Ho  Ho1  1  0.155632  0.837000  0.500042  1
  Ho  Ho2  1  0.337000  0.344368  0.999958  1
  Ho  Ho3  1  0.663000  0.655632  0.999958  1
  Ho  Ho4  1  0.685737  0.678956  0.500099  1
  Ho  Ho5  1  0.314263  0.321044  0.500099  1
  Ho  Ho6  1  0.178956  0.814263  0.999901  1
  Ho  Ho7  1  0.821044  0.185737  0.999901  1
  Cd  Cd8  1  0.500000  0.000000  0.250000  1
  Sn  Sn9  1  0.000000  0.500000  0.250000  1
  Hg  Hg10  1  0.000000  0.500000  0.750000  1
  Hg  Hg11  1  0.500000  0.000000  0.750000  1
  Au  Au12  1  0.623433  0.367045  0.273817  1
  Au  Au13  1  0.376567  0.632955  0.273817  1
  Au  Au14  1  0.129906  0.126152  0.772882  1
  Au  Au15  1  0.870094  0.873848  0.772882  1
  Au  Au16  1  0.373848  0.629906  0.727118  1
  Au  Au17  1  0.626152  0.370094  0.727118  1
  Au  Au18  1  0.867045  0.876567  0.226183  1
  Au  Au19  1  0.132955  0.123433  0.226183  1
