# generated using pymatgen
data_Ce2Cr4Fe2Ni6P7
_symmetry_space_group_name_H-M   'P 1'
_cell_length_a   9.20801914
_cell_length_b   9.15581190
_cell_length_c   3.67975000
_cell_angle_alpha   90.00000000
_cell_angle_beta   90.00000000
_cell_angle_gamma   119.81604389
_symmetry_Int_Tables_number   1
_chemical_formula_structural   Ce2Cr4Fe2Ni6P7
_chemical_formula_sum   'Ce2 Cr4 Fe2 Ni6 P7'
_cell_volume   269.16220414
_cell_formula_units_Z   1
loop_
 _symmetry_equiv_pos_site_id
 _symmetry_equiv_pos_as_xyz
  1  'x, y, z'
loop_
 _atom_site_type_symbol
 _atom_site_label
 _atom_site_symmetry_multiplicity
 _atom_site_fract_x
 _atom_site_fract_y
 _atom_site_fract_z
 _atom_site_occupancy
  Ce  Ce0  1  0.662979  0.330987  0.500000  1
  Ce  Ce1  1  0.334393  0.662589  0.000000  1
  Cr  Cr2  1  0.880869  0.784317  0.500000  1
  Cr  Cr3  1  0.901089  0.119164  0.500000  1
  Cr  Cr4  1  0.051561  0.616587  0.500000  1
  Cr  Cr5  1  0.212565  0.099570  0.500000  1
  Fe  Fe6  1  0.387514  0.432500  0.500000  1
  Fe  Fe7  1  0.155436  0.273928  0.000000  1
  Ni  Ni8  1  0.121148  0.845813  0.000000  1
  Ni  Ni9  1  0.721575  0.876970  0.000000  1
  Ni  Ni10  1  0.942200  0.372243  0.000000  1
  Ni  Ni11  1  0.564776  0.949642  0.500000  1
  Ni  Ni12  1  0.629389  0.570016  0.000000  1
  Ni  Ni13  1  0.430371  0.062584  0.000000  1
  P  P14  1  0.596744  0.706799  0.500000  1
  P  P15  1  0.120867  0.399432  0.500000  1
  P  P16  1  0.886980  0.592748  0.000000  1
  P  P17  1  0.292224  0.889309  0.500000  1
  P  P18  1  0.997931  0.001938  0.000000  1
  P  P19  1  0.705888  0.111827  0.000000  1
  P  P20  1  0.403501  0.301037  0.000000  1
