# generated using pymatgen
data_LiCd7(PPd3)4
_symmetry_space_group_name_H-M   'P 1'
_cell_length_a   7.36715212
_cell_length_b   7.36715212
_cell_length_c   7.36715212
_cell_angle_alpha   89.95532873
_cell_angle_beta   90.04467127
_cell_angle_gamma   89.95532873
_symmetry_Int_Tables_number   1
_chemical_formula_structural   LiCd7(PPd3)4
_chemical_formula_sum   'Li1 Cd7 P4 Pd12'
_cell_volume   399.85130348
_cell_formula_units_Z   1
loop_
 _symmetry_equiv_pos_site_id
 _symmetry_equiv_pos_as_xyz
  1  'x, y, z'
loop_
 _atom_site_type_symbol
 _atom_site_label
 _atom_site_symmetry_multiplicity
 _atom_site_fract_x
 _atom_site_fract_y
 _atom_site_fract_z
 _atom_site_occupancy
  Li  Li0  1  0.763338  0.736662  0.263338  1
  Cd  Cd1  1  0.296092  0.298547  0.290311  1
  Cd  Cd2  1  0.039549  0.460451  0.539549  1
  Cd  Cd3  1  0.559275  0.027576  0.424389  1
  Cd  Cd4  1  0.472424  0.575611  0.059275  1
  Cd  Cd5  1  0.201453  0.709689  0.796092  1
  Cd  Cd6  1  0.924389  0.940725  0.972424  1
  Cd  Cd7  1  0.790311  0.203908  0.701453  1
  P  P8  1  0.864364  0.397993  0.137255  1
  P  P9  1  0.371446  0.128554  0.871446  1
  P  P10  1  0.637255  0.635636  0.602007  1
  P  P11  1  0.102007  0.862745  0.364364  1
  Pd  Pd12  1  0.204038  0.069262  0.605242  1
  Pd  Pd13  1  0.430738  0.394758  0.704038  1
  Pd  Pd14  1  0.093195  0.618643  0.156242  1
  Pd  Pd15  1  0.935318  0.133589  0.312066  1
  Pd  Pd16  1  0.311652  0.945898  0.127737  1
  Pd  Pd17  1  0.656242  0.406805  0.381357  1
  Pd  Pd18  1  0.554102  0.872263  0.811652  1
  Pd  Pd19  1  0.627737  0.188348  0.054102  1
  Pd  Pd20  1  0.366411  0.687934  0.435318  1
  Pd  Pd21  1  0.881357  0.843758  0.593195  1
  Pd  Pd22  1  0.105242  0.295962  0.930738  1
  Pd  Pd23  1  0.812066  0.564682  0.866411  1
