# generated using pymatgen
data_Nd3TmAlNi19Sn4
_symmetry_space_group_name_H-M   'P 1'
_cell_length_a   4.92357400
_cell_length_b   4.92357436
_cell_length_c   19.60360400
_cell_angle_alpha   90.00000000
_cell_angle_beta   90.00000000
_cell_angle_gamma   120.00001102
_symmetry_Int_Tables_number   1
_chemical_formula_structural   Nd3TmAlNi19Sn4
_chemical_formula_sum   'Nd3 Tm1 Al1 Ni19 Sn4'
_cell_volume   411.55461452
_cell_formula_units_Z   1
loop_
 _symmetry_equiv_pos_site_id
 _symmetry_equiv_pos_as_xyz
  1  'x, y, z'
loop_
 _atom_site_type_symbol
 _atom_site_label
 _atom_site_symmetry_multiplicity
 _atom_site_fract_x
 _atom_site_fract_y
 _atom_site_fract_z
 _atom_site_occupancy
  Nd  Nd0  1  0.666667  0.333333  0.750000  1
  Nd  Nd1  1  0.000000  0.000000  0.500229  1
  Nd  Nd2  1  0.000000  0.000000  0.999771  1
  Tm  Tm3  1  0.333333  0.666667  0.250000  1
  Al  Al4  1  0.000000  0.000000  0.250000  1
  Ni  Ni5  1  0.000000  0.000000  0.750000  1
  Ni  Ni6  1  0.333333  0.666667  0.750000  1
  Ni  Ni7  1  0.666667  0.333333  0.250000  1
  Ni  Ni8  1  0.333333  0.666667  0.957374  1
  Ni  Ni9  1  0.666667  0.333333  0.043866  1
  Ni  Ni10  1  0.666667  0.333333  0.456134  1
  Ni  Ni11  1  0.333333  0.666667  0.542626  1
  Ni  Ni12  1  0.832792  0.167208  0.351792  1
  Ni  Ni13  1  0.832792  0.665584  0.351792  1
  Ni  Ni14  1  0.334416  0.167208  0.351792  1
  Ni  Ni15  1  0.166065  0.833935  0.646018  1
  Ni  Ni16  1  0.166065  0.332130  0.646018  1
  Ni  Ni17  1  0.667870  0.833935  0.646018  1
  Ni  Ni18  1  0.166065  0.833935  0.853982  1
  Ni  Ni19  1  0.166065  0.332130  0.853982  1
  Ni  Ni20  1  0.667870  0.833935  0.853982  1
  Ni  Ni21  1  0.832792  0.167208  0.148208  1
  Ni  Ni22  1  0.832792  0.665584  0.148208  1
  Ni  Ni23  1  0.334416  0.167208  0.148208  1
  Sn  Sn24  1  0.333333  0.666667  0.410768  1
  Sn  Sn25  1  0.666667  0.333333  0.587118  1
  Sn  Sn26  1  0.666667  0.333333  0.912882  1
  Sn  Sn27  1  0.333333  0.666667  0.089232  1
