# generated using pymatgen
data_Lu5HgBiIr
_symmetry_space_group_name_H-M   'P 1'
_cell_length_a   8.72180030
_cell_length_b   8.72180033
_cell_length_c   8.55144164
_cell_angle_alpha   125.23075469
_cell_angle_beta   125.23075675
_cell_angle_gamma   82.46069332
_symmetry_Int_Tables_number   1
_chemical_formula_structural   Lu5HgBiIr
_chemical_formula_sum   'Lu10 Hg2 Bi2 Ir2'
_cell_volume   413.75002364
_cell_formula_units_Z   2
loop_
 _symmetry_equiv_pos_site_id
 _symmetry_equiv_pos_as_xyz
  1  'x, y, z'
loop_
 _atom_site_type_symbol
 _atom_site_label
 _atom_site_symmetry_multiplicity
 _atom_site_fract_x
 _atom_site_fract_y
 _atom_site_fract_z
 _atom_site_occupancy
  Lu  Lu0  1  0.000000  0.000000  0.000000  1
  Lu  Lu1  1  0.500000  0.500000  0.000000  1
  Lu  Lu2  1  0.813936  0.313936  0.852689  1
  Lu  Lu3  1  0.186064  0.686064  0.147311  1
  Lu  Lu4  1  0.461249  0.961249  0.147311  1
  Lu  Lu5  1  0.278336  0.495301  0.500000  1
  Lu  Lu6  1  0.004699  0.221664  0.500000  1
  Lu  Lu7  1  0.538751  0.038751  0.852689  1
  Lu  Lu8  1  0.721664  0.504699  0.500000  1
  Lu  Lu9  1  0.995301  0.778336  0.500000  1
  Hg  Hg10  1  0.638950  0.861050  0.500000  1
  Hg  Hg11  1  0.361050  0.138950  0.500000  1
  Bi  Bi12  1  0.250000  0.250000  0.000000  1
  Bi  Bi13  1  0.750000  0.750000  0.000000  1
  Ir  Ir14  1  0.137653  0.637653  0.775306  1
  Ir  Ir15  1  0.862347  0.362347  0.224694  1
