# generated using pymatgen
data_Ce5Y3(ScIr3)2
_symmetry_space_group_name_H-M   'P 1'
_cell_length_a   10.92874954
_cell_length_b   11.00278500
_cell_length_c   6.18072527
_cell_angle_alpha   90.00000000
_cell_angle_beta   89.60411183
_cell_angle_gamma   90.00000000
_symmetry_Int_Tables_number   1
_chemical_formula_structural   Ce5Y3(ScIr3)2
_chemical_formula_sum   'Ce10 Y6 Sc4 Ir12'
_cell_volume   743.19396209
_cell_formula_units_Z   2
loop_
 _symmetry_equiv_pos_site_id
 _symmetry_equiv_pos_as_xyz
  1  'x, y, z'
loop_
 _atom_site_type_symbol
 _atom_site_label
 _atom_site_symmetry_multiplicity
 _atom_site_fract_x
 _atom_site_fract_y
 _atom_site_fract_z
 _atom_site_occupancy
  Ce  Ce0  1  0.285635  0.087084  0.379466  1
  Ce  Ce1  1  0.285635  0.912916  0.879466  1
  Ce  Ce2  1  0.714648  0.089154  0.880923  1
  Ce  Ce3  1  0.714648  0.910846  0.380923  1
  Ce  Ce4  1  0.589657  0.783439  0.881484  1
  Ce  Ce5  1  0.589657  0.216561  0.381484  1
  Ce  Ce6  1  0.409969  0.782351  0.381000  1
  Ce  Ce7  1  0.409969  0.217649  0.881000  1
  Ce  Ce8  1  0.211523  0.412723  0.618620  1
  Ce  Ce9  1  0.211523  0.587277  0.118620  1
  Y  Y10  1  0.790321  0.416171  0.120638  1
  Y  Y11  1  0.790321  0.583829  0.620638  1
  Y  Y12  1  0.913484  0.713018  0.120283  1
  Y  Y13  1  0.913484  0.286982  0.620283  1
  Y  Y14  1  0.082690  0.716670  0.621452  1
  Y  Y15  1  0.082690  0.283330  0.121452  1
  Sc  Sc16  1  0.998603  0.000179  0.499857  1
  Sc  Sc17  1  0.998603  0.999821  0.999857  1
  Sc  Sc18  1  0.502152  0.498738  0.004083  1
  Sc  Sc19  1  0.502152  0.501262  0.504083  1
  Ir  Ir20  1  0.847147  0.144489  0.246327  1
  Ir  Ir21  1  0.847147  0.855511  0.746327  1
  Ir  Ir22  1  0.150786  0.144899  0.742476  1
  Ir  Ir23  1  0.150786  0.855101  0.242476  1
  Ir  Ir24  1  0.646047  0.348922  0.746726  1
  Ir  Ir25  1  0.646047  0.651078  0.246726  1
  Ir  Ir26  1  0.351286  0.349552  0.255010  1
  Ir  Ir27  1  0.351286  0.650448  0.755010  1
  Ir  Ir28  1  0.500063  0.000620  0.121458  1
  Ir  Ir29  1  0.500063  0.999380  0.621458  1
  Ir  Ir30  1  0.005989  0.499080  0.880196  1
  Ir  Ir31  1  0.005989  0.500920  0.380196  1
