# generated using pymatgen
data_U6Fe5Co7(SiB2)2
_symmetry_space_group_name_H-M   'P 1'
_cell_length_a   5.12942500
_cell_length_b   5.10195970
_cell_length_c   13.18003640
_cell_angle_alpha   90.17764374
_cell_angle_beta   90.00000000
_cell_angle_gamma   120.17824447
_symmetry_Int_Tables_number   1
_chemical_formula_structural   U6Fe5Co7(SiB2)2
_chemical_formula_sum   'U6 Fe5 Co7 Si2 B4'
_cell_volume   298.17231012
_cell_formula_units_Z   1
loop_
 _symmetry_equiv_pos_site_id
 _symmetry_equiv_pos_as_xyz
  1  'x, y, z'
loop_
 _atom_site_type_symbol
 _atom_site_label
 _atom_site_symmetry_multiplicity
 _atom_site_fract_x
 _atom_site_fract_y
 _atom_site_fract_z
 _atom_site_occupancy
  U  U0  1  0.334482  0.668965  0.247375  1
  U  U1  1  0.665139  0.330277  0.748912  1
  U  U2  1  0.334180  0.668361  0.039228  1
  U  U3  1  0.665437  0.330873  0.539263  1
  U  U4  1  0.665376  0.330751  0.969758  1
  U  U5  1  0.338148  0.676298  0.466899  1
  Fe  Fe6  1  0.833755  0.667509  0.141985  1
  Fe  Fe7  1  0.165231  0.829674  0.642222  1
  Fe  Fe8  1  0.664442  0.829674  0.642222  1
  Fe  Fe9  1  0.334121  0.168113  0.142196  1
  Fe  Fe10  1  0.833991  0.168113  0.142196  1
  Co  Co11  1  0.165831  0.331661  0.856005  1
  Co  Co12  1  0.165693  0.830447  0.855955  1
  Co  Co13  1  0.164781  0.329562  0.644590  1
  Co  Co14  1  0.664754  0.830447  0.855955  1
  Co  Co15  1  0.335859  0.171325  0.356373  1
  Co  Co16  1  0.834674  0.669348  0.356282  1
  Co  Co17  1  0.835466  0.171325  0.356373  1
  Si  Si18  1  0.999628  0.999255  0.999491  1
  Si  Si19  1  0.000673  0.001346  0.499642  1
  B  B20  1  0.001099  0.002198  0.248941  1
  B  B21  1  0.996694  0.993389  0.749582  1
  B  B22  1  0.332854  0.665710  0.749487  1
  B  B23  1  0.667691  0.335380  0.249071  1
