# generated using pymatgen
data_Tm5(GaTe)2
_symmetry_space_group_name_H-M   'P 1'
_cell_length_a   8.56075300
_cell_length_b   8.56075333
_cell_length_c   7.82485900
_cell_angle_alpha   90.00000000
_cell_angle_beta   90.00000000
_cell_angle_gamma   125.78347835
_symmetry_Int_Tables_number   1
_chemical_formula_structural   Tm5(GaTe)2
_chemical_formula_sum   'Tm10 Ga4 Te4'
_cell_volume   465.20651861
_cell_formula_units_Z   2
loop_
 _symmetry_equiv_pos_site_id
 _symmetry_equiv_pos_as_xyz
  1  'x, y, z'
loop_
 _atom_site_type_symbol
 _atom_site_label
 _atom_site_symmetry_multiplicity
 _atom_site_fract_x
 _atom_site_fract_y
 _atom_site_fract_z
 _atom_site_occupancy
  Tm  Tm0  1  0.000000  0.000000  0.000000  1
  Tm  Tm1  1  0.500000  0.500000  0.500000  1
  Tm  Tm2  1  0.791935  0.540610  0.167228  1
  Tm  Tm3  1  0.459390  0.208065  0.832772  1
  Tm  Tm4  1  0.959390  0.708065  0.667228  1
  Tm  Tm5  1  0.291935  0.040610  0.332772  1
  Tm  Tm6  1  0.208065  0.459390  0.832772  1
  Tm  Tm7  1  0.540610  0.791935  0.167228  1
  Tm  Tm8  1  0.040610  0.291935  0.332772  1
  Tm  Tm9  1  0.708065  0.959390  0.667228  1
  Ga  Ga10  1  0.869309  0.869309  0.370686  1
  Ga  Ga11  1  0.130691  0.130691  0.629314  1
  Ga  Ga12  1  0.630691  0.630691  0.870686  1
  Ga  Ga13  1  0.369309  0.369309  0.129314  1
  Te  Te14  1  0.205995  0.794005  0.000000  1
  Te  Te15  1  0.705995  0.294005  0.500000  1
  Te  Te16  1  0.794005  0.205995  0.000000  1
  Te  Te17  1  0.294005  0.705995  0.500000  1
