# generated using pymatgen
data_Pr5TaCoO12
_symmetry_space_group_name_H-M   'P 1'
_cell_length_a   7.08650992
_cell_length_b   7.08650917
_cell_length_c   7.70800624
_cell_angle_alpha   74.32397830
_cell_angle_beta   74.32398138
_cell_angle_gamma   50.45202795
_symmetry_Int_Tables_number   1
_chemical_formula_structural   Pr5TaCoO12
_chemical_formula_sum   'Pr5 Ta1 Co1 O12'
_cell_volume   284.85366435
_cell_formula_units_Z   1
loop_
 _symmetry_equiv_pos_site_id
 _symmetry_equiv_pos_as_xyz
  1  'x, y, z'
loop_
 _atom_site_type_symbol
 _atom_site_label
 _atom_site_symmetry_multiplicity
 _atom_site_fract_x
 _atom_site_fract_y
 _atom_site_fract_z
 _atom_site_occupancy
  Pr  Pr0  1  0.296262  0.317352  0.356514  1
  Pr  Pr1  1  0.682648  0.703738  0.643486  1
  Pr  Pr2  1  0.686966  0.699825  0.164111  1
  Pr  Pr3  1  0.300175  0.313034  0.835889  1
  Pr  Pr4  1  0.004034  0.995966  0.500000  1
  Ta  Ta5  1  0.786543  0.213457  0.000000  1
  Co  Co6  1  0.260485  0.739515  0.000000  1
  O  O7  1  0.089494  0.598746  0.578532  1
  O  O8  1  0.008370  0.989284  0.179418  1
  O  O9  1  0.401254  0.910506  0.421468  1
  O  O10  1  0.496816  0.504170  0.166435  1
  O  O11  1  0.104490  0.589563  0.075837  1
  O  O12  1  0.898001  0.407674  0.421331  1
  O  O13  1  0.010716  0.991630  0.820582  1
  O  O14  1  0.592326  0.101998  0.578669  1
  O  O15  1  0.495830  0.503184  0.833565  1
  O  O16  1  0.578036  0.102882  0.077594  1
  O  O17  1  0.410437  0.895510  0.924163  1
  O  O18  1  0.897118  0.421964  0.922406  1
