# generated using pymatgen
data_YbU5(TiBi5)2
_symmetry_space_group_name_H-M   'P 1'
_cell_length_a   9.50242150
_cell_length_b   9.42693499
_cell_length_c   6.39615000
_cell_angle_alpha   90.00000000
_cell_angle_beta   90.00000000
_cell_angle_gamma   120.16687865
_symmetry_Int_Tables_number   1
_chemical_formula_structural   YbU5(TiBi5)2
_chemical_formula_sum   'Yb1 U5 Ti2 Bi10'
_cell_volume   495.36043378
_cell_formula_units_Z   1
loop_
 _symmetry_equiv_pos_site_id
 _symmetry_equiv_pos_as_xyz
  1  'x, y, z'
loop_
 _atom_site_type_symbol
 _atom_site_label
 _atom_site_symmetry_multiplicity
 _atom_site_fract_x
 _atom_site_fract_y
 _atom_site_fract_z
 _atom_site_occupancy
  Yb  Yb0  1  0.381282  0.000330  0.750000  1
  U  U1  1  0.387749  0.384859  0.250000  1
  U  U2  1  0.002746  0.615812  0.250000  1
  U  U3  1  0.000705  0.390394  0.750000  1
  U  U4  1  0.610599  0.609389  0.750000  1
  U  U5  1  0.618337  0.999667  0.250000  1
  Ti  Ti6  1  0.998419  0.999955  0.995300  1
  Ti  Ti7  1  0.998419  0.999955  0.504700  1
  Bi  Bi8  1  0.668998  0.333655  0.499123  1
  Bi  Bi9  1  0.335579  0.666358  0.000692  1
  Bi  Bi10  1  0.737820  0.999396  0.750000  1
  Bi  Bi11  1  0.740247  0.737955  0.250000  1
  Bi  Bi12  1  0.335579  0.666358  0.499308  1
  Bi  Bi13  1  0.668998  0.333655  0.000877  1
  Bi  Bi14  1  0.256184  0.999977  0.250000  1
  Bi  Bi15  1  0.259377  0.262977  0.750000  1
  Bi  Bi16  1  0.996616  0.737161  0.750000  1
  Bi  Bi17  1  0.002346  0.262149  0.250000  1
