# generated using pymatgen
data_HoTm3CdPt
_symmetry_space_group_name_H-M   'P 1'
_cell_length_a   9.58263668
_cell_length_b   9.58263646
_cell_length_c   9.58263600
_cell_angle_alpha   60.00000159
_cell_angle_beta   60.00000236
_cell_angle_gamma   60.00000080
_symmetry_Int_Tables_number   1
_chemical_formula_structural   HoTm3CdPt
_chemical_formula_sum   'Ho4 Tm12 Cd4 Pt4'
_cell_volume   622.21438075
_cell_formula_units_Z   4
loop_
 _symmetry_equiv_pos_site_id
 _symmetry_equiv_pos_as_xyz
  1  'x, y, z'
loop_
 _atom_site_type_symbol
 _atom_site_label
 _atom_site_symmetry_multiplicity
 _atom_site_fract_x
 _atom_site_fract_y
 _atom_site_fract_z
 _atom_site_occupancy
  Ho  Ho0  1  0.353174  0.353174  0.353174  1
  Ho  Ho1  1  0.353174  0.353174  0.940479  1
  Ho  Ho2  1  0.353174  0.940479  0.353174  1
  Ho  Ho3  1  0.940479  0.353174  0.353174  1
  Tm  Tm4  1  0.811173  0.188827  0.188827  1
  Tm  Tm5  1  0.188827  0.811173  0.811173  1
  Tm  Tm6  1  0.188827  0.811173  0.188827  1
  Tm  Tm7  1  0.811173  0.188827  0.811173  1
  Tm  Tm8  1  0.188827  0.188827  0.811173  1
  Tm  Tm9  1  0.811173  0.811173  0.188827  1
  Tm  Tm10  1  0.934701  0.565299  0.565299  1
  Tm  Tm11  1  0.565299  0.934701  0.934701  1
  Tm  Tm12  1  0.565299  0.934701  0.565299  1
  Tm  Tm13  1  0.934701  0.565299  0.934701  1
  Tm  Tm14  1  0.565299  0.565299  0.934701  1
  Tm  Tm15  1  0.934701  0.934701  0.565299  1
  Cd  Cd16  1  0.582450  0.582450  0.582450  1
  Cd  Cd17  1  0.582450  0.582450  0.252649  1
  Cd  Cd18  1  0.582450  0.252649  0.582450  1
  Cd  Cd19  1  0.252649  0.582450  0.582450  1
  Pt  Pt20  1  0.143165  0.143165  0.143165  1
  Pt  Pt21  1  0.143165  0.143165  0.570506  1
  Pt  Pt22  1  0.143165  0.570506  0.143165  1
  Pt  Pt23  1  0.570506  0.143165  0.143165  1
