# generated using pymatgen
data_Y3Sn3Pd2Pt
_symmetry_space_group_name_H-M   'P 1'
_cell_length_a   7.55431100
_cell_length_b   7.55431055
_cell_length_c   4.03036800
_cell_angle_alpha   90.00000000
_cell_angle_beta   90.00000000
_cell_angle_gamma   119.99999760
_symmetry_Int_Tables_number   1
_chemical_formula_structural   Y3Sn3Pd2Pt
_chemical_formula_sum   'Y3 Sn3 Pd2 Pt1'
_cell_volume   199.18885649
_cell_formula_units_Z   1
loop_
 _symmetry_equiv_pos_site_id
 _symmetry_equiv_pos_as_xyz
  1  'x, y, z'
loop_
 _atom_site_type_symbol
 _atom_site_label
 _atom_site_symmetry_multiplicity
 _atom_site_fract_x
 _atom_site_fract_y
 _atom_site_fract_z
 _atom_site_occupancy
  Y  Y0  1  0.405781  0.410240  0.500000  1
  Y  Y1  1  0.589760  0.995541  0.500000  1
  Y  Y2  1  0.004459  0.594219  0.500000  1
  Sn  Sn3  1  0.743821  0.740953  0.000000  1
  Sn  Sn4  1  0.259047  0.002868  0.000000  1
  Sn  Sn5  1  0.997132  0.256179  0.000000  1
  Pd  Pd6  1  0.666667  0.333333  0.000000  1
  Pd  Pd7  1  0.000000  0.000000  0.500000  1
  Pt  Pt8  1  0.333333  0.666667  0.000000  1
