# generated using pymatgen
data_TbLu4Bi3
_symmetry_space_group_name_H-M   'P 1'
_cell_length_a   8.18277300
_cell_length_b   9.38174300
_cell_length_c   11.87124000
_cell_angle_alpha   90.00000000
_cell_angle_beta   90.00000000
_cell_angle_gamma   90.00000000
_symmetry_Int_Tables_number   1
_chemical_formula_structural   TbLu4Bi3
_chemical_formula_sum   'Tb4 Lu16 Bi12'
_cell_volume   911.33934538
_cell_formula_units_Z   4
loop_
 _symmetry_equiv_pos_site_id
 _symmetry_equiv_pos_as_xyz
  1  'x, y, z'
loop_
 _atom_site_type_symbol
 _atom_site_label
 _atom_site_symmetry_multiplicity
 _atom_site_fract_x
 _atom_site_fract_y
 _atom_site_fract_z
 _atom_site_occupancy
  Tb  Tb0  1  0.312552  0.250000  0.218411  1
  Tb  Tb1  1  0.812552  0.250000  0.281589  1
  Tb  Tb2  1  0.687448  0.750000  0.781589  1
  Tb  Tb3  1  0.187448  0.750000  0.718411  1
  Lu  Lu4  1  0.352371  0.750000  0.218217  1
  Lu  Lu5  1  0.852371  0.750000  0.281783  1
  Lu  Lu6  1  0.647629  0.250000  0.781783  1
  Lu  Lu7  1  0.147629  0.250000  0.718217  1
  Lu  Lu8  1  0.693406  0.567201  0.060030  1
  Lu  Lu9  1  0.193406  0.932799  0.439970  1
  Lu  Lu10  1  0.306594  0.067201  0.939970  1
  Lu  Lu11  1  0.806594  0.432799  0.560030  1
  Lu  Lu12  1  0.306594  0.432799  0.939970  1
  Lu  Lu13  1  0.806594  0.067201  0.560030  1
  Lu  Lu14  1  0.693406  0.932799  0.060030  1
  Lu  Lu15  1  0.193406  0.567201  0.439970  1
  Lu  Lu16  1  0.475991  0.250000  0.489280  1
  Lu  Lu17  1  0.975991  0.250000  0.010720  1
  Lu  Lu18  1  0.524009  0.750000  0.510720  1
  Lu  Lu19  1  0.024009  0.750000  0.989280  1
  Bi  Bi20  1  0.403951  0.750000  0.959872  1
  Bi  Bi21  1  0.903951  0.750000  0.540128  1
  Bi  Bi22  1  0.596049  0.250000  0.040128  1
  Bi  Bi23  1  0.096049  0.250000  0.459872  1
  Bi  Bi24  1  0.565613  0.993739  0.325981  1
  Bi  Bi25  1  0.065613  0.506261  0.174019  1
  Bi  Bi26  1  0.434387  0.493739  0.674019  1
  Bi  Bi27  1  0.934387  0.006261  0.825981  1
  Bi  Bi28  1  0.434387  0.006261  0.674019  1
  Bi  Bi29  1  0.934387  0.493739  0.825981  1
  Bi  Bi30  1  0.565613  0.506261  0.325981  1
  Bi  Bi31  1  0.065613  0.993739  0.174019  1
