# generated using pymatgen
data_Tb2PrP4Pd7
_symmetry_space_group_name_H-M   'P 1'
_cell_length_a   7.98758947
_cell_length_b   7.98758933
_cell_length_c   9.51912685
_cell_angle_alpha   55.80913314
_cell_angle_beta   55.80913391
_cell_angle_gamma   29.25789936
_symmetry_Int_Tables_number   1
_chemical_formula_structural   Tb2PrP4Pd7
_chemical_formula_sum   'Tb2 Pr1 P4 Pd7'
_cell_volume   241.63773458
_cell_formula_units_Z   1
loop_
 _symmetry_equiv_pos_site_id
 _symmetry_equiv_pos_as_xyz
  1  'x, y, z'
loop_
 _atom_site_type_symbol
 _atom_site_label
 _atom_site_symmetry_multiplicity
 _atom_site_fract_x
 _atom_site_fract_y
 _atom_site_fract_z
 _atom_site_occupancy
  Tb  Tb0  1  0.679318  0.679318  0.323963  1
  Tb  Tb1  1  0.320682  0.320682  0.676037  1
  Pr  Pr2  1  0.000000  0.000000  0.000000  1
  P  P3  1  0.337327  0.337327  0.259774  1
  P  P4  1  0.662673  0.662673  0.740226  1
  P  P5  1  0.893300  0.893300  0.816816  1
  P  P6  1  0.106700  0.106700  0.183184  1
  Pd  Pd7  1  0.304716  0.304716  0.030254  1
  Pd  Pd8  1  0.695284  0.695284  0.969746  1
  Pd  Pd9  1  0.509701  0.509701  0.712580  1
  Pd  Pd10  1  0.830238  0.830238  0.425213  1
  Pd  Pd11  1  0.490299  0.490299  0.287420  1
  Pd  Pd12  1  0.169762  0.169762  0.574787  1
  Pd  Pd13  1  0.000000  0.000000  0.500000  1
