# generated using pymatgen
data_Ho7Sc8Al7Os8
_symmetry_space_group_name_H-M   'P 1'
_cell_length_a   9.38126587
_cell_length_b   9.38126651
_cell_length_c   9.38126473
_cell_angle_alpha   60.08575453
_cell_angle_beta   60.08575312
_cell_angle_gamma   60.08575217
_symmetry_Int_Tables_number   1
_chemical_formula_structural   Ho7Sc8Al7Os8
_chemical_formula_sum   'Ho7 Sc8 Al7 Os8'
_cell_volume   584.94146486
_cell_formula_units_Z   1
loop_
 _symmetry_equiv_pos_site_id
 _symmetry_equiv_pos_as_xyz
  1  'x, y, z'
loop_
 _atom_site_type_symbol
 _atom_site_label
 _atom_site_symmetry_multiplicity
 _atom_site_fract_x
 _atom_site_fract_y
 _atom_site_fract_z
 _atom_site_occupancy
  Ho  Ho0  1  0.151943  0.151943  0.151943  1
  Ho  Ho1  1  0.209328  0.759641  0.209328  1
  Ho  Ho2  1  0.196958  0.806401  0.806401  1
  Ho  Ho3  1  0.759641  0.209328  0.209328  1
  Ho  Ho4  1  0.806401  0.806401  0.196958  1
  Ho  Ho5  1  0.209328  0.209328  0.759641  1
  Ho  Ho6  1  0.806401  0.196958  0.806401  1
  Sc  Sc7  1  0.373184  0.373184  0.373184  1
  Sc  Sc8  1  0.131121  0.623904  0.623904  1
  Sc  Sc9  1  0.623904  0.131121  0.623904  1
  Sc  Sc10  1  0.623904  0.623904  0.131121  1
  Sc  Sc11  1  0.384725  0.859938  0.384725  1
  Sc  Sc12  1  0.384725  0.384725  0.859938  1
  Sc  Sc13  1  0.859938  0.384725  0.384725  1
  Sc  Sc14  1  0.628488  0.628488  0.628488  1
  Al  Al15  1  0.832701  0.832701  0.832701  1
  Al  Al16  1  0.485812  0.167712  0.167712  1
  Al  Al17  1  0.167712  0.167712  0.485812  1
  Al  Al18  1  0.167712  0.485812  0.167712  1
  Al  Al19  1  0.838716  0.838716  0.494455  1
  Al  Al20  1  0.838716  0.494455  0.838716  1
  Al  Al21  1  0.494455  0.838716  0.838716  1
  Os  Os22  1  0.501505  0.501505  0.999929  1
  Os  Os23  1  0.994885  0.994885  0.517928  1
  Os  Os24  1  0.501505  0.999929  0.501505  1
  Os  Os25  1  0.999929  0.501505  0.501505  1
  Os  Os26  1  0.517928  0.994885  0.994885  1
  Os  Os27  1  0.994885  0.517928  0.994885  1
  Os  Os28  1  0.500017  0.500017  0.500017  1
  Os  Os29  1  0.013536  0.013536  0.013536  1
