# generated using pymatgen
data_Pr6Nd7Th3(CdIr)4
_symmetry_space_group_name_H-M   'P 1'
_cell_length_a   10.01769153
_cell_length_b   10.02017580
_cell_length_c   10.02017700
_cell_angle_alpha   59.99999936
_cell_angle_beta   59.99179561
_cell_angle_gamma   59.99179420
_symmetry_Int_Tables_number   1
_chemical_formula_structural   Pr6Nd7Th3(CdIr)4
_chemical_formula_sum   'Pr6 Nd7 Th3 Cd4 Ir4'
_cell_volume   711.13084539
_cell_formula_units_Z   1
loop_
 _symmetry_equiv_pos_site_id
 _symmetry_equiv_pos_as_xyz
  1  'x, y, z'
loop_
 _atom_site_type_symbol
 _atom_site_label
 _atom_site_symmetry_multiplicity
 _atom_site_fract_x
 _atom_site_fract_y
 _atom_site_fract_z
 _atom_site_occupancy
  Pr  Pr0  1  0.937781  0.563135  0.563135  1
  Pr  Pr1  1  0.561911  0.937684  0.937684  1
  Pr  Pr2  1  0.561911  0.937684  0.562721  1
  Pr  Pr3  1  0.937781  0.563135  0.935948  1
  Pr  Pr4  1  0.561911  0.562721  0.937684  1
  Pr  Pr5  1  0.937781  0.935948  0.563135  1
  Nd  Nd6  1  0.955480  0.348173  0.348173  1
  Nd  Nd7  1  0.809315  0.191347  0.191347  1
  Nd  Nd8  1  0.191359  0.809091  0.809091  1
  Nd  Nd9  1  0.191359  0.809091  0.190460  1
  Nd  Nd10  1  0.809315  0.191347  0.807989  1
  Nd  Nd11  1  0.191359  0.190460  0.809091  1
  Nd  Nd12  1  0.809315  0.807989  0.191347  1
  Th  Th13  1  0.343442  0.345342  0.345342  1
  Th  Th14  1  0.343442  0.345342  0.965871  1
  Th  Th15  1  0.343442  0.965871  0.345342  1
  Cd  Cd16  1  0.578402  0.579714  0.579714  1
  Cd  Cd17  1  0.578402  0.579714  0.262171  1
  Cd  Cd18  1  0.578402  0.262171  0.579714  1
  Cd  Cd19  1  0.260376  0.579874  0.579874  1
  Ir  Ir20  1  0.150719  0.140351  0.140351  1
  Ir  Ir21  1  0.150719  0.140351  0.568578  1
  Ir  Ir22  1  0.150719  0.568578  0.140351  1
  Ir  Ir23  1  0.565352  0.144882  0.144882  1
