# generated using pymatgen
data_Er5TmHg10
_symmetry_space_group_name_H-M   'P 1'
_cell_length_a   6.34571877
_cell_length_b   6.34571881
_cell_length_c   10.06628737
_cell_angle_alpha   89.95890054
_cell_angle_beta   89.95889119
_cell_angle_gamma   105.23996972
_symmetry_Int_Tables_number   1
_chemical_formula_structural   Er5TmHg10
_chemical_formula_sum   'Er5 Tm1 Hg10'
_cell_volume   391.09564110
_cell_formula_units_Z   1
loop_
 _symmetry_equiv_pos_site_id
 _symmetry_equiv_pos_as_xyz
  1  'x, y, z'
loop_
 _atom_site_type_symbol
 _atom_site_label
 _atom_site_symmetry_multiplicity
 _atom_site_fract_x
 _atom_site_fract_y
 _atom_site_fract_z
 _atom_site_occupancy
  Er  Er0  1  0.567721  0.568304  0.250019  1
  Er  Er1  1  0.431696  0.432279  0.749981  1
  Er  Er2  1  0.214616  0.785384  0.000000  1
  Er  Er3  1  0.784573  0.215427  0.500000  1
  Er  Er4  1  0.785479  0.214521  0.000000  1
  Tm  Tm5  1  0.215749  0.784251  0.500000  1
  Hg  Hg6  1  0.970737  0.970940  0.250317  1
  Hg  Hg7  1  0.029060  0.029263  0.749683  1
  Hg  Hg8  1  0.291467  0.291562  0.030008  1
  Hg  Hg9  1  0.708438  0.708533  0.969992  1
  Hg  Hg10  1  0.291153  0.290313  0.470603  1
  Hg  Hg11  1  0.709687  0.708847  0.529397  1
  Hg  Hg12  1  0.480165  0.035898  0.250380  1
  Hg  Hg13  1  0.964102  0.519835  0.749620  1
  Hg  Hg14  1  0.518746  0.963389  0.749406  1
  Hg  Hg15  1  0.036611  0.481254  0.250594  1
