# generated using pymatgen
data_YHo9CoHg3
_symmetry_space_group_name_H-M   'P 1'
_cell_length_a   9.57215200
_cell_length_b   9.57215167
_cell_length_c   9.51686700
_cell_angle_alpha   90.00000000
_cell_angle_beta   90.00000000
_cell_angle_gamma   119.99999422
_symmetry_Int_Tables_number   1
_chemical_formula_structural   YHo9CoHg3
_chemical_formula_sum   'Y2 Ho18 Co2 Hg6'
_cell_volume   755.16841072
_cell_formula_units_Z   2
loop_
 _symmetry_equiv_pos_site_id
 _symmetry_equiv_pos_as_xyz
  1  'x, y, z'
loop_
 _atom_site_type_symbol
 _atom_site_label
 _atom_site_symmetry_multiplicity
 _atom_site_fract_x
 _atom_site_fract_y
 _atom_site_fract_z
 _atom_site_occupancy
  Y  Y0  1  0.000000  0.000000  0.500000  1
  Y  Y1  1  0.000000  0.000000  0.000000  1
  Ho  Ho2  1  0.542192  0.457808  0.250000  1
  Ho  Ho3  1  0.542192  0.084383  0.250000  1
  Ho  Ho4  1  0.915617  0.457808  0.250000  1
  Ho  Ho5  1  0.457808  0.542192  0.750000  1
  Ho  Ho6  1  0.457808  0.915617  0.750000  1
  Ho  Ho7  1  0.084383  0.542192  0.750000  1
  Ho  Ho8  1  0.211534  0.788466  0.435440  1
  Ho  Ho9  1  0.211534  0.423071  0.435440  1
  Ho  Ho10  1  0.576929  0.788466  0.435440  1
  Ho  Ho11  1  0.788466  0.211534  0.564560  1
  Ho  Ho12  1  0.788466  0.576929  0.564560  1
  Ho  Ho13  1  0.423071  0.211534  0.564560  1
  Ho  Ho14  1  0.788466  0.211534  0.935440  1
  Ho  Ho15  1  0.788466  0.576929  0.935440  1
  Ho  Ho16  1  0.423071  0.211534  0.935440  1
  Ho  Ho17  1  0.211534  0.788466  0.064560  1
  Ho  Ho18  1  0.211534  0.423071  0.064560  1
  Ho  Ho19  1  0.576929  0.788466  0.064560  1
  Co  Co20  1  0.333333  0.666667  0.250000  1
  Co  Co21  1  0.666667  0.333333  0.750000  1
  Hg  Hg22  1  0.880404  0.119596  0.250000  1
  Hg  Hg23  1  0.880404  0.760809  0.250000  1
  Hg  Hg24  1  0.239191  0.119596  0.250000  1
  Hg  Hg25  1  0.119596  0.880404  0.750000  1
  Hg  Hg26  1  0.119596  0.239191  0.750000  1
  Hg  Hg27  1  0.760809  0.880404  0.750000  1
