# generated using pymatgen
data_Hf5Zr5Zn2BiPb5
_symmetry_space_group_name_H-M   'P 1'
_cell_length_a   8.80864824
_cell_length_b   8.80350621
_cell_length_c   5.92775900
_cell_angle_alpha   90.00000000
_cell_angle_beta   90.00000000
_cell_angle_gamma   120.04596397
_symmetry_Int_Tables_number   1
_chemical_formula_structural   Hf5Zr5Zn2BiPb5
_chemical_formula_sum   'Hf5 Zr5 Zn2 Bi1 Pb5'
_cell_volume   397.90992962
_cell_formula_units_Z   1
loop_
 _symmetry_equiv_pos_site_id
 _symmetry_equiv_pos_as_xyz
  1  'x, y, z'
loop_
 _atom_site_type_symbol
 _atom_site_label
 _atom_site_symmetry_multiplicity
 _atom_site_fract_x
 _atom_site_fract_y
 _atom_site_fract_z
 _atom_site_occupancy
  Hf  Hf0  1  0.332394  0.665713  0.999225  1
  Hf  Hf1  1  0.666137  0.333776  0.500785  1
  Hf  Hf2  1  0.666137  0.333776  0.999215  1
  Hf  Hf3  1  0.332394  0.665713  0.500775  1
  Hf  Hf4  1  0.264617  0.265055  0.750000  1
  Zr  Zr5  1  0.264714  0.000742  0.250000  1
  Zr  Zr6  1  0.999214  0.734581  0.750000  1
  Zr  Zr7  1  0.002331  0.265146  0.250000  1
  Zr  Zr8  1  0.736599  0.734965  0.250000  1
  Zr  Zr9  1  0.734660  0.999606  0.750000  1
  Zn  Zn10  1  0.001452  0.000851  0.998062  1
  Zn  Zn11  1  0.001452  0.000851  0.501938  1
  Bi  Bi12  1  0.613880  0.999972  0.250000  1
  Pb  Pb13  1  0.612342  0.612567  0.750000  1
  Pb  Pb14  1  0.000144  0.385983  0.750000  1
  Pb  Pb15  1  0.999984  0.613460  0.250000  1
  Pb  Pb16  1  0.386846  0.386847  0.250000  1
  Pb  Pb17  1  0.384705  0.000394  0.750000  1
