# generated using pymatgen
data_Tb6Er4Si5Ge
_symmetry_space_group_name_H-M   'P 1'
_cell_length_a   8.45597000
_cell_length_b   8.45735532
_cell_length_c   6.34555900
_cell_angle_alpha   90.00000000
_cell_angle_beta   90.00000000
_cell_angle_gamma   119.99457383
_symmetry_Int_Tables_number   1
_chemical_formula_structural   Tb6Er4Si5Ge
_chemical_formula_sum   'Tb6 Er4 Si5 Ge1'
_cell_volume   393.02689691
_cell_formula_units_Z   1
loop_
 _symmetry_equiv_pos_site_id
 _symmetry_equiv_pos_as_xyz
  1  'x, y, z'
loop_
 _atom_site_type_symbol
 _atom_site_label
 _atom_site_symmetry_multiplicity
 _atom_site_fract_x
 _atom_site_fract_y
 _atom_site_fract_z
 _atom_site_occupancy
  Tb  Tb0  1  0.999072  0.755451  0.750000  1
  Tb  Tb1  1  0.999962  0.243863  0.250000  1
  Tb  Tb2  1  0.756099  0.756137  0.250000  1
  Tb  Tb3  1  0.756842  0.000000  0.750000  1
  Tb  Tb4  1  0.243621  0.244549  0.750000  1
  Tb  Tb5  1  0.243570  0.000000  0.250000  1
  Er  Er6  1  0.333210  0.665954  0.499423  1
  Er  Er7  1  0.667257  0.334046  0.000577  1
  Er  Er8  1  0.667257  0.334046  0.499423  1
  Er  Er9  1  0.333210  0.665954  0.000577  1
  Si  Si10  1  0.395060  0.395033  0.250000  1
  Si  Si11  1  0.000028  0.604967  0.250000  1
  Si  Si12  1  0.999988  0.395056  0.750000  1
  Si  Si13  1  0.604932  0.604944  0.750000  1
  Si  Si14  1  0.605059  0.000000  0.250000  1
  Ge  Ge15  1  0.394834  0.000000  0.750000  1
