# generated using pymatgen
data_Tm4Ga4PdRu3
_symmetry_space_group_name_H-M   'P 1'
_cell_length_a   4.31431900
_cell_length_b   6.82088900
_cell_length_c   7.71184582
_cell_angle_alpha   89.76786956
_cell_angle_beta   90.00000000
_cell_angle_gamma   90.00000000
_symmetry_Int_Tables_number   1
_chemical_formula_structural   Tm4Ga4PdRu3
_chemical_formula_sum   'Tm4 Ga4 Pd1 Ru3'
_cell_volume   226.93841094
_cell_formula_units_Z   1
loop_
 _symmetry_equiv_pos_site_id
 _symmetry_equiv_pos_as_xyz
  1  'x, y, z'
loop_
 _atom_site_type_symbol
 _atom_site_label
 _atom_site_symmetry_multiplicity
 _atom_site_fract_x
 _atom_site_fract_y
 _atom_site_fract_z
 _atom_site_occupancy
  Tm  Tm0  1  0.250000  0.976505  0.308152  1
  Tm  Tm1  1  0.250000  0.487567  0.185475  1
  Tm  Tm2  1  0.750000  0.011851  0.696539  1
  Tm  Tm3  1  0.750000  0.514323  0.809322  1
  Ga  Ga4  1  0.250000  0.335196  0.578423  1
  Ga  Ga5  1  0.250000  0.831668  0.925419  1
  Ga  Ga6  1  0.750000  0.675277  0.425090  1
  Ga  Ga7  1  0.750000  0.166648  0.071408  1
  Pd  Pd8  1  0.750000  0.281587  0.397281  1
  Ru  Ru9  1  0.250000  0.220293  0.896210  1
  Ru  Ru10  1  0.250000  0.722904  0.603147  1
  Ru  Ru11  1  0.750000  0.776182  0.103534  1
