# generated using pymatgen
data_Tb4Al5Ni9
_symmetry_space_group_name_H-M   'P 1'
_cell_length_a   5.16973365
_cell_length_b   5.16973283
_cell_length_c   12.15667900
_cell_angle_alpha   77.72351568
_cell_angle_beta   77.72351766
_cell_angle_gamma   60.00000209
_symmetry_Int_Tables_number   1
_chemical_formula_structural   Tb4Al5Ni9
_chemical_formula_sum   'Tb4 Al5 Ni9'
_cell_volume   272.76001792
_cell_formula_units_Z   1
loop_
 _symmetry_equiv_pos_site_id
 _symmetry_equiv_pos_as_xyz
  1  'x, y, z'
loop_
 _atom_site_type_symbol
 _atom_site_label
 _atom_site_symmetry_multiplicity
 _atom_site_fract_x
 _atom_site_fract_y
 _atom_site_fract_z
 _atom_site_occupancy
  Tb  Tb0  1  0.952438  0.952438  0.142685  1
  Tb  Tb1  1  0.047562  0.047562  0.857315  1
  Tb  Tb2  1  0.855580  0.855580  0.433260  1
  Tb  Tb3  1  0.144420  0.144420  0.566740  1
  Al  Al4  1  0.500000  0.500000  0.500000  1
  Al  Al5  1  0.722500  0.722500  0.832501  1
  Al  Al6  1  0.277500  0.277500  0.167499  1
  Al  Al7  1  0.610209  0.610209  0.169370  1
  Al  Al8  1  0.389791  0.389791  0.830630  1
  Ni  Ni9  1  0.000000  0.500000  0.000000  1
  Ni  Ni10  1  0.500000  0.000000  0.000000  1
  Ni  Ni11  1  0.500000  0.500000  0.000000  1
  Ni  Ni12  1  0.386938  0.386938  0.332387  1
  Ni  Ni13  1  0.893736  0.386938  0.332387  1
  Ni  Ni14  1  0.386938  0.893736  0.332387  1
  Ni  Ni15  1  0.613062  0.613062  0.667613  1
  Ni  Ni16  1  0.106264  0.613062  0.667613  1
  Ni  Ni17  1  0.613062  0.106264  0.667613  1
