# generated using pymatgen
data_YScFe3Co9As7
_symmetry_space_group_name_H-M   'P 1'
_cell_length_a   3.72002800
_cell_length_b   9.32118971
_cell_length_c   9.32119100
_cell_angle_alpha   119.99999488
_cell_angle_beta   90.00000000
_cell_angle_gamma   90.00000000
_symmetry_Int_Tables_number   1
_chemical_formula_structural   YScFe3Co9As7
_chemical_formula_sum   'Y1 Sc1 Fe3 Co9 As7'
_cell_volume   279.91077529
_cell_formula_units_Z   1
loop_
 _symmetry_equiv_pos_site_id
 _symmetry_equiv_pos_as_xyz
  1  'x, y, z'
loop_
 _atom_site_type_symbol
 _atom_site_label
 _atom_site_symmetry_multiplicity
 _atom_site_fract_x
 _atom_site_fract_y
 _atom_site_fract_z
 _atom_site_occupancy
  Y  Y0  1  0.000000  0.666667  0.333333  1
  Sc  Sc1  1  0.500000  0.333333  0.666667  1
  Fe  Fe2  1  0.500000  0.783257  0.903611  1
  Fe  Fe3  1  0.500000  0.120354  0.216743  1
  Fe  Fe4  1  0.500000  0.096389  0.879646  1
  Co  Co5  1  0.000000  0.566290  0.939368  1
  Co  Co6  1  0.000000  0.373079  0.433710  1
  Co  Co7  1  0.000000  0.060632  0.626921  1
  Co  Co8  1  0.000000  0.881125  0.158744  1
  Co  Co9  1  0.000000  0.277618  0.118875  1
  Co  Co10  1  0.000000  0.841256  0.722382  1
  Co  Co11  1  0.500000  0.951972  0.383284  1
  Co  Co12  1  0.500000  0.431312  0.048028  1
  Co  Co13  1  0.500000  0.616716  0.568688  1
  As  As14  1  0.000000  0.000000  0.000000  1
  As  As15  1  0.500000  0.708684  0.113471  1
  As  As16  1  0.500000  0.404787  0.291316  1
  As  As17  1  0.500000  0.886529  0.595213  1
  As  As18  1  0.000000  0.585123  0.705239  1
  As  As19  1  0.000000  0.120116  0.414877  1
  As  As20  1  0.000000  0.294761  0.879884  1
