# generated using pymatgen
data_Tb4Al15(Co2Si)3
_symmetry_space_group_name_H-M   'P 1'
_cell_length_a   7.34230167
_cell_length_b   7.28451675
_cell_length_c   9.28149361
_cell_angle_alpha   89.99962554
_cell_angle_beta   89.95396821
_cell_angle_gamma   119.64367977
_symmetry_Int_Tables_number   1
_chemical_formula_structural   Tb4Al15(Co2Si)3
_chemical_formula_sum   'Tb4 Al15 Co6 Si3'
_cell_volume   431.44899036
_cell_formula_units_Z   1
loop_
 _symmetry_equiv_pos_site_id
 _symmetry_equiv_pos_as_xyz
  1  'x, y, z'
loop_
 _atom_site_type_symbol
 _atom_site_label
 _atom_site_symmetry_multiplicity
 _atom_site_fract_x
 _atom_site_fract_y
 _atom_site_fract_z
 _atom_site_occupancy
  Tb  Tb0  1  0.992427  0.662838  0.247639  1
  Tb  Tb1  1  0.008234  0.343439  0.752939  1
  Tb  Tb2  1  0.675793  0.002112  0.248009  1
  Tb  Tb3  1  0.319277  0.990986  0.749854  1
  Al  Al4  1  0.124920  0.123350  0.249909  1
  Al  Al5  1  0.875903  0.875308  0.749321  1
  Al  Al6  1  0.336547  0.999116  0.428880  1
  Al  Al7  1  0.000924  0.331509  0.435339  1
  Al  Al8  1  0.666443  0.004391  0.570870  1
  Al  Al9  1  0.664897  0.002336  0.927229  1
  Al  Al10  1  0.336338  0.999295  0.071394  1
  Al  Al11  1  0.332758  0.330544  0.549260  1
  Al  Al12  1  0.666052  0.668691  0.453020  1
  Al  Al13  1  0.665157  0.667921  0.048449  1
  Al  Al14  1  0.333002  0.330909  0.951263  1
  Al  Al15  1  0.336970  0.553542  0.250067  1
  Al  Al16  1  0.662430  0.446104  0.750423  1
  Al  Al17  1  0.550030  0.342013  0.250645  1
  Al  Al18  1  0.453727  0.659200  0.749716  1
  Co  Co19  1  0.691832  0.340532  0.002116  1
  Co  Co20  1  0.308043  0.659922  0.996835  1
  Co  Co21  1  0.318299  0.669036  0.503660  1
  Co  Co22  1  0.681018  0.339183  0.499867  1
  Co  Co23  1  0.999814  0.999666  0.999616  1
  Co  Co24  1  0.001312  0.991639  0.500540  1
  Si  Si25  1  0.001637  0.330190  0.066734  1
  Si  Si26  1  0.997473  0.670352  0.937223  1
  Si  Si27  1  0.998741  0.665878  0.559182  1
