# generated using pymatgen
data_Th2Al20Re3Ir
_symmetry_space_group_name_H-M   'P 1'
_cell_length_a   6.93695053
_cell_length_b   6.92874758
_cell_length_c   9.24799191
_cell_angle_alpha   90.33022767
_cell_angle_beta   90.24741867
_cell_angle_gamma   96.94606421
_symmetry_Int_Tables_number   1
_chemical_formula_structural   Th2Al20Re3Ir
_chemical_formula_sum   'Th2 Al20 Re3 Ir1'
_cell_volume   441.22359957
_cell_formula_units_Z   1
loop_
 _symmetry_equiv_pos_site_id
 _symmetry_equiv_pos_as_xyz
  1  'x, y, z'
loop_
 _atom_site_type_symbol
 _atom_site_label
 _atom_site_symmetry_multiplicity
 _atom_site_fract_x
 _atom_site_fract_y
 _atom_site_fract_z
 _atom_site_occupancy
  Th  Th0  1  0.866111  0.125773  0.752436  1
  Th  Th1  1  0.133889  0.874227  0.247564  1
  Al  Al2  1  0.516312  0.779916  0.748411  1
  Al  Al3  1  0.483688  0.220084  0.251589  1
  Al  Al4  1  0.594222  0.858212  0.249937  1
  Al  Al5  1  0.773820  0.773714  0.999420  1
  Al  Al6  1  0.158797  0.842382  0.602615  1
  Al  Al7  1  0.226180  0.226286  0.000580  1
  Al  Al8  1  0.141961  0.406923  0.249884  1
  Al  Al9  1  0.621788  0.378520  0.954520  1
  Al  Al10  1  0.841935  0.160213  0.102720  1
  Al  Al11  1  0.380261  0.622620  0.452520  1
  Al  Al12  1  0.158065  0.839787  0.897280  1
  Al  Al13  1  0.218823  0.481481  0.752813  1
  Al  Al14  1  0.378212  0.621480  0.045480  1
  Al  Al15  1  0.841203  0.157618  0.397385  1
  Al  Al16  1  0.619739  0.377380  0.547480  1
  Al  Al17  1  0.405778  0.141788  0.750063  1
  Al  Al18  1  0.781177  0.518519  0.247187  1
  Al  Al19  1  0.774018  0.774409  0.500358  1
  Al  Al20  1  0.225982  0.225591  0.499642  1
  Al  Al21  1  0.858039  0.593077  0.750116  1
  Re  Re22  1  0.000000  0.500000  0.000000  1
  Re  Re23  1  0.500000  0.000000  0.000000  1
  Re  Re24  1  0.500000  0.000000  0.500000  1
  Ir  Ir25  1  0.000000  0.500000  0.500000  1
