# generated using pymatgen
data_Tb2Ho2ReOsC4
_symmetry_space_group_name_H-M   'P 1'
_cell_length_a   5.12487300
_cell_length_b   6.53885000
_cell_length_c   9.81678200
_cell_angle_alpha   90.00000000
_cell_angle_beta   90.00000000
_cell_angle_gamma   90.00000000
_symmetry_Int_Tables_number   1
_chemical_formula_structural   Tb2Ho2ReOsC4
_chemical_formula_sum   'Tb4 Ho4 Re2 Os2 C8'
_cell_volume   328.96798084
_cell_formula_units_Z   2
loop_
 _symmetry_equiv_pos_site_id
 _symmetry_equiv_pos_as_xyz
  1  'x, y, z'
loop_
 _atom_site_type_symbol
 _atom_site_label
 _atom_site_symmetry_multiplicity
 _atom_site_fract_x
 _atom_site_fract_y
 _atom_site_fract_z
 _atom_site_occupancy
  Tb  Tb0  1  0.250000  0.467924  0.785723  1
  Tb  Tb1  1  0.750000  0.032076  0.285723  1
  Tb  Tb2  1  0.250000  0.969801  0.713395  1
  Tb  Tb3  1  0.750000  0.530199  0.213395  1
  Ho  Ho4  1  0.250000  0.823376  0.055072  1
  Ho  Ho5  1  0.750000  0.676624  0.555072  1
  Ho  Ho6  1  0.250000  0.320804  0.444080  1
  Ho  Ho7  1  0.750000  0.179196  0.944080  1
  Re  Re8  1  0.250000  0.777708  0.365093  1
  Re  Re9  1  0.750000  0.722292  0.865093  1
  Os  Os10  1  0.250000  0.277531  0.134504  1
  Os  Os11  1  0.750000  0.222469  0.634504  1
  C  C12  1  0.250000  0.175069  0.950341  1
  C  C13  1  0.750000  0.824381  0.050705  1
  C  C14  1  0.250000  0.675619  0.550705  1
  C  C15  1  0.750000  0.324931  0.450341  1
  C  C16  1  0.250000  0.044864  0.259733  1
  C  C17  1  0.750000  0.455136  0.759733  1
  C  C18  1  0.250000  0.544132  0.241355  1
  C  C19  1  0.750000  0.955868  0.741355  1
