# generated using pymatgen
data_Sm3BiO7
_symmetry_space_group_name_H-M   'P 1'
_cell_length_a   6.68698505
_cell_length_b   6.68373866
_cell_length_c   7.87599416
_cell_angle_alpha   106.88537676
_cell_angle_beta   89.78867520
_cell_angle_gamma   98.44386319
_symmetry_Int_Tables_number   1
_chemical_formula_structural   Sm3BiO7
_chemical_formula_sum   'Sm6 Bi2 O14'
_cell_volume   332.90058682
_cell_formula_units_Z   2
loop_
 _symmetry_equiv_pos_site_id
 _symmetry_equiv_pos_as_xyz
  1  'x, y, z'
loop_
 _atom_site_type_symbol
 _atom_site_label
 _atom_site_symmetry_multiplicity
 _atom_site_fract_x
 _atom_site_fract_y
 _atom_site_fract_z
 _atom_site_occupancy
  Sm  Sm0  1  0.460582  0.004813  0.252019  1
  Sm  Sm1  1  0.539418  0.995187  0.747981  1
  Sm  Sm2  1  0.269610  0.536542  0.882507  1
  Sm  Sm3  1  0.730390  0.463458  0.117493  1
  Sm  Sm4  1  0.736122  0.476275  0.613372  1
  Sm  Sm5  1  0.263878  0.523725  0.386628  1
  Bi  Bi6  1  0.000000  0.000000  0.500000  1
  Bi  Bi7  1  0.000000  0.000000  0.000000  1
  O  O8  1  0.443044  0.645719  0.166720  1
  O  O9  1  0.556956  0.354281  0.833280  1
  O  O10  1  0.298778  0.924680  0.952520  1
  O  O11  1  0.701222  0.075320  0.047480  1
  O  O12  1  0.295310  0.924322  0.511793  1
  O  O13  1  0.704690  0.075678  0.488207  1
  O  O14  1  0.547294  0.363913  0.345224  1
  O  O15  1  0.452706  0.636087  0.654776  1
  O  O16  1  0.925944  0.670984  0.958220  1
  O  O17  1  0.074056  0.329016  0.041780  1
  O  O18  1  0.071449  0.342563  0.617449  1
  O  O19  1  0.928551  0.657437  0.382551  1
  O  O20  1  0.882360  0.908316  0.726460  1
  O  O21  1  0.117640  0.091684  0.273540  1
