# generated using pymatgen
data_Tm6Mn2B13C
_symmetry_space_group_name_H-M   'P 1'
_cell_length_a   7.90536987
_cell_length_b   7.90536977
_cell_length_c   9.10180400
_cell_angle_alpha   90.00000000
_cell_angle_beta   90.00000000
_cell_angle_gamma   155.14856040
_symmetry_Int_Tables_number   1
_chemical_formula_structural   Tm6Mn2B13C
_chemical_formula_sum   'Tm6 Mn2 B13 C1'
_cell_volume   239.05457294
_cell_formula_units_Z   1
loop_
 _symmetry_equiv_pos_site_id
 _symmetry_equiv_pos_as_xyz
  1  'x, y, z'
loop_
 _atom_site_type_symbol
 _atom_site_label
 _atom_site_symmetry_multiplicity
 _atom_site_fract_x
 _atom_site_fract_y
 _atom_site_fract_z
 _atom_site_occupancy
  Tm  Tm0  1  0.895741  0.104259  0.062228  1
  Tm  Tm1  1  0.104517  0.895483  0.560501  1
  Tm  Tm2  1  0.104517  0.895483  0.939499  1
  Tm  Tm3  1  0.895741  0.104259  0.437772  1
  Tm  Tm4  1  0.240562  0.759438  0.250000  1
  Tm  Tm5  1  0.758601  0.241399  0.750000  1
  Mn  Mn6  1  0.052613  0.947387  0.250000  1
  Mn  Mn7  1  0.946930  0.053070  0.750000  1
  B  B8  1  0.542715  0.457285  0.750000  1
  B  B9  1  0.727692  0.272308  0.034542  1
  B  B10  1  0.272823  0.727177  0.532183  1
  B  B11  1  0.272823  0.727177  0.967817  1
  B  B12  1  0.727692  0.272308  0.465458  1
  B  B13  1  0.630383  0.369617  0.347094  1
  B  B14  1  0.369363  0.630637  0.848302  1
  B  B15  1  0.369363  0.630637  0.651698  1
  B  B16  1  0.630383  0.369617  0.152906  1
  B  B17  1  0.519920  0.480080  0.398234  1
  B  B18  1  0.478401  0.521599  0.904530  1
  B  B19  1  0.478401  0.521599  0.595470  1
  B  B20  1  0.519920  0.480080  0.101766  1
  C  C21  1  0.460900  0.539100  0.250000  1
