# generated using pymatgen
data_Y8Zr3Si16W9
_symmetry_space_group_name_H-M   'P 1'
_cell_length_a   6.80016356
_cell_length_b   7.02292331
_cell_length_c   13.27683118
_cell_angle_alpha   90.17113678
_cell_angle_beta   90.25663336
_cell_angle_gamma   90.11496797
_symmetry_Int_Tables_number   1
_chemical_formula_structural   Y8Zr3Si16W9
_chemical_formula_sum   'Y8 Zr3 Si16 W9'
_cell_volume   634.05150514
_cell_formula_units_Z   1
loop_
 _symmetry_equiv_pos_site_id
 _symmetry_equiv_pos_as_xyz
  1  'x, y, z'
loop_
 _atom_site_type_symbol
 _atom_site_label
 _atom_site_symmetry_multiplicity
 _atom_site_fract_x
 _atom_site_fract_y
 _atom_site_fract_z
 _atom_site_occupancy
  Y  Y0  1  0.502617  0.672750  0.592446  1
  Y  Y1  1  0.005867  0.828331  0.902956  1
  Y  Y2  1  0.494417  0.329052  0.098634  1
  Y  Y3  1  0.999951  0.169946  0.405742  1
  Y  Y4  1  0.496731  0.329919  0.406017  1
  Y  Y5  1  0.996917  0.168721  0.095190  1
  Y  Y6  1  0.505582  0.671337  0.906231  1
  Y  Y7  1  0.001166  0.827810  0.593433  1
  Zr  Zr8  1  0.831848  0.669776  0.126497  1
  Zr  Zr9  1  0.668467  0.167404  0.876335  1
  Zr  Zr10  1  0.168684  0.331061  0.621800  1
  Si  Si11  1  0.663169  0.957650  0.455952  1
  Si  Si12  1  0.169329  0.539551  0.040823  1
  Si  Si13  1  0.330204  0.041406  0.960832  1
  Si  Si14  1  0.828621  0.456726  0.540448  1
  Si  Si15  1  0.343745  0.035362  0.540729  1
  Si  Si16  1  0.852706  0.465704  0.952449  1
  Si  Si17  1  0.646980  0.966102  0.050365  1
  Si  Si18  1  0.158901  0.548394  0.449765  1
  Si  Si19  1  0.470778  0.378373  0.747762  1
  Si  Si20  1  0.968977  0.121360  0.749185  1
  Si  Si21  1  0.525821  0.627426  0.253361  1
  Si  Si22  1  0.035504  0.875641  0.255185  1
  Si  Si23  1  0.704059  0.865296  0.748919  1
  Si  Si24  1  0.206843  0.633013  0.749735  1
  Si  Si25  1  0.297664  0.128874  0.250611  1
  Si  Si26  1  0.795637  0.366315  0.252186  1
  W  W27  1  0.670182  0.164916  0.623695  1
  W  W28  1  0.174790  0.328792  0.873272  1
  W  W29  1  0.321623  0.831305  0.127155  1
  W  W30  1  0.826533  0.665902  0.375882  1
  W  W31  1  0.335026  0.837647  0.372724  1
  W  W32  1  0.842632  0.492184  0.748951  1
  W  W33  1  0.342205  0.005485  0.749507  1
  W  W34  1  0.157650  0.508115  0.251543  1
  W  W35  1  0.658180  0.992353  0.253683  1
