# generated using pymatgen
data_TbYNiB10
_symmetry_space_group_name_H-M   'P 1'
_cell_length_a   4.14872500
_cell_length_b   5.55866600
_cell_length_c   11.10656201
_cell_angle_alpha   89.99647831
_cell_angle_beta   90.00000000
_cell_angle_gamma   90.00000000
_symmetry_Int_Tables_number   1
_chemical_formula_structural   TbYNiB10
_chemical_formula_sum   'Tb2 Y2 Ni2 B20'
_cell_volume   256.13260878
_cell_formula_units_Z   2
loop_
 _symmetry_equiv_pos_site_id
 _symmetry_equiv_pos_as_xyz
  1  'x, y, z'
loop_
 _atom_site_type_symbol
 _atom_site_label
 _atom_site_symmetry_multiplicity
 _atom_site_fract_x
 _atom_site_fract_y
 _atom_site_fract_z
 _atom_site_occupancy
  Tb  Tb0  1  0.500000  0.314098  0.862376  1
  Tb  Tb1  1  0.500000  0.685902  0.137624  1
  Y  Y2  1  0.500000  0.185736  0.362511  1
  Y  Y3  1  0.500000  0.814264  0.637489  1
  Ni  Ni4  1  0.000000  0.000000  0.000000  1
  Ni  Ni5  1  0.000000  0.500000  0.500000  1
  B  B6  1  0.000000  0.374380  0.041110  1
  B  B7  1  0.000000  0.625620  0.958890  1
  B  B8  1  0.000000  0.125657  0.541040  1
  B  B9  1  0.000000  0.874343  0.458960  1
  B  B10  1  0.000000  0.341597  0.198504  1
  B  B11  1  0.000000  0.658403  0.801496  1
  B  B12  1  0.000000  0.158561  0.698552  1
  B  B13  1  0.000000  0.841439  0.301448  1
  B  B14  1  0.000000  0.030062  0.186493  1
  B  B15  1  0.000000  0.969938  0.813507  1
  B  B16  1  0.000000  0.469874  0.686595  1
  B  B17  1  0.000000  0.530126  0.313405  1
  B  B18  1  0.301401  0.201847  0.114660  1
  B  B19  1  0.698599  0.798153  0.885340  1
  B  B20  1  0.301401  0.798153  0.885340  1
  B  B21  1  0.698568  0.297972  0.614647  1
  B  B22  1  0.698599  0.201847  0.114660  1
  B  B23  1  0.301432  0.702028  0.385353  1
  B  B24  1  0.698568  0.702028  0.385353  1
  B  B25  1  0.301432  0.297972  0.614647  1
