# generated using pymatgen
data_Er6Al24Fe2(RuAu)3
_symmetry_space_group_name_H-M   'P 1'
_cell_length_a   8.84989496
_cell_length_b   8.79483615
_cell_length_c   9.44016611
_cell_angle_alpha   90.01348605
_cell_angle_beta   90.03244110
_cell_angle_gamma   119.28753425
_symmetry_Int_Tables_number   1
_chemical_formula_structural   Er6Al24Fe2(RuAu)3
_chemical_formula_sum   'Er6 Al24 Fe2 Ru3 Au3'
_cell_volume   640.83962291
_cell_formula_units_Z   1
loop_
 _symmetry_equiv_pos_site_id
 _symmetry_equiv_pos_as_xyz
  1  'x, y, z'
loop_
 _atom_site_type_symbol
 _atom_site_label
 _atom_site_symmetry_multiplicity
 _atom_site_fract_x
 _atom_site_fract_y
 _atom_site_fract_z
 _atom_site_occupancy
  Er  Er0  1  0.190507  0.385136  0.254567  1
  Er  Er1  1  0.809493  0.614864  0.745433  1
  Er  Er2  1  0.616070  0.808783  0.249060  1
  Er  Er3  1  0.383930  0.191217  0.750940  1
  Er  Er4  1  0.192441  0.805022  0.250066  1
  Er  Er5  1  0.807559  0.194978  0.749934  1
  Al  Al6  1  0.321301  0.660387  0.031683  1
  Al  Al7  1  0.678699  0.339613  0.968317  1
  Al  Al8  1  0.672098  0.327540  0.529014  1
  Al  Al9  1  0.327902  0.672460  0.470986  1
  Al  Al10  1  0.148786  0.315872  0.577593  1
  Al  Al11  1  0.851214  0.684128  0.422407  1
  Al  Al12  1  0.685532  0.852734  0.575320  1
  Al  Al13  1  0.851601  0.684438  0.079071  1
  Al  Al14  1  0.314468  0.147266  0.424680  1
  Al  Al15  1  0.148399  0.315562  0.920929  1
  Al  Al16  1  0.160852  0.839258  0.577231  1
  Al  Al17  1  0.308919  0.154978  0.082293  1
  Al  Al18  1  0.839148  0.160742  0.422769  1
  Al  Al19  1  0.691081  0.845022  0.917707  1
  Al  Al20  1  0.850415  0.167562  0.081704  1
  Al  Al21  1  0.149585  0.832438  0.918296  1
  Al  Al22  1  0.564646  0.127061  0.257612  1
  Al  Al23  1  0.435354  0.872939  0.742388  1
  Al  Al24  1  0.879609  0.439292  0.250130  1
  Al  Al25  1  0.120391  0.560708  0.749870  1
  Al  Al26  1  0.567338  0.434165  0.250070  1
  Al  Al27  1  0.432662  0.565835  0.749930  1
  Al  Al28  1  0.997184  0.999576  0.251343  1
  Al  Al29  1  0.002816  0.000424  0.748657  1
  Fe  Fe30  1  0.000000  0.000000  0.000000  1
  Fe  Fe31  1  0.000000  0.000000  0.500000  1
  Ru  Ru32  1  0.000000  0.500000  0.000000  1
  Ru  Ru33  1  0.500000  0.000000  0.500000  1
  Ru  Ru34  1  0.000000  0.500000  0.500000  1
  Au  Au35  1  0.500000  0.000000  0.000000  1
  Au  Au36  1  0.500000  0.500000  0.000000  1
  Au  Au37  1  0.500000  0.500000  0.500000  1
