# generated using pymatgen
data_La13Th3(CdRu)4
_symmetry_space_group_name_H-M   'P 1'
_cell_length_a   10.05895934
_cell_length_b   10.05734614
_cell_length_c   10.05734600
_cell_angle_alpha   60.00000045
_cell_angle_beta   60.00530548
_cell_angle_gamma   60.00530634
_symmetry_Int_Tables_number   1
_chemical_formula_structural   La13Th3(CdRu)4
_chemical_formula_sum   'La13 Th3 Cd4 Ru4'
_cell_volume   719.51469826
_cell_formula_units_Z   1
loop_
 _symmetry_equiv_pos_site_id
 _symmetry_equiv_pos_as_xyz
  1  'x, y, z'
loop_
 _atom_site_type_symbol
 _atom_site_label
 _atom_site_symmetry_multiplicity
 _atom_site_fract_x
 _atom_site_fract_y
 _atom_site_fract_z
 _atom_site_occupancy
  La  La0  1  0.959886  0.346705  0.346705  1
  La  La1  1  0.808049  0.191504  0.191504  1
  La  La2  1  0.190310  0.809973  0.809973  1
  La  La3  1  0.190310  0.809973  0.189744  1
  La  La4  1  0.808049  0.191504  0.808944  1
  La  La5  1  0.190310  0.189744  0.809973  1
  La  La6  1  0.808049  0.808944  0.191504  1
  La  La7  1  0.941956  0.559825  0.559825  1
  La  La8  1  0.556863  0.942168  0.942168  1
  La  La9  1  0.556863  0.942168  0.558801  1
  La  La10  1  0.941956  0.559825  0.938394  1
  La  La11  1  0.556863  0.558801  0.942168  1
  La  La12  1  0.941956  0.938394  0.559825  1
  Th  Th13  1  0.343528  0.343340  0.343340  1
  Th  Th14  1  0.343528  0.343340  0.969793  1
  Th  Th15  1  0.343528  0.969793  0.343340  1
  Cd  Cd16  1  0.576285  0.580754  0.580754  1
  Cd  Cd17  1  0.576285  0.580754  0.262205  1
  Cd  Cd18  1  0.576285  0.262205  0.580754  1
  Cd  Cd19  1  0.261527  0.579490  0.579490  1
  Ru  Ru20  1  0.152892  0.137529  0.137529  1
  Ru  Ru21  1  0.152892  0.137529  0.572049  1
  Ru  Ru22  1  0.152892  0.572049  0.137529  1
  Ru  Ru23  1  0.568935  0.143688  0.143688  1
