# generated using pymatgen
data_ZrSc3TiRe24
_symmetry_space_group_name_H-M   'P 1'
_cell_length_a   8.44242073
_cell_length_b   8.44241977
_cell_length_c   8.44241900
_cell_angle_alpha   109.46308615
_cell_angle_beta   109.46309419
_cell_angle_gamma   109.46309643
_symmetry_Int_Tables_number   1
_chemical_formula_structural   ZrSc3TiRe24
_chemical_formula_sum   'Zr1 Sc3 Ti1 Re24'
_cell_volume   463.35043548
_cell_formula_units_Z   1
loop_
 _symmetry_equiv_pos_site_id
 _symmetry_equiv_pos_as_xyz
  1  'x, y, z'
loop_
 _atom_site_type_symbol
 _atom_site_label
 _atom_site_symmetry_multiplicity
 _atom_site_fract_x
 _atom_site_fract_y
 _atom_site_fract_z
 _atom_site_occupancy
  Zr  Zr0  1  0.000710  0.000710  0.000710  1
  Sc  Sc1  1  0.631598  0.000137  0.000137  1
  Sc  Sc2  1  0.000137  0.631598  0.000137  1
  Sc  Sc3  1  0.000137  0.000137  0.631598  1
  Ti  Ti4  1  0.369276  0.369276  0.369276  1
  Re  Re5  1  0.397033  0.677206  0.998802  1
  Re  Re6  1  0.721912  0.322574  0.322574  1
  Re  Re7  1  0.397033  0.998802  0.677206  1
  Re  Re8  1  0.677206  0.397033  0.998802  1
  Re  Re9  1  0.998802  0.397033  0.677206  1
  Re  Re10  1  0.322574  0.721912  0.322574  1
  Re  Re11  1  0.322574  0.322574  0.721912  1
  Re  Re12  1  0.998802  0.677206  0.397033  1
  Re  Re13  1  0.677206  0.998802  0.397033  1
  Re  Re14  1  0.597611  0.597611  0.281357  1
  Re  Re15  1  0.281357  0.597611  0.597611  1
  Re  Re16  1  0.597611  0.281357  0.597611  1
  Re  Re17  1  0.378653  0.193983  0.001740  1
  Re  Re18  1  0.186814  0.807693  0.807693  1
  Re  Re19  1  0.378653  0.001740  0.193983  1
  Re  Re20  1  0.193983  0.378653  0.001740  1
  Re  Re21  1  0.001740  0.378653  0.193983  1
  Re  Re22  1  0.807693  0.186814  0.807693  1
  Re  Re23  1  0.807693  0.807693  0.186814  1
  Re  Re24  1  0.001740  0.193983  0.378653  1
  Re  Re25  1  0.193983  0.001740  0.378653  1
  Re  Re26  1  0.621475  0.621475  0.814519  1
  Re  Re27  1  0.814519  0.621475  0.621475  1
  Re  Re28  1  0.621475  0.814519  0.621475  1
