# generated using pymatgen
data_CaNd17(TmIr6)2
_symmetry_space_group_name_H-M   'P 1'
_cell_length_a   11.22455200
_cell_length_b   11.22455200
_cell_length_c   6.52852600
_cell_angle_alpha   90.00000000
_cell_angle_beta   90.00000000
_cell_angle_gamma   90.00000000
_symmetry_Int_Tables_number   1
_chemical_formula_structural   CaNd17(TmIr6)2
_chemical_formula_sum   'Ca1 Nd17 Tm2 Ir12'
_cell_volume   822.53269634
_cell_formula_units_Z   1
loop_
 _symmetry_equiv_pos_site_id
 _symmetry_equiv_pos_as_xyz
  1  'x, y, z'
loop_
 _atom_site_type_symbol
 _atom_site_label
 _atom_site_symmetry_multiplicity
 _atom_site_fract_x
 _atom_site_fract_y
 _atom_site_fract_z
 _atom_site_occupancy
  Ca  Ca0  1  0.000000  0.000000  0.000000  1
  Nd  Nd1  1  0.087881  0.289272  0.114299  1
  Nd  Nd2  1  0.788283  0.412513  0.115751  1
  Nd  Nd3  1  0.211717  0.587487  0.115751  1
  Nd  Nd4  1  0.912119  0.710728  0.114299  1
  Nd  Nd5  1  0.412275  0.787559  0.385864  1
  Nd  Nd6  1  0.587725  0.212441  0.385864  1
  Nd  Nd7  1  0.292420  0.087978  0.385113  1
  Nd  Nd8  1  0.707580  0.912022  0.385113  1
  Nd  Nd9  1  0.412513  0.211717  0.884249  1
  Nd  Nd10  1  0.710728  0.087881  0.885701  1
  Nd  Nd11  1  0.289272  0.912119  0.885701  1
  Nd  Nd12  1  0.587487  0.788283  0.884249  1
  Nd  Nd13  1  0.087978  0.707580  0.614887  1
  Nd  Nd14  1  0.912022  0.292420  0.614887  1
  Nd  Nd15  1  0.212441  0.412275  0.614136  1
  Nd  Nd16  1  0.787559  0.587725  0.614136  1
  Nd  Nd17  1  0.000000  0.000000  0.500000  1
  Tm  Tm18  1  0.500000  0.500000  0.000000  1
  Tm  Tm19  1  0.500000  0.500000  0.500000  1
  Ir  Ir20  1  0.157796  0.844717  0.256073  1
  Ir  Ir21  1  0.352609  0.353160  0.248716  1
  Ir  Ir22  1  0.647391  0.646840  0.248716  1
  Ir  Ir23  1  0.842204  0.155283  0.256073  1
  Ir  Ir24  1  0.353160  0.647391  0.751284  1
  Ir  Ir25  1  0.155283  0.157796  0.743927  1
  Ir  Ir26  1  0.844717  0.842204  0.743927  1
  Ir  Ir27  1  0.646840  0.352609  0.751284  1
  Ir  Ir28  1  0.000000  0.500000  0.376727  1
  Ir  Ir29  1  0.500000  0.000000  0.120599  1
  Ir  Ir30  1  0.500000  0.000000  0.623273  1
  Ir  Ir31  1  0.000000  0.500000  0.879401  1
