# generated using pymatgen
data_Tb5Dy5(RuPb3)2
_symmetry_space_group_name_H-M   'P 1'
_cell_length_a   9.32680000
_cell_length_b   9.33145810
_cell_length_c   6.63309000
_cell_angle_alpha   90.00064602
_cell_angle_beta   89.99870732
_cell_angle_gamma   119.98348855
_symmetry_Int_Tables_number   1
_chemical_formula_structural   Tb5Dy5(RuPb3)2
_chemical_formula_sum   'Tb5 Dy5 Ru2 Pb6'
_cell_volume   500.03560582
_cell_formula_units_Z   1
loop_
 _symmetry_equiv_pos_site_id
 _symmetry_equiv_pos_as_xyz
  1  'x, y, z'
loop_
 _atom_site_type_symbol
 _atom_site_label
 _atom_site_symmetry_multiplicity
 _atom_site_fract_x
 _atom_site_fract_y
 _atom_site_fract_z
 _atom_site_occupancy
  Tb  Tb0  1  0.237148  0.000000  0.250275  1
  Tb  Tb1  1  0.333447  0.666607  0.500087  1
  Tb  Tb2  1  0.666841  0.333393  0.500087  1
  Tb  Tb3  1  0.333438  0.666433  0.999936  1
  Tb  Tb4  1  0.667006  0.333567  0.999936  1
  Dy  Dy5  1  0.999949  0.763246  0.749986  1
  Dy  Dy6  1  0.999994  0.236893  0.249848  1
  Dy  Dy7  1  0.762847  0.000000  0.749964  1
  Dy  Dy8  1  0.236703  0.236754  0.749986  1
  Dy  Dy9  1  0.763101  0.763107  0.249848  1
  Ru  Ru10  1  0.999659  0.000000  0.999678  1
  Ru  Ru11  1  0.999558  0.000000  0.500264  1
  Pb  Pb12  1  0.598625  0.000000  0.249940  1
  Pb  Pb13  1  0.401658  0.000000  0.750036  1
  Pb  Pb14  1  0.999563  0.597685  0.250153  1
  Pb  Pb15  1  0.598483  0.598380  0.749912  1
  Pb  Pb16  1  0.401878  0.402315  0.250153  1
  Pb  Pb17  1  0.000102  0.401620  0.749912  1
