# generated using pymatgen
data_Sr4H9Pt2F3
_symmetry_space_group_name_H-M   'P 1'
_cell_length_a   7.56074935
_cell_length_b   7.56074958
_cell_length_c   5.69442504
_cell_angle_alpha   90.05787019
_cell_angle_beta   89.94212798
_cell_angle_gamma   135.74640732
_symmetry_Int_Tables_number   1
_chemical_formula_structural   Sr4H9Pt2F3
_chemical_formula_sum   'Sr4 H9 Pt2 F3'
_cell_volume   227.16022870
_cell_formula_units_Z   1
loop_
 _symmetry_equiv_pos_site_id
 _symmetry_equiv_pos_as_xyz
  1  'x, y, z'
loop_
 _atom_site_type_symbol
 _atom_site_label
 _atom_site_symmetry_multiplicity
 _atom_site_fract_x
 _atom_site_fract_y
 _atom_site_fract_z
 _atom_site_occupancy
  Sr  Sr0  1  0.355015  0.646678  0.000403  1
  Sr  Sr1  1  0.853503  0.145114  0.499158  1
  Sr  Sr2  1  0.645114  0.353503  0.000842  1
  Sr  Sr3  1  0.146678  0.855015  0.499597  1
  H  H4  1  0.500275  0.000275  0.250000  1
  H  H5  1  0.121601  0.885046  0.002601  1
  H  H6  1  0.614883  0.378489  0.498043  1
  H  H7  1  0.878489  0.114883  0.001957  1
  H  H8  1  0.385046  0.621601  0.497399  1
  H  H9  1  0.786598  0.785985  0.210724  1
  H  H10  1  0.213063  0.213262  0.790470  1
  H  H11  1  0.713262  0.713063  0.709530  1
  H  H12  1  0.285985  0.286598  0.289276  1
  Pt  Pt13  1  0.000204  0.000209  0.001324  1
  Pt  Pt14  1  0.500209  0.500204  0.498676  1
  F  F15  1  0.999951  0.499951  0.250000  1
  F  F16  1  0.500072  0.000072  0.750000  1
  F  F17  1  0.000050  0.500050  0.750000  1
