# generated using pymatgen
data_Cs2SrTaNb5Br18
_symmetry_space_group_name_H-M   'P 1'
_cell_length_a   11.09072510
_cell_length_b   11.08908504
_cell_length_c   11.08970299
_cell_angle_alpha   55.03980622
_cell_angle_beta   55.04029735
_cell_angle_gamma   55.04106438
_symmetry_Int_Tables_number   1
_chemical_formula_structural   Cs2SrTaNb5Br18
_chemical_formula_sum   'Cs2 Sr1 Ta1 Nb5 Br18'
_cell_volume   853.13790536
_cell_formula_units_Z   1
loop_
 _symmetry_equiv_pos_site_id
 _symmetry_equiv_pos_as_xyz
  1  'x, y, z'
loop_
 _atom_site_type_symbol
 _atom_site_label
 _atom_site_symmetry_multiplicity
 _atom_site_fract_x
 _atom_site_fract_y
 _atom_site_fract_z
 _atom_site_occupancy
  Cs  Cs0  1  0.276752  0.276588  0.276616  1
  Cs  Cs1  1  0.722861  0.723457  0.723388  1
  Sr  Sr2  1  0.999861  0.000225  0.999504  1
  Ta  Ta3  1  0.309977  0.638165  0.423727  1
  Nb  Nb4  1  0.423281  0.308835  0.638985  1
  Nb  Nb5  1  0.361134  0.576755  0.691152  1
  Nb  Nb6  1  0.691614  0.360694  0.576984  1
  Nb  Nb7  1  0.638968  0.423206  0.308874  1
  Nb  Nb8  1  0.576815  0.691133  0.361040  1
  Br  Br9  1  0.638286  0.096694  0.767157  1
  Br  Br10  1  0.767341  0.638436  0.096406  1
  Br  Br11  1  0.097274  0.767029  0.636430  1
  Br  Br12  1  0.825420  0.322596  0.042789  1
  Br  Br13  1  0.170749  0.437217  0.575322  1
  Br  Br14  1  0.677398  0.957225  0.174225  1
  Br  Br15  1  0.903273  0.232933  0.361583  1
  Br  Br16  1  0.564691  0.423385  0.829348  1
  Br  Br17  1  0.423361  0.829576  0.564803  1
  Br  Br18  1  0.957361  0.174175  0.677563  1
  Br  Br19  1  0.174058  0.677809  0.957089  1
  Br  Br20  1  0.044947  0.824256  0.323343  1
  Br  Br21  1  0.322056  0.043026  0.825783  1
  Br  Br22  1  0.232730  0.361535  0.903624  1
  Br  Br23  1  0.576657  0.170386  0.435226  1
  Br  Br24  1  0.433439  0.577801  0.172074  1
  Br  Br25  1  0.360406  0.902040  0.233679  1
  Br  Br26  1  0.829291  0.564823  0.423286  1
