# generated using pymatgen
data_Yb4Al3CrO10
_symmetry_space_group_name_H-M   'P 1'
_cell_length_a   5.27745300
_cell_length_b   5.52218073
_cell_length_c   15.22804307
_cell_angle_alpha   68.87476317
_cell_angle_beta   90.00000000
_cell_angle_gamma   90.00000000
_symmetry_Int_Tables_number   1
_chemical_formula_structural   Yb4Al3CrO10
_chemical_formula_sum   'Yb8 Al6 Cr2 O20'
_cell_volume   413.96654025
_cell_formula_units_Z   2
loop_
 _symmetry_equiv_pos_site_id
 _symmetry_equiv_pos_as_xyz
  1  'x, y, z'
loop_
 _atom_site_type_symbol
 _atom_site_label
 _atom_site_symmetry_multiplicity
 _atom_site_fract_x
 _atom_site_fract_y
 _atom_site_fract_z
 _atom_site_occupancy
  Yb  Yb0  1  0.008423  0.633987  0.893829  1
  Yb  Yb1  1  0.508423  0.366013  0.606171  1
  Yb  Yb2  1  0.990481  0.077790  0.393759  1
  Yb  Yb3  1  0.490481  0.922210  0.106241  1
  Yb  Yb4  1  0.991577  0.366013  0.106171  1
  Yb  Yb5  1  0.491577  0.633987  0.393829  1
  Yb  Yb6  1  0.009519  0.922210  0.606241  1
  Yb  Yb7  1  0.509519  0.077790  0.893759  1
  Al  Al8  1  0.548387  0.673599  0.751015  1
  Al  Al9  1  0.048387  0.326401  0.748985  1
  Al  Al10  1  0.451613  0.326401  0.248985  1
  Al  Al11  1  0.951613  0.673599  0.251015  1
  Al  Al12  1  0.500000  0.500000  0.000000  1
  Al  Al13  1  0.000000  0.500000  0.500000  1
  Cr  Cr14  1  0.500000  0.000000  0.500000  1
  Cr  Cr15  1  0.000000  0.000000  0.000000  1
  O  O16  1  0.252844  0.725491  0.013980  1
  O  O17  1  0.752844  0.274509  0.486020  1
  O  O18  1  0.758069  0.731589  0.513298  1
  O  O19  1  0.258069  0.268411  0.986702  1
  O  O20  1  0.747156  0.274509  0.986020  1
  O  O21  1  0.247156  0.725491  0.513980  1
  O  O22  1  0.241931  0.268411  0.486702  1
  O  O23  1  0.741931  0.731589  0.013298  1
  O  O24  1  0.885201  0.611932  0.749671  1
  O  O25  1  0.385201  0.388068  0.750329  1
  O  O26  1  0.114799  0.388068  0.250329  1
  O  O27  1  0.614799  0.611932  0.249671  1
  O  O28  1  0.481746  0.707939  0.858646  1
  O  O29  1  0.981746  0.292061  0.641354  1
  O  O30  1  0.521697  0.075130  0.356287  1
  O  O31  1  0.021697  0.924870  0.143713  1
  O  O32  1  0.518254  0.292061  0.141354  1
  O  O33  1  0.018254  0.707939  0.358646  1
  O  O34  1  0.478303  0.924870  0.643713  1
  O  O35  1  0.978303  0.075130  0.856287  1
