# generated using pymatgen
data_LuTiP
_symmetry_space_group_name_H-M   'P 1'
_cell_length_a   3.84625800
_cell_length_b   3.84625800
_cell_length_c   7.28457300
_cell_angle_alpha   90.00000000
_cell_angle_beta   90.00000000
_cell_angle_gamma   90.00000000
_symmetry_Int_Tables_number   1
_chemical_formula_structural   LuTiP
_chemical_formula_sum   'Lu2 Ti2 P2'
_cell_volume   107.76579198
_cell_formula_units_Z   2
loop_
 _symmetry_equiv_pos_site_id
 _symmetry_equiv_pos_as_xyz
  1  'x, y, z'
loop_
 _atom_site_type_symbol
 _atom_site_label
 _atom_site_symmetry_multiplicity
 _atom_site_fract_x
 _atom_site_fract_y
 _atom_site_fract_z
 _atom_site_occupancy
  Lu  Lu0  1  0.000000  0.500000  0.352908  1
  Lu  Lu1  1  0.500000  0.000000  0.647092  1
  Ti  Ti2  1  0.500000  0.500000  0.000000  1
  Ti  Ti3  1  0.000000  0.000000  0.000000  1
  P  P4  1  0.500000  0.000000  0.246538  1
  P  P5  1  0.000000  0.500000  0.753462  1
