# generated using pymatgen
data_RbTi8O13
_symmetry_space_group_name_H-M   'P 1'
_cell_length_a   6.54931676
_cell_length_b   6.54931745
_cell_length_c   6.54931759
_cell_angle_alpha   72.75142617
_cell_angle_beta   72.75143212
_cell_angle_gamma   72.75144070
_symmetry_Int_Tables_number   1
_chemical_formula_structural   RbTi8O13
_chemical_formula_sum   'Rb1 Ti8 O13'
_cell_volume   249.43304002
_cell_formula_units_Z   1
loop_
 _symmetry_equiv_pos_site_id
 _symmetry_equiv_pos_as_xyz
  1  'x, y, z'
loop_
 _atom_site_type_symbol
 _atom_site_label
 _atom_site_symmetry_multiplicity
 _atom_site_fract_x
 _atom_site_fract_y
 _atom_site_fract_z
 _atom_site_occupancy
  Rb  Rb0  1  0.500000  0.500000  0.500000  1
  Ti  Ti1  1  0.683600  0.124046  0.951095  1
  Ti  Ti2  1  0.951095  0.683600  0.124046  1
  Ti  Ti3  1  0.124046  0.951095  0.683600  1
  Ti  Ti4  1  0.316400  0.875954  0.048905  1
  Ti  Ti5  1  0.048905  0.316400  0.875954  1
  Ti  Ti6  1  0.875954  0.048905  0.316400  1
  Ti  Ti7  1  0.267776  0.267776  0.267776  1
  Ti  Ti8  1  0.732224  0.732224  0.732224  1
  O  O9  1  0.000000  0.000000  0.000000  1
  O  O10  1  0.163803  0.265307  0.575652  1
  O  O11  1  0.575652  0.163803  0.265307  1
  O  O12  1  0.265307  0.575652  0.163803  1
  O  O13  1  0.836197  0.734693  0.424348  1
  O  O14  1  0.424348  0.836197  0.734693  1
  O  O15  1  0.734693  0.424348  0.836197  1
  O  O16  1  0.355882  0.204963  0.950409  1
  O  O17  1  0.950409  0.355882  0.204963  1
  O  O18  1  0.204963  0.950409  0.355882  1
  O  O19  1  0.644118  0.795037  0.049591  1
  O  O20  1  0.049591  0.644118  0.795037  1
  O  O21  1  0.795037  0.049591  0.644118  1
