# generated using pymatgen
data_Lu4Mg4IrPt3
_symmetry_space_group_name_H-M   'P 1'
_cell_length_a   4.12029000
_cell_length_b   6.95121451
_cell_length_c   8.56150349
_cell_angle_alpha   89.50184142
_cell_angle_beta   90.00000000
_cell_angle_gamma   90.00000000
_symmetry_Int_Tables_number   1
_chemical_formula_structural   Lu4Mg4IrPt3
_chemical_formula_sum   'Lu4 Mg4 Ir1 Pt3'
_cell_volume   245.20092119
_cell_formula_units_Z   1
loop_
 _symmetry_equiv_pos_site_id
 _symmetry_equiv_pos_as_xyz
  1  'x, y, z'
loop_
 _atom_site_type_symbol
 _atom_site_label
 _atom_site_symmetry_multiplicity
 _atom_site_fract_x
 _atom_site_fract_y
 _atom_site_fract_z
 _atom_site_occupancy
  Lu  Lu0  1  0.250000  0.543864  0.168073  1
  Lu  Lu1  1  0.750000  0.469332  0.829460  1
  Lu  Lu2  1  0.750000  0.953286  0.677972  1
  Lu  Lu3  1  0.250000  0.039491  0.327515  1
  Mg  Mg4  1  0.250000  0.633831  0.561015  1
  Mg  Mg5  1  0.750000  0.363959  0.440410  1
  Mg  Mg6  1  0.750000  0.864976  0.057662  1
  Mg  Mg7  1  0.250000  0.135724  0.939855  1
  Ir  Ir8  1  0.250000  0.744995  0.871282  1
  Pt  Pt9  1  0.750000  0.253988  0.130404  1
  Pt  Pt10  1  0.750000  0.754495  0.370749  1
  Pt  Pt11  1  0.250000  0.242061  0.625604  1
