# generated using pymatgen
data_Pr3Gd2DyTa2O14
_symmetry_space_group_name_H-M   'P 1'
_cell_length_a   6.61028438
_cell_length_b   6.62590678
_cell_length_c   7.68659271
_cell_angle_alpha   89.97960582
_cell_angle_beta   90.02957785
_cell_angle_gamma   109.19325739
_symmetry_Int_Tables_number   1
_chemical_formula_structural   Pr3Gd2DyTa2O14
_chemical_formula_sum   'Pr3 Gd2 Dy1 Ta2 O14'
_cell_volume   317.95244896
_cell_formula_units_Z   1
loop_
 _symmetry_equiv_pos_site_id
 _symmetry_equiv_pos_as_xyz
  1  'x, y, z'
loop_
 _atom_site_type_symbol
 _atom_site_label
 _atom_site_symmetry_multiplicity
 _atom_site_fract_x
 _atom_site_fract_y
 _atom_site_fract_z
 _atom_site_occupancy
  Pr  Pr0  1  0.997510  0.535059  0.245437  1
  Pr  Pr1  1  0.476363  0.471905  0.998964  1
  Pr  Pr2  1  0.510179  0.515517  0.499308  1
  Gd  Gd3  1  0.531949  0.999298  0.754307  1
  Gd  Gd4  1  0.999254  0.467538  0.745109  1
  Dy  Dy5  1  0.466679  0.998959  0.255085  1
  Ta  Ta6  1  0.001447  0.001436  0.500152  1
  Ta  Ta7  1  0.996844  0.998072  0.998617  1
  O  O8  1  0.936612  0.055495  0.749489  1
  O  O9  1  0.640148  0.354883  0.749131  1
  O  O10  1  0.310919  0.050221  0.533781  1
  O  O11  1  0.934786  0.690511  0.959999  1
  O  O12  1  0.621815  0.356510  0.252834  1
  O  O13  1  0.921512  0.681181  0.530842  1
  O  O14  1  0.321896  0.069561  0.976395  1
  O  O15  1  0.081348  0.322903  0.018397  1
  O  O16  1  0.684090  0.934680  0.466872  1
  O  O17  1  0.366052  0.636008  0.751167  1
  O  O18  1  0.696412  0.956372  0.043982  1
  O  O19  1  0.074605  0.316047  0.472749  1
  O  O20  1  0.367291  0.645671  0.247608  1
  O  O21  1  0.062294  0.942174  0.249775  1
