# generated using pymatgen
data_La8AlSi11Pt4
_symmetry_space_group_name_H-M   'P 1'
_cell_length_a   8.35649214
_cell_length_b   8.35649209
_cell_length_c   8.79731901
_cell_angle_alpha   90.00547860
_cell_angle_beta   89.99451777
_cell_angle_gamma   119.86123418
_symmetry_Int_Tables_number   1
_chemical_formula_structural   La8AlSi11Pt4
_chemical_formula_sum   'La8 Al1 Si11 Pt4'
_cell_volume   532.76361934
_cell_formula_units_Z   1
loop_
 _symmetry_equiv_pos_site_id
 _symmetry_equiv_pos_as_xyz
  1  'x, y, z'
loop_
 _atom_site_type_symbol
 _atom_site_label
 _atom_site_symmetry_multiplicity
 _atom_site_fract_x
 _atom_site_fract_y
 _atom_site_fract_z
 _atom_site_occupancy
  La  La0  1  0.997960  0.002040  0.248636  1
  La  La1  1  0.997900  0.002100  0.751282  1
  La  La2  1  0.500555  0.499445  0.250747  1
  La  La3  1  0.502965  0.001668  0.249943  1
  La  La4  1  0.998332  0.497035  0.249943  1
  La  La5  1  0.499709  0.500291  0.749209  1
  La  La6  1  0.502499  0.000388  0.750163  1
  La  La7  1  0.999612  0.497501  0.750163  1
  Al  Al8  1  0.166025  0.833975  0.500732  1
  Si  Si9  1  0.165300  0.331495  0.500443  1
  Si  Si10  1  0.668505  0.834700  0.500443  1
  Si  Si11  1  0.834415  0.165585  0.499573  1
  Si  Si12  1  0.830847  0.668079  0.499573  1
  Si  Si13  1  0.331921  0.169153  0.499573  1
  Si  Si14  1  0.834992  0.165008  0.000934  1
  Si  Si15  1  0.835024  0.669253  0.000808  1
  Si  Si16  1  0.330747  0.164976  0.000808  1
  Si  Si17  1  0.165407  0.834593  0.999114  1
  Si  Si18  1  0.166075  0.331260  0.999103  1
  Si  Si19  1  0.668740  0.833925  0.999103  1
  Pt  Pt20  1  0.335735  0.664265  0.498064  1
  Pt  Pt21  1  0.666624  0.333376  0.501477  1
  Pt  Pt22  1  0.666586  0.333414  0.998030  1
  Pt  Pt23  1  0.333524  0.666476  0.002136  1
