# generated using pymatgen
data_Li4Nd3Dy(Si2Sn)2
_symmetry_space_group_name_H-M   'P 1'
_cell_length_a   9.72363919
_cell_length_b   9.72363925
_cell_length_c   6.85376300
_cell_angle_alpha   90.00000000
_cell_angle_beta   90.00000000
_cell_angle_gamma   153.23831974
_symmetry_Int_Tables_number   1
_chemical_formula_structural   Li4Nd3Dy(Si2Sn)2
_chemical_formula_sum   'Li4 Nd3 Dy1 Si4 Sn2'
_cell_volume   291.78964141
_cell_formula_units_Z   1
loop_
 _symmetry_equiv_pos_site_id
 _symmetry_equiv_pos_as_xyz
  1  'x, y, z'
loop_
 _atom_site_type_symbol
 _atom_site_label
 _atom_site_symmetry_multiplicity
 _atom_site_fract_x
 _atom_site_fract_y
 _atom_site_fract_z
 _atom_site_occupancy
  Li  Li0  1  0.184522  0.815478  0.055671  1
  Li  Li1  1  0.184522  0.815478  0.444329  1
  Li  Li2  1  0.816076  0.183924  0.946055  1
  Li  Li3  1  0.816076  0.183924  0.553945  1
  Nd  Nd4  1  0.649939  0.350061  0.750000  1
  Nd  Nd5  1  0.548188  0.451812  0.250000  1
  Nd  Nd6  1  0.450683  0.549317  0.750000  1
  Dy  Dy7  1  0.351160  0.648840  0.250000  1
  Si  Si8  1  0.056757  0.943243  0.925894  1
  Si  Si9  1  0.941761  0.058239  0.075272  1
  Si  Si10  1  0.941761  0.058239  0.424728  1
  Si  Si11  1  0.056757  0.943243  0.574106  1
  Sn  Sn12  1  0.720842  0.279158  0.250000  1
  Sn  Sn13  1  0.280958  0.719042  0.750000  1
