# generated using pymatgen
data_La4LuTlIn2Br
_symmetry_space_group_name_H-M   'P 1'
_cell_length_a   9.66391075
_cell_length_b   9.66391000
_cell_length_c   6.87535309
_cell_angle_alpha   90.00924321
_cell_angle_beta   90.00924194
_cell_angle_gamma   119.95568614
_symmetry_Int_Tables_number   1
_chemical_formula_structural   La4LuTlIn2Br
_chemical_formula_sum   'La8 Lu2 Tl2 In4 Br2'
_cell_volume   556.32062102
_cell_formula_units_Z   2
loop_
 _symmetry_equiv_pos_site_id
 _symmetry_equiv_pos_as_xyz
  1  'x, y, z'
loop_
 _atom_site_type_symbol
 _atom_site_label
 _atom_site_symmetry_multiplicity
 _atom_site_fract_x
 _atom_site_fract_y
 _atom_site_fract_z
 _atom_site_occupancy
  La  La0  1  0.731805  0.732242  0.254532  1
  La  La1  1  0.999590  0.732008  0.745126  1
  La  La2  1  0.732041  0.999988  0.745314  1
  La  La3  1  0.267758  0.268195  0.745468  1
  La  La4  1  0.000012  0.267959  0.254686  1
  La  La5  1  0.267992  0.000410  0.254874  1
  La  La6  1  0.333579  0.666421  0.000000  1
  La  La7  1  0.666607  0.333393  0.000000  1
  Lu  Lu8  1  0.333851  0.666149  0.500000  1
  Lu  Lu9  1  0.666661  0.333339  0.500000  1
  Tl  Tl10  1  0.392897  0.000035  0.743093  1
  Tl  Tl11  1  0.999965  0.607103  0.256907  1
  In  In12  1  0.607060  0.999907  0.257760  1
  In  In13  1  0.000093  0.392940  0.742240  1
  In  In14  1  0.393059  0.393016  0.257779  1
  In  In15  1  0.606984  0.606941  0.742221  1
  Br  Br16  1  0.000006  0.999994  0.500000  1
  Br  Br17  1  0.000040  0.999960  0.000000  1
