# generated using pymatgen
data_Tb16Cd4Co2NiIr
_symmetry_space_group_name_H-M   'P 1'
_cell_length_a   9.59048048
_cell_length_b   9.59960134
_cell_length_c   9.59960018
_cell_angle_alpha   59.79093738
_cell_angle_beta   59.76956734
_cell_angle_gamma   59.76956082
_symmetry_Int_Tables_number   1
_chemical_formula_structural   Tb16Cd4Co2NiIr
_chemical_formula_sum   'Tb16 Cd4 Co2 Ni1 Ir1'
_cell_volume   621.76197077
_cell_formula_units_Z   1
loop_
 _symmetry_equiv_pos_site_id
 _symmetry_equiv_pos_as_xyz
  1  'x, y, z'
loop_
 _atom_site_type_symbol
 _atom_site_label
 _atom_site_symmetry_multiplicity
 _atom_site_fract_x
 _atom_site_fract_y
 _atom_site_fract_z
 _atom_site_occupancy
  Tb  Tb0  1  0.343175  0.347178  0.347178  1
  Tb  Tb1  1  0.350006  0.354024  0.954648  1
  Tb  Tb2  1  0.350006  0.954648  0.354024  1
  Tb  Tb3  1  0.957598  0.351086  0.351086  1
  Tb  Tb4  1  0.808521  0.188802  0.188802  1
  Tb  Tb5  1  0.185291  0.811495  0.811495  1
  Tb  Tb6  1  0.188483  0.805743  0.188556  1
  Tb  Tb7  1  0.814609  0.186648  0.807167  1
  Tb  Tb8  1  0.188483  0.188556  0.805743  1
  Tb  Tb9  1  0.814609  0.807167  0.186648  1
  Tb  Tb10  1  0.937440  0.564182  0.564182  1
  Tb  Tb11  1  0.557994  0.939196  0.939196  1
  Tb  Tb12  1  0.562818  0.937952  0.565438  1
  Tb  Tb13  1  0.938831  0.559375  0.939082  1
  Tb  Tb14  1  0.562818  0.565438  0.937952  1
  Tb  Tb15  1  0.938831  0.939082  0.559375  1
  Cd  Cd16  1  0.580160  0.580481  0.580481  1
  Cd  Cd17  1  0.579827  0.579485  0.257115  1
  Cd  Cd18  1  0.579827  0.257115  0.579485  1
  Cd  Cd19  1  0.256553  0.580030  0.580030  1
  Co  Co20  1  0.142278  0.141951  0.576874  1
  Co  Co21  1  0.142278  0.576874  0.141951  1
  Ni  Ni22  1  0.575692  0.141607  0.141607  1
  Ir  Ir23  1  0.143871  0.141881  0.141881  1
