# generated using pymatgen
data_Cs3KYbI6
_symmetry_space_group_name_H-M   'P 1'
_cell_length_a   10.41589149
_cell_length_b   10.41589218
_cell_length_c   10.41589304
_cell_angle_alpha   91.42620574
_cell_angle_beta   91.42620660
_cell_angle_gamma   91.42620754
_symmetry_Int_Tables_number   1
_chemical_formula_structural   Cs3KYbI6
_chemical_formula_sum   'Cs6 K2 Yb2 I12'
_cell_volume   1128.96061669
_cell_formula_units_Z   2
loop_
 _symmetry_equiv_pos_site_id
 _symmetry_equiv_pos_as_xyz
  1  'x, y, z'
loop_
 _atom_site_type_symbol
 _atom_site_label
 _atom_site_symmetry_multiplicity
 _atom_site_fract_x
 _atom_site_fract_y
 _atom_site_fract_z
 _atom_site_occupancy
  Cs  Cs0  1  0.870927  0.629073  0.250000  1
  Cs  Cs1  1  0.629073  0.250000  0.870927  1
  Cs  Cs2  1  0.250000  0.870927  0.629073  1
  Cs  Cs3  1  0.129073  0.370927  0.750000  1
  Cs  Cs4  1  0.370927  0.750000  0.129073  1
  Cs  Cs5  1  0.750000  0.129073  0.370927  1
  K  K6  1  0.250000  0.250000  0.250000  1
  K  K7  1  0.750000  0.750000  0.750000  1
  Yb  Yb8  1  0.000000  0.000000  0.000000  1
  Yb  Yb9  1  0.500000  0.500000  0.500000  1
  I  I10  1  0.209987  0.549296  0.424025  1
  I  I11  1  0.049296  0.709987  0.924025  1
  I  I12  1  0.924025  0.049296  0.709987  1
  I  I13  1  0.790013  0.450704  0.575975  1
  I  I14  1  0.709987  0.924025  0.049296  1
  I  I15  1  0.450704  0.575975  0.790013  1
  I  I16  1  0.575975  0.790013  0.450704  1
  I  I17  1  0.549296  0.424025  0.209987  1
  I  I18  1  0.075975  0.950704  0.290013  1
  I  I19  1  0.950704  0.290013  0.075975  1
  I  I20  1  0.290013  0.075975  0.950704  1
  I  I21  1  0.424025  0.209987  0.549296  1
