# generated using pymatgen
data_Tb16Al5GaOs2
_symmetry_space_group_name_H-M   'P 1'
_cell_length_a   10.23206172
_cell_length_b   10.23206177
_cell_length_c   7.03516110
_cell_angle_alpha   89.98306138
_cell_angle_beta   90.01693622
_cell_angle_gamma   120.03921836
_symmetry_Int_Tables_number   1
_chemical_formula_structural   Tb16Al5GaOs2
_chemical_formula_sum   'Tb16 Al5 Ga1 Os2'
_cell_volume   637.61597969
_cell_formula_units_Z   1
loop_
 _symmetry_equiv_pos_site_id
 _symmetry_equiv_pos_as_xyz
  1  'x, y, z'
loop_
 _atom_site_type_symbol
 _atom_site_label
 _atom_site_symmetry_multiplicity
 _atom_site_fract_x
 _atom_site_fract_y
 _atom_site_fract_z
 _atom_site_occupancy
  Tb  Tb0  1  0.830989  0.655426  0.496441  1
  Tb  Tb1  1  0.344574  0.169011  0.496441  1
  Tb  Tb2  1  0.826318  0.173682  0.494355  1
  Tb  Tb3  1  0.173749  0.347461  0.995147  1
  Tb  Tb4  1  0.652539  0.826251  0.995147  1
  Tb  Tb5  1  0.173591  0.826409  0.988756  1
  Tb  Tb6  1  0.666555  0.333445  0.160044  1
  Tb  Tb7  1  0.331866  0.668134  0.658005  1
  Tb  Tb8  1  0.534665  0.066231  0.792744  1
  Tb  Tb9  1  0.933769  0.465335  0.792744  1
  Tb  Tb10  1  0.532516  0.467484  0.789131  1
  Tb  Tb11  1  0.464598  0.933775  0.291329  1
  Tb  Tb12  1  0.066225  0.535402  0.291329  1
  Tb  Tb13  1  0.467876  0.532124  0.291588  1
  Tb  Tb14  1  0.999817  0.000183  0.770457  1
  Tb  Tb15  1  0.999650  0.000350  0.269143  1
  Al  Al16  1  0.836822  0.673368  0.038278  1
  Al  Al17  1  0.326632  0.163178  0.038278  1
  Al  Al18  1  0.836882  0.163118  0.038215  1
  Al  Al19  1  0.163766  0.326732  0.537655  1
  Al  Al20  1  0.673268  0.836234  0.537655  1
  Ga  Ga21  1  0.163867  0.836133  0.541906  1
  Os  Os22  1  0.666393  0.333607  0.560718  1
  Os  Os23  1  0.333072  0.666928  0.060567  1
