# generated using pymatgen
data_DyHoWO6
_symmetry_space_group_name_H-M   'P 1'
_cell_length_a   5.39189700
_cell_length_b   7.69541893
_cell_length_c   11.45772663
_cell_angle_alpha   75.46838746
_cell_angle_beta   90.00000000
_cell_angle_gamma   90.00000000
_symmetry_Int_Tables_number   1
_chemical_formula_structural   DyHoWO6
_chemical_formula_sum   'Dy4 Ho4 W4 O24'
_cell_volume   460.20556094
_cell_formula_units_Z   4
loop_
 _symmetry_equiv_pos_site_id
 _symmetry_equiv_pos_as_xyz
  1  'x, y, z'
loop_
 _atom_site_type_symbol
 _atom_site_label
 _atom_site_symmetry_multiplicity
 _atom_site_fract_x
 _atom_site_fract_y
 _atom_site_fract_z
 _atom_site_occupancy
  Dy  Dy0  1  0.738011  0.000000  0.750000  1
  Dy  Dy1  1  0.261989  0.000000  0.250000  1
  Dy  Dy2  1  0.683639  0.500000  0.750000  1
  Dy  Dy3  1  0.316361  0.500000  0.250000  1
  Ho  Ho4  1  0.187301  0.796404  0.578052  1
  Ho  Ho5  1  0.812699  0.796404  0.078052  1
  Ho  Ho6  1  0.187301  0.203596  0.921948  1
  Ho  Ho7  1  0.812699  0.203596  0.421948  1
  W  W8  1  0.253781  0.722269  0.886326  1
  W  W9  1  0.746219  0.722269  0.386326  1
  W  W10  1  0.253781  0.277731  0.613674  1
  W  W11  1  0.746219  0.277731  0.113674  1
  O  O12  1  0.040268  0.939325  0.895969  1
  O  O13  1  0.528354  0.849782  0.931590  1
  O  O14  1  0.959732  0.939325  0.395969  1
  O  O15  1  0.459706  0.787965  0.728135  1
  O  O16  1  0.471646  0.849782  0.431590  1
  O  O17  1  0.983036  0.709725  0.771248  1
  O  O18  1  0.540294  0.787965  0.228135  1
  O  O19  1  0.853035  0.634700  0.548871  1
  O  O20  1  0.362364  0.488704  0.887758  1
  O  O21  1  0.016964  0.709725  0.271248  1
  O  O22  1  0.362364  0.511296  0.612242  1
  O  O23  1  0.853035  0.365300  0.951129  1
  O  O24  1  0.146965  0.634700  0.048871  1
  O  O25  1  0.637636  0.488704  0.387758  1
  O  O26  1  0.983036  0.290275  0.728752  1
  O  O27  1  0.637636  0.511296  0.112242  1
  O  O28  1  0.146965  0.365300  0.451129  1
  O  O29  1  0.459706  0.212035  0.771865  1
  O  O30  1  0.016964  0.290275  0.228752  1
  O  O31  1  0.528354  0.150218  0.568410  1
  O  O32  1  0.540294  0.212035  0.271865  1
  O  O33  1  0.040268  0.060675  0.604031  1
  O  O34  1  0.471646  0.150218  0.068410  1
  O  O35  1  0.959732  0.060675  0.104031  1
