# generated using pymatgen
data_AlFe7Si15Ir
_symmetry_space_group_name_H-M   'P 1'
_cell_length_a   6.33863367
_cell_length_b   6.34514152
_cell_length_c   7.89696415
_cell_angle_alpha   89.84375705
_cell_angle_beta   89.75019375
_cell_angle_gamma   103.58956556
_symmetry_Int_Tables_number   1
_chemical_formula_structural   AlFe7Si15Ir
_chemical_formula_sum   'Al1 Fe7 Si15 Ir1'
_cell_volume   308.71500294
_cell_formula_units_Z   1
loop_
 _symmetry_equiv_pos_site_id
 _symmetry_equiv_pos_as_xyz
  1  'x, y, z'
loop_
 _atom_site_type_symbol
 _atom_site_label
 _atom_site_symmetry_multiplicity
 _atom_site_fract_x
 _atom_site_fract_y
 _atom_site_fract_z
 _atom_site_occupancy
  Al  Al0  1  0.420547  0.671751  0.225398  1
  Fe  Fe1  1  0.306391  0.298331  0.312428  1
  Fe  Fe2  1  0.692533  0.694236  0.686896  1
  Fe  Fe3  1  0.814875  0.809106  0.187517  1
  Fe  Fe4  1  0.280377  0.718761  0.504522  1
  Fe  Fe5  1  0.212524  0.786067  0.995112  1
  Fe  Fe6  1  0.716470  0.282631  0.499650  1
  Fe  Fe7  1  0.785092  0.217756  0.999925  1
  Si  Si8  1  0.074359  0.816372  0.723975  1
  Si  Si9  1  0.170125  0.916181  0.273143  1
  Si  Si10  1  0.333069  0.594083  0.773563  1
  Si  Si11  1  0.592858  0.335465  0.772641  1
  Si  Si12  1  0.917598  0.167819  0.273095  1
  Si  Si13  1  0.816258  0.076305  0.723374  1
  Si  Si14  1  0.672175  0.417908  0.227896  1
  Si  Si15  1  0.142704  0.410020  0.058726  1
  Si  Si16  1  0.356378  0.094303  0.542817  1
  Si  Si17  1  0.900626  0.646069  0.448872  1
  Si  Si18  1  0.599488  0.855425  0.953290  1
  Si  Si19  1  0.853703  0.599575  0.953098  1
  Si  Si20  1  0.644683  0.899541  0.448604  1
  Si  Si21  1  0.098174  0.359327  0.540165  1
  Si  Si22  1  0.408278  0.140893  0.059752  1
  Ir  Ir23  1  0.190718  0.192073  0.815539  1
