# generated using pymatgen
data_Nd2Er6Si12IrRh3
_symmetry_space_group_name_H-M   'P 1'
_cell_length_a   8.17452900
_cell_length_b   8.17452894
_cell_length_c   7.95900600
_cell_angle_alpha   90.00000000
_cell_angle_beta   90.00000000
_cell_angle_gamma   119.99999619
_symmetry_Int_Tables_number   1
_chemical_formula_structural   Nd2Er6Si12IrRh3
_chemical_formula_sum   'Nd2 Er6 Si12 Ir1 Rh3'
_cell_volume   460.59047780
_cell_formula_units_Z   1
loop_
 _symmetry_equiv_pos_site_id
 _symmetry_equiv_pos_as_xyz
  1  'x, y, z'
loop_
 _atom_site_type_symbol
 _atom_site_label
 _atom_site_symmetry_multiplicity
 _atom_site_fract_x
 _atom_site_fract_y
 _atom_site_fract_z
 _atom_site_occupancy
  Nd  Nd0  1  0.000000  0.000000  0.249459  1
  Nd  Nd1  1  0.000000  0.000000  0.750159  1
  Er  Er2  1  0.492108  0.507892  0.250213  1
  Er  Er3  1  0.492108  0.984215  0.250213  1
  Er  Er4  1  0.015785  0.507892  0.250213  1
  Er  Er5  1  0.508512  0.491488  0.749817  1
  Er  Er6  1  0.982976  0.491488  0.749817  1
  Er  Er7  1  0.508512  0.017024  0.749817  1
  Si  Si8  1  0.831975  0.168025  0.502250  1
  Si  Si9  1  0.831975  0.663952  0.502250  1
  Si  Si10  1  0.336048  0.168025  0.502250  1
  Si  Si11  1  0.831566  0.168434  0.997194  1
  Si  Si12  1  0.831566  0.663133  0.997194  1
  Si  Si13  1  0.336867  0.168434  0.997194  1
  Si  Si14  1  0.168618  0.831382  0.002413  1
  Si  Si15  1  0.662764  0.831382  0.002413  1
  Si  Si16  1  0.168618  0.337236  0.002413  1
  Si  Si17  1  0.168709  0.831291  0.497483  1
  Si  Si18  1  0.662584  0.831291  0.497483  1
  Si  Si19  1  0.168709  0.337416  0.497483  1
  Ir  Ir20  1  0.666667  0.333333  0.466121  1
  Rh  Rh21  1  0.666667  0.333333  0.036386  1
  Rh  Rh22  1  0.333333  0.666667  0.964368  1
  Rh  Rh23  1  0.333333  0.666667  0.535396  1
