# generated using pymatgen
data_LuBi3O7
_symmetry_space_group_name_H-M   'P 1'
_cell_length_a   6.57744100
_cell_length_b   6.69832941
_cell_length_c   7.74002300
_cell_angle_alpha   106.70229136
_cell_angle_beta   89.48084623
_cell_angle_gamma   99.05889314
_symmetry_Int_Tables_number   1
_chemical_formula_structural   LuBi3O7
_chemical_formula_sum   'Lu2 Bi6 O14'
_cell_volume   322.31194680
_cell_formula_units_Z   2
loop_
 _symmetry_equiv_pos_site_id
 _symmetry_equiv_pos_as_xyz
  1  'x, y, z'
loop_
 _atom_site_type_symbol
 _atom_site_label
 _atom_site_symmetry_multiplicity
 _atom_site_fract_x
 _atom_site_fract_y
 _atom_site_fract_z
 _atom_site_occupancy
  Lu  Lu0  1  0.462515  0.004825  0.252038  1
  Lu  Lu1  1  0.537664  0.994909  0.748890  1
  Bi  Bi2  1  0.263968  0.529629  0.882608  1
  Bi  Bi3  1  0.000114  0.000301  0.500065  1
  Bi  Bi4  1  0.999907  0.999869  0.000043  1
  Bi  Bi5  1  0.736039  0.470524  0.117248  1
  Bi  Bi6  1  0.728033  0.464957  0.610317  1
  Bi  Bi7  1  0.271321  0.534114  0.389638  1
  O  O8  1  0.460262  0.663825  0.181767  1
  O  O9  1  0.539655  0.335789  0.818249  1
  O  O10  1  0.307857  0.945326  0.951327  1
  O  O11  1  0.691983  0.053234  0.049340  1
  O  O12  1  0.302075  0.924519  0.516351  1
  O  O13  1  0.697951  0.076112  0.484152  1
  O  O14  1  0.531165  0.347866  0.347843  1
  O  O15  1  0.468780  0.652004  0.651703  1
  O  O16  1  0.920585  0.669286  0.953870  1
  O  O17  1  0.079560  0.330134  0.045124  1
  O  O18  1  0.091843  0.330178  0.623182  1
  O  O19  1  0.908098  0.670905  0.375751  1
  O  O20  1  0.870451  0.933870  0.733333  1
  O  O21  1  0.130169  0.067826  0.267156  1
