# generated using pymatgen
data_Ca4Ga6RuRh
_symmetry_space_group_name_H-M   'P 1'
_cell_length_a   5.57270500
_cell_length_b   5.57270517
_cell_length_c   8.73581800
_cell_angle_alpha   90.00000000
_cell_angle_beta   90.00000000
_cell_angle_gamma   120.00000495
_symmetry_Int_Tables_number   1
_chemical_formula_structural   Ca4Ga6RuRh
_chemical_formula_sum   'Ca4 Ga6 Ru1 Rh1'
_cell_volume   234.94505440
_cell_formula_units_Z   1
loop_
 _symmetry_equiv_pos_site_id
 _symmetry_equiv_pos_as_xyz
  1  'x, y, z'
loop_
 _atom_site_type_symbol
 _atom_site_label
 _atom_site_symmetry_multiplicity
 _atom_site_fract_x
 _atom_site_fract_y
 _atom_site_fract_z
 _atom_site_occupancy
  Ca  Ca0  1  0.666667  0.333334  0.052108  1
  Ca  Ca1  1  0.666667  0.333334  0.447487  1
  Ca  Ca2  1  0.333333  0.666666  0.552513  1
  Ca  Ca3  1  0.333333  0.666666  0.947893  1
  Ga  Ga4  1  0.161815  0.323629  0.251528  1
  Ga  Ga5  1  0.161814  0.838184  0.251528  1
  Ga  Ga6  1  0.676371  0.838184  0.251528  1
  Ga  Ga7  1  0.323629  0.161816  0.748472  1
  Ga  Ga8  1  0.838186  0.161816  0.748472  1
  Ga  Ga9  1  0.838185  0.676371  0.748472  1
  Ru  Ru10  1  0.000000  0.000000  0.500000  1
  Rh  Rh11  1  0.000000  0.000000  0.000000  1
