# generated using pymatgen
data_Nd2Nb2Ni10As7
_symmetry_space_group_name_H-M   'P 1'
_cell_length_a   9.66893400
_cell_length_b   9.50319128
_cell_length_c   3.92656100
_cell_angle_alpha   90.00000000
_cell_angle_beta   90.00000000
_cell_angle_gamma   120.10608773
_symmetry_Int_Tables_number   1
_chemical_formula_structural   Nd2Nb2Ni10As7
_chemical_formula_sum   'Nd2 Nb2 Ni10 As7'
_cell_volume   312.12301129
_cell_formula_units_Z   1
loop_
 _symmetry_equiv_pos_site_id
 _symmetry_equiv_pos_as_xyz
  1  'x, y, z'
loop_
 _atom_site_type_symbol
 _atom_site_label
 _atom_site_symmetry_multiplicity
 _atom_site_fract_x
 _atom_site_fract_y
 _atom_site_fract_z
 _atom_site_occupancy
  Nd  Nd0  1  0.341026  0.665868  0.000000  1
  Nd  Nd1  1  0.666289  0.340723  0.500001  1
  Nb  Nb2  1  0.214427  0.100963  0.500001  1
  Nb  Nb3  1  0.893063  0.107182  0.500001  1
  Ni  Ni4  1  0.426630  0.063151  0.000000  1
  Ni  Ni5  1  0.148178  0.278358  0.000000  1
  Ni  Ni6  1  0.938764  0.366041  0.000000  1
  Ni  Ni7  1  0.636994  0.573478  0.000000  1
  Ni  Ni8  1  0.131386  0.842905  0.000000  1
  Ni  Ni9  1  0.715449  0.873747  0.000000  1
  Ni  Ni10  1  0.380851  0.436674  0.500001  1
  Ni  Ni11  1  0.048118  0.621762  0.500001  1
  Ni  Ni12  1  0.887676  0.782668  0.500001  1
  Ni  Ni13  1  0.565647  0.946097  0.500001  1
  As  As14  1  0.993497  0.986013  0.000000  1
  As  As15  1  0.692800  0.110510  0.000000  1
  As  As16  1  0.409396  0.307431  0.000000  1
  As  As17  1  0.892622  0.593310  0.000000  1
  As  As18  1  0.112810  0.408625  0.500001  1
  As  As19  1  0.607175  0.710250  0.500001  1
  As  As20  1  0.297203  0.884245  0.500001  1
