# generated using pymatgen
data_Yb3Er5(B6Os)4
_symmetry_space_group_name_H-M   'P 1'
_cell_length_a   3.63039200
_cell_length_b   9.12305445
_cell_length_c   11.50900882
_cell_angle_alpha   89.93552072
_cell_angle_beta   90.00000000
_cell_angle_gamma   90.00000000
_symmetry_Int_Tables_number   1
_chemical_formula_structural   Yb3Er5(B6Os)4
_chemical_formula_sum   'Yb3 Er5 B24 Os4'
_cell_volume   381.18116769
_cell_formula_units_Z   1
loop_
 _symmetry_equiv_pos_site_id
 _symmetry_equiv_pos_as_xyz
  1  'x, y, z'
loop_
 _atom_site_type_symbol
 _atom_site_label
 _atom_site_symmetry_multiplicity
 _atom_site_fract_x
 _atom_site_fract_y
 _atom_site_fract_z
 _atom_site_occupancy
  Yb  Yb0  1  0.000000  0.324751  0.414372  1
  Yb  Yb1  1  0.000000  0.675252  0.585182  1
  Yb  Yb2  1  0.000000  0.823315  0.086314  1
  Er  Er3  1  0.000000  0.175725  0.914799  1
  Er  Er4  1  0.000000  0.941589  0.367671  1
  Er  Er5  1  0.000000  0.057633  0.630573  1
  Er  Er6  1  0.000000  0.443325  0.131815  1
  Er  Er7  1  0.000000  0.558262  0.868817  1
  B  B8  1  0.500000  0.553223  0.433100  1
  B  B9  1  0.500000  0.446099  0.567746  1
  B  B10  1  0.500000  0.053805  0.066535  1
  B  B11  1  0.500000  0.946227  0.933451  1
  B  B12  1  0.500000  0.748650  0.417631  1
  B  B13  1  0.500000  0.251143  0.582476  1
  B  B14  1  0.500000  0.249116  0.081454  1
  B  B15  1  0.500000  0.751644  0.918080  1
  B  B16  1  0.500000  0.791012  0.264307  1
  B  B17  1  0.500000  0.208363  0.736038  1
  B  B18  1  0.500000  0.291320  0.234532  1
  B  B19  1  0.500000  0.709846  0.765160  1
  B  B20  1  0.500000  0.631065  0.185979  1
  B  B21  1  0.500000  0.368671  0.815213  1
  B  B22  1  0.500000  0.131203  0.313399  1
  B  B23  1  0.500000  0.869353  0.685467  1
  B  B24  1  0.500000  0.982935  0.210630  1
  B  B25  1  0.500000  0.017345  0.788630  1
  B  B26  1  0.500000  0.483590  0.288815  1
  B  B27  1  0.500000  0.516147  0.711974  1
  B  B28  1  0.500000  0.599217  0.027475  1
  B  B29  1  0.500000  0.399857  0.972440  1
  B  B30  1  0.500000  0.097151  0.472585  1
  B  B31  1  0.500000  0.902747  0.526439  1
  Os  Os32  1  0.000000  0.638883  0.320891  1
  Os  Os33  1  0.000000  0.359859  0.680745  1
  Os  Os34  1  0.000000  0.138518  0.178641  1
  Os  Os35  1  0.000000  0.863158  0.820624  1
