# generated using pymatgen
data_Li4TbGd3(SiO4)4
_symmetry_space_group_name_H-M   'P 1'
_cell_length_a   6.28388499
_cell_length_b   5.49211226
_cell_length_c   11.02763702
_cell_angle_alpha   66.51124073
_cell_angle_beta   90.08807622
_cell_angle_gamma   90.05682783
_symmetry_Int_Tables_number   1
_chemical_formula_structural   Li4TbGd3(SiO4)4
_chemical_formula_sum   'Li4 Tb1 Gd3 Si4 O16'
_cell_volume   349.04736987
_cell_formula_units_Z   1
loop_
 _symmetry_equiv_pos_site_id
 _symmetry_equiv_pos_as_xyz
  1  'x, y, z'
loop_
 _atom_site_type_symbol
 _atom_site_label
 _atom_site_symmetry_multiplicity
 _atom_site_fract_x
 _atom_site_fract_y
 _atom_site_fract_z
 _atom_site_occupancy
  Li  Li0  1  0.134165  0.920447  0.429406  1
  Li  Li1  1  0.633836  0.079279  0.070557  1
  Li  Li2  1  0.866257  0.080236  0.570118  1
  Li  Li3  1  0.366050  0.920336  0.929498  1
  Tb  Tb4  1  0.383629  0.445083  0.348176  1
  Gd  Gd5  1  0.117096  0.444911  0.848082  1
  Gd  Gd6  1  0.883336  0.554585  0.152760  1
  Gd  Gd7  1  0.616641  0.555182  0.651749  1
  Si  Si8  1  0.650628  0.905469  0.358991  1
  Si  Si9  1  0.347940  0.095381  0.640143  1
  Si  Si10  1  0.153241  0.093903  0.141861  1
  Si  Si11  1  0.847880  0.905471  0.859077  1
  O  O12  1  0.858288  0.229007  0.776597  1
  O  O13  1  0.639127  0.229431  0.277503  1
  O  O14  1  0.163893  0.184033  0.524595  1
  O  O15  1  0.837212  0.762205  0.752584  1
  O  O16  1  0.143960  0.769910  0.224281  1
  O  O17  1  0.569339  0.223644  0.555030  1
  O  O18  1  0.660904  0.760545  0.253103  1
  O  O19  1  0.429287  0.774822  0.443497  1
  O  O20  1  0.069808  0.777428  0.943845  1
  O  O21  1  0.663042  0.818210  0.973774  1
  O  O22  1  0.164797  0.239084  0.247674  1
  O  O23  1  0.930562  0.221005  0.057506  1
  O  O24  1  0.337163  0.181520  0.026466  1
  O  O25  1  0.337372  0.238092  0.746929  1
  O  O26  1  0.357991  0.771804  0.722813  1
  O  O27  1  0.836556  0.818977  0.473385  1
