# generated using pymatgen
data_Dy3Ho(B4Rh)4
_symmetry_space_group_name_H-M   'P 1'
_cell_length_a   3.57316100
_cell_length_b   5.96365802
_cell_length_c   11.55636004
_cell_angle_alpha   89.99094331
_cell_angle_beta   90.00000000
_cell_angle_gamma   90.00000000
_symmetry_Int_Tables_number   1
_chemical_formula_structural   Dy3Ho(B4Rh)4
_chemical_formula_sum   'Dy3 Ho1 B16 Rh4'
_cell_volume   246.25574702
_cell_formula_units_Z   1
loop_
 _symmetry_equiv_pos_site_id
 _symmetry_equiv_pos_as_xyz
  1  'x, y, z'
loop_
 _atom_site_type_symbol
 _atom_site_label
 _atom_site_symmetry_multiplicity
 _atom_site_fract_x
 _atom_site_fract_y
 _atom_site_fract_z
 _atom_site_occupancy
  Dy  Dy0  1  0.500000  0.369176  0.148781  1
  Dy  Dy1  1  0.500000  0.630732  0.851303  1
  Dy  Dy2  1  0.500000  0.130802  0.648584  1
  Ho  Ho3  1  0.500000  0.869245  0.351359  1
  B  B4  1  0.000000  0.112146  0.046821  1
  B  B5  1  0.000000  0.887800  0.953321  1
  B  B6  1  0.000000  0.387874  0.546564  1
  B  B7  1  0.000000  0.612641  0.453083  1
  B  B8  1  0.000000  0.135692  0.469259  1
  B  B9  1  0.000000  0.864212  0.530304  1
  B  B10  1  0.000000  0.364067  0.969505  1
  B  B11  1  0.000000  0.635988  0.030605  1
  B  B12  1  0.000000  0.023404  0.193252  1
  B  B13  1  0.000000  0.976450  0.806981  1
  B  B14  1  0.000000  0.476432  0.692881  1
  B  B15  1  0.000000  0.523917  0.307074  1
  B  B16  1  0.000000  0.210034  0.312827  1
  B  B17  1  0.000000  0.789381  0.687238  1
  B  B18  1  0.000000  0.289393  0.812693  1
  B  B19  1  0.000000  0.710669  0.187540  1
  Rh  Rh20  1  0.500000  0.358859  0.405348  1
  Rh  Rh21  1  0.500000  0.641252  0.594313  1
  Rh  Rh22  1  0.500000  0.140991  0.905444  1
  Rh  Rh23  1  0.500000  0.858840  0.094920  1
