# generated using pymatgen
data_Sc8Re11Si16Tc
_symmetry_space_group_name_H-M   'P 1'
_cell_length_a   6.64430945
_cell_length_b   6.64755302
_cell_length_c   12.41665380
_cell_angle_alpha   90.08503880
_cell_angle_beta   89.92934572
_cell_angle_gamma   90.02752769
_symmetry_Int_Tables_number   1
_chemical_formula_structural   Sc8Re11Si16Tc
_chemical_formula_sum   'Sc8 Re11 Si16 Tc1'
_cell_volume   548.42263926
_cell_formula_units_Z   1
loop_
 _symmetry_equiv_pos_site_id
 _symmetry_equiv_pos_as_xyz
  1  'x, y, z'
loop_
 _atom_site_type_symbol
 _atom_site_label
 _atom_site_symmetry_multiplicity
 _atom_site_fract_x
 _atom_site_fract_y
 _atom_site_fract_z
 _atom_site_occupancy
  Sc  Sc0  1  0.341551  0.994151  0.469433  1
  Sc  Sc1  1  0.659232  0.005304  0.969411  1
  Sc  Sc2  1  0.841706  0.505756  0.280846  1
  Sc  Sc3  1  0.158689  0.494471  0.780360  1
  Sc  Sc4  1  0.006045  0.657018  0.031441  1
  Sc  Sc5  1  0.994286  0.341579  0.530879  1
  Sc  Sc6  1  0.494376  0.157948  0.219401  1
  Sc  Sc7  1  0.506945  0.842119  0.718939  1
  Re  Re8  1  0.332108  0.332423  0.000064  1
  Re  Re9  1  0.668153  0.668780  0.499950  1
  Re  Re10  1  0.830898  0.169618  0.749907  1
  Re  Re11  1  0.169088  0.831098  0.249993  1
  Re  Re12  1  0.815064  0.020280  0.367544  1
  Re  Re13  1  0.682742  0.521875  0.881828  1
  Re  Re14  1  0.316129  0.479975  0.381530  1
  Re  Re15  1  0.019956  0.815560  0.632271  1
  Re  Re16  1  0.980735  0.182205  0.130648  1
  Re  Re17  1  0.480412  0.316424  0.619045  1
  Re  Re18  1  0.519368  0.683427  0.117720  1
  Si  Si19  1  0.280359  0.972586  0.062730  1
  Si  Si20  1  0.721101  0.027497  0.562994  1
  Si  Si21  1  0.779761  0.528205  0.686956  1
  Si  Si22  1  0.220577  0.471913  0.186642  1
  Si  Si23  1  0.027083  0.721046  0.436883  1
  Si  Si24  1  0.972732  0.280184  0.935642  1
  Si  Si25  1  0.472079  0.219501  0.814335  1
  Si  Si26  1  0.527251  0.779261  0.313141  1
  Si  Si27  1  0.194256  0.121286  0.682154  1
  Si  Si28  1  0.805023  0.877636  0.180963  1
  Si  Si29  1  0.695364  0.377695  0.068626  1
  Si  Si30  1  0.304980  0.621384  0.568958  1
  Si  Si31  1  0.879663  0.806249  0.818950  1
  Si  Si32  1  0.121435  0.194460  0.318631  1
  Si  Si33  1  0.621229  0.305024  0.431372  1
  Si  Si34  1  0.376323  0.696168  0.930797  1
  Tc  Tc35  1  0.183310  0.979902  0.869010  1
