# generated using pymatgen
data_Sr2LaSm(NiP)4
_symmetry_space_group_name_H-M   'P 1'
_cell_length_a   3.95822900
_cell_length_b   3.95822936
_cell_length_c   17.07937900
_cell_angle_alpha   90.00000000
_cell_angle_beta   90.00000000
_cell_angle_gamma   120.00000531
_symmetry_Int_Tables_number   1
_chemical_formula_structural   Sr2LaSm(NiP)4
_chemical_formula_sum   'Sr2 La1 Sm1 Ni4 P4'
_cell_volume   231.74189660
_cell_formula_units_Z   1
loop_
 _symmetry_equiv_pos_site_id
 _symmetry_equiv_pos_as_xyz
  1  'x, y, z'
loop_
 _atom_site_type_symbol
 _atom_site_label
 _atom_site_symmetry_multiplicity
 _atom_site_fract_x
 _atom_site_fract_y
 _atom_site_fract_z
 _atom_site_occupancy
  Sr  Sr0  1  0.000000  0.000000  0.246394  1
  Sr  Sr1  1  0.000000  0.000000  0.753606  1
  La  La2  1  0.000000  0.000000  0.500000  1
  Sm  Sm3  1  0.000000  0.000000  0.000000  1
  Ni  Ni4  1  0.333333  0.666667  0.378026  1
  Ni  Ni5  1  0.666667  0.333333  0.621974  1
  Ni  Ni6  1  0.666667  0.333333  0.884791  1
  Ni  Ni7  1  0.333333  0.666667  0.115209  1
  P  P8  1  0.333333  0.666667  0.885022  1
  P  P9  1  0.666667  0.333333  0.114978  1
  P  P10  1  0.666667  0.333333  0.376935  1
  P  P11  1  0.333333  0.666667  0.623065  1
