# generated using pymatgen
data_TbPrDyTaO7
_symmetry_space_group_name_H-M   'P 1'
_cell_length_a   6.53064301
_cell_length_b   6.53064353
_cell_length_c   7.62636700
_cell_angle_alpha   90.00000000
_cell_angle_beta   90.00000000
_cell_angle_gamma   110.14652754
_symmetry_Int_Tables_number   1
_chemical_formula_structural   TbPrDyTaO7
_chemical_formula_sum   'Tb2 Pr2 Dy2 Ta2 O14'
_cell_volume   305.35819798
_cell_formula_units_Z   2
loop_
 _symmetry_equiv_pos_site_id
 _symmetry_equiv_pos_as_xyz
  1  'x, y, z'
loop_
 _atom_site_type_symbol
 _atom_site_label
 _atom_site_symmetry_multiplicity
 _atom_site_fract_x
 _atom_site_fract_y
 _atom_site_fract_z
 _atom_site_occupancy
  Tb  Tb0  1  0.515536  0.054668  0.250000  1
  Tb  Tb1  1  0.945332  0.484464  0.750000  1
  Pr  Pr2  1  0.000019  0.999981  0.000000  1
  Pr  Pr3  1  0.000019  0.999981  0.500000  1
  Dy  Dy4  1  0.053858  0.515392  0.250000  1
  Dy  Dy5  1  0.484608  0.946142  0.750000  1
  Ta  Ta6  1  0.499950  0.500050  0.000000  1
  Ta  Ta7  1  0.499950  0.500050  0.500000  1
  O  O8  1  0.881366  0.160266  0.250000  1
  O  O9  1  0.839734  0.118634  0.750000  1
  O  O10  1  0.819437  0.560548  0.034322  1
  O  O11  1  0.819437  0.560548  0.465678  1
  O  O12  1  0.439452  0.180563  0.965678  1
  O  O13  1  0.439452  0.180563  0.534322  1
  O  O14  1  0.574638  0.574705  0.750000  1
  O  O15  1  0.425295  0.425362  0.250000  1
  O  O16  1  0.560595  0.819285  0.033496  1
  O  O17  1  0.180715  0.439405  0.533496  1
  O  O18  1  0.560595  0.819285  0.466504  1
  O  O19  1  0.180715  0.439405  0.966504  1
  O  O20  1  0.120314  0.841018  0.750000  1
  O  O21  1  0.158982  0.879686  0.250000  1
