# generated using pymatgen
data_Dy4HgPd
_symmetry_space_group_name_H-M   'P 1'
_cell_length_a   9.66654652
_cell_length_b   9.66654635
_cell_length_c   9.66654600
_cell_angle_alpha   60.00000120
_cell_angle_beta   60.00000177
_cell_angle_gamma   59.99999864
_symmetry_Int_Tables_number   1
_chemical_formula_structural   Dy4HgPd
_chemical_formula_sum   'Dy16 Hg4 Pd4'
_cell_volume   638.70308272
_cell_formula_units_Z   4
loop_
 _symmetry_equiv_pos_site_id
 _symmetry_equiv_pos_as_xyz
  1  'x, y, z'
loop_
 _atom_site_type_symbol
 _atom_site_label
 _atom_site_symmetry_multiplicity
 _atom_site_fract_x
 _atom_site_fract_y
 _atom_site_fract_z
 _atom_site_occupancy
  Dy  Dy0  1  0.606087  0.606087  0.606087  1
  Dy  Dy1  1  0.606087  0.606087  0.181739  1
  Dy  Dy2  1  0.606087  0.181739  0.606087  1
  Dy  Dy3  1  0.181739  0.606087  0.606087  1
  Dy  Dy4  1  0.060775  0.439225  0.439225  1
  Dy  Dy5  1  0.439225  0.060775  0.060775  1
  Dy  Dy6  1  0.439225  0.060775  0.439225  1
  Dy  Dy7  1  0.060775  0.439225  0.060775  1
  Dy  Dy8  1  0.439225  0.439225  0.060775  1
  Dy  Dy9  1  0.060775  0.060775  0.439225  1
  Dy  Dy10  1  0.184634  0.815366  0.815366  1
  Dy  Dy11  1  0.815366  0.184634  0.184634  1
  Dy  Dy12  1  0.815366  0.184634  0.815366  1
  Dy  Dy13  1  0.184634  0.815366  0.184634  1
  Dy  Dy14  1  0.815366  0.815366  0.184634  1
  Dy  Dy15  1  0.184634  0.184634  0.815366  1
  Hg  Hg16  1  0.837003  0.837003  0.837003  1
  Hg  Hg17  1  0.837003  0.837003  0.488993  1
  Hg  Hg18  1  0.837003  0.488993  0.837003  1
  Hg  Hg19  1  0.488993  0.837003  0.837003  1
  Pd  Pd20  1  0.395180  0.395180  0.395180  1
  Pd  Pd21  1  0.395180  0.395180  0.814459  1
  Pd  Pd22  1  0.395180  0.814459  0.395180  1
  Pd  Pd23  1  0.814459  0.395180  0.395180  1
