# generated using pymatgen
data_Tb7DyLu8(Ga3Co)2
_symmetry_space_group_name_H-M   'P 1'
_cell_length_a   9.88459200
_cell_length_b   9.88459169
_cell_length_c   6.97470900
_cell_angle_alpha   90.00000000
_cell_angle_beta   90.00000000
_cell_angle_gamma   119.99999434
_symmetry_Int_Tables_number   1
_chemical_formula_structural   Tb7DyLu8(Ga3Co)2
_chemical_formula_sum   'Tb7 Dy1 Lu8 Ga6 Co2'
_cell_volume   590.16606201
_cell_formula_units_Z   1
loop_
 _symmetry_equiv_pos_site_id
 _symmetry_equiv_pos_as_xyz
  1  'x, y, z'
loop_
 _atom_site_type_symbol
 _atom_site_label
 _atom_site_symmetry_multiplicity
 _atom_site_fract_x
 _atom_site_fract_y
 _atom_site_fract_z
 _atom_site_occupancy
  Tb  Tb0  1  0.464198  0.535802  0.208588  1
  Tb  Tb1  1  0.071603  0.535802  0.208588  1
  Tb  Tb2  1  0.464198  0.928397  0.208588  1
  Tb  Tb3  1  0.535808  0.464192  0.708582  1
  Tb  Tb4  1  0.928385  0.464192  0.708582  1
  Tb  Tb5  1  0.535808  0.071615  0.708582  1
  Tb  Tb6  1  0.000000  0.000000  0.231351  1
  Dy  Dy7  1  0.000000  0.000000  0.731663  1
  Lu  Lu8  1  0.173872  0.826128  0.513362  1
  Lu  Lu9  1  0.652256  0.826128  0.513362  1
  Lu  Lu10  1  0.173872  0.347744  0.513362  1
  Lu  Lu11  1  0.826132  0.173868  0.013066  1
  Lu  Lu12  1  0.347736  0.173868  0.013066  1
  Lu  Lu13  1  0.826132  0.652264  0.013066  1
  Lu  Lu14  1  0.333333  0.666667  0.824614  1
  Lu  Lu15  1  0.666667  0.333333  0.324724  1
  Ga  Ga16  1  0.163681  0.836319  0.955686  1
  Ga  Ga17  1  0.672639  0.836319  0.955686  1
  Ga  Ga18  1  0.163681  0.327361  0.955686  1
  Ga  Ga19  1  0.836298  0.163702  0.456029  1
  Ga  Ga20  1  0.327404  0.163702  0.456029  1
  Ga  Ga21  1  0.836298  0.672596  0.456029  1
  Co  Co22  1  0.333333  0.666667  0.448177  1
  Co  Co23  1  0.666667  0.333333  0.948367  1
