# generated using pymatgen
data_Sr20Si11As
_symmetry_space_group_name_H-M   'P 1'
_cell_length_a   8.11516800
_cell_length_b   8.11516800
_cell_length_c   15.75353900
_cell_angle_alpha   90.00000000
_cell_angle_beta   90.00000000
_cell_angle_gamma   90.00000000
_symmetry_Int_Tables_number   1
_chemical_formula_structural   Sr20Si11As
_chemical_formula_sum   'Sr20 Si11 As1'
_cell_volume   1037.46430299
_cell_formula_units_Z   1
loop_
 _symmetry_equiv_pos_site_id
 _symmetry_equiv_pos_as_xyz
  1  'x, y, z'
loop_
 _atom_site_type_symbol
 _atom_site_label
 _atom_site_symmetry_multiplicity
 _atom_site_fract_x
 _atom_site_fract_y
 _atom_site_fract_z
 _atom_site_occupancy
  Sr  Sr0  1  0.312963  0.671740  0.109154  1
  Sr  Sr1  1  0.171740  0.187037  0.109154  1
  Sr  Sr2  1  0.500000  0.000000  0.732408  1
  Sr  Sr3  1  0.329851  0.688769  0.390095  1
  Sr  Sr4  1  0.670420  0.688574  0.890600  1
  Sr  Sr5  1  0.188769  0.170149  0.390095  1
  Sr  Sr6  1  0.670149  0.311231  0.390095  1
  Sr  Sr7  1  0.171177  0.811727  0.609916  1
  Sr  Sr8  1  0.329580  0.311426  0.890600  1
  Sr  Sr9  1  0.188574  0.829580  0.890600  1
  Sr  Sr10  1  0.500000  0.000000  0.233306  1
  Sr  Sr11  1  0.828823  0.188273  0.609916  1
  Sr  Sr12  1  0.311727  0.328823  0.609916  1
  Sr  Sr13  1  0.811231  0.829851  0.390095  1
  Sr  Sr14  1  0.811426  0.170420  0.890600  1
  Sr  Sr15  1  0.828260  0.812963  0.109154  1
  Sr  Sr16  1  0.000000  0.500000  0.270650  1
  Sr  Sr17  1  0.000000  0.500000  0.765764  1
  Sr  Sr18  1  0.687037  0.328260  0.109154  1
  Sr  Sr19  1  0.688273  0.671177  0.609916  1
  Si  Si20  1  0.107978  0.109019  0.751404  1
  Si  Si21  1  0.390981  0.607978  0.751404  1
  Si  Si22  1  0.609309  0.607842  0.248589  1
  Si  Si23  1  0.500000  0.000000  0.006650  1
  Si  Si24  1  0.107842  0.890691  0.248589  1
  Si  Si25  1  0.609019  0.392022  0.751404  1
  Si  Si26  1  0.892022  0.890981  0.751404  1
  Si  Si27  1  0.390691  0.392158  0.248589  1
  Si  Si28  1  0.892158  0.109309  0.248589  1
  Si  Si29  1  0.500000  0.000000  0.506139  1
  Si  Si30  1  0.000000  0.500000  0.493987  1
  As  As31  1  0.000000  0.500000  0.992067  1
