# generated using pymatgen
data_Li3Ho8Sc8Si16Tc
_symmetry_space_group_name_H-M   'P 1'
_cell_length_a   6.89672061
_cell_length_b   7.29641025
_cell_length_c   13.92113553
_cell_angle_alpha   90.10996219
_cell_angle_beta   89.80972821
_cell_angle_gamma   89.46472679
_symmetry_Int_Tables_number   1
_chemical_formula_structural   Li3Ho8Sc8Si16Tc
_chemical_formula_sum   'Li3 Ho8 Sc8 Si16 Tc1'
_cell_volume   700.49391304
_cell_formula_units_Z   1
loop_
 _symmetry_equiv_pos_site_id
 _symmetry_equiv_pos_as_xyz
  1  'x, y, z'
loop_
 _atom_site_type_symbol
 _atom_site_label
 _atom_site_symmetry_multiplicity
 _atom_site_fract_x
 _atom_site_fract_y
 _atom_site_fract_z
 _atom_site_occupancy
  Li  Li0  1  0.162316  0.499076  0.744161  1
  Li  Li1  1  0.839170  0.495549  0.252470  1
  Li  Li2  1  0.339305  0.006804  0.250959  1
  Ho  Ho3  1  0.014622  0.181084  0.099660  1
  Ho  Ho4  1  0.991062  0.820508  0.896526  1
  Ho  Ho5  1  0.484861  0.676236  0.897986  1
  Ho  Ho6  1  0.991408  0.825267  0.596909  1
  Ho  Ho7  1  0.513594  0.319294  0.098829  1
  Ho  Ho8  1  0.012364  0.181513  0.400244  1
  Ho  Ho9  1  0.510303  0.316210  0.407770  1
  Ho  Ho10  1  0.484508  0.672143  0.596366  1
  Sc  Sc11  1  0.661584  0.003583  0.745963  1
  Sc  Sc12  1  0.664532  0.825782  0.378324  1
  Sc  Sc13  1  0.168860  0.680893  0.379444  1
  Sc  Sc14  1  0.667604  0.822363  0.127460  1
  Sc  Sc15  1  0.839597  0.323771  0.624363  1
  Sc  Sc16  1  0.327768  0.181715  0.872338  1
  Sc  Sc17  1  0.828963  0.326627  0.870964  1
  Sc  Sc18  1  0.168514  0.678611  0.126608  1
  Si  Si19  1  0.041689  0.109386  0.742644  1
  Si  Si20  1  0.967939  0.897899  0.251026  1
  Si  Si21  1  0.467846  0.607754  0.252501  1
  Si  Si22  1  0.529880  0.374085  0.744226  1
  Si  Si23  1  0.290702  0.882568  0.745771  1
  Si  Si24  1  0.713507  0.121236  0.251070  1
  Si  Si25  1  0.220029  0.380929  0.251124  1
  Si  Si26  1  0.779485  0.622900  0.745900  1
  Si  Si27  1  0.177452  0.446124  0.536528  1
  Si  Si28  1  0.841150  0.533330  0.467127  1
  Si  Si29  1  0.330159  0.970491  0.476697  1
  Si  Si30  1  0.840636  0.539141  0.035239  1
  Si  Si31  1  0.644908  0.035604  0.545393  1
  Si  Si32  1  0.156796  0.463789  0.964408  1
  Si  Si33  1  0.658430  0.035180  0.960203  1
  Si  Si34  1  0.341308  0.962806  0.034269  1
  Tc  Tc35  1  0.327150  0.179746  0.628529  1
