# generated using pymatgen
data_CaCe3Tm4(B6Os)4
_symmetry_space_group_name_H-M   'P 1'
_cell_length_a   3.67045800
_cell_length_b   9.16150745
_cell_length_c   11.55436560
_cell_angle_alpha   89.88708300
_cell_angle_beta   90.00000000
_cell_angle_gamma   90.00000000
_symmetry_Int_Tables_number   1
_chemical_formula_structural   CaCe3Tm4(B6Os)4
_chemical_formula_sum   'Ca1 Ce3 Tm4 B24 Os4'
_cell_volume   388.53706942
_cell_formula_units_Z   1
loop_
 _symmetry_equiv_pos_site_id
 _symmetry_equiv_pos_as_xyz
  1  'x, y, z'
loop_
 _atom_site_type_symbol
 _atom_site_label
 _atom_site_symmetry_multiplicity
 _atom_site_fract_x
 _atom_site_fract_y
 _atom_site_fract_z
 _atom_site_occupancy
  Ca  Ca0  1  0.000000  0.321039  0.413834  1
  Ce  Ce1  1  0.000000  0.676109  0.585411  1
  Ce  Ce2  1  0.000000  0.822613  0.086624  1
  Ce  Ce3  1  0.000000  0.177935  0.913999  1
  Tm  Tm4  1  0.000000  0.946383  0.373648  1
  Tm  Tm5  1  0.000000  0.056983  0.625089  1
  Tm  Tm6  1  0.000000  0.444119  0.127763  1
  Tm  Tm7  1  0.000000  0.554570  0.873835  1
  B  B8  1  0.500000  0.554971  0.431459  1
  B  B9  1  0.500000  0.444752  0.568702  1
  B  B10  1  0.500000  0.054597  0.067836  1
  B  B11  1  0.500000  0.945124  0.931253  1
  B  B12  1  0.500000  0.749417  0.418648  1
  B  B13  1  0.500000  0.250545  0.580533  1
  B  B14  1  0.500000  0.249649  0.081722  1
  B  B15  1  0.500000  0.749880  0.918936  1
  B  B16  1  0.500000  0.792432  0.266471  1
  B  B17  1  0.500000  0.208090  0.733203  1
  B  B18  1  0.500000  0.291596  0.234103  1
  B  B19  1  0.500000  0.707982  0.766139  1
  B  B20  1  0.500000  0.631852  0.185592  1
  B  B21  1  0.500000  0.368115  0.815663  1
  B  B22  1  0.500000  0.132119  0.315488  1
  B  B23  1  0.500000  0.868164  0.684050  1
  B  B24  1  0.500000  0.985185  0.214324  1
  B  B25  1  0.500000  0.015893  0.785300  1
  B  B26  1  0.500000  0.483785  0.286485  1
  B  B27  1  0.500000  0.515514  0.713621  1
  B  B28  1  0.500000  0.605292  0.029098  1
  B  B29  1  0.500000  0.394595  0.971705  1
  B  B30  1  0.500000  0.105595  0.471066  1
  B  B31  1  0.500000  0.895080  0.528736  1
  Os  Os32  1  0.000000  0.640671  0.319774  1
  Os  Os33  1  0.000000  0.360685  0.682185  1
  Os  Os34  1  0.000000  0.138161  0.177580  1
  Os  Os35  1  0.000000  0.860506  0.820123  1
