# generated using pymatgen
data_Cs10MnCr5S14
_symmetry_space_group_name_H-M   'P 1'
_cell_length_a   10.66668561
_cell_length_b   10.66668401
_cell_length_c   9.03559800
_cell_angle_alpha   79.04947516
_cell_angle_beta   79.04947135
_cell_angle_gamma   74.64364050
_symmetry_Int_Tables_number   1
_chemical_formula_structural   Cs10MnCr5S14
_chemical_formula_sum   'Cs10 Mn1 Cr5 S14'
_cell_volume   962.65100539
_cell_formula_units_Z   1
loop_
 _symmetry_equiv_pos_site_id
 _symmetry_equiv_pos_as_xyz
  1  'x, y, z'
loop_
 _atom_site_type_symbol
 _atom_site_label
 _atom_site_symmetry_multiplicity
 _atom_site_fract_x
 _atom_site_fract_y
 _atom_site_fract_z
 _atom_site_occupancy
  Cs  Cs0  1  0.040838  0.422309  0.731493  1
  Cs  Cs1  1  0.422309  0.040838  0.731493  1
  Cs  Cs2  1  0.961782  0.570129  0.267856  1
  Cs  Cs3  1  0.570129  0.961782  0.267856  1
  Cs  Cs4  1  0.294641  0.703321  0.000183  1
  Cs  Cs5  1  0.703321  0.294641  0.000183  1
  Cs  Cs6  1  0.849445  0.153955  0.497235  1
  Cs  Cs7  1  0.153955  0.849445  0.497235  1
  Cs  Cs8  1  0.426761  0.426761  0.696393  1
  Cs  Cs9  1  0.571152  0.571152  0.303180  1
  Mn  Mn10  1  0.205196  0.205196  0.185041  1
  Cr  Cr11  1  0.796848  0.796848  0.817186  1
  Cr  Cr12  1  0.069545  0.069545  0.061608  1
  Cr  Cr13  1  0.934826  0.934826  0.944386  1
  Cr  Cr14  1  0.332097  0.332097  0.321909  1
  Cr  Cr15  1  0.665416  0.665416  0.674774  1
  S  S16  1  0.999513  0.271581  0.119749  1
  S  S17  1  0.271581  0.999513  0.119749  1
  S  S18  1  0.997091  0.731042  0.880368  1
  S  S19  1  0.731042  0.997091  0.880368  1
  S  S20  1  0.202030  0.202030  0.437589  1
  S  S21  1  0.798120  0.798120  0.571395  1
  S  S22  1  0.064014  0.064014  0.821379  1
  S  S23  1  0.941371  0.941371  0.185845  1
  S  S24  1  0.340732  0.340732  0.073219  1
  S  S25  1  0.663990  0.663990  0.922144  1
  S  S26  1  0.256062  0.529347  0.387438  1
  S  S27  1  0.529347  0.256062  0.387438  1
  S  S28  1  0.740227  0.466617  0.607650  1
  S  S29  1  0.466617  0.740227  0.607650  1
