# generated using pymatgen
data_Zr10ZnCu(SnSb2)2
_symmetry_space_group_name_H-M   'P 1'
_cell_length_a   8.66570406
_cell_length_b   8.67175051
_cell_length_c   5.86808512
_cell_angle_alpha   90.02289006
_cell_angle_beta   89.98853984
_cell_angle_gamma   120.02307439
_symmetry_Int_Tables_number   1
_chemical_formula_structural   Zr10ZnCu(SnSb2)2
_chemical_formula_sum   'Zr10 Zn1 Cu1 Sn2 Sb4'
_cell_volume   381.80059730
_cell_formula_units_Z   1
loop_
 _symmetry_equiv_pos_site_id
 _symmetry_equiv_pos_as_xyz
  1  'x, y, z'
loop_
 _atom_site_type_symbol
 _atom_site_label
 _atom_site_symmetry_multiplicity
 _atom_site_fract_x
 _atom_site_fract_y
 _atom_site_fract_z
 _atom_site_occupancy
  Zr  Zr0  1  0.667497  0.333940  0.999244  1
  Zr  Zr1  1  0.332503  0.666444  0.999244  1
  Zr  Zr2  1  0.332292  0.666414  0.500574  1
  Zr  Zr3  1  0.667708  0.334122  0.500574  1
  Zr  Zr4  1  0.733239  0.732692  0.751627  1
  Zr  Zr5  1  0.266761  0.999453  0.751627  1
  Zr  Zr6  1  0.000000  0.268292  0.751166  1
  Zr  Zr7  1  0.265512  0.265182  0.248219  1
  Zr  Zr8  1  0.734488  0.999670  0.248219  1
  Zr  Zr9  1  0.000000  0.733740  0.248834  1
  Zn  Zn10  1  0.000000  0.000876  0.502976  1
  Cu  Cu11  1  0.000000  0.001064  0.996913  1
  Sn  Sn12  1  0.384031  0.383875  0.749921  1
  Sn  Sn13  1  0.615969  0.999844  0.749921  1
  Sb  Sb14  1  0.000000  0.615640  0.750090  1
  Sb  Sb15  1  0.613372  0.613917  0.250335  1
  Sb  Sb16  1  0.386628  0.000546  0.250335  1
  Sb  Sb17  1  0.000000  0.384289  0.250180  1
