# generated using pymatgen
data_DyY8ThRu4
_symmetry_space_group_name_H-M   'P 1'
_cell_length_a   8.59268605
_cell_length_b   8.59268607
_cell_length_c   7.27058524
_cell_angle_alpha   83.01000535
_cell_angle_beta   83.01001379
_cell_angle_gamma   43.94371209
_symmetry_Int_Tables_number   1
_chemical_formula_structural   DyY8ThRu4
_chemical_formula_sum   'Dy1 Y8 Th1 Ru4'
_cell_volume   369.30425168
_cell_formula_units_Z   1
loop_
 _symmetry_equiv_pos_site_id
 _symmetry_equiv_pos_as_xyz
  1  'x, y, z'
loop_
 _atom_site_type_symbol
 _atom_site_label
 _atom_site_symmetry_multiplicity
 _atom_site_fract_x
 _atom_site_fract_y
 _atom_site_fract_z
 _atom_site_occupancy
  Dy  Dy0  1  0.424905  0.575095  0.250000  1
  Y  Y1  1  0.211386  0.974761  0.581066  1
  Y  Y2  1  0.025239  0.788614  0.918934  1
  Y  Y3  1  0.208166  0.355926  0.315349  1
  Y  Y4  1  0.644074  0.791834  0.184651  1
  Y  Y5  1  0.788679  0.652382  0.686342  1
  Y  Y6  1  0.347618  0.211321  0.813658  1
  Y  Y7  1  0.981129  0.206276  0.089171  1
  Y  Y8  1  0.793724  0.018871  0.410829  1
  Th  Th9  1  0.581551  0.418449  0.750000  1
  Ru  Ru10  1  0.184037  0.600148  0.572678  1
  Ru  Ru11  1  0.399852  0.815963  0.927322  1
  Ru  Ru12  1  0.812224  0.402582  0.437809  1
  Ru  Ru13  1  0.597418  0.187776  0.062191  1
