# generated using pymatgen
data_Th10TcSn2Sb5
_symmetry_space_group_name_H-M   'P 1'
_cell_length_a   9.59049509
_cell_length_b   9.58779548
_cell_length_c   6.54296000
_cell_angle_alpha   89.97049097
_cell_angle_beta   90.05900743
_cell_angle_gamma   120.00931458
_symmetry_Int_Tables_number   1
_chemical_formula_structural   Th10TcSn2Sb5
_chemical_formula_sum   'Th10 Tc1 Sn2 Sb5'
_cell_volume   520.98315907
_cell_formula_units_Z   1
loop_
 _symmetry_equiv_pos_site_id
 _symmetry_equiv_pos_as_xyz
  1  'x, y, z'
loop_
 _atom_site_type_symbol
 _atom_site_label
 _atom_site_symmetry_multiplicity
 _atom_site_fract_x
 _atom_site_fract_y
 _atom_site_fract_z
 _atom_site_occupancy
  Th  Th0  1  0.999622  0.739270  0.769938  1
  Th  Th1  1  0.260352  0.260730  0.769938  1
  Th  Th2  1  0.332050  0.665792  0.498170  1
  Th  Th3  1  0.666259  0.334208  0.498170  1
  Th  Th4  1  0.736878  0.737291  0.228372  1
  Th  Th5  1  0.741024  0.000000  0.772832  1
  Th  Th6  1  0.999588  0.262709  0.228372  1
  Th  Th7  1  0.265508  0.000000  0.229570  1
  Th  Th8  1  0.333031  0.666790  0.000881  1
  Th  Th9  1  0.666242  0.333210  0.000881  1
  Tc  Tc10  1  0.000218  0.000000  0.006321  1
  Sn  Sn11  1  0.386908  0.387080  0.255688  1
  Sn  Sn12  1  0.999828  0.612920  0.255688  1
  Sb  Sb13  1  0.610541  0.610332  0.744743  1
  Sb  Sb14  1  0.000210  0.389668  0.744743  1
  Sb  Sb15  1  0.388537  0.000000  0.743655  1
  Sb  Sb16  1  0.612649  0.000000  0.255436  1
  Sb  Sb17  1  0.000557  0.000000  0.496601  1
