# generated using pymatgen
data_PrB(PtRh)2
_symmetry_space_group_name_H-M   'P 1'
_cell_length_a   5.49262310
_cell_length_b   5.49262307
_cell_length_c   7.53353600
_cell_angle_alpha   90.00000000
_cell_angle_beta   90.00000000
_cell_angle_gamma   120.19678012
_symmetry_Int_Tables_number   1
_chemical_formula_structural   PrB(PtRh)2
_chemical_formula_sum   'Pr2 B2 Pt4 Rh4'
_cell_volume   196.43755430
_cell_formula_units_Z   2
loop_
 _symmetry_equiv_pos_site_id
 _symmetry_equiv_pos_as_xyz
  1  'x, y, z'
loop_
 _atom_site_type_symbol
 _atom_site_label
 _atom_site_symmetry_multiplicity
 _atom_site_fract_x
 _atom_site_fract_y
 _atom_site_fract_z
 _atom_site_occupancy
  Pr  Pr0  1  0.000000  0.000000  0.500000  1
  Pr  Pr1  1  0.000000  0.000000  0.000000  1
  B  B2  1  0.664655  0.335345  0.500000  1
  B  B3  1  0.335345  0.664655  0.500000  1
  Pt  Pt4  1  0.663819  0.336181  0.000000  1
  Pt  Pt5  1  0.500000  0.000000  0.699335  1
  Pt  Pt6  1  0.336181  0.663819  0.000000  1
  Pt  Pt7  1  0.000000  0.500000  0.300665  1
  Rh  Rh8  1  0.500000  0.500000  0.303992  1
  Rh  Rh9  1  0.500000  0.000000  0.301733  1
  Rh  Rh10  1  0.500000  0.500000  0.696008  1
  Rh  Rh11  1  0.000000  0.500000  0.698267  1
