# generated using pymatgen
data_La3Sm2Bi3O14
_symmetry_space_group_name_H-M   'P 1'
_cell_length_a   6.77276493
_cell_length_b   6.85226460
_cell_length_c   7.96475736
_cell_angle_alpha   106.62576506
_cell_angle_beta   89.73051818
_cell_angle_gamma   98.21477436
_symmetry_Int_Tables_number   1
_chemical_formula_structural   La3Sm2Bi3O14
_chemical_formula_sum   'La3 Sm2 Bi3 O14'
_cell_volume   350.29242805
_cell_formula_units_Z   1
loop_
 _symmetry_equiv_pos_site_id
 _symmetry_equiv_pos_as_xyz
  1  'x, y, z'
loop_
 _atom_site_type_symbol
 _atom_site_label
 _atom_site_symmetry_multiplicity
 _atom_site_fract_x
 _atom_site_fract_y
 _atom_site_fract_z
 _atom_site_occupancy
  La  La0  1  0.267074  0.530085  0.881516  1
  La  La1  1  0.744344  0.463789  0.116742  1
  La  La2  1  0.753803  0.485584  0.618910  1
  Sm  Sm3  1  0.456191  0.009288  0.255340  1
  Sm  Sm4  1  0.538222  0.001466  0.749667  1
  Bi  Bi5  1  0.993484  0.998339  0.499575  1
  Bi  Bi6  1  0.998171  0.995477  0.997465  1
  Bi  Bi7  1  0.290457  0.541769  0.390511  1
  O  O8  1  0.444555  0.654988  0.176974  1
  O  O9  1  0.560289  0.353944  0.834747  1
  O  O10  1  0.298206  0.931225  0.953488  1
  O  O11  1  0.699643  0.062513  0.048138  1
  O  O12  1  0.292383  0.931933  0.515697  1
  O  O13  1  0.700531  0.076455  0.489080  1
  O  O14  1  0.541302  0.360549  0.343566  1
  O  O15  1  0.459627  0.645413  0.651133  1
  O  O16  1  0.926330  0.667917  0.943841  1
  O  O17  1  0.069532  0.315126  0.029893  1
  O  O18  1  0.070495  0.325251  0.622043  1
  O  O19  1  0.908953  0.672909  0.387806  1
  O  O20  1  0.878226  0.915578  0.729136  1
  O  O21  1  0.108184  0.060402  0.264731  1
