# generated using pymatgen
data_Cs6HgSe4
_symmetry_space_group_name_H-M   'P 1'
_cell_length_a   11.29847000
_cell_length_b   11.29846996
_cell_length_c   8.73101700
_cell_angle_alpha   90.00000000
_cell_angle_beta   90.00000000
_cell_angle_gamma   120.00000011
_symmetry_Int_Tables_number   1
_chemical_formula_structural   Cs6HgSe4
_chemical_formula_sum   'Cs12 Hg2 Se8'
_cell_volume   965.23872469
_cell_formula_units_Z   2
loop_
 _symmetry_equiv_pos_site_id
 _symmetry_equiv_pos_as_xyz
  1  'x, y, z'
loop_
 _atom_site_type_symbol
 _atom_site_label
 _atom_site_symmetry_multiplicity
 _atom_site_fract_x
 _atom_site_fract_y
 _atom_site_fract_z
 _atom_site_occupancy
  Cs  Cs0  1  0.852579  0.705159  0.545936  1
  Cs  Cs1  1  0.294841  0.147421  0.545936  1
  Cs  Cs2  1  0.852579  0.147421  0.545936  1
  Cs  Cs3  1  0.147421  0.294841  0.045936  1
  Cs  Cs4  1  0.705159  0.852579  0.045936  1
  Cs  Cs5  1  0.147421  0.852579  0.045936  1
  Cs  Cs6  1  0.472871  0.945744  0.365773  1
  Cs  Cs7  1  0.054256  0.527129  0.365773  1
  Cs  Cs8  1  0.472871  0.527129  0.365773  1
  Cs  Cs9  1  0.527129  0.054256  0.865773  1
  Cs  Cs10  1  0.945744  0.472871  0.865773  1
  Cs  Cs11  1  0.527129  0.472871  0.865773  1
  Hg  Hg12  1  0.666667  0.333333  0.249574  1
  Hg  Hg13  1  0.333333  0.666667  0.749574  1
  Se  Se14  1  0.666667  0.333333  0.570681  1
  Se  Se15  1  0.333333  0.666667  0.070681  1
  Se  Se16  1  0.803138  0.606277  0.151436  1
  Se  Se17  1  0.393723  0.196862  0.151436  1
  Se  Se18  1  0.803138  0.196862  0.151436  1
  Se  Se19  1  0.196862  0.393723  0.651436  1
  Se  Se20  1  0.606277  0.803138  0.651436  1
  Se  Se21  1  0.196862  0.803138  0.651436  1
