# generated using pymatgen
data_Mn4VCoSi2
_symmetry_space_group_name_H-M   'P 1'
_cell_length_a   6.90666766
_cell_length_b   6.90666783
_cell_length_c   6.90666726
_cell_angle_alpha   33.38512190
_cell_angle_beta   33.38512127
_cell_angle_gamma   33.38512756
_symmetry_Int_Tables_number   1
_chemical_formula_structural   Mn4VCoSi2
_chemical_formula_sum   'Mn4 V1 Co1 Si2'
_cell_volume   88.83171479
_cell_formula_units_Z   1
loop_
 _symmetry_equiv_pos_site_id
 _symmetry_equiv_pos_as_xyz
  1  'x, y, z'
loop_
 _atom_site_type_symbol
 _atom_site_label
 _atom_site_symmetry_multiplicity
 _atom_site_fract_x
 _atom_site_fract_y
 _atom_site_fract_z
 _atom_site_occupancy
  Mn  Mn0  1  0.001149  0.001149  0.001149  1
  Mn  Mn1  1  0.124936  0.124936  0.124936  1
  Mn  Mn2  1  0.877639  0.877639  0.877639  1
  Mn  Mn3  1  0.372240  0.372240  0.372240  1
  V  V4  1  0.498496  0.498496  0.498496  1
  Co  Co5  1  0.625016  0.625016  0.625016  1
  Si  Si6  1  0.249197  0.249197  0.249197  1
  Si  Si7  1  0.751328  0.751328  0.751328  1
