# generated using pymatgen
data_Y9ErSi5Pb
_symmetry_space_group_name_H-M   'P 1'
_cell_length_a   8.53279004
_cell_length_b   8.56790681
_cell_length_c   6.41697102
_cell_angle_alpha   90.00838622
_cell_angle_beta   89.99737845
_cell_angle_gamma   119.85425141
_symmetry_Int_Tables_number   1
_chemical_formula_structural   Y9ErSi5Pb
_chemical_formula_sum   'Y9 Er1 Si5 Pb1'
_cell_volume   406.87635975
_cell_formula_units_Z   1
loop_
 _symmetry_equiv_pos_site_id
 _symmetry_equiv_pos_as_xyz
  1  'x, y, z'
loop_
 _atom_site_type_symbol
 _atom_site_label
 _atom_site_symmetry_multiplicity
 _atom_site_fract_x
 _atom_site_fract_y
 _atom_site_fract_z
 _atom_site_occupancy
  Y  Y0  1  0.988197  0.746966  0.749827  1
  Y  Y1  1  0.998145  0.242973  0.250289  1
  Y  Y2  1  0.755036  0.757194  0.250234  1
  Y  Y3  1  0.766437  0.999936  0.749815  1
  Y  Y4  1  0.241201  0.253233  0.749679  1
  Y  Y5  1  0.241171  0.999916  0.250181  1
  Y  Y6  1  0.674983  0.343969  0.003765  1
  Y  Y7  1  0.674956  0.343892  0.496238  1
  Y  Y8  1  0.331072  0.656114  0.003790  1
  Er  Er9  1  0.330953  0.655693  0.496237  1
  Si  Si10  1  0.393141  0.392108  0.250800  1
  Si  Si11  1  0.002363  0.608559  0.250666  1
  Si  Si12  1  0.998744  0.394608  0.749294  1
  Si  Si13  1  0.603515  0.606008  0.749266  1
  Si  Si14  1  0.605329  0.999442  0.250548  1
  Pb  Pb15  1  0.394760  0.999391  0.749373  1
