# generated using pymatgen
data_Tb5P12Ru16Pt3
_symmetry_space_group_name_H-M   'P 1'
_cell_length_a   3.99307200
_cell_length_b   12.60848678
_cell_length_c   12.60896500
_cell_angle_alpha   119.99874905
_cell_angle_beta   90.00000000
_cell_angle_gamma   90.00000000
_symmetry_Int_Tables_number   1
_chemical_formula_structural   Tb5P12Ru16Pt3
_chemical_formula_sum   'Tb5 P12 Ru16 Pt3'
_cell_volume   549.77584387
_cell_formula_units_Z   1
loop_
 _symmetry_equiv_pos_site_id
 _symmetry_equiv_pos_as_xyz
  1  'x, y, z'
loop_
 _atom_site_type_symbol
 _atom_site_label
 _atom_site_symmetry_multiplicity
 _atom_site_fract_x
 _atom_site_fract_y
 _atom_site_fract_z
 _atom_site_occupancy
  Tb  Tb0  1  0.500000  0.000004  0.182136  1
  Tb  Tb1  1  0.500000  0.182134  0.000000  1
  Tb  Tb2  1  0.500000  0.817869  0.817864  1
  Tb  Tb3  1  0.000000  0.333332  0.666677  1
  Tb  Tb4  1  0.000000  0.666655  0.333323  1
  P  P5  1  0.000000  0.999987  0.814645  1
  P  P6  1  0.000000  0.814651  0.000000  1
  P  P7  1  0.000000  0.185341  0.185355  1
  P  P8  1  0.500000  0.299749  0.480071  1
  P  P9  1  0.500000  0.180323  0.700258  1
  P  P10  1  0.500000  0.519932  0.819679  1
  P  P11  1  0.500000  0.819678  0.519929  1
  P  P12  1  0.500000  0.480063  0.299742  1
  P  P13  1  0.500000  0.700254  0.180321  1
  P  P14  1  0.000000  0.999989  0.365620  1
  P  P15  1  0.000000  0.365612  0.000000  1
  P  P16  1  0.000000  0.634369  0.634380  1
  Ru  Ru17  1  0.500000  0.999993  0.710815  1
  Ru  Ru18  1  0.500000  0.710825  0.000000  1
  Ru  Ru19  1  0.500000  0.289178  0.289185  1
  Ru  Ru20  1  0.000000  0.193641  0.378751  1
  Ru  Ru21  1  0.000000  0.185095  0.806348  1
  Ru  Ru22  1  0.000000  0.621243  0.814898  1
  Ru  Ru23  1  0.000000  0.814890  0.621249  1
  Ru  Ru24  1  0.000000  0.378747  0.193652  1
  Ru  Ru25  1  0.000000  0.806344  0.185102  1
  Ru  Ru26  1  0.500000  0.124584  0.493916  1
  Ru  Ru27  1  0.500000  0.369329  0.875422  1
  Ru  Ru28  1  0.500000  0.506096  0.630669  1
  Ru  Ru29  1  0.500000  0.630668  0.506084  1
  Ru  Ru30  1  0.500000  0.493907  0.124578  1
  Ru  Ru31  1  0.500000  0.875428  0.369331  1
  Ru  Ru32  1  0.000000  0.000004  0.000000  1
  Pt  Pt33  1  0.000000  0.999992  0.551439  1
  Pt  Pt34  1  0.000000  0.551440  0.000000  1
  Pt  Pt35  1  0.000000  0.448553  0.448561  1
