# generated using pymatgen
data_HoEr9(In2Bi)2
_symmetry_space_group_name_H-M   'P 1'
_cell_length_a   8.97960017
_cell_length_b   8.97275195
_cell_length_c   6.56147000
_cell_angle_alpha   90.00000000
_cell_angle_beta   90.00000000
_cell_angle_gamma   119.98943209
_symmetry_Int_Tables_number   1
_chemical_formula_structural   HoEr9(In2Bi)2
_chemical_formula_sum   'Ho1 Er9 In4 Bi2'
_cell_volume   457.88949324
_cell_formula_units_Z   1
loop_
 _symmetry_equiv_pos_site_id
 _symmetry_equiv_pos_as_xyz
  1  'x, y, z'
loop_
 _atom_site_type_symbol
 _atom_site_label
 _atom_site_symmetry_multiplicity
 _atom_site_fract_x
 _atom_site_fract_y
 _atom_site_fract_z
 _atom_site_occupancy
  Ho  Ho0  1  0.769902  0.761078  0.750000  1
  Er  Er1  1  0.670748  0.338011  0.006620  1
  Er  Er2  1  0.329167  0.667249  0.006585  1
  Er  Er3  1  0.329167  0.667249  0.493415  1
  Er  Er4  1  0.670748  0.338011  0.493380  1
  Er  Er5  1  0.230164  0.991171  0.750000  1
  Er  Er6  1  0.000042  0.241620  0.750000  1
  Er  Er7  1  0.236766  0.237331  0.250000  1
  Er  Er8  1  0.763127  0.000582  0.250000  1
  Er  Er9  1  0.000046  0.761764  0.250000  1
  In  In10  1  0.000187  0.597627  0.750000  1
  In  In11  1  0.604929  0.606865  0.250000  1
  In  In12  1  0.395143  0.002017  0.250000  1
  In  In13  1  0.000023  0.395803  0.250000  1
  Bi  Bi14  1  0.395032  0.394252  0.750000  1
  Bi  Bi15  1  0.604808  0.999366  0.750000  1
