# generated using pymatgen
data_NdSm7(Tm3Ga4)4
_symmetry_space_group_name_H-M   'P 1'
_cell_length_a   7.86570402
_cell_length_b   7.86765998
_cell_length_c   14.49349400
_cell_angle_alpha   90.06084482
_cell_angle_beta   89.99562945
_cell_angle_gamma   89.95392862
_symmetry_Int_Tables_number   1
_chemical_formula_structural   NdSm7(Tm3Ga4)4
_chemical_formula_sum   'Nd1 Sm7 Tm12 Ga16'
_cell_volume   896.92450885
_cell_formula_units_Z   1
loop_
 _symmetry_equiv_pos_site_id
 _symmetry_equiv_pos_as_xyz
  1  'x, y, z'
loop_
 _atom_site_type_symbol
 _atom_site_label
 _atom_site_symmetry_multiplicity
 _atom_site_fract_x
 _atom_site_fract_y
 _atom_site_fract_z
 _atom_site_occupancy
  Nd  Nd0  1  0.008462  0.357123  0.040301  1
  Sm  Sm1  1  0.641739  0.992303  0.459369  1
  Sm  Sm2  1  0.358390  0.007444  0.959061  1
  Sm  Sm3  1  0.992267  0.641670  0.540694  1
  Sm  Sm4  1  0.492174  0.858220  0.209478  1
  Sm  Sm5  1  0.507599  0.141674  0.709114  1
  Sm  Sm6  1  0.858053  0.492369  0.790448  1
  Sm  Sm7  1  0.141782  0.507917  0.291033  1
  Tm  Tm8  1  0.493673  0.358367  0.124337  1
  Tm  Tm9  1  0.993492  0.141644  0.625768  1
  Tm  Tm10  1  0.857996  0.006325  0.873842  1
  Tm  Tm11  1  0.141644  0.993145  0.374330  1
  Tm  Tm12  1  0.506523  0.641757  0.624120  1
  Tm  Tm13  1  0.358434  0.493841  0.875405  1
  Tm  Tm14  1  0.641723  0.506576  0.375924  1
  Tm  Tm15  1  0.006681  0.858093  0.126037  1
  Tm  Tm16  1  0.318511  0.318523  0.499951  1
  Tm  Tm17  1  0.181598  0.818658  0.749837  1
  Tm  Tm18  1  0.818235  0.181067  0.250309  1
  Tm  Tm19  1  0.681062  0.681987  0.000077  1
  Ga  Ga20  1  0.290398  0.938708  0.561876  1
  Ga  Ga21  1  0.708815  0.060651  0.061844  1
  Ga  Ga22  1  0.938764  0.290403  0.438213  1
  Ga  Ga23  1  0.439120  0.209595  0.312087  1
  Ga  Ga24  1  0.561278  0.790368  0.811787  1
  Ga  Ga25  1  0.209638  0.438734  0.688032  1
  Ga  Ga26  1  0.789570  0.562034  0.188438  1
  Ga  Ga27  1  0.061840  0.711202  0.937909  1
  Ga  Ga28  1  0.796745  0.848238  0.686258  1
  Ga  Ga29  1  0.204372  0.150741  0.187156  1
  Ga  Ga30  1  0.848103  0.796845  0.313862  1
  Ga  Ga31  1  0.348274  0.703324  0.436368  1
  Ga  Ga32  1  0.650459  0.296003  0.935947  1
  Ga  Ga33  1  0.703372  0.348201  0.563764  1
  Ga  Ga34  1  0.297545  0.652881  0.063600  1
  Ga  Ga35  1  0.151668  0.203368  0.813428  1
