# generated using pymatgen
data_Pr2NdHo2Pb3
_symmetry_space_group_name_H-M   'P 1'
_cell_length_a   9.29175643
_cell_length_b   9.28687690
_cell_length_c   6.78945800
_cell_angle_alpha   90.00000000
_cell_angle_beta   90.00000000
_cell_angle_gamma   119.98263344
_symmetry_Int_Tables_number   1
_chemical_formula_structural   Pr2NdHo2Pb3
_chemical_formula_sum   'Pr4 Nd2 Ho4 Pb6'
_cell_volume   507.46864899
_cell_formula_units_Z   2
loop_
 _symmetry_equiv_pos_site_id
 _symmetry_equiv_pos_as_xyz
  1  'x, y, z'
loop_
 _atom_site_type_symbol
 _atom_site_label
 _atom_site_symmetry_multiplicity
 _atom_site_fract_x
 _atom_site_fract_y
 _atom_site_fract_z
 _atom_site_occupancy
  Pr  Pr0  1  0.000089  0.760354  0.750000  1
  Pr  Pr1  1  0.000089  0.239735  0.250000  1
  Pr  Pr2  1  0.760245  0.760207  0.250000  1
  Pr  Pr3  1  0.760245  0.000038  0.750000  1
  Nd  Nd4  1  0.239898  0.000053  0.250000  1
  Nd  Nd5  1  0.239898  0.239845  0.750000  1
  Ho  Ho6  1  0.333309  0.666655  0.000000  1
  Ho  Ho7  1  0.666554  0.333277  0.500000  1
  Ho  Ho8  1  0.666554  0.333277  0.000000  1
  Ho  Ho9  1  0.333309  0.666655  0.500000  1
  Pb  Pb10  1  0.600615  0.000014  0.250000  1
  Pb  Pb11  1  0.600615  0.600600  0.750000  1
  Pb  Pb12  1  0.000217  0.399083  0.750000  1
  Pb  Pb13  1  0.000217  0.601135  0.250000  1
  Pb  Pb14  1  0.399074  0.398873  0.250000  1
  Pb  Pb15  1  0.399074  0.000200  0.750000  1
