# generated using pymatgen
data_NdPt2Au3
_symmetry_space_group_name_H-M   'P 1'
_cell_length_a   5.49387370
_cell_length_b   5.49387375
_cell_length_c   5.49387352
_cell_angle_alpha   120.01075219
_cell_angle_beta   119.45104943
_cell_angle_gamma   90.46740734
_symmetry_Int_Tables_number   1
_chemical_formula_structural   NdPt2Au3
_chemical_formula_sum   'Nd1 Pt2 Au3'
_cell_volume   117.72139854
_cell_formula_units_Z   1
loop_
 _symmetry_equiv_pos_site_id
 _symmetry_equiv_pos_as_xyz
  1  'x, y, z'
loop_
 _atom_site_type_symbol
 _atom_site_label
 _atom_site_symmetry_multiplicity
 _atom_site_fract_x
 _atom_site_fract_y
 _atom_site_fract_z
 _atom_site_occupancy
  Nd  Nd0  1  0.005269  0.005269  0.000000  1
  Pt  Pt1  1  0.623032  0.374149  0.248882  1
  Pt  Pt2  1  0.125267  0.374149  0.751118  1
  Au  Au3  1  0.623450  0.374464  0.751014  1
  Au  Au4  1  0.623450  0.872437  0.248986  1
  Au  Au5  1  0.249533  0.749533  0.500000  1
