# generated using pymatgen
data_Tm8FeOsI8
_symmetry_space_group_name_H-M   'P 1'
_cell_length_a   11.22751338
_cell_length_b   11.22751476
_cell_length_c   6.03634286
_cell_angle_alpha   89.37108750
_cell_angle_beta   89.37109138
_cell_angle_gamma   88.72462518
_symmetry_Int_Tables_number   1
_chemical_formula_structural   Tm8FeOsI8
_chemical_formula_sum   'Tm8 Fe1 Os1 I8'
_cell_volume   760.64553945
_cell_formula_units_Z   1
loop_
 _symmetry_equiv_pos_site_id
 _symmetry_equiv_pos_as_xyz
  1  'x, y, z'
loop_
 _atom_site_type_symbol
 _atom_site_label
 _atom_site_symmetry_multiplicity
 _atom_site_fract_x
 _atom_site_fract_y
 _atom_site_fract_z
 _atom_site_occupancy
  Tm  Tm0  1  0.194434  0.918093  0.999665  1
  Tm  Tm1  1  0.805600  0.081869  0.007087  1
  Tm  Tm2  1  0.081907  0.805566  0.500335  1
  Tm  Tm3  1  0.918131  0.194400  0.492913  1
  Tm  Tm4  1  0.807211  0.922532  0.502869  1
  Tm  Tm5  1  0.192641  0.077411  0.490300  1
  Tm  Tm6  1  0.077468  0.192789  0.997131  1
  Tm  Tm7  1  0.922589  0.807359  0.009700  1
  Fe  Fe8  1  0.000160  0.999840  0.250000  1
  Os  Os9  1  0.999820  0.000180  0.750000  1
  I  I10  1  0.356236  0.848250  0.508464  1
  I  I11  1  0.643678  0.151699  0.488346  1
  I  I12  1  0.151750  0.643764  0.991536  1
  I  I13  1  0.848301  0.356322  0.011654  1
  I  I14  1  0.351998  0.144729  0.997614  1
  I  I15  1  0.648017  0.855214  0.005671  1
  I  I16  1  0.855271  0.648002  0.502386  1
  I  I17  1  0.144786  0.351983  0.494329  1
