# generated using pymatgen
data_Ta3Nb2B2As
_symmetry_space_group_name_H-M   'P 1'
_cell_length_a   7.33952829
_cell_length_b   7.33952824
_cell_length_c   7.33952931
_cell_angle_alpha   129.38130942
_cell_angle_beta   129.38131255
_cell_angle_gamma   74.39780019
_symmetry_Int_Tables_number   1
_chemical_formula_structural   Ta3Nb2B2As
_chemical_formula_sum   'Ta6 Nb4 B4 As2'
_cell_volume   230.22683120
_cell_formula_units_Z   2
loop_
 _symmetry_equiv_pos_site_id
 _symmetry_equiv_pos_as_xyz
  1  'x, y, z'
loop_
 _atom_site_type_symbol
 _atom_site_label
 _atom_site_symmetry_multiplicity
 _atom_site_fract_x
 _atom_site_fract_y
 _atom_site_fract_z
 _atom_site_occupancy
  Ta  Ta0  1  0.471793  0.303398  0.500000  1
  Ta  Ta1  1  0.803398  0.971793  0.500000  1
  Ta  Ta2  1  0.971793  0.471793  0.168394  1
  Ta  Ta3  1  0.303398  0.803398  0.831606  1
  Ta  Ta4  1  0.499009  0.499009  0.000000  1
  Ta  Ta5  1  0.999009  0.999009  0.000000  1
  Nb  Nb6  1  0.527299  0.696129  0.500000  1
  Nb  Nb7  1  0.196129  0.027299  0.500000  1
  Nb  Nb8  1  0.027299  0.527299  0.831171  1
  Nb  Nb9  1  0.696129  0.196129  0.168829  1
  B  B10  1  0.882724  0.620452  0.500000  1
  B  B11  1  0.120452  0.382724  0.500000  1
  B  B12  1  0.382724  0.882724  0.262271  1
  B  B13  1  0.620452  0.120452  0.737729  1
  As  As14  1  0.249196  0.249196  0.000000  1
  As  As15  1  0.749196  0.749196  0.000000  1
