# generated using pymatgen
data_Y16Zr4IrRh11
_symmetry_space_group_name_H-M   'P 1'
_cell_length_a   10.93014938
_cell_length_b   10.93014938
_cell_length_c   6.25050521
_cell_angle_alpha   90.02104327
_cell_angle_beta   90.02104327
_cell_angle_gamma   89.97840106
_symmetry_Int_Tables_number   1
_chemical_formula_structural   Y16Zr4IrRh11
_chemical_formula_sum   'Y16 Zr4 Ir1 Rh11'
_cell_volume   746.73623681
_cell_formula_units_Z   1
loop_
 _symmetry_equiv_pos_site_id
 _symmetry_equiv_pos_as_xyz
  1  'x, y, z'
loop_
 _atom_site_type_symbol
 _atom_site_label
 _atom_site_symmetry_multiplicity
 _atom_site_fract_x
 _atom_site_fract_y
 _atom_site_fract_z
 _atom_site_occupancy
  Y  Y0  1  0.288721  0.087371  0.374417  1
  Y  Y1  1  0.289027  0.911444  0.874026  1
  Y  Y2  1  0.711300  0.087366  0.874369  1
  Y  Y3  1  0.711301  0.912539  0.374441  1
  Y  Y4  1  0.586360  0.788377  0.874189  1
  Y  Y5  1  0.587346  0.211253  0.374782  1
  Y  Y6  1  0.412468  0.788247  0.375155  1
  Y  Y7  1  0.412576  0.211207  0.874398  1
  Y  Y8  1  0.211623  0.413640  0.625811  1
  Y  Y9  1  0.211753  0.587532  0.124845  1
  Y  Y10  1  0.788747  0.412654  0.125218  1
  Y  Y11  1  0.788793  0.587424  0.625602  1
  Y  Y12  1  0.912629  0.711279  0.125583  1
  Y  Y13  1  0.912634  0.288700  0.625631  1
  Y  Y14  1  0.088556  0.710973  0.625974  1
  Y  Y15  1  0.087461  0.288699  0.125559  1
  Zr  Zr16  1  0.000022  0.999987  0.500067  1
  Zr  Zr17  1  0.000013  0.999978  0.999933  1
  Zr  Zr18  1  0.499646  0.500445  0.999739  1
  Zr  Zr19  1  0.499555  0.500354  0.500261  1
  Ir  Ir20  1  0.355562  0.644438  0.750000  1
  Rh  Rh21  1  0.855581  0.144419  0.250000  1
  Rh  Rh22  1  0.855645  0.855714  0.750045  1
  Rh  Rh23  1  0.144286  0.144355  0.749955  1
  Rh  Rh24  1  0.144041  0.855959  0.250000  1
  Rh  Rh25  1  0.644392  0.355608  0.750000  1
  Rh  Rh26  1  0.644921  0.644469  0.250150  1
  Rh  Rh27  1  0.355531  0.355079  0.249850  1
  Rh  Rh28  1  0.500138  0.000280  0.121755  1
  Rh  Rh29  1  0.500150  0.000498  0.621369  1
  Rh  Rh30  1  0.999502  0.499850  0.878631  1
  Rh  Rh31  1  0.999720  0.499862  0.378245  1
