# generated using pymatgen
data_LiU11Te20
_symmetry_space_group_name_H-M   'P 1'
_cell_length_a   4.16949300
_cell_length_b   14.23757622
_cell_length_c   16.02277058
_cell_angle_alpha   89.96088495
_cell_angle_beta   90.00000000
_cell_angle_gamma   90.00000000
_symmetry_Int_Tables_number   1
_chemical_formula_structural   LiU11Te20
_chemical_formula_sum   'Li1 U11 Te20'
_cell_volume   951.16710922
_cell_formula_units_Z   1
loop_
 _symmetry_equiv_pos_site_id
 _symmetry_equiv_pos_as_xyz
  1  'x, y, z'
loop_
 _atom_site_type_symbol
 _atom_site_label
 _atom_site_symmetry_multiplicity
 _atom_site_fract_x
 _atom_site_fract_y
 _atom_site_fract_z
 _atom_site_occupancy
  Li  Li0  1  0.250000  0.247823  0.876944  1
  U  U1  1  0.750000  0.750648  0.119978  1
  U  U2  1  0.750000  0.749044  0.620010  1
  U  U3  1  0.250000  0.249899  0.380532  1
  U  U4  1  0.250000  0.929744  0.862530  1
  U  U5  1  0.750000  0.072500  0.132967  1
  U  U6  1  0.750000  0.431468  0.642487  1
  U  U7  1  0.250000  0.568531  0.362783  1
  U  U8  1  0.250000  0.095792  0.629726  1
  U  U9  1  0.750000  0.910605  0.372341  1
  U  U10  1  0.750000  0.587589  0.875292  1
  U  U11  1  0.250000  0.409598  0.125330  1
  Te  Te12  1  0.250000  0.917896  0.076534  1
  Te  Te13  1  0.750000  0.069339  0.925387  1
  Te  Te14  1  0.750000  0.418916  0.424361  1
  Te  Te15  1  0.250000  0.580420  0.574670  1
  Te  Te16  1  0.250000  0.451456  0.788299  1
  Te  Te17  1  0.750000  0.546834  0.214968  1
  Te  Te18  1  0.750000  0.953127  0.713472  1
  Te  Te19  1  0.250000  0.047758  0.283299  1
  Te  Te20  1  0.250000  0.719538  0.765157  1
  Te  Te21  1  0.750000  0.278804  0.233895  1
  Te  Te22  1  0.750000  0.218094  0.731382  1
  Te  Te23  1  0.250000  0.778291  0.265738  1
  Te  Te24  1  0.250000  0.613861  0.027694  1
  Te  Te25  1  0.750000  0.397800  0.982356  1
  Te  Te26  1  0.750000  0.110905  0.474844  1
  Te  Te27  1  0.250000  0.890894  0.525800  1
  Te  Te28  1  0.250000  0.202394  0.060886  1
  Te  Te29  1  0.750000  0.796012  0.930929  1
  Te  Te30  1  0.750000  0.702748  0.431689  1
  Te  Te31  1  0.250000  0.301672  0.567720  1
