# generated using pymatgen
data_Ho16CdNi4Ag3
_symmetry_space_group_name_H-M   'P 1'
_cell_length_a   9.43014442
_cell_length_b   9.44753218
_cell_length_c   9.44753300
_cell_angle_alpha   60.00000063
_cell_angle_beta   59.93898783
_cell_angle_gamma   59.93899036
_symmetry_Int_Tables_number   1
_chemical_formula_structural   Ho16CdNi4Ag3
_chemical_formula_sum   'Ho16 Cd1 Ni4 Ag3'
_cell_volume   594.61934181
_cell_formula_units_Z   1
loop_
 _symmetry_equiv_pos_site_id
 _symmetry_equiv_pos_as_xyz
  1  'x, y, z'
loop_
 _atom_site_type_symbol
 _atom_site_label
 _atom_site_symmetry_multiplicity
 _atom_site_fract_x
 _atom_site_fract_y
 _atom_site_fract_z
 _atom_site_occupancy
  Ho  Ho0  1  0.350158  0.348956  0.348956  1
  Ho  Ho1  1  0.350158  0.348956  0.951929  1
  Ho  Ho2  1  0.350158  0.951929  0.348956  1
  Ho  Ho3  1  0.950059  0.349980  0.349980  1
  Ho  Ho4  1  0.810557  0.188920  0.188920  1
  Ho  Ho5  1  0.188193  0.811657  0.811657  1
  Ho  Ho6  1  0.188193  0.811657  0.188493  1
  Ho  Ho7  1  0.810557  0.188920  0.811603  1
  Ho  Ho8  1  0.188193  0.188493  0.811657  1
  Ho  Ho9  1  0.810557  0.811603  0.188920  1
  Ho  Ho10  1  0.932552  0.565035  0.565035  1
  Ho  Ho11  1  0.565801  0.934959  0.934959  1
  Ho  Ho12  1  0.565801  0.934959  0.564282  1
  Ho  Ho13  1  0.932552  0.565035  0.937377  1
  Ho  Ho14  1  0.565801  0.564282  0.934959  1
  Ho  Ho15  1  0.932552  0.937377  0.565035  1
  Cd  Cd16  1  0.260173  0.579943  0.579943  1
  Ni  Ni17  1  0.142317  0.142609  0.142609  1
  Ni  Ni18  1  0.142317  0.142609  0.572464  1
  Ni  Ni19  1  0.142317  0.572464  0.142609  1
  Ni  Ni20  1  0.573381  0.142206  0.142206  1
  Ag  Ag21  1  0.582552  0.582209  0.582209  1
  Ag  Ag22  1  0.582552  0.582209  0.253030  1
  Ag  Ag23  1  0.582552  0.253030  0.582209  1
