# generated using pymatgen
data_Y4HgPt
_symmetry_space_group_name_H-M   'P 1'
_cell_length_a   9.67458704
_cell_length_b   9.67458705
_cell_length_c   9.67454545
_cell_angle_alpha   60.18772928
_cell_angle_beta   60.18773081
_cell_angle_gamma   60.18706914
_symmetry_Int_Tables_number   1
_chemical_formula_structural   Y4HgPt
_chemical_formula_sum   'Y16 Hg4 Pt4'
_cell_volume   643.01435386
_cell_formula_units_Z   4
loop_
 _symmetry_equiv_pos_site_id
 _symmetry_equiv_pos_as_xyz
  1  'x, y, z'
loop_
 _atom_site_type_symbol
 _atom_site_label
 _atom_site_symmetry_multiplicity
 _atom_site_fract_x
 _atom_site_fract_y
 _atom_site_fract_z
 _atom_site_occupancy
  Y  Y0  1  0.351756  0.351756  0.351757  1
  Y  Y1  1  0.357847  0.357847  0.931288  1
  Y  Y2  1  0.357847  0.931288  0.357847  1
  Y  Y3  1  0.931288  0.357847  0.357847  1
  Y  Y4  1  0.810975  0.190660  0.190659  1
  Y  Y5  1  0.189074  0.810971  0.810971  1
  Y  Y6  1  0.190660  0.810975  0.190659  1
  Y  Y7  1  0.810971  0.189074  0.810971  1
  Y  Y8  1  0.190660  0.190660  0.810972  1
  Y  Y9  1  0.810971  0.810971  0.189074  1
  Y  Y10  1  0.936402  0.564532  0.564532  1
  Y  Y11  1  0.562465  0.937329  0.937329  1
  Y  Y12  1  0.564532  0.936402  0.564532  1
  Y  Y13  1  0.937329  0.562465  0.937329  1
  Y  Y14  1  0.564531  0.564531  0.936403  1
  Y  Y15  1  0.937329  0.937329  0.562465  1
  Hg  Hg16  1  0.585833  0.585833  0.585833  1
  Hg  Hg17  1  0.585166  0.585166  0.240449  1
  Hg  Hg18  1  0.585167  0.240448  0.585167  1
  Hg  Hg19  1  0.240448  0.585167  0.585167  1
  Pt  Pt20  1  0.145797  0.145797  0.145794  1
  Pt  Pt21  1  0.141916  0.141916  0.569119  1
  Pt  Pt22  1  0.141916  0.569120  0.141917  1
  Pt  Pt23  1  0.569120  0.141916  0.141917  1
