# generated using pymatgen
data_NdSmFe2(Co3B)2
_symmetry_space_group_name_H-M   'P 1'
_cell_length_a   5.13141887
_cell_length_b   5.13063544
_cell_length_c   6.80440100
_cell_angle_alpha   90.00000000
_cell_angle_beta   90.00000000
_cell_angle_gamma   120.07084482
_symmetry_Int_Tables_number   1
_chemical_formula_structural   NdSmFe2(Co3B)2
_chemical_formula_sum   'Nd1 Sm1 Fe2 Co6 B2'
_cell_volume   155.03104646
_cell_formula_units_Z   1
loop_
 _symmetry_equiv_pos_site_id
 _symmetry_equiv_pos_as_xyz
  1  'x, y, z'
loop_
 _atom_site_type_symbol
 _atom_site_label
 _atom_site_symmetry_multiplicity
 _atom_site_fract_x
 _atom_site_fract_y
 _atom_site_fract_z
 _atom_site_occupancy
  Nd  Nd0  1  0.000010  0.000010  0.000000  1
  Sm  Sm1  1  0.000008  0.000008  0.500000  1
  Fe  Fe2  1  0.666700  0.333322  0.000000  1
  Fe  Fe3  1  0.333333  0.666708  0.000000  1
  Co  Co4  1  0.500000  0.999980  0.290205  1
  Co  Co5  1  0.499994  0.500021  0.290104  1
  Co  Co6  1  0.000035  0.500027  0.290196  1
  Co  Co7  1  0.500000  0.999980  0.709794  1
  Co  Co8  1  0.499994  0.500021  0.709895  1
  Co  Co9  1  0.000035  0.500027  0.709803  1
  B  B10  1  0.666780  0.333192  0.500000  1
  B  B11  1  0.333241  0.666830  0.500000  1
