# generated using pymatgen
data_Y2Ho3MoRuO12
_symmetry_space_group_name_H-M   'P 1'
_cell_length_a   6.81516193
_cell_length_b   6.81516302
_cell_length_c   7.50378988
_cell_angle_alpha   73.84037825
_cell_angle_beta   73.84037822
_cell_angle_gamma   49.71277519
_symmetry_Int_Tables_number   1
_chemical_formula_structural   Y2Ho3MoRuO12
_chemical_formula_sum   'Y2 Ho3 Mo1 Ru1 O12'
_cell_volume   253.04356239
_cell_formula_units_Z   1
loop_
 _symmetry_equiv_pos_site_id
 _symmetry_equiv_pos_as_xyz
  1  'x, y, z'
loop_
 _atom_site_type_symbol
 _atom_site_label
 _atom_site_symmetry_multiplicity
 _atom_site_fract_x
 _atom_site_fract_y
 _atom_site_fract_z
 _atom_site_occupancy
  Y  Y0  1  0.792506  0.815599  0.359035  1
  Y  Y1  1  0.184401  0.207494  0.640965  1
  Ho  Ho2  1  0.492847  0.507153  0.500000  1
  Ho  Ho3  1  0.180790  0.191749  0.174868  1
  Ho  Ho4  1  0.808251  0.819210  0.825132  1
  Mo  Mo5  1  0.298322  0.701678  0.000000  1
  Ru  Ru6  1  0.735886  0.264114  0.000000  1
  O  O7  1  0.007882  0.992008  0.179487  1
  O  O8  1  0.007992  0.992118  0.820513  1
  O  O9  1  0.503900  0.494406  0.795910  1
  O  O10  1  0.505594  0.496100  0.204090  1
  O  O11  1  0.589861  0.099737  0.577619  1
  O  O12  1  0.900263  0.410139  0.422381  1
  O  O13  1  0.392273  0.909835  0.427702  1
  O  O14  1  0.408204  0.912437  0.917468  1
  O  O15  1  0.087563  0.591796  0.082532  1
  O  O16  1  0.585784  0.072483  0.084449  1
  O  O17  1  0.927517  0.414216  0.915551  1
  O  O18  1  0.090165  0.607727  0.572298  1
