# generated using pymatgen
data_Ni12As4P
_symmetry_space_group_name_H-M   'P 1'
_cell_length_a   6.78738191
_cell_length_b   6.78738065
_cell_length_c   6.78738093
_cell_angle_alpha   98.45206569
_cell_angle_beta   98.45206583
_cell_angle_gamma   134.91331564
_symmetry_Int_Tables_number   1
_chemical_formula_structural   Ni12As4P
_chemical_formula_sum   'Ni12 As4 P1'
_cell_volume   204.51581103
_cell_formula_units_Z   1
loop_
 _symmetry_equiv_pos_site_id
 _symmetry_equiv_pos_as_xyz
  1  'x, y, z'
loop_
 _atom_site_type_symbol
 _atom_site_label
 _atom_site_symmetry_multiplicity
 _atom_site_fract_x
 _atom_site_fract_y
 _atom_site_fract_z
 _atom_site_occupancy
  Ni  Ni0  1  0.644100  0.578926  0.708303  1
  Ni  Ni1  1  0.870622  0.935797  0.291697  1
  Ni  Ni2  1  0.935797  0.644100  0.065175  1
  Ni  Ni3  1  0.066844  0.642883  0.709727  1
  Ni  Ni4  1  0.357117  0.066844  0.423961  1
  Ni  Ni5  1  0.642883  0.933156  0.576039  1
  Ni  Ni6  1  0.933156  0.357117  0.290273  1
  Ni  Ni7  1  0.578926  0.870622  0.934825  1
  Ni  Ni8  1  0.064203  0.355900  0.934825  1
  Ni  Ni9  1  0.129378  0.064203  0.708303  1
  Ni  Ni10  1  0.355900  0.421074  0.291697  1
  Ni  Ni11  1  0.421074  0.129378  0.065175  1
  As  As12  1  0.587755  0.193061  0.780816  1
  As  As13  1  0.806939  0.587755  0.394694  1
  As  As14  1  0.193061  0.412245  0.605306  1
  As  As15  1  0.412245  0.806939  0.219184  1
  P  P16  1  0.000000  0.000000  0.000000  1
