# generated using pymatgen
data_Rb16ScPaSb8
_symmetry_space_group_name_H-M   'P 1'
_cell_length_a   12.22244896
_cell_length_b   12.22244937
_cell_length_c   12.22245000
_cell_angle_alpha   59.99999828
_cell_angle_beta   59.99999720
_cell_angle_gamma   59.99999922
_symmetry_Int_Tables_number   1
_chemical_formula_structural   Rb16ScPaSb8
_chemical_formula_sum   'Rb16 Sc1 Pa1 Sb8'
_cell_volume   1291.09956071
_cell_formula_units_Z   1
loop_
 _symmetry_equiv_pos_site_id
 _symmetry_equiv_pos_as_xyz
  1  'x, y, z'
loop_
 _atom_site_type_symbol
 _atom_site_label
 _atom_site_symmetry_multiplicity
 _atom_site_fract_x
 _atom_site_fract_y
 _atom_site_fract_z
 _atom_site_occupancy
  Rb  Rb0  1  0.621857  0.134514  0.621782  1
  Rb  Rb1  1  0.621773  0.621794  0.134519  1
  Rb  Rb2  1  0.134556  0.621839  0.621755  1
  Rb  Rb3  1  0.621908  0.621906  0.621987  1
  Rb  Rb4  1  0.034181  0.034173  0.465881  1
  Rb  Rb5  1  0.773373  0.226464  0.226468  1
  Rb  Rb6  1  0.226502  0.773543  0.773562  1
  Rb  Rb7  1  0.773533  0.773539  0.226503  1
  Rb  Rb8  1  0.773557  0.226448  0.773597  1
  Rb  Rb9  1  0.226443  0.773419  0.226407  1
  Rb  Rb10  1  0.465700  0.034349  0.465661  1
  Rb  Rb11  1  0.466042  0.034041  0.034055  1
  Rb  Rb12  1  0.034262  0.465764  0.465785  1
  Rb  Rb13  1  0.034005  0.466063  0.034004  1
  Rb  Rb14  1  0.226543  0.226487  0.773327  1
  Rb  Rb15  1  0.465520  0.465480  0.034551  1
  Sc  Sc16  1  0.500203  0.500175  0.500162  1
  Pa  Pa17  1  0.750022  0.750006  0.750009  1
  Sb  Sb18  1  0.399903  0.800169  0.399883  1
  Sb  Sb19  1  0.849824  0.849831  0.450503  1
  Sb  Sb20  1  0.450517  0.849800  0.849815  1
  Sb  Sb21  1  0.849888  0.849870  0.849866  1
  Sb  Sb22  1  0.800170  0.399906  0.399899  1
  Sb  Sb23  1  0.400031  0.400033  0.400026  1
  Sb  Sb24  1  0.399900  0.399886  0.800164  1
  Sb  Sb25  1  0.849792  0.450504  0.849830  1
