# generated using pymatgen
data_NdThTlSe6
_symmetry_space_group_name_H-M   'P 1'
_cell_length_a   11.90349334
_cell_length_b   11.90349325
_cell_length_c   11.90349300
_cell_angle_alpha   158.95006123
_cell_angle_beta   151.93517140
_cell_angle_gamma   35.34499213
_symmetry_Int_Tables_number   1
_chemical_formula_structural   NdThTlSe6
_chemical_formula_sum   'Nd1 Th1 Tl1 Se6'
_cell_volume   284.70871948
_cell_formula_units_Z   1
loop_
 _symmetry_equiv_pos_site_id
 _symmetry_equiv_pos_as_xyz
  1  'x, y, z'
loop_
 _atom_site_type_symbol
 _atom_site_label
 _atom_site_symmetry_multiplicity
 _atom_site_fract_x
 _atom_site_fract_y
 _atom_site_fract_z
 _atom_site_occupancy
  Nd  Nd0  1  0.316986  0.816986  0.500000  1
  Th  Th1  1  0.685919  0.185919  0.500000  1
  Tl  Tl2  1  0.992536  0.992536  0.000000  1
  Se  Se3  1  0.188032  0.397598  0.790435  1
  Se  Se4  1  0.224128  0.224128  0.000000  1
  Se  Se5  1  0.398003  0.606118  0.791885  1
  Se  Se6  1  0.607164  0.397598  0.209565  1
  Se  Se7  1  0.814233  0.606118  0.208115  1
  Se  Se8  1  0.772997  0.772997  0.000000  1
