# generated using pymatgen
data_SmGdCI
_symmetry_space_group_name_H-M   'P 1'
_cell_length_a   3.82054500
_cell_length_b   3.82054523
_cell_length_c   15.14371400
_cell_angle_alpha   90.00000000
_cell_angle_beta   90.00000000
_cell_angle_gamma   120.00000669
_symmetry_Int_Tables_number   1
_chemical_formula_structural   SmGdCI
_chemical_formula_sum   'Sm2 Gd2 C2 I2'
_cell_volume   191.43161622
_cell_formula_units_Z   2
loop_
 _symmetry_equiv_pos_site_id
 _symmetry_equiv_pos_as_xyz
  1  'x, y, z'
loop_
 _atom_site_type_symbol
 _atom_site_label
 _atom_site_symmetry_multiplicity
 _atom_site_fract_x
 _atom_site_fract_y
 _atom_site_fract_z
 _atom_site_occupancy
  Sm  Sm0  1  0.333333  0.666667  0.413684  1
  Sm  Sm1  1  0.666667  0.333333  0.913684  1
  Gd  Gd2  1  0.666667  0.333333  0.585378  1
  Gd  Gd3  1  0.333333  0.666667  0.085378  1
  C  C4  1  0.000000  0.000000  0.502033  1
  C  C5  1  0.000000  0.000000  0.002033  1
  I  I6  1  0.666667  0.333333  0.248905  1
  I  I7  1  0.333333  0.666667  0.748905  1
