# generated using pymatgen
data_AcLa(Si2Rh3)2
_symmetry_space_group_name_H-M   'P 1'
_cell_length_a   5.69229171
_cell_length_b   6.77082581
_cell_length_c   6.77082570
_cell_angle_alpha   64.59046138
_cell_angle_beta   65.14303670
_cell_angle_gamma   65.14304138
_symmetry_Int_Tables_number   1
_chemical_formula_structural   AcLa(Si2Rh3)2
_chemical_formula_sum   'Ac1 La1 Si4 Rh6'
_cell_volume   204.50291903
_cell_formula_units_Z   1
loop_
 _symmetry_equiv_pos_site_id
 _symmetry_equiv_pos_as_xyz
  1  'x, y, z'
loop_
 _atom_site_type_symbol
 _atom_site_label
 _atom_site_symmetry_multiplicity
 _atom_site_fract_x
 _atom_site_fract_y
 _atom_site_fract_z
 _atom_site_occupancy
  Ac  Ac0  1  0.537081  0.750000  0.750000  1
  La  La1  1  0.457022  0.250000  0.250000  1
  Si  Si2  1  0.224547  0.576204  0.576204  1
  Si  Si3  1  0.778450  0.419809  0.419809  1
  Si  Si4  1  0.118067  0.080191  0.080191  1
  Si  Si5  1  0.876956  0.923796  0.923796  1
  Rh  Rh6  1  0.500084  0.218400  0.784745  1
  Rh  Rh7  1  0.003229  0.715255  0.281600  1
  Rh  Rh8  1  0.500084  0.784745  0.218400  1
  Rh  Rh9  1  0.003229  0.281600  0.715255  1
  Rh  Rh10  1  0.000625  0.499215  0.000785  1
  Rh  Rh11  1  0.000625  0.000785  0.499215  1
