# generated using pymatgen
data_Dy3Ho5Mo2(OsC4)2
_symmetry_space_group_name_H-M   'P 1'
_cell_length_a   5.09188800
_cell_length_b   6.58411416
_cell_length_c   9.88715567
_cell_angle_alpha   89.16018261
_cell_angle_beta   90.00000000
_cell_angle_gamma   90.00000000
_symmetry_Int_Tables_number   1
_chemical_formula_structural   Dy3Ho5Mo2(OsC4)2
_chemical_formula_sum   'Dy3 Ho5 Mo2 Os2 C8'
_cell_volume   331.43694112
_cell_formula_units_Z   1
loop_
 _symmetry_equiv_pos_site_id
 _symmetry_equiv_pos_as_xyz
  1  'x, y, z'
loop_
 _atom_site_type_symbol
 _atom_site_label
 _atom_site_symmetry_multiplicity
 _atom_site_fract_x
 _atom_site_fract_y
 _atom_site_fract_z
 _atom_site_occupancy
  Dy  Dy0  1  0.750000  0.462255  0.781555  1
  Dy  Dy1  1  0.750000  0.969118  0.716128  1
  Dy  Dy2  1  0.250000  0.031092  0.283758  1
  Ho  Ho3  1  0.250000  0.678150  0.557680  1
  Ho  Ho4  1  0.750000  0.322034  0.442168  1
  Ho  Ho5  1  0.750000  0.824433  0.058104  1
  Ho  Ho6  1  0.250000  0.175328  0.942031  1
  Ho  Ho7  1  0.250000  0.537877  0.218540  1
  Mo  Mo8  1  0.250000  0.716364  0.867623  1
  Mo  Mo9  1  0.750000  0.283659  0.132536  1
  Os  Os10  1  0.750000  0.779717  0.366507  1
  Os  Os11  1  0.250000  0.220320  0.633286  1
  C  C12  1  0.250000  0.449187  0.757018  1
  C  C13  1  0.750000  0.550926  0.242813  1
  C  C14  1  0.750000  0.046141  0.260349  1
  C  C15  1  0.250000  0.953882  0.739688  1
  C  C16  1  0.250000  0.823804  0.052443  1
  C  C17  1  0.750000  0.175374  0.948033  1
  C  C18  1  0.750000  0.676462  0.548979  1
  C  C19  1  0.250000  0.323878  0.450760  1
