# generated using pymatgen
data_Tb2LuPa(InNi2)2
_symmetry_space_group_name_H-M   'P 1'
_cell_length_a   7.41049323
_cell_length_b   7.45785106
_cell_length_c   3.59048000
_cell_angle_alpha   90.00000000
_cell_angle_beta   90.00000000
_cell_angle_gamma   92.25791306
_symmetry_Int_Tables_number   1
_chemical_formula_structural   Tb2LuPa(InNi2)2
_chemical_formula_sum   'Tb2 Lu1 Pa1 In2 Ni4'
_cell_volume   198.27867949
_cell_formula_units_Z   1
loop_
 _symmetry_equiv_pos_site_id
 _symmetry_equiv_pos_as_xyz
  1  'x, y, z'
loop_
 _atom_site_type_symbol
 _atom_site_label
 _atom_site_symmetry_multiplicity
 _atom_site_fract_x
 _atom_site_fract_y
 _atom_site_fract_z
 _atom_site_occupancy
  Tb  Tb0  1  0.323584  0.823766  0.500000  1
  Tb  Tb1  1  0.830578  0.674983  0.500000  1
  Lu  Lu2  1  0.173727  0.328856  0.500000  1
  Pa  Pa3  1  0.669683  0.172229  0.500000  1
  In  In4  1  0.497130  0.504361  0.000000  1
  In  In5  1  0.007861  0.002454  0.000000  1
  Ni  Ni6  1  0.114012  0.604689  0.000000  1
  Ni  Ni7  1  0.862232  0.357994  0.000000  1
  Ni  Ni8  1  0.629954  0.897371  0.000000  1
  Ni  Ni9  1  0.391240  0.133296  0.000000  1
