# generated using pymatgen
data_Lu2Sc4NiTe2
_symmetry_space_group_name_H-M   'P 1'
_cell_length_a   3.81685700
_cell_length_b   7.95604159
_cell_length_c   7.85488987
_cell_angle_alpha   120.42689788
_cell_angle_beta   90.00000000
_cell_angle_gamma   90.00000000
_symmetry_Int_Tables_number   1
_chemical_formula_structural   Lu2Sc4NiTe2
_chemical_formula_sum   'Lu2 Sc4 Ni1 Te2'
_cell_volume   205.67871006
_cell_formula_units_Z   1
loop_
 _symmetry_equiv_pos_site_id
 _symmetry_equiv_pos_as_xyz
  1  'x, y, z'
loop_
 _atom_site_type_symbol
 _atom_site_label
 _atom_site_symmetry_multiplicity
 _atom_site_fract_x
 _atom_site_fract_y
 _atom_site_fract_z
 _atom_site_occupancy
  Lu  Lu0  1  0.000000  0.387986  0.389294  1
  Lu  Lu1  1  0.000000  0.998691  0.610706  1
  Sc  Sc2  1  0.500000  0.762835  0.769593  1
  Sc  Sc3  1  0.500000  0.993242  0.230407  1
  Sc  Sc4  1  0.500000  0.236812  0.000000  1
  Sc  Sc5  1  0.000000  0.606552  0.000000  1
  Ni  Ni6  1  0.000000  0.011294  0.000000  1
  Te  Te7  1  0.500000  0.664230  0.325872  1
  Te  Te8  1  0.500000  0.338358  0.674128  1
