# generated using pymatgen
data_Nd2Dy6Cd2OsPt
_symmetry_space_group_name_H-M   'P 1'
_cell_length_a   9.73565494
_cell_length_b   9.73269190
_cell_length_c   9.78924647
_cell_angle_alpha   59.82765172
_cell_angle_beta   59.79768159
_cell_angle_gamma   59.75819640
_symmetry_Int_Tables_number   1
_chemical_formula_structural   Nd2Dy6Cd2OsPt
_chemical_formula_sum   'Nd4 Dy12 Cd4 Os2 Pt2'
_cell_volume   652.83192389
_cell_formula_units_Z   2
loop_
 _symmetry_equiv_pos_site_id
 _symmetry_equiv_pos_as_xyz
  1  'x, y, z'
loop_
 _atom_site_type_symbol
 _atom_site_label
 _atom_site_symmetry_multiplicity
 _atom_site_fract_x
 _atom_site_fract_y
 _atom_site_fract_z
 _atom_site_occupancy
  Nd  Nd0  1  0.556617  0.938565  0.565935  1
  Nd  Nd1  1  0.938565  0.556617  0.938883  1
  Nd  Nd2  1  0.564491  0.564491  0.935509  1
  Nd  Nd3  1  0.939129  0.939129  0.560871  1
  Dy  Dy4  1  0.351148  0.349000  0.348870  1
  Dy  Dy5  1  0.349000  0.351148  0.950982  1
  Dy  Dy6  1  0.344102  0.956839  0.351584  1
  Dy  Dy7  1  0.956839  0.344102  0.347476  1
  Dy  Dy8  1  0.818612  0.183810  0.189040  1
  Dy  Dy9  1  0.183810  0.818612  0.808539  1
  Dy  Dy10  1  0.186959  0.815205  0.190188  1
  Dy  Dy11  1  0.815205  0.186959  0.807649  1
  Dy  Dy12  1  0.188519  0.188519  0.811481  1
  Dy  Dy13  1  0.808489  0.808489  0.191511  1
  Dy  Dy14  1  0.945391  0.546531  0.560999  1
  Dy  Dy15  1  0.546531  0.945391  0.947080  1
  Cd  Cd16  1  0.582083  0.578088  0.579294  1
  Cd  Cd17  1  0.578088  0.582083  0.260537  1
  Cd  Cd18  1  0.579942  0.257808  0.582355  1
  Cd  Cd19  1  0.257808  0.579942  0.579897  1
  Os  Os20  1  0.150111  0.141168  0.134624  1
  Os  Os21  1  0.141168  0.150111  0.574096  1
  Pt  Pt22  1  0.141910  0.575485  0.143435  1
  Pt  Pt23  1  0.575485  0.141910  0.139170  1
