# generated using pymatgen
data_Nd2SmY(MoO4)6
_symmetry_space_group_name_H-M   'P 1'
_cell_length_a   7.58843864
_cell_length_b   7.58513828
_cell_length_c   10.89185108
_cell_angle_alpha   89.83717786
_cell_angle_beta   90.09561977
_cell_angle_gamma   89.94334946
_symmetry_Int_Tables_number   1
_chemical_formula_structural   Nd2SmY(MoO4)6
_chemical_formula_sum   'Nd2 Sm1 Y1 Mo6 O24'
_cell_volume   626.92422489
_cell_formula_units_Z   1
loop_
 _symmetry_equiv_pos_site_id
 _symmetry_equiv_pos_as_xyz
  1  'x, y, z'
loop_
 _atom_site_type_symbol
 _atom_site_label
 _atom_site_symmetry_multiplicity
 _atom_site_fract_x
 _atom_site_fract_y
 _atom_site_fract_z
 _atom_site_occupancy
  Nd  Nd0  1  0.813953  0.685970  0.739697  1
  Nd  Nd1  1  0.312052  0.812469  0.261108  1
  Sm  Sm2  1  0.689333  0.189700  0.262448  1
  Y  Y3  1  0.190889  0.309088  0.735720  1
  Mo  Mo4  1  0.495553  0.494135  0.997965  1
  Mo  Mo5  1  0.002763  0.006389  0.997990  1
  Mo  Mo6  1  0.707150  0.208846  0.644542  1
  Mo  Mo7  1  0.791611  0.707697  0.353996  1
  Mo  Mo8  1  0.291143  0.792856  0.646241  1
  Mo  Mo9  1  0.208109  0.291055  0.360076  1
  O  O10  1  0.312194  0.448101  0.898944  1
  O  O11  1  0.189565  0.964809  0.094371  1
  O  O12  1  0.686599  0.538299  0.906460  1
  O  O13  1  0.816593  0.054711  0.093552  1
  O  O14  1  0.538427  0.309546  0.096712  1
  O  O15  1  0.958833  0.814655  0.907043  1
  O  O16  1  0.448175  0.682559  0.091141  1
  O  O17  1  0.048832  0.189165  0.898370  1
  O  O18  1  0.998686  0.224772  0.301355  1
  O  O19  1  0.501219  0.730232  0.704931  1
  O  O20  1  0.000078  0.773308  0.294746  1
  O  O21  1  0.497132  0.277334  0.701675  1
  O  O22  1  0.769634  0.998908  0.703779  1
  O  O23  1  0.724169  0.498866  0.295109  1
  O  O24  1  0.222468  0.003231  0.702882  1
  O  O25  1  0.272775  0.500280  0.301080  1
  O  O26  1  0.696671  0.197416  0.481116  1
  O  O27  1  0.803649  0.695482  0.517105  1
  O  O28  1  0.302668  0.803467  0.483122  1
  O  O29  1  0.196923  0.302171  0.523628  1
  O  O30  1  0.876964  0.368057  0.691020  1
  O  O31  1  0.629208  0.874594  0.307047  1
  O  O32  1  0.131700  0.622621  0.692076  1
  O  O33  1  0.374283  0.129209  0.312950  1
