# generated using pymatgen
data_Li3Tm2LuSi3
_symmetry_space_group_name_H-M   'P 1'
_cell_length_a   6.87330230
_cell_length_b   6.87330156
_cell_length_c   4.20588900
_cell_angle_alpha   90.00000000
_cell_angle_beta   90.00000000
_cell_angle_gamma   119.82189431
_symmetry_Int_Tables_number   1
_chemical_formula_structural   Li3Tm2LuSi3
_chemical_formula_sum   'Li3 Tm2 Lu1 Si3'
_cell_volume   172.38359016
_cell_formula_units_Z   1
loop_
 _symmetry_equiv_pos_site_id
 _symmetry_equiv_pos_as_xyz
  1  'x, y, z'
loop_
 _atom_site_type_symbol
 _atom_site_label
 _atom_site_symmetry_multiplicity
 _atom_site_fract_x
 _atom_site_fract_y
 _atom_site_fract_z
 _atom_site_occupancy
  Li  Li0  1  0.767873  0.999882  0.000000  1
  Li  Li1  1  0.232267  0.232267  0.000000  1
  Li  Li2  1  0.999882  0.767873  0.000000  1
  Tm  Tm3  1  0.430303  0.000064  0.499999  1
  Tm  Tm4  1  0.000064  0.430303  0.499999  1
  Lu  Lu5  1  0.570396  0.570396  0.499999  1
  Si  Si6  1  0.666319  0.334043  0.000000  1
  Si  Si7  1  0.334043  0.666319  0.000000  1
  Si  Si8  1  0.998855  0.998855  0.499999  1
