# generated using pymatgen
data_Tb2Dy6Cd2NiIr
_symmetry_space_group_name_H-M   'P 1'
_cell_length_a   9.59936402
_cell_length_b   9.59947928
_cell_length_c   9.64498800
_cell_angle_alpha   59.84225659
_cell_angle_beta   59.84343804
_cell_angle_gamma   59.62983926
_symmetry_Int_Tables_number   1
_chemical_formula_structural   Tb2Dy6Cd2NiIr
_chemical_formula_sum   'Tb4 Dy12 Cd4 Ni2 Ir2'
_cell_volume   625.19747557
_cell_formula_units_Z   2
loop_
 _symmetry_equiv_pos_site_id
 _symmetry_equiv_pos_as_xyz
  1  'x, y, z'
loop_
 _atom_site_type_symbol
 _atom_site_label
 _atom_site_symmetry_multiplicity
 _atom_site_fract_x
 _atom_site_fract_y
 _atom_site_fract_z
 _atom_site_occupancy
  Tb  Tb0  1  0.561212  0.937334  0.565857  1
  Tb  Tb1  1  0.937334  0.561212  0.935596  1
  Tb  Tb2  1  0.565785  0.565785  0.934215  1
  Tb  Tb3  1  0.938800  0.938800  0.561200  1
  Dy  Dy4  1  0.349947  0.350048  0.344850  1
  Dy  Dy5  1  0.350048  0.349947  0.955155  1
  Dy  Dy6  1  0.352665  0.952662  0.347284  1
  Dy  Dy7  1  0.952662  0.352665  0.347389  1
  Dy  Dy8  1  0.809413  0.187659  0.190464  1
  Dy  Dy9  1  0.187659  0.809413  0.812465  1
  Dy  Dy10  1  0.187661  0.809406  0.190475  1
  Dy  Dy11  1  0.809406  0.187661  0.812458  1
  Dy  Dy12  1  0.189318  0.189318  0.810682  1
  Dy  Dy13  1  0.811276  0.811276  0.188724  1
  Dy  Dy14  1  0.937382  0.561160  0.565811  1
  Dy  Dy15  1  0.561160  0.937382  0.935648  1
  Cd  Cd16  1  0.580057  0.580033  0.582606  1
  Cd  Cd17  1  0.580033  0.580057  0.257302  1
  Cd  Cd18  1  0.580177  0.256012  0.581919  1
  Cd  Cd19  1  0.256012  0.580177  0.581890  1
  Ni  Ni20  1  0.141425  0.574941  0.141827  1
  Ni  Ni21  1  0.574941  0.141425  0.141806  1
  Ir  Ir22  1  0.142831  0.142792  0.141201  1
  Ir  Ir23  1  0.142792  0.142831  0.573176  1
