# generated using pymatgen
data_LiCeGdZn3Ru
_symmetry_space_group_name_H-M   'P 1'
_cell_length_a   7.15803000
_cell_length_b   7.21406394
_cell_length_c   5.12231259
_cell_angle_alpha   90.28924314
_cell_angle_beta   90.00000000
_cell_angle_gamma   90.00000000
_symmetry_Int_Tables_number   1
_chemical_formula_structural   LiCeGdZn3Ru
_chemical_formula_sum   'Li2 Ce2 Gd2 Zn6 Ru2'
_cell_volume   264.50509707
_cell_formula_units_Z   2
loop_
 _symmetry_equiv_pos_site_id
 _symmetry_equiv_pos_as_xyz
  1  'x, y, z'
loop_
 _atom_site_type_symbol
 _atom_site_label
 _atom_site_symmetry_multiplicity
 _atom_site_fract_x
 _atom_site_fract_y
 _atom_site_fract_z
 _atom_site_occupancy
  Li  Li0  1  0.189872  0.686793  0.293769  1
  Li  Li1  1  0.810128  0.686793  0.293769  1
  Ce  Ce2  1  0.000000  0.994394  0.012519  1
  Ce  Ce3  1  0.500000  0.504780  0.006585  1
  Gd  Gd4  1  0.000000  0.495795  0.757567  1
  Gd  Gd5  1  0.500000  0.005717  0.234755  1
  Zn  Zn6  1  0.815567  0.317792  0.285341  1
  Zn  Zn7  1  0.312706  0.185366  0.713354  1
  Zn  Zn8  1  0.184433  0.317792  0.285341  1
  Zn  Zn9  1  0.687294  0.185366  0.713354  1
  Zn  Zn10  1  0.690799  0.809555  0.711450  1
  Zn  Zn11  1  0.309201  0.809555  0.711450  1
  Ru  Ru12  1  0.500000  0.493928  0.491088  1
  Ru  Ru13  1  0.000000  0.006372  0.489663  1
