# generated using pymatgen
data_Yb6ZnInRu
_symmetry_space_group_name_H-M   'P 1'
_cell_length_a   8.80699263
_cell_length_b   8.80699274
_cell_length_c   8.80699338
_cell_angle_alpha   114.88230112
_cell_angle_beta   114.46983821
_cell_angle_gamma   99.49899159
_symmetry_Int_Tables_number   1
_chemical_formula_structural   Yb6ZnInRu
_chemical_formula_sum   'Yb12 Zn2 In2 Ru2'
_cell_volume   514.20188621
_cell_formula_units_Z   2
loop_
 _symmetry_equiv_pos_site_id
 _symmetry_equiv_pos_as_xyz
  1  'x, y, z'
loop_
 _atom_site_type_symbol
 _atom_site_label
 _atom_site_symmetry_multiplicity
 _atom_site_fract_x
 _atom_site_fract_y
 _atom_site_fract_z
 _atom_site_occupancy
  Yb  Yb0  1  0.429567  0.234895  0.194673  1
  Yb  Yb1  1  0.570433  0.765105  0.805327  1
  Yb  Yb2  1  0.040222  0.234895  0.805327  1
  Yb  Yb3  1  0.959778  0.765105  0.194673  1
  Yb  Yb4  1  0.193703  0.283188  0.476891  1
  Yb  Yb5  1  0.806297  0.716812  0.523109  1
  Yb  Yb6  1  0.193703  0.716812  0.910515  1
  Yb  Yb7  1  0.806297  0.283188  0.089485  1
  Yb  Yb8  1  0.352937  0.676086  0.323149  1
  Yb  Yb9  1  0.647063  0.323914  0.676851  1
  Yb  Yb10  1  0.352937  0.029786  0.676851  1
  Yb  Yb11  1  0.647063  0.970214  0.323149  1
  Zn  Zn12  1  0.123864  0.623864  0.500000  1
  Zn  Zn13  1  0.876136  0.376136  0.500000  1
  In  In14  1  0.500000  0.500000  0.000000  1
  In  In15  1  0.000000  0.000000  0.000000  1
  Ru  Ru16  1  0.307313  0.000000  0.307313  1
  Ru  Ru17  1  0.692687  0.000000  0.692687  1
