# generated using pymatgen
data_Ce2Y3Er3(WO6)4
_symmetry_space_group_name_H-M   'P 1'
_cell_length_a   5.41708701
_cell_length_b   7.73200824
_cell_length_c   11.46948600
_cell_angle_alpha   75.54453613
_cell_angle_beta   90.00268652
_cell_angle_gamma   89.94275244
_symmetry_Int_Tables_number   1
_chemical_formula_structural   Ce2Y3Er3(WO6)4
_chemical_formula_sum   'Ce2 Y3 Er3 W4 O24'
_cell_volume   465.19023805
_cell_formula_units_Z   1
loop_
 _symmetry_equiv_pos_site_id
 _symmetry_equiv_pos_as_xyz
  1  'x, y, z'
loop_
 _atom_site_type_symbol
 _atom_site_label
 _atom_site_symmetry_multiplicity
 _atom_site_fract_x
 _atom_site_fract_y
 _atom_site_fract_z
 _atom_site_occupancy
  Ce  Ce0  1  0.687952  0.496305  0.253318  1
  Ce  Ce1  1  0.320618  0.496987  0.749403  1
  Y  Y2  1  0.182368  0.201978  0.425001  1
  Y  Y3  1  0.742365  0.998686  0.247916  1
  Y  Y4  1  0.257468  0.004011  0.749254  1
  Er  Er5  1  0.184545  0.793772  0.077154  1
  Er  Er6  1  0.814191  0.797092  0.578589  1
  Er  Er7  1  0.815347  0.205546  0.920661  1
  W  W8  1  0.256652  0.272422  0.114136  1
  W  W9  1  0.254899  0.727108  0.384911  1
  W  W10  1  0.745388  0.727789  0.885390  1
  W  W11  1  0.742904  0.276673  0.613570  1
  O  O12  1  0.456398  0.206090  0.271911  1
  O  O13  1  0.455185  0.791631  0.226359  1
  O  O14  1  0.546810  0.795252  0.728420  1
  O  O15  1  0.534424  0.210366  0.780368  1
  O  O16  1  0.049596  0.057511  0.102837  1
  O  O17  1  0.043345  0.938264  0.393568  1
  O  O18  1  0.953119  0.941177  0.897243  1
  O  O19  1  0.963445  0.054288  0.601878  1
  O  O20  1  0.981704  0.282820  0.226366  1
  O  O21  1  0.984911  0.714674  0.268146  1
  O  O22  1  0.017354  0.714257  0.771620  1
  O  O23  1  0.017124  0.288570  0.730420  1
  O  O24  1  0.852371  0.364119  0.444134  1
  O  O25  1  0.854859  0.637608  0.047797  1
  O  O26  1  0.142627  0.638034  0.546196  1
  O  O27  1  0.146323  0.363210  0.953316  1
  O  O28  1  0.638189  0.517787  0.618694  1
  O  O29  1  0.646995  0.491825  0.888836  1
  O  O30  1  0.354679  0.491721  0.387037  1
  O  O31  1  0.354018  0.507365  0.114647  1
  O  O32  1  0.466591  0.152366  0.569526  1
  O  O33  1  0.463449  0.842401  0.933127  1
  O  O34  1  0.534147  0.845459  0.430796  1
  O  O35  1  0.537643  0.154834  0.067457  1
