# generated using pymatgen
data_La12Tb2Ir5Rh
_symmetry_space_group_name_H-M   'P 1'
_cell_length_a   10.25777170
_cell_length_b   10.25777289
_cell_length_c   6.45179903
_cell_angle_alpha   89.94384795
_cell_angle_beta   90.05615415
_cell_angle_gamma   119.93882415
_symmetry_Int_Tables_number   1
_chemical_formula_structural   La12Tb2Ir5Rh
_chemical_formula_sum   'La12 Tb2 Ir5 Rh1'
_cell_volume   588.28081161
_cell_formula_units_Z   1
loop_
 _symmetry_equiv_pos_site_id
 _symmetry_equiv_pos_as_xyz
  1  'x, y, z'
loop_
 _atom_site_type_symbol
 _atom_site_label
 _atom_site_symmetry_multiplicity
 _atom_site_fract_x
 _atom_site_fract_y
 _atom_site_fract_z
 _atom_site_occupancy
  La  La0  1  0.872957  0.745836  0.764375  1
  La  La1  1  0.254164  0.127043  0.764375  1
  La  La2  1  0.873049  0.126951  0.764836  1
  La  La3  1  0.128082  0.254437  0.264123  1
  La  La4  1  0.745563  0.871918  0.264123  1
  La  La5  1  0.126969  0.873031  0.264393  1
  La  La6  1  0.457109  0.915135  0.596827  1
  La  La7  1  0.084865  0.542891  0.596827  1
  La  La8  1  0.457711  0.542289  0.596472  1
  La  La9  1  0.541966  0.084916  0.096006  1
  La  La10  1  0.915084  0.458034  0.096006  1
  La  La11  1  0.542398  0.457602  0.096282  1
  Tb  Tb12  1  0.666121  0.333879  0.564187  1
  Tb  Tb13  1  0.333397  0.666603  0.063014  1
  Ir  Ir14  1  0.189736  0.380150  0.854341  1
  Ir  Ir15  1  0.619850  0.810264  0.854341  1
  Ir  Ir16  1  0.190402  0.809598  0.854107  1
  Ir  Ir17  1  0.809821  0.618850  0.353573  1
  Ir  Ir18  1  0.381150  0.190179  0.353573  1
  Rh  Rh19  1  0.809607  0.190393  0.353267  1
