# generated using pymatgen
data_Nb2SiB2W3
_symmetry_space_group_name_H-M   'P 1'
_cell_length_a   7.13799926
_cell_length_b   7.16649773
_cell_length_c   7.18042289
_cell_angle_alpha   129.29752015
_cell_angle_beta   129.17308801
_cell_angle_gamma   74.58284363
_symmetry_Int_Tables_number   1
_chemical_formula_structural   Nb2SiB2W3
_chemical_formula_sum   'Nb4 Si2 B4 W6'
_cell_volume   214.77663102
_cell_formula_units_Z   2
loop_
 _symmetry_equiv_pos_site_id
 _symmetry_equiv_pos_as_xyz
  1  'x, y, z'
loop_
 _atom_site_type_symbol
 _atom_site_label
 _atom_site_symmetry_multiplicity
 _atom_site_fract_x
 _atom_site_fract_y
 _atom_site_fract_z
 _atom_site_occupancy
  Nb  Nb0  1  0.025809  0.195078  0.500625  1
  Nb  Nb1  1  0.521719  0.022737  0.828565  1
  Nb  Nb2  1  0.692897  0.526495  0.500037  1
  Nb  Nb3  1  0.977736  0.803487  0.500835  1
  Si  Si4  1  0.247810  0.254384  0.006069  1
  Si  Si5  1  0.748307  0.745990  0.997892  1
  B  B6  1  0.131346  0.629383  0.758665  1
  B  B7  1  0.875926  0.372791  0.244202  1
  B  B8  1  0.617548  0.880990  0.496662  1
  B  B9  1  0.381107  0.120114  0.497845  1
  W  W10  1  0.001556  0.002054  0.000693  1
  W  W11  1  0.501985  0.502058  0.000551  1
  W  W12  1  0.803676  0.303527  0.828330  1
  W  W13  1  0.192833  0.694637  0.164230  1
  W  W14  1  0.475450  0.975579  0.173032  1
  W  W15  1  0.304294  0.470695  0.501766  1
