# generated using pymatgen
data_H3I5
_symmetry_space_group_name_H-M   'P 1'
_cell_length_a   5.97908864
_cell_length_b   5.48895088
_cell_length_c   16.20527400
_cell_angle_alpha   82.73464678
_cell_angle_beta   80.58092685
_cell_angle_gamma   55.88592698
_symmetry_Int_Tables_number   1
_chemical_formula_structural   H3I5
_chemical_formula_sum   'H3 I5'
_cell_volume   433.99377164
_cell_formula_units_Z   1
loop_
 _symmetry_equiv_pos_site_id
 _symmetry_equiv_pos_as_xyz
  1  'x, y, z'
loop_
 _atom_site_type_symbol
 _atom_site_label
 _atom_site_symmetry_multiplicity
 _atom_site_fract_x
 _atom_site_fract_y
 _atom_site_fract_z
 _atom_site_occupancy
  H  H0  1  0.606603  0.725492  0.660317  1
  H  H1  1  0.118869  0.728956  0.619004  1
  H  H2  1  0.941104  0.824321  0.062875  1
  I  I3  1  0.228040  0.062562  0.280225  1
  I  I4  1  0.829511  0.626936  0.237320  1
  I  I5  1  0.038569  0.986926  0.988620  1
  I  I6  1  0.767662  0.736932  0.732806  1
  I  I7  1  0.354530  0.722538  0.546391  1
