# generated using pymatgen
data_TbLu9(InPb2)2
_symmetry_space_group_name_H-M   'P 1'
_cell_length_a   8.87647224
_cell_length_b   8.86397582
_cell_length_c   6.53837500
_cell_angle_alpha   90.00000000
_cell_angle_beta   90.00000000
_cell_angle_gamma   120.01384501
_symmetry_Int_Tables_number   1
_chemical_formula_structural   TbLu9(InPb2)2
_chemical_formula_sum   'Tb1 Lu9 In2 Pb4'
_cell_volume   445.46010283
_cell_formula_units_Z   1
loop_
 _symmetry_equiv_pos_site_id
 _symmetry_equiv_pos_as_xyz
  1  'x, y, z'
loop_
 _atom_site_type_symbol
 _atom_site_label
 _atom_site_symmetry_multiplicity
 _atom_site_fract_x
 _atom_site_fract_y
 _atom_site_fract_z
 _atom_site_occupancy
  Tb  Tb0  1  0.995747  0.764337  0.250000  1
  Lu  Lu1  1  0.663934  0.336552  0.999744  1
  Lu  Lu2  1  0.336054  0.663235  0.999650  1
  Lu  Lu3  1  0.336054  0.663235  0.500350  1
  Lu  Lu4  1  0.663934  0.336552  0.500256  1
  Lu  Lu5  1  0.762365  0.763555  0.750000  1
  Lu  Lu6  1  0.237184  0.005798  0.750000  1
  Lu  Lu7  1  0.004836  0.234314  0.750000  1
  Lu  Lu8  1  0.236323  0.236351  0.250000  1
  Lu  Lu9  1  0.763506  0.995506  0.250000  1
  In  In10  1  0.400690  0.401314  0.750000  1
  In  In11  1  0.595793  0.597219  0.250000  1
  Pb  Pb12  1  0.604238  0.003099  0.750000  1
  Pb  Pb13  1  0.002453  0.605474  0.750000  1
  Pb  Pb14  1  0.398962  0.999198  0.250000  1
  Pb  Pb15  1  0.997928  0.394262  0.250000  1
