# generated using pymatgen
data_Th8TiSe17
_symmetry_space_group_name_H-M   'P 1'
_cell_length_a   8.46120293
_cell_length_b   8.46120344
_cell_length_c   11.20395407
_cell_angle_alpha   80.72704254
_cell_angle_beta   80.72704396
_cell_angle_gamma   64.85689966
_symmetry_Int_Tables_number   1
_chemical_formula_structural   Th8TiSe17
_chemical_formula_sum   'Th8 Ti1 Se17'
_cell_volume   712.75768265
_cell_formula_units_Z   1
loop_
 _symmetry_equiv_pos_site_id
 _symmetry_equiv_pos_as_xyz
  1  'x, y, z'
loop_
 _atom_site_type_symbol
 _atom_site_label
 _atom_site_symmetry_multiplicity
 _atom_site_fract_x
 _atom_site_fract_y
 _atom_site_fract_z
 _atom_site_occupancy
  Th  Th0  1  0.814736  0.299926  0.294025  1
  Th  Th1  1  0.299926  0.814736  0.294025  1
  Th  Th2  1  0.185264  0.700074  0.705975  1
  Th  Th3  1  0.700074  0.185264  0.705975  1
  Th  Th4  1  0.203438  0.203438  0.543755  1
  Th  Th5  1  0.796562  0.796562  0.456245  1
  Th  Th6  1  0.683524  0.683524  0.981437  1
  Th  Th7  1  0.316476  0.316476  0.018563  1
  Ti  Ti8  1  0.000000  0.000000  0.000000  1
  Se  Se9  1  0.821605  0.431945  0.530889  1
  Se  Se10  1  0.431945  0.821605  0.530889  1
  Se  Se11  1  0.178395  0.568055  0.469111  1
  Se  Se12  1  0.568055  0.178395  0.469111  1
  Se  Se13  1  0.943307  0.324324  0.027885  1
  Se  Se14  1  0.324324  0.943307  0.027885  1
  Se  Se15  1  0.056693  0.675676  0.972115  1
  Se  Se16  1  0.675676  0.056693  0.972115  1
  Se  Se17  1  0.208804  0.208804  0.277285  1
  Se  Se18  1  0.791196  0.791196  0.722715  1
  Se  Se19  1  0.061403  0.061403  0.771798  1
  Se  Se20  1  0.938597  0.938597  0.228202  1
  Se  Se21  1  0.303835  0.303835  0.754055  1
  Se  Se22  1  0.696165  0.696165  0.245945  1
  Se  Se23  1  0.520681  0.520681  0.833498  1
  Se  Se24  1  0.479319  0.479319  0.166502  1
  Se  Se25  1  0.000000  0.000000  0.500000  1
