# generated using pymatgen
data_DyTm2(SiRh2)3
_symmetry_space_group_name_H-M   'P 1'
_cell_length_a   5.56118900
_cell_length_b   5.56118743
_cell_length_c   14.99204400
_cell_angle_alpha   90.00000000
_cell_angle_beta   90.00000000
_cell_angle_gamma   119.99999151
_symmetry_Int_Tables_number   1
_chemical_formula_structural   DyTm2(SiRh2)3
_chemical_formula_sum   'Dy2 Tm4 Si6 Rh12'
_cell_volume   401.53804888
_cell_formula_units_Z   2
loop_
 _symmetry_equiv_pos_site_id
 _symmetry_equiv_pos_as_xyz
  1  'x, y, z'
loop_
 _atom_site_type_symbol
 _atom_site_label
 _atom_site_symmetry_multiplicity
 _atom_site_fract_x
 _atom_site_fract_y
 _atom_site_fract_z
 _atom_site_occupancy
  Dy  Dy0  1  0.333333  0.666667  0.750000  1
  Dy  Dy1  1  0.666667  0.333333  0.250000  1
  Tm  Tm2  1  0.333333  0.666667  0.537047  1
  Tm  Tm3  1  0.666667  0.333333  0.462953  1
  Tm  Tm4  1  0.666667  0.333333  0.037047  1
  Tm  Tm5  1  0.333333  0.666667  0.962953  1
  Si  Si6  1  0.000000  0.000000  0.250000  1
  Si  Si7  1  0.000000  0.000000  0.750000  1
  Si  Si8  1  0.333333  0.666667  0.250000  1
  Si  Si9  1  0.666667  0.333333  0.750000  1
  Si  Si10  1  0.000000  0.000000  0.000000  1
  Si  Si11  1  0.000000  0.000000  0.500000  1
  Rh  Rh12  1  0.167122  0.334245  0.129560  1
  Rh  Rh13  1  0.832878  0.665755  0.870440  1
  Rh  Rh14  1  0.665755  0.832878  0.129560  1
  Rh  Rh15  1  0.832878  0.665755  0.629560  1
  Rh  Rh16  1  0.334245  0.167122  0.870440  1
  Rh  Rh17  1  0.167122  0.334245  0.370440  1
  Rh  Rh18  1  0.167122  0.832878  0.129560  1
  Rh  Rh19  1  0.334245  0.167122  0.629560  1
  Rh  Rh20  1  0.832878  0.167122  0.870440  1
  Rh  Rh21  1  0.665755  0.832878  0.370440  1
  Rh  Rh22  1  0.832878  0.167122  0.629560  1
  Rh  Rh23  1  0.167122  0.832878  0.370440  1
