# generated using pymatgen
data_Mg7Fe(CoSb)8
_symmetry_space_group_name_H-M   'P 1'
_cell_length_a   8.55069107
_cell_length_b   8.55069081
_cell_length_c   8.55069100
_cell_angle_alpha   60.00000315
_cell_angle_beta   60.00000415
_cell_angle_gamma   60.00000176
_symmetry_Int_Tables_number   1
_chemical_formula_structural   Mg7Fe(CoSb)8
_chemical_formula_sum   'Mg7 Fe1 Co8 Sb8'
_cell_volume   442.06757733
_cell_formula_units_Z   1
loop_
 _symmetry_equiv_pos_site_id
 _symmetry_equiv_pos_as_xyz
  1  'x, y, z'
loop_
 _atom_site_type_symbol
 _atom_site_label
 _atom_site_symmetry_multiplicity
 _atom_site_fract_x
 _atom_site_fract_y
 _atom_site_fract_z
 _atom_site_occupancy
  Mg  Mg0  1  0.500000  0.500000  0.000000  1
  Mg  Mg1  1  0.500000  0.000000  0.500000  1
  Mg  Mg2  1  0.500000  0.500000  0.500000  1
  Mg  Mg3  1  0.000000  0.500000  0.000000  1
  Mg  Mg4  1  0.000000  0.000000  0.500000  1
  Mg  Mg5  1  0.000000  0.500000  0.500000  1
  Mg  Mg6  1  0.500000  0.000000  0.000000  1
  Fe  Fe7  1  0.000000  0.000000  0.000000  1
  Co  Co8  1  0.116672  0.116672  0.116672  1
  Co  Co9  1  0.649983  0.116672  0.116672  1
  Co  Co10  1  0.116672  0.116672  0.649983  1
  Co  Co11  1  0.883328  0.350017  0.883328  1
  Co  Co12  1  0.116672  0.649983  0.116672  1
  Co  Co13  1  0.350017  0.883328  0.883328  1
  Co  Co14  1  0.883328  0.883328  0.350017  1
  Co  Co15  1  0.883328  0.883328  0.883328  1
  Sb  Sb16  1  0.250000  0.250000  0.250000  1
  Sb  Sb17  1  0.251669  0.748331  0.251669  1
  Sb  Sb18  1  0.251669  0.251669  0.748331  1
  Sb  Sb19  1  0.748331  0.251669  0.251669  1
  Sb  Sb20  1  0.251669  0.748331  0.748331  1
  Sb  Sb21  1  0.748331  0.748331  0.251669  1
  Sb  Sb22  1  0.748331  0.251669  0.748331  1
  Sb  Sb23  1  0.750000  0.750000  0.750000  1
