# generated using pymatgen
data_Ca10Ir3Pd
_symmetry_space_group_name_H-M   'P 1'
_cell_length_a   8.67330311
_cell_length_b   8.64633104
_cell_length_c   7.71533275
_cell_angle_alpha   82.66925653
_cell_angle_beta   82.90727987
_cell_angle_gamma   44.08800900
_symmetry_Int_Tables_number   1
_chemical_formula_structural   Ca10Ir3Pd
_chemical_formula_sum   'Ca10 Ir3 Pd1'
_cell_volume   398.84598455
_cell_formula_units_Z   1
loop_
 _symmetry_equiv_pos_site_id
 _symmetry_equiv_pos_as_xyz
  1  'x, y, z'
loop_
 _atom_site_type_symbol
 _atom_site_label
 _atom_site_symmetry_multiplicity
 _atom_site_fract_x
 _atom_site_fract_y
 _atom_site_fract_z
 _atom_site_occupancy
  Ca  Ca0  1  0.036278  0.791030  0.913029  1
  Ca  Ca1  1  0.200373  0.976987  0.583987  1
  Ca  Ca2  1  0.980594  0.202244  0.083838  1
  Ca  Ca3  1  0.803305  0.024859  0.424289  1
  Ca  Ca4  1  0.361782  0.198095  0.815925  1
  Ca  Ca5  1  0.797619  0.636341  0.676786  1
  Ca  Ca6  1  0.634073  0.793912  0.177388  1
  Ca  Ca7  1  0.190598  0.370170  0.330121  1
  Ca  Ca8  1  0.575255  0.430022  0.741374  1
  Ca  Ca9  1  0.421960  0.580773  0.255294  1
  Ir  Ir10  1  0.178484  0.597991  0.583584  1
  Ir  Ir11  1  0.397516  0.822617  0.917942  1
  Ir  Ir12  1  0.823698  0.396155  0.415694  1
  Pd  Pd13  1  0.598464  0.178804  0.080750  1
