# generated using pymatgen
data_Nd4BeCuSi6
_symmetry_space_group_name_H-M   'P 1'
_cell_length_a   8.17904261
_cell_length_b   8.04307552
_cell_length_c   5.86740232
_cell_angle_alpha   70.03904283
_cell_angle_beta   67.56310139
_cell_angle_gamma   42.39785256
_symmetry_Int_Tables_number   1
_chemical_formula_structural   Nd4BeCuSi6
_chemical_formula_sum   'Nd4 Be1 Cu1 Si6'
_cell_volume   239.45859525
_cell_formula_units_Z   1
loop_
 _symmetry_equiv_pos_site_id
 _symmetry_equiv_pos_as_xyz
  1  'x, y, z'
loop_
 _atom_site_type_symbol
 _atom_site_label
 _atom_site_symmetry_multiplicity
 _atom_site_fract_x
 _atom_site_fract_y
 _atom_site_fract_z
 _atom_site_occupancy
  Nd  Nd0  1  0.245234  0.756126  0.243874  1
  Nd  Nd1  1  0.249152  0.249150  0.250850  1
  Nd  Nd2  1  0.749151  0.749151  0.750849  1
  Nd  Nd3  1  0.756126  0.245234  0.754766  1
  Be  Be4  1  0.666261  0.666261  0.333739  1
  Cu  Cu5  1  0.333506  0.333506  0.666494  1
  Si  Si6  1  0.828315  0.828315  0.171685  1
  Si  Si7  1  0.825828  0.345194  0.174171  1
  Si  Si8  1  0.659498  0.171965  0.340502  1
  Si  Si9  1  0.345194  0.825829  0.654806  1
  Si  Si10  1  0.171964  0.659498  0.828035  1
  Si  Si11  1  0.169770  0.169770  0.830230  1
