# generated using pymatgen
data_YCd(NiPt)2
_symmetry_space_group_name_H-M   'P 1'
_cell_length_a   5.05877596
_cell_length_b   5.17786023
_cell_length_c   5.17786003
_cell_angle_alpha   63.09720849
_cell_angle_beta   60.75790403
_cell_angle_gamma   60.75791595
_symmetry_Int_Tables_number   1
_chemical_formula_structural   YCd(NiPt)2
_chemical_formula_sum   'Y1 Cd1 Ni2 Pt2'
_cell_volume   99.10517796
_cell_formula_units_Z   1
loop_
 _symmetry_equiv_pos_site_id
 _symmetry_equiv_pos_as_xyz
  1  'x, y, z'
loop_
 _atom_site_type_symbol
 _atom_site_label
 _atom_site_symmetry_multiplicity
 _atom_site_fract_x
 _atom_site_fract_y
 _atom_site_fract_z
 _atom_site_occupancy
  Y  Y0  1  0.247734  0.252266  0.252266  1
  Cd  Cd1  1  0.007081  0.992919  0.992919  1
  Ni  Ni2  1  0.122253  0.627304  0.627304  1
  Ni  Ni3  1  0.623141  0.627304  0.627304  1
  Pt  Pt4  1  0.624896  0.626008  0.124201  1
  Pt  Pt5  1  0.624896  0.124201  0.626008  1
