# generated using pymatgen
data_LiLa(NbSe2)8
_symmetry_space_group_name_H-M   'P 1'
_cell_length_a   7.00445600
_cell_length_b   7.00445651
_cell_length_c   14.08053900
_cell_angle_alpha   90.00000000
_cell_angle_beta   90.00000000
_cell_angle_gamma   119.99998815
_symmetry_Int_Tables_number   1
_chemical_formula_structural   LiLa(NbSe2)8
_chemical_formula_sum   'Li1 La1 Nb8 Se16'
_cell_volume   598.27219315
_cell_formula_units_Z   1
loop_
 _symmetry_equiv_pos_site_id
 _symmetry_equiv_pos_as_xyz
  1  'x, y, z'
loop_
 _atom_site_type_symbol
 _atom_site_label
 _atom_site_symmetry_multiplicity
 _atom_site_fract_x
 _atom_site_fract_y
 _atom_site_fract_z
 _atom_site_occupancy
  Li  Li0  1  0.000000  0.000000  0.000000  1
  La  La1  1  0.000000  0.000000  0.500000  1
  Nb  Nb2  1  0.000000  0.000000  0.231165  1
  Nb  Nb3  1  0.000000  0.000000  0.768835  1
  Nb  Nb4  1  0.508061  0.491939  0.229171  1
  Nb  Nb5  1  0.508061  0.016121  0.229171  1
  Nb  Nb6  1  0.983879  0.491939  0.229171  1
  Nb  Nb7  1  0.491939  0.508061  0.770829  1
  Nb  Nb8  1  0.491939  0.983879  0.770829  1
  Nb  Nb9  1  0.016121  0.508061  0.770829  1
  Se  Se10  1  0.333333  0.666667  0.893511  1
  Se  Se11  1  0.666667  0.333333  0.106489  1
  Se  Se12  1  0.666667  0.333333  0.354005  1
  Se  Se13  1  0.333333  0.666667  0.645995  1
  Se  Se14  1  0.170265  0.829735  0.347933  1
  Se  Se15  1  0.170265  0.340531  0.347933  1
  Se  Se16  1  0.659469  0.829735  0.347933  1
  Se  Se17  1  0.829735  0.170265  0.652067  1
  Se  Se18  1  0.829735  0.659469  0.652067  1
  Se  Se19  1  0.340531  0.170265  0.652067  1
  Se  Se20  1  0.831489  0.168511  0.886240  1
  Se  Se21  1  0.831489  0.662977  0.886240  1
  Se  Se22  1  0.337023  0.168511  0.886240  1
  Se  Se23  1  0.168511  0.831489  0.113760  1
  Se  Se24  1  0.168511  0.337023  0.113760  1
  Se  Se25  1  0.662977  0.831489  0.113760  1
