# generated using pymatgen
data_Y5CdRu4
_symmetry_space_group_name_H-M   'P 1'
_cell_length_a   3.42470300
_cell_length_b   3.42470300
_cell_length_c   18.17462300
_cell_angle_alpha   90.00000000
_cell_angle_beta   90.00000000
_cell_angle_gamma   90.00000000
_symmetry_Int_Tables_number   1
_chemical_formula_structural   Y5CdRu4
_chemical_formula_sum   'Y5 Cd1 Ru4'
_cell_volume   213.16271317
_cell_formula_units_Z   1
loop_
 _symmetry_equiv_pos_site_id
 _symmetry_equiv_pos_as_xyz
  1  'x, y, z'
loop_
 _atom_site_type_symbol
 _atom_site_label
 _atom_site_symmetry_multiplicity
 _atom_site_fract_x
 _atom_site_fract_y
 _atom_site_fract_z
 _atom_site_occupancy
  Y  Y0  1  0.000000  0.000000  0.873720  1
  Y  Y1  1  0.000000  0.000000  0.126280  1
  Y  Y2  1  0.000000  0.000000  0.311884  1
  Y  Y3  1  0.000000  0.000000  0.500000  1
  Y  Y4  1  0.000000  0.000000  0.688116  1
  Cd  Cd5  1  0.500000  0.500000  0.000000  1
  Ru  Ru6  1  0.500000  0.500000  0.214314  1
  Ru  Ru7  1  0.500000  0.500000  0.404892  1
  Ru  Ru8  1  0.500000  0.500000  0.595108  1
  Ru  Ru9  1  0.500000  0.500000  0.785686  1
