# generated using pymatgen
data_K4HfTa3O12
_symmetry_space_group_name_H-M   'P 1'
_cell_length_a   9.97753399
_cell_length_b   9.97753453
_cell_length_c   9.97753435
_cell_angle_alpha   33.53098482
_cell_angle_beta   33.53097977
_cell_angle_gamma   33.53097699
_symmetry_Int_Tables_number   1
_chemical_formula_structural   K4HfTa3O12
_chemical_formula_sum   'K4 Hf1 Ta3 O12'
_cell_volume   269.94915500
_cell_formula_units_Z   1
loop_
 _symmetry_equiv_pos_site_id
 _symmetry_equiv_pos_as_xyz
  1  'x, y, z'
loop_
 _atom_site_type_symbol
 _atom_site_label
 _atom_site_symmetry_multiplicity
 _atom_site_fract_x
 _atom_site_fract_y
 _atom_site_fract_z
 _atom_site_occupancy
  K  K0  1  0.374869  0.374869  0.374869  1
  K  K1  1  0.124849  0.124849  0.124849  1
  K  K2  1  0.875151  0.875151  0.875151  1
  K  K3  1  0.625131  0.625131  0.625131  1
  Hf  Hf4  1  0.500000  0.500000  0.500000  1
  Ta  Ta5  1  0.249270  0.249270  0.249270  1
  Ta  Ta6  1  0.000000  0.000000  0.000000  1
  Ta  Ta7  1  0.750730  0.750730  0.750730  1
  O  O8  1  0.125243  0.626996  0.125243  1
  O  O9  1  0.874757  0.373004  0.874757  1
  O  O10  1  0.626734  0.116309  0.626734  1
  O  O11  1  0.373266  0.883691  0.373266  1
  O  O12  1  0.874757  0.874757  0.373004  1
  O  O13  1  0.626734  0.626734  0.116309  1
  O  O14  1  0.373266  0.373266  0.883691  1
  O  O15  1  0.125243  0.125243  0.626996  1
  O  O16  1  0.373004  0.874757  0.874757  1
  O  O17  1  0.116309  0.626734  0.626734  1
  O  O18  1  0.883691  0.373266  0.373266  1
  O  O19  1  0.626996  0.125243  0.125243  1
