# generated using pymatgen
data_Er3Sc2AlSb2
_symmetry_space_group_name_H-M   'P 1'
_cell_length_a   8.65497001
_cell_length_b   8.67774310
_cell_length_c   6.12269300
_cell_angle_alpha   90.00000000
_cell_angle_beta   90.00000000
_cell_angle_gamma   120.08707516
_symmetry_Int_Tables_number   1
_chemical_formula_structural   Er3Sc2AlSb2
_chemical_formula_sum   'Er6 Sc4 Al2 Sb4'
_cell_volume   397.89065691
_cell_formula_units_Z   2
loop_
 _symmetry_equiv_pos_site_id
 _symmetry_equiv_pos_as_xyz
  1  'x, y, z'
loop_
 _atom_site_type_symbol
 _atom_site_label
 _atom_site_symmetry_multiplicity
 _atom_site_fract_x
 _atom_site_fract_y
 _atom_site_fract_z
 _atom_site_occupancy
  Er  Er0  1  0.008745  0.764030  0.750000  1
  Er  Er1  1  0.008745  0.244715  0.250000  1
  Er  Er2  1  0.753838  0.755526  0.250000  1
  Er  Er3  1  0.753838  0.998311  0.750000  1
  Er  Er4  1  0.243335  0.233575  0.750000  1
  Er  Er5  1  0.243335  0.009759  0.250000  1
  Sc  Sc6  1  0.335570  0.667786  0.500000  1
  Sc  Sc7  1  0.656669  0.328334  0.000000  1
  Sc  Sc8  1  0.656669  0.328334  0.500000  1
  Sc  Sc9  1  0.335570  0.667786  0.000000  1
  Al  Al10  1  0.400276  0.997393  0.750000  1
  Al  Al11  1  0.400276  0.402883  0.250000  1
  Sb  Sb12  1  0.999235  0.604811  0.250000  1
  Sb  Sb13  1  0.999235  0.394424  0.750000  1
  Sb  Sb14  1  0.602331  0.600979  0.750000  1
  Sb  Sb15  1  0.602331  0.001353  0.250000  1
