# generated using pymatgen
data_Tb2YGa6Ni8Rh
_symmetry_space_group_name_H-M   'P 1'
_cell_length_a   4.12760000
_cell_length_b   8.89038914
_cell_length_c   8.89153403
_cell_angle_alpha   58.43813989
_cell_angle_beta   90.00000000
_cell_angle_gamma   90.00000000
_symmetry_Int_Tables_number   1
_chemical_formula_structural   Tb2YGa6Ni8Rh
_chemical_formula_sum   'Tb2 Y1 Ga6 Ni8 Rh1'
_cell_volume   278.01816396
_cell_formula_units_Z   1
loop_
 _symmetry_equiv_pos_site_id
 _symmetry_equiv_pos_as_xyz
  1  'x, y, z'
loop_
 _atom_site_type_symbol
 _atom_site_label
 _atom_site_symmetry_multiplicity
 _atom_site_fract_x
 _atom_site_fract_y
 _atom_site_fract_z
 _atom_site_occupancy
  Tb  Tb0  1  0.500000  0.667016  0.667236  1
  Tb  Tb1  1  0.000000  0.010448  0.989526  1
  Y  Y2  1  0.500000  0.332748  0.332968  1
  Ga  Ga3  1  0.500000  0.731770  0.268210  1
  Ga  Ga4  1  0.500000  0.274183  0.004766  1
  Ga  Ga5  1  0.500000  0.995325  0.725789  1
  Ga  Ga6  1  0.000000  0.475881  0.524047  1
  Ga  Ga7  1  0.000000  0.520094  0.008736  1
  Ga  Ga8  1  0.000000  0.991385  0.479845  1
  Ni  Ni9  1  0.000000  0.197282  0.174849  1
  Ni  Ni10  1  0.000000  0.167564  0.613050  1
  Ni  Ni11  1  0.000000  0.631347  0.199741  1
  Ni  Ni12  1  0.000000  0.825163  0.802731  1
  Ni  Ni13  1  0.000000  0.386980  0.832386  1
  Ni  Ni14  1  0.000000  0.800298  0.368646  1
  Ni  Ni15  1  0.500000  0.706764  0.004117  1
  Ni  Ni16  1  0.500000  0.995794  0.293300  1
  Rh  Rh17  1  0.500000  0.289856  0.710157  1
