# generated using pymatgen
data_LiIn(CO3)2
_symmetry_space_group_name_H-M   'P 1'
_cell_length_a   4.80673140
_cell_length_b   5.92003512
_cell_length_c   8.33808879
_cell_angle_alpha   76.55705003
_cell_angle_beta   90.03245834
_cell_angle_gamma   114.18237294
_symmetry_Int_Tables_number   1
_chemical_formula_structural   LiIn(CO3)2
_chemical_formula_sum   'Li2 In2 C4 O12'
_cell_volume   209.31562185
_cell_formula_units_Z   2
loop_
 _symmetry_equiv_pos_site_id
 _symmetry_equiv_pos_as_xyz
  1  'x, y, z'
loop_
 _atom_site_type_symbol
 _atom_site_label
 _atom_site_symmetry_multiplicity
 _atom_site_fract_x
 _atom_site_fract_y
 _atom_site_fract_z
 _atom_site_occupancy
  Li  Li0  1  0.000020  0.999996  0.000007  1
  Li  Li1  1  0.499980  0.000004  0.499993  1
  In  In2  1  0.750000  0.500000  0.750000  1
  In  In3  1  0.250000  0.500000  0.250000  1
  C  C4  1  0.871752  0.743222  0.376725  1
  C  C5  1  0.371766  0.743217  0.876726  1
  C  C6  1  0.628248  0.256779  0.123275  1
  C  C7  1  0.128235  0.256784  0.623274  1
  O  O8  1  0.898075  0.256142  0.120278  1
  O  O9  1  0.398054  0.256142  0.620277  1
  O  O10  1  0.512065  0.744789  0.009794  1
  O  O11  1  0.012051  0.744802  0.509790  1
  O  O12  1  0.002222  0.743835  0.240261  1
  O  O13  1  0.502245  0.743836  0.740260  1
  O  O14  1  0.497777  0.256165  0.259739  1
  O  O15  1  0.997755  0.256164  0.759740  1
  O  O16  1  0.987935  0.255211  0.490206  1
  O  O17  1  0.487949  0.255198  0.990210  1
  O  O18  1  0.601925  0.743859  0.379722  1
  O  O19  1  0.101947  0.743858  0.879723  1
