# generated using pymatgen
data_Zr4Sc4NiOs7
_symmetry_space_group_name_H-M   'P 1'
_cell_length_a   6.48511900
_cell_length_b   4.59523400
_cell_length_c   9.19488200
_cell_angle_alpha   90.00000000
_cell_angle_beta   89.99975066
_cell_angle_gamma   90.00000000
_symmetry_Int_Tables_number   1
_chemical_formula_structural   Zr4Sc4NiOs7
_chemical_formula_sum   'Zr4 Sc4 Ni1 Os7'
_cell_volume   274.01336210
_cell_formula_units_Z   1
loop_
 _symmetry_equiv_pos_site_id
 _symmetry_equiv_pos_as_xyz
  1  'x, y, z'
loop_
 _atom_site_type_symbol
 _atom_site_label
 _atom_site_symmetry_multiplicity
 _atom_site_fract_x
 _atom_site_fract_y
 _atom_site_fract_z
 _atom_site_occupancy
  Zr  Zr0  1  0.746881  0.250000  0.125013  1
  Zr  Zr1  1  0.251498  0.750000  0.375444  1
  Zr  Zr2  1  0.749430  0.250000  0.625018  1
  Zr  Zr3  1  0.251633  0.750000  0.874527  1
  Sc  Sc4  1  0.249928  0.250000  0.124988  1
  Sc  Sc5  1  0.749856  0.750000  0.374951  1
  Sc  Sc6  1  0.250182  0.250000  0.624993  1
  Sc  Sc7  1  0.750015  0.750000  0.875073  1
  Ni  Ni8  1  0.999800  0.750000  0.125001  1
  Os  Os9  1  0.500567  0.750000  0.125010  1
  Os  Os10  1  0.999563  0.250000  0.372997  1
  Os  Os11  1  0.500202  0.250000  0.373929  1
  Os  Os12  1  0.500479  0.750000  0.625006  1
  Os  Os13  1  0.999996  0.750000  0.625010  1
  Os  Os14  1  0.500319  0.250000  0.876052  1
  Os  Os15  1  0.999650  0.250000  0.876987  1
