# generated using pymatgen
data_HoLu5Al24Ru3Rh5
_symmetry_space_group_name_H-M   'P 1'
_cell_length_a   8.77036062
_cell_length_b   8.77036153
_cell_length_c   9.49636459
_cell_angle_alpha   89.82793546
_cell_angle_beta   90.17206696
_cell_angle_gamma   120.10059056
_symmetry_Int_Tables_number   1
_chemical_formula_structural   HoLu5Al24Ru3Rh5
_chemical_formula_sum   'Ho1 Lu5 Al24 Ru3 Rh5'
_cell_volume   631.94495145
_cell_formula_units_Z   1
loop_
 _symmetry_equiv_pos_site_id
 _symmetry_equiv_pos_as_xyz
  1  'x, y, z'
loop_
 _atom_site_type_symbol
 _atom_site_label
 _atom_site_symmetry_multiplicity
 _atom_site_fract_x
 _atom_site_fract_y
 _atom_site_fract_z
 _atom_site_occupancy
  Ho  Ho0  1  0.807740  0.192260  0.749704  1
  Lu  Lu1  1  0.196018  0.388555  0.250731  1
  Lu  Lu2  1  0.804118  0.612347  0.749282  1
  Lu  Lu3  1  0.611445  0.803982  0.250731  1
  Lu  Lu4  1  0.387653  0.195882  0.749282  1
  Lu  Lu5  1  0.193491  0.806509  0.250260  1
  Al  Al6  1  0.333313  0.666687  0.030162  1
  Al  Al7  1  0.666237  0.333763  0.970455  1
  Al  Al8  1  0.665752  0.334248  0.527120  1
  Al  Al9  1  0.333798  0.666202  0.472318  1
  Al  Al10  1  0.165052  0.326534  0.578744  1
  Al  Al11  1  0.835529  0.673892  0.420879  1
  Al  Al12  1  0.673466  0.834948  0.578744  1
  Al  Al13  1  0.837356  0.673106  0.078372  1
  Al  Al14  1  0.326108  0.164471  0.420879  1
  Al  Al15  1  0.163289  0.327369  0.922027  1
  Al  Al16  1  0.162895  0.837105  0.578740  1
  Al  Al17  1  0.326894  0.162644  0.078372  1
  Al  Al18  1  0.837047  0.162953  0.420427  1
  Al  Al19  1  0.672631  0.836711  0.922027  1
  Al  Al20  1  0.837020  0.162980  0.079555  1
  Al  Al21  1  0.162915  0.837085  0.921275  1
  Al  Al22  1  0.561533  0.123032  0.248976  1
  Al  Al23  1  0.437311  0.876293  0.751056  1
  Al  Al24  1  0.876968  0.438467  0.248976  1
  Al  Al25  1  0.123707  0.562689  0.751056  1
  Al  Al26  1  0.561918  0.438082  0.250046  1
  Al  Al27  1  0.438108  0.561892  0.749900  1
  Al  Al28  1  0.000591  0.999409  0.249877  1
  Al  Al29  1  0.000167  0.999833  0.750115  1
  Ru  Ru30  1  0.499937  0.500063  0.499981  1
  Ru  Ru31  1  0.999980  0.000020  0.999961  1
  Ru  Ru32  1  0.999978  0.000022  0.500048  1
  Rh  Rh33  1  0.500010  0.000003  0.000027  1
  Rh  Rh34  1  0.999997  0.499990  0.000027  1
  Rh  Rh35  1  0.500054  0.000008  0.499950  1
  Rh  Rh36  1  0.499981  0.500019  0.999973  1
  Rh  Rh37  1  0.999992  0.499946  0.499950  1
