# generated using pymatgen
data_Yb7Lu(OsC2)4
_symmetry_space_group_name_H-M   'P 1'
_cell_length_a   5.12719500
_cell_length_b   6.45469449
_cell_length_c   10.09707336
_cell_angle_alpha   90.34682015
_cell_angle_beta   90.00000000
_cell_angle_gamma   90.00000000
_symmetry_Int_Tables_number   1
_chemical_formula_structural   Yb7Lu(OsC2)4
_chemical_formula_sum   'Yb7 Lu1 Os4 C8'
_cell_volume   334.15124340
_cell_formula_units_Z   1
loop_
 _symmetry_equiv_pos_site_id
 _symmetry_equiv_pos_as_xyz
  1  'x, y, z'
loop_
 _atom_site_type_symbol
 _atom_site_label
 _atom_site_symmetry_multiplicity
 _atom_site_fract_x
 _atom_site_fract_y
 _atom_site_fract_z
 _atom_site_occupancy
  Yb  Yb0  1  0.750000  0.305187  0.451194  1
  Yb  Yb1  1  0.750000  0.804625  0.050443  1
  Yb  Yb2  1  0.250000  0.192804  0.948309  1
  Yb  Yb3  1  0.250000  0.532648  0.223306  1
  Yb  Yb4  1  0.750000  0.467889  0.777429  1
  Yb  Yb5  1  0.750000  0.968286  0.726944  1
  Yb  Yb6  1  0.250000  0.032953  0.274753  1
  Lu  Lu7  1  0.250000  0.681140  0.553841  1
  Os  Os8  1  0.250000  0.730084  0.852606  1
  Os  Os9  1  0.750000  0.268079  0.147397  1
  Os  Os10  1  0.750000  0.769043  0.356954  1
  Os  Os11  1  0.250000  0.229518  0.642735  1
  C  C12  1  0.250000  0.467489  0.754945  1
  C  C13  1  0.750000  0.532952  0.241656  1
  C  C14  1  0.750000  0.030505  0.260181  1
  C  C15  1  0.250000  0.961381  0.732975  1
  C  C16  1  0.250000  0.798245  0.030436  1
  C  C17  1  0.750000  0.204455  0.968159  1
  C  C18  1  0.750000  0.701138  0.537786  1
  C  C19  1  0.250000  0.321579  0.467948  1
