# generated using pymatgen
data_Dy2Ho6Re(B8Os)3
_symmetry_space_group_name_H-M   'P 1'
_cell_length_a   3.65642900
_cell_length_b   9.14212419
_cell_length_c   11.52657500
_cell_angle_alpha   90.08463178
_cell_angle_beta   90.00000000
_cell_angle_gamma   90.00000000
_symmetry_Int_Tables_number   1
_chemical_formula_structural   Dy2Ho6Re(B8Os)3
_chemical_formula_sum   'Dy2 Ho6 Re1 B24 Os3'
_cell_volume   385.30448834
_cell_formula_units_Z   1
loop_
 _symmetry_equiv_pos_site_id
 _symmetry_equiv_pos_as_xyz
  1  'x, y, z'
loop_
 _atom_site_type_symbol
 _atom_site_label
 _atom_site_symmetry_multiplicity
 _atom_site_fract_x
 _atom_site_fract_y
 _atom_site_fract_z
 _atom_site_occupancy
  Dy  Dy0  1  0.000000  0.322416  0.414621  1
  Dy  Dy1  1  0.000000  0.680224  0.588224  1
  Ho  Ho2  1  0.000000  0.822517  0.083601  1
  Ho  Ho3  1  0.000000  0.176535  0.913199  1
  Ho  Ho4  1  0.000000  0.943192  0.371890  1
  Ho  Ho5  1  0.000000  0.056139  0.627701  1
  Ho  Ho6  1  0.000000  0.442732  0.127514  1
  Ho  Ho7  1  0.000000  0.556703  0.873013  1
  Re  Re8  1  0.000000  0.862963  0.821672  1
  B  B9  1  0.500000  0.553710  0.433051  1
  B  B10  1  0.500000  0.446513  0.567311  1
  B  B11  1  0.500000  0.053237  0.067203  1
  B  B12  1  0.500000  0.947418  0.933294  1
  B  B13  1  0.500000  0.748260  0.419305  1
  B  B14  1  0.500000  0.251922  0.580519  1
  B  B15  1  0.500000  0.247646  0.080466  1
  B  B16  1  0.500000  0.751895  0.919555  1
  B  B17  1  0.500000  0.790338  0.266048  1
  B  B18  1  0.500000  0.209288  0.733194  1
  B  B19  1  0.500000  0.290558  0.233556  1
  B  B20  1  0.500000  0.708815  0.766466  1
  B  B21  1  0.500000  0.630928  0.185343  1
  B  B22  1  0.500000  0.368511  0.814304  1
  B  B23  1  0.500000  0.131326  0.314519  1
  B  B24  1  0.500000  0.869008  0.685782  1
  B  B25  1  0.500000  0.982822  0.212613  1
  B  B26  1  0.500000  0.018131  0.787315  1
  B  B27  1  0.500000  0.482858  0.287492  1
  B  B28  1  0.500000  0.517136  0.713120  1
  B  B29  1  0.500000  0.606162  0.030169  1
  B  B30  1  0.500000  0.392103  0.970423  1
  B  B31  1  0.500000  0.106942  0.469959  1
  B  B32  1  0.500000  0.893721  0.529004  1
  Os  Os33  1  0.000000  0.637211  0.321258  1
  Os  Os34  1  0.000000  0.362879  0.678263  1
  Os  Os35  1  0.000000  0.137241  0.179029  1
