# generated using pymatgen
data_LiNd2C3O
_symmetry_space_group_name_H-M   'P 1'
_cell_length_a   6.94593200
_cell_length_b   6.94593200
_cell_length_c   3.91444300
_cell_angle_alpha   90.00000000
_cell_angle_beta   90.00000000
_cell_angle_gamma   90.00000000
_symmetry_Int_Tables_number   1
_chemical_formula_structural   LiNd2C3O
_chemical_formula_sum   'Li2 Nd4 C6 O2'
_cell_volume   188.85610482
_cell_formula_units_Z   2
loop_
 _symmetry_equiv_pos_site_id
 _symmetry_equiv_pos_as_xyz
  1  'x, y, z'
loop_
 _atom_site_type_symbol
 _atom_site_label
 _atom_site_symmetry_multiplicity
 _atom_site_fract_x
 _atom_site_fract_y
 _atom_site_fract_z
 _atom_site_occupancy
  Li  Li0  1  0.500000  0.500000  0.000000  1
  Li  Li1  1  0.000000  0.000000  0.000000  1
  Nd  Nd2  1  0.681921  0.181921  0.500000  1
  Nd  Nd3  1  0.318079  0.818079  0.500000  1
  Nd  Nd4  1  0.181921  0.318079  0.500000  1
  Nd  Nd5  1  0.818079  0.681921  0.500000  1
  C  C6  1  0.134832  0.634832  0.000000  1
  C  C7  1  0.865168  0.365168  0.000000  1
  C  C8  1  0.634832  0.865168  0.000000  1
  C  C9  1  0.365168  0.134832  0.000000  1
  C  C10  1  0.500000  0.000000  0.000000  1
  C  C11  1  0.000000  0.500000  0.000000  1
  O  O12  1  0.500000  0.500000  0.500000  1
  O  O13  1  0.000000  0.000000  0.500000  1
