# generated using pymatgen
data_YbEu4IrPd
_symmetry_space_group_name_H-M   'P 1'
_cell_length_a   8.87986909
_cell_length_b   8.87986866
_cell_length_c   7.72332801
_cell_angle_alpha   83.18364727
_cell_angle_beta   83.18364497
_cell_angle_gamma   44.26006876
_symmetry_Int_Tables_number   1
_chemical_formula_structural   YbEu4IrPd
_chemical_formula_sum   'Yb2 Eu8 Ir2 Pd2'
_cell_volume   421.52816252
_cell_formula_units_Z   2
loop_
 _symmetry_equiv_pos_site_id
 _symmetry_equiv_pos_as_xyz
  1  'x, y, z'
loop_
 _atom_site_type_symbol
 _atom_site_label
 _atom_site_symmetry_multiplicity
 _atom_site_fract_x
 _atom_site_fract_y
 _atom_site_fract_z
 _atom_site_occupancy
  Yb  Yb0  1  0.570977  0.429023  0.750000  1
  Yb  Yb1  1  0.421973  0.578027  0.250000  1
  Eu  Eu2  1  0.037538  0.787426  0.918469  1
  Eu  Eu3  1  0.212574  0.962462  0.581531  1
  Eu  Eu4  1  0.982405  0.199349  0.074413  1
  Eu  Eu5  1  0.800651  0.017595  0.425587  1
  Eu  Eu6  1  0.359183  0.203647  0.811047  1
  Eu  Eu7  1  0.796353  0.640817  0.688953  1
  Eu  Eu8  1  0.629286  0.801062  0.175313  1
  Eu  Eu9  1  0.198938  0.370714  0.324687  1
  Ir  Ir10  1  0.184128  0.600699  0.579798  1
  Ir  Ir11  1  0.399301  0.815872  0.920202  1
  Pd  Pd12  1  0.809692  0.402998  0.423964  1
  Pd  Pd13  1  0.597002  0.190309  0.076036  1
