# generated using pymatgen
data_Sr2TbCu5(Ni4B)2
_symmetry_space_group_name_H-M   'P 1'
_cell_length_a   5.12582800
_cell_length_b   5.13994648
_cell_length_c   10.98871500
_cell_angle_alpha   90.00000000
_cell_angle_beta   90.00000000
_cell_angle_gamma   119.90916476
_symmetry_Int_Tables_number   1
_chemical_formula_structural   Sr2TbCu5(Ni4B)2
_chemical_formula_sum   'Sr2 Tb1 Cu5 Ni8 B2'
_cell_volume   250.95563802
_cell_formula_units_Z   1
loop_
 _symmetry_equiv_pos_site_id
 _symmetry_equiv_pos_as_xyz
  1  'x, y, z'
loop_
 _atom_site_type_symbol
 _atom_site_label
 _atom_site_symmetry_multiplicity
 _atom_site_fract_x
 _atom_site_fract_y
 _atom_site_fract_z
 _atom_site_occupancy
  Sr  Sr0  1  0.000000  0.000000  0.327777  1
  Sr  Sr1  1  0.000000  0.000000  0.672223  1
  Tb  Tb2  1  0.000000  0.000000  0.000000  1
  Cu  Cu3  1  0.500000  0.000000  0.500000  1
  Cu  Cu4  1  0.330161  0.660322  0.315002  1
  Cu  Cu5  1  0.669839  0.339678  0.315002  1
  Cu  Cu6  1  0.669839  0.339678  0.684998  1
  Cu  Cu7  1  0.330161  0.660322  0.684998  1
  Ni  Ni8  1  0.500000  0.500000  0.500000  1
  Ni  Ni9  1  0.000000  0.500000  0.500000  1
  Ni  Ni10  1  0.500000  0.000000  0.125981  1
  Ni  Ni11  1  0.500000  0.500000  0.125651  1
  Ni  Ni12  1  0.000000  0.500000  0.125651  1
  Ni  Ni13  1  0.500000  0.000000  0.874019  1
  Ni  Ni14  1  0.500000  0.500000  0.874349  1
  Ni  Ni15  1  0.000000  0.500000  0.874349  1
  B  B16  1  0.333593  0.667188  0.000000  1
  B  B17  1  0.666407  0.332812  0.000000  1
