# generated using pymatgen
data_Ho2ErIn3Ir2Pd
_symmetry_space_group_name_H-M   'P 1'
_cell_length_a   7.62228258
_cell_length_b   7.62228266
_cell_length_c   3.83276400
_cell_angle_alpha   90.00000000
_cell_angle_beta   90.00000000
_cell_angle_gamma   119.95544622
_symmetry_Int_Tables_number   1
_chemical_formula_structural   Ho2ErIn3Ir2Pd
_chemical_formula_sum   'Ho2 Er1 In3 Ir2 Pd1'
_cell_volume   192.93348456
_cell_formula_units_Z   1
loop_
 _symmetry_equiv_pos_site_id
 _symmetry_equiv_pos_as_xyz
  1  'x, y, z'
loop_
 _atom_site_type_symbol
 _atom_site_label
 _atom_site_symmetry_multiplicity
 _atom_site_fract_x
 _atom_site_fract_y
 _atom_site_fract_z
 _atom_site_occupancy
  Ho  Ho0  1  0.412175  0.999976  0.000000  1
  Ho  Ho1  1  0.999976  0.412175  0.000000  1
  Er  Er2  1  0.587862  0.587862  0.000000  1
  In  In3  1  0.999845  0.739442  0.500000  1
  In  In4  1  0.260706  0.260706  0.500000  1
  In  In5  1  0.739442  0.999845  0.500000  1
  Ir  Ir6  1  0.666548  0.333623  0.500000  1
  Ir  Ir7  1  0.333623  0.666548  0.500000  1
  Pd  Pd8  1  0.999824  0.999824  0.000000  1
