# generated using pymatgen
data_Ho4Al6Ga12Ir5Pt
_symmetry_space_group_name_H-M   'P 1'
_cell_length_a   7.57707209
_cell_length_b   7.57380893
_cell_length_c   9.49784990
_cell_angle_alpha   90.12781943
_cell_angle_beta   89.89707077
_cell_angle_gamma   119.88810790
_symmetry_Int_Tables_number   1
_chemical_formula_structural   Ho4Al6Ga12Ir5Pt
_chemical_formula_sum   'Ho4 Al6 Ga12 Ir5 Pt1'
_cell_volume   472.56226992
_cell_formula_units_Z   1
loop_
 _symmetry_equiv_pos_site_id
 _symmetry_equiv_pos_as_xyz
  1  'x, y, z'
loop_
 _atom_site_type_symbol
 _atom_site_label
 _atom_site_symmetry_multiplicity
 _atom_site_fract_x
 _atom_site_fract_y
 _atom_site_fract_z
 _atom_site_occupancy
  Ho  Ho0  1  0.999171  0.667441  0.250290  1
  Ho  Ho1  1  0.000829  0.332559  0.749710  1
  Ho  Ho2  1  0.671332  0.000574  0.254000  1
  Ho  Ho3  1  0.328668  0.999426  0.746000  1
  Al  Al4  1  0.664647  0.998593  0.928144  1
  Al  Al5  1  0.335353  0.001407  0.071856  1
  Al  Al6  1  0.335737  0.335795  0.556663  1
  Al  Al7  1  0.664263  0.664205  0.443337  1
  Al  Al8  1  0.667949  0.667601  0.056619  1
  Al  Al9  1  0.332051  0.332399  0.943381  1
  Ga  Ga10  1  0.129095  0.125922  0.247669  1
  Ga  Ga11  1  0.870905  0.874078  0.752331  1
  Ga  Ga12  1  0.998121  0.332966  0.077870  1
  Ga  Ga13  1  0.001879  0.667034  0.922130  1
  Ga  Ga14  1  0.999073  0.662654  0.580909  1
  Ga  Ga15  1  0.337066  0.999259  0.416835  1
  Ga  Ga16  1  0.000927  0.337346  0.419091  1
  Ga  Ga17  1  0.662934  0.000741  0.583165  1
  Ga  Ga18  1  0.345298  0.550777  0.249871  1
  Ga  Ga19  1  0.654702  0.449223  0.750129  1
  Ga  Ga20  1  0.548699  0.344170  0.248979  1
  Ga  Ga21  1  0.451301  0.655830  0.751021  1
  Ir  Ir22  1  0.667647  0.325995  0.999033  1
  Ir  Ir23  1  0.332353  0.674005  0.000967  1
  Ir  Ir24  1  0.330294  0.669398  0.500684  1
  Ir  Ir25  1  0.669706  0.330602  0.499316  1
  Ir  Ir26  1  0.000000  0.000000  0.000000  1
  Pt  Pt27  1  0.000000  0.000000  0.500000  1
