# generated using pymatgen
data_Y2Sc3Tc3(P3Ir4)4
_symmetry_space_group_name_H-M   'P 1'
_cell_length_a   12.60255500
_cell_length_b   12.60255407
_cell_length_c   3.95742800
_cell_angle_alpha   90.00000000
_cell_angle_beta   90.00000000
_cell_angle_gamma   119.99999981
_symmetry_Int_Tables_number   1
_chemical_formula_structural   Y2Sc3Tc3(P3Ir4)4
_chemical_formula_sum   'Y2 Sc3 Tc3 P12 Ir16'
_cell_volume   544.32818910
_cell_formula_units_Z   1
loop_
 _symmetry_equiv_pos_site_id
 _symmetry_equiv_pos_as_xyz
  1  'x, y, z'
loop_
 _atom_site_type_symbol
 _atom_site_label
 _atom_site_symmetry_multiplicity
 _atom_site_fract_x
 _atom_site_fract_y
 _atom_site_fract_z
 _atom_site_occupancy
  Y  Y0  1  0.333333  0.666667  0.000000  1
  Y  Y1  1  0.666667  0.333333  0.000000  1
  Sc  Sc2  1  0.821556  0.000000  0.500000  1
  Sc  Sc3  1  0.000000  0.821556  0.500000  1
  Sc  Sc4  1  0.178444  0.178444  0.500000  1
  Tc  Tc5  1  0.455584  0.000000  0.000000  1
  Tc  Tc6  1  0.000000  0.455584  0.000000  1
  Tc  Tc7  1  0.544416  0.544416  0.000000  1
  P  P8  1  0.174144  0.000000  0.000000  1
  P  P9  1  0.000000  0.174144  0.000000  1
  P  P10  1  0.825856  0.825856  0.000000  1
  P  P11  1  0.168055  0.483744  0.500000  1
  P  P12  1  0.516256  0.684310  0.500000  1
  P  P13  1  0.315690  0.831945  0.500000  1
  P  P14  1  0.684310  0.516256  0.500000  1
  P  P15  1  0.831945  0.315690  0.500000  1
  P  P16  1  0.483744  0.168055  0.500000  1
  P  P17  1  0.641270  0.000000  0.000000  1
  P  P18  1  0.000000  0.641270  0.000000  1
  P  P19  1  0.358730  0.358730  0.000000  1
  Ir  Ir20  1  0.356898  0.488653  0.500000  1
  Ir  Ir21  1  0.511347  0.868244  0.500000  1
  Ir  Ir22  1  0.131756  0.643102  0.500000  1
  Ir  Ir23  1  0.868244  0.511347  0.500000  1
  Ir  Ir24  1  0.643102  0.131756  0.500000  1
  Ir  Ir25  1  0.488653  0.356898  0.500000  1
  Ir  Ir26  1  0.178550  0.368389  0.000000  1
  Ir  Ir27  1  0.631611  0.810162  0.000000  1
  Ir  Ir28  1  0.189838  0.821450  0.000000  1
  Ir  Ir29  1  0.810162  0.631611  0.000000  1
  Ir  Ir30  1  0.821450  0.189838  0.000000  1
  Ir  Ir31  1  0.368389  0.178550  0.000000  1
  Ir  Ir32  1  0.289260  0.000000  0.500000  1
  Ir  Ir33  1  0.000000  0.289260  0.500000  1
  Ir  Ir34  1  0.710740  0.710740  0.500000  1
  Ir  Ir35  1  0.000000  0.000000  0.000000  1
