# generated using pymatgen
data_CaDyTm6(B6Os)4
_symmetry_space_group_name_H-M   'P 1'
_cell_length_a   3.62410200
_cell_length_b   9.10016509
_cell_length_c   11.48834572
_cell_angle_alpha   89.91313835
_cell_angle_beta   90.00000000
_cell_angle_gamma   90.00000000
_symmetry_Int_Tables_number   1
_chemical_formula_structural   CaDyTm6(B6Os)4
_chemical_formula_sum   'Ca1 Dy1 Tm6 B24 Os4'
_cell_volume   378.88436212
_cell_formula_units_Z   1
loop_
 _symmetry_equiv_pos_site_id
 _symmetry_equiv_pos_as_xyz
  1  'x, y, z'
loop_
 _atom_site_type_symbol
 _atom_site_label
 _atom_site_symmetry_multiplicity
 _atom_site_fract_x
 _atom_site_fract_y
 _atom_site_fract_z
 _atom_site_occupancy
  Ca  Ca0  1  0.000000  0.678639  0.586251  1
  Dy  Dy1  1  0.000000  0.322878  0.414743  1
  Tm  Tm2  1  0.000000  0.820836  0.085129  1
  Tm  Tm3  1  0.000000  0.178471  0.913806  1
  Tm  Tm4  1  0.000000  0.942343  0.372190  1
  Tm  Tm5  1  0.000000  0.055948  0.628559  1
  Tm  Tm6  1  0.000000  0.443637  0.126879  1
  Tm  Tm7  1  0.000000  0.557026  0.871650  1
  B  B8  1  0.500000  0.553855  0.431911  1
  B  B9  1  0.500000  0.445613  0.567836  1
  B  B10  1  0.500000  0.053821  0.066646  1
  B  B11  1  0.500000  0.947095  0.934278  1
  B  B12  1  0.500000  0.748875  0.417880  1
  B  B13  1  0.500000  0.250688  0.581646  1
  B  B14  1  0.500000  0.248714  0.079980  1
  B  B15  1  0.500000  0.751932  0.920026  1
  B  B16  1  0.500000  0.791163  0.264477  1
  B  B17  1  0.500000  0.207860  0.735154  1
  B  B18  1  0.500000  0.290729  0.233244  1
  B  B19  1  0.500000  0.709947  0.767060  1
  B  B20  1  0.500000  0.631029  0.183747  1
  B  B21  1  0.500000  0.368495  0.815248  1
  B  B22  1  0.500000  0.130488  0.314569  1
  B  B23  1  0.500000  0.869953  0.686461  1
  B  B24  1  0.500000  0.982019  0.212287  1
  B  B25  1  0.500000  0.018088  0.788606  1
  B  B26  1  0.500000  0.482818  0.286187  1
  B  B27  1  0.500000  0.516792  0.713415  1
  B  B28  1  0.500000  0.606042  0.028890  1
  B  B29  1  0.500000  0.393739  0.970509  1
  B  B30  1  0.500000  0.103038  0.471562  1
  B  B31  1  0.500000  0.898261  0.528218  1
  Os  Os32  1  0.000000  0.638149  0.318583  1
  Os  Os33  1  0.000000  0.359871  0.680691  1
  Os  Os34  1  0.000000  0.136902  0.178270  1
  Os  Os35  1  0.000000  0.864245  0.823414  1
