# generated using pymatgen
data_Ho8Al9Tc7
_symmetry_space_group_name_H-M   'P 1'
_cell_length_a   5.50675047
_cell_length_b   5.49586107
_cell_length_c   17.46891100
_cell_angle_alpha   90.00000000
_cell_angle_beta   90.00000000
_cell_angle_gamma   119.71773698
_symmetry_Int_Tables_number   1
_chemical_formula_structural   Ho8Al9Tc7
_chemical_formula_sum   'Ho8 Al9 Tc7'
_cell_volume   459.15132708
_cell_formula_units_Z   1
loop_
 _symmetry_equiv_pos_site_id
 _symmetry_equiv_pos_as_xyz
  1  'x, y, z'
loop_
 _atom_site_type_symbol
 _atom_site_label
 _atom_site_symmetry_multiplicity
 _atom_site_fract_x
 _atom_site_fract_y
 _atom_site_fract_z
 _atom_site_occupancy
  Ho  Ho0  1  0.000621  0.998911  0.096873  1
  Ho  Ho1  1  0.663216  0.334281  0.152674  1
  Ho  Ho2  1  0.663216  0.334281  0.347325  1
  Ho  Ho3  1  0.000621  0.998911  0.403127  1
  Ho  Ho4  1  0.997799  0.999322  0.595851  1
  Ho  Ho5  1  0.337144  0.665042  0.654593  1
  Ho  Ho6  1  0.337144  0.665042  0.845406  1
  Ho  Ho7  1  0.997799  0.999322  0.904149  1
  Al  Al8  1  0.502289  0.007567  0.998290  1
  Al  Al9  1  0.999110  0.500615  0.999191  1
  Al  Al10  1  0.168912  0.339333  0.250000  1
  Al  Al11  1  0.169424  0.827801  0.250000  1
  Al  Al12  1  0.658436  0.828450  0.250000  1
  Al  Al13  1  0.502289  0.007567  0.501710  1
  Al  Al14  1  0.999110  0.500615  0.500809  1
  Al  Al15  1  0.323464  0.147189  0.750000  1
  Al  Al16  1  0.826386  0.153169  0.750000  1
  Tc  Tc17  1  0.500179  0.502986  0.000292  1
  Tc  Tc18  1  0.341104  0.658397  0.120038  1
  Tc  Tc19  1  0.341104  0.658397  0.379961  1
  Tc  Tc20  1  0.500179  0.502986  0.499708  1
  Tc  Tc21  1  0.672651  0.359895  0.626865  1
  Tc  Tc22  1  0.825152  0.650020  0.750000  1
  Tc  Tc23  1  0.672651  0.359895  0.873134  1
