# generated using pymatgen
data_Dy3Lu5(AlIr)2
_symmetry_space_group_name_H-M   'P 1'
_cell_length_a   9.41640530
_cell_length_b   9.41640486
_cell_length_c   9.41640500
_cell_angle_alpha   59.99999599
_cell_angle_beta   59.99999754
_cell_angle_gamma   59.99999681
_symmetry_Int_Tables_number   1
_chemical_formula_structural   Dy3Lu5(AlIr)2
_chemical_formula_sum   'Dy6 Lu10 Al4 Ir4'
_cell_volume   590.39186607
_cell_formula_units_Z   2
loop_
 _symmetry_equiv_pos_site_id
 _symmetry_equiv_pos_as_xyz
  1  'x, y, z'
loop_
 _atom_site_type_symbol
 _atom_site_label
 _atom_site_symmetry_multiplicity
 _atom_site_fract_x
 _atom_site_fract_y
 _atom_site_fract_z
 _atom_site_occupancy
  Dy  Dy0  1  0.189350  0.810650  0.810650  1
  Dy  Dy1  1  0.810650  0.189350  0.189350  1
  Dy  Dy2  1  0.810650  0.189350  0.810650  1
  Dy  Dy3  1  0.189350  0.810650  0.189350  1
  Dy  Dy4  1  0.810650  0.810650  0.189350  1
  Dy  Dy5  1  0.189350  0.189350  0.810650  1
  Lu  Lu6  1  0.601253  0.601253  0.601253  1
  Lu  Lu7  1  0.601253  0.601253  0.196239  1
  Lu  Lu8  1  0.601253  0.196239  0.601253  1
  Lu  Lu9  1  0.196239  0.601253  0.601253  1
  Lu  Lu10  1  0.055815  0.444185  0.444185  1
  Lu  Lu11  1  0.444185  0.055815  0.055815  1
  Lu  Lu12  1  0.444185  0.055815  0.444185  1
  Lu  Lu13  1  0.055815  0.444185  0.055815  1
  Lu  Lu14  1  0.444185  0.444185  0.055815  1
  Lu  Lu15  1  0.055815  0.055815  0.444185  1
  Al  Al16  1  0.827267  0.827267  0.827267  1
  Al  Al17  1  0.827267  0.827267  0.518201  1
  Al  Al18  1  0.827267  0.518201  0.827267  1
  Al  Al19  1  0.518201  0.827267  0.827267  1
  Ir  Ir20  1  0.390774  0.390774  0.390774  1
  Ir  Ir21  1  0.390774  0.390774  0.827678  1
  Ir  Ir22  1  0.390774  0.827678  0.390774  1
  Ir  Ir23  1  0.827678  0.390774  0.390774  1
