# generated using pymatgen
data_Nb12Ni8Ge3AsC2
_symmetry_space_group_name_H-M   'P 1'
_cell_length_a   8.03458667
_cell_length_b   8.04124635
_cell_length_c   8.04124600
_cell_angle_alpha   59.99999320
_cell_angle_beta   59.97257039
_cell_angle_gamma   59.97256751
_symmetry_Int_Tables_number   1
_chemical_formula_structural   Nb12Ni8Ge3AsC2
_chemical_formula_sum   'Nb12 Ni8 Ge3 As1 C2'
_cell_volume   367.21045979
_cell_formula_units_Z   1
loop_
 _symmetry_equiv_pos_site_id
 _symmetry_equiv_pos_as_xyz
  1  'x, y, z'
loop_
 _atom_site_type_symbol
 _atom_site_label
 _atom_site_symmetry_multiplicity
 _atom_site_fract_x
 _atom_site_fract_y
 _atom_site_fract_z
 _atom_site_occupancy
  Nb  Nb0  1  0.305927  0.694316  0.694316  1
  Nb  Nb1  1  0.694746  0.693960  0.305647  1
  Nb  Nb2  1  0.694746  0.305647  0.693960  1
  Nb  Nb3  1  0.305927  0.694316  0.305441  1
  Nb  Nb4  1  0.555254  0.944353  0.556040  1
  Nb  Nb5  1  0.555254  0.944353  0.944353  1
  Nb  Nb6  1  0.944073  0.555684  0.555684  1
  Nb  Nb7  1  0.944073  0.555684  0.944559  1
  Nb  Nb8  1  0.305927  0.305441  0.694316  1
  Nb  Nb9  1  0.555254  0.556040  0.944353  1
  Nb  Nb10  1  0.944073  0.944559  0.555684  1
  Nb  Nb11  1  0.694746  0.305647  0.305647  1
  Ni  Ni12  1  0.333159  0.332753  0.001336  1
  Ni  Ni13  1  0.333159  0.332753  0.332753  1
  Ni  Ni14  1  0.247796  0.917401  0.917401  1
  Ni  Ni15  1  0.916841  0.917247  0.917247  1
  Ni  Ni16  1  0.002204  0.332599  0.332599  1
  Ni  Ni17  1  0.333159  0.001336  0.332753  1
  Ni  Ni18  1  0.916841  0.917247  0.248664  1
  Ni  Ni19  1  0.916841  0.248664  0.917247  1
  Ge  Ge20  1  0.125000  0.625000  0.125000  1
  Ge  Ge21  1  0.125000  0.125000  0.625000  1
  Ge  Ge22  1  0.125000  0.125000  0.125000  1
  As  As23  1  0.625000  0.125000  0.125000  1
  C  C24  1  0.500129  0.499957  0.499957  1
  C  C25  1  0.749871  0.750043  0.750043  1
