# generated using pymatgen
data_Dy2Y6Sc11Si16Tc
_symmetry_space_group_name_H-M   'P 1'
_cell_length_a   7.02591909
_cell_length_b   7.36053327
_cell_length_c   13.91004403
_cell_angle_alpha   90.00663036
_cell_angle_beta   89.99537374
_cell_angle_gamma   90.15827733
_symmetry_Int_Tables_number   1
_chemical_formula_structural   Dy2Y6Sc11Si16Tc
_chemical_formula_sum   'Dy2 Y6 Sc11 Si16 Tc1'
_cell_volume   719.34837629
_cell_formula_units_Z   1
loop_
 _symmetry_equiv_pos_site_id
 _symmetry_equiv_pos_as_xyz
  1  'x, y, z'
loop_
 _atom_site_type_symbol
 _atom_site_label
 _atom_site_symmetry_multiplicity
 _atom_site_fract_x
 _atom_site_fract_y
 _atom_site_fract_z
 _atom_site_occupancy
  Dy  Dy0  1  0.511059  0.323863  0.404356  1
  Dy  Dy1  1  0.487816  0.672283  0.598573  1
  Y  Y2  1  0.011425  0.177066  0.093754  1
  Y  Y3  1  0.993171  0.818631  0.900658  1
  Y  Y4  1  0.487846  0.672296  0.901469  1
  Y  Y5  1  0.993155  0.818585  0.599343  1
  Y  Y6  1  0.510983  0.323896  0.095631  1
  Y  Y7  1  0.011438  0.177120  0.406252  1
  Sc  Sc8  1  0.840796  0.496655  0.250026  1
  Sc  Sc9  1  0.341340  0.003433  0.250015  1
  Sc  Sc10  1  0.657899  0.996298  0.750004  1
  Sc  Sc11  1  0.326536  0.178813  0.627475  1
  Sc  Sc12  1  0.671551  0.823812  0.374697  1
  Sc  Sc13  1  0.171736  0.674824  0.376421  1
  Sc  Sc14  1  0.671595  0.823809  0.125304  1
  Sc  Sc15  1  0.828842  0.330827  0.628352  1
  Sc  Sc16  1  0.326504  0.178807  0.872478  1
  Sc  Sc17  1  0.828902  0.330770  0.871648  1
  Sc  Sc18  1  0.171690  0.674873  0.123584  1
  Si  Si19  1  0.030007  0.120709  0.750009  1
  Si  Si20  1  0.971530  0.885215  0.249995  1
  Si  Si21  1  0.467996  0.616882  0.250029  1
  Si  Si22  1  0.520463  0.393447  0.749968  1
  Si  Si23  1  0.285680  0.864287  0.749941  1
  Si  Si24  1  0.715688  0.128507  0.250055  1
  Si  Si25  1  0.213888  0.371955  0.250017  1
  Si  Si26  1  0.795230  0.628203  0.749970  1
  Si  Si27  1  0.156351  0.465742  0.546987  1
  Si  Si28  1  0.842679  0.535572  0.463092  1
  Si  Si29  1  0.345751  0.964763  0.463391  1
  Si  Si30  1  0.842816  0.535629  0.036908  1
  Si  Si31  1  0.657440  0.034556  0.540074  1
  Si  Si32  1  0.156206  0.465664  0.953009  1
  Si  Si33  1  0.657512  0.034577  0.959900  1
  Si  Si34  1  0.345683  0.964720  0.036626  1
  Tc  Tc35  1  0.150798  0.492913  0.749991  1
