# generated using pymatgen
data_Zr3Sc(VRe3)2
_symmetry_space_group_name_H-M   'P 1'
_cell_length_a   5.25718294
_cell_length_b   5.27957483
_cell_length_c   8.65809733
_cell_angle_alpha   89.99999746
_cell_angle_beta   89.91270991
_cell_angle_gamma   120.14099707
_symmetry_Int_Tables_number   1
_chemical_formula_structural   Zr3Sc(VRe3)2
_chemical_formula_sum   'Zr3 Sc1 V2 Re6'
_cell_volume   207.81920019
_cell_formula_units_Z   1
loop_
 _symmetry_equiv_pos_site_id
 _symmetry_equiv_pos_as_xyz
  1  'x, y, z'
loop_
 _atom_site_type_symbol
 _atom_site_label
 _atom_site_symmetry_multiplicity
 _atom_site_fract_x
 _atom_site_fract_y
 _atom_site_fract_z
 _atom_site_occupancy
  Zr  Zr0  1  0.333533  0.666767  0.438987  1
  Zr  Zr1  1  0.667972  0.333986  0.940615  1
  Zr  Zr2  1  0.666083  0.333041  0.560395  1
  Sc  Sc3  1  0.332394  0.666197  0.060567  1
  V  V4  1  0.665309  0.832655  0.749664  1
  V  V5  1  0.334605  0.167302  0.250056  1
  Re  Re6  1  0.826557  0.171177  0.249586  1
  Re  Re7  1  0.173281  0.344993  0.750348  1
  Re  Re8  1  0.173281  0.828289  0.750348  1
  Re  Re9  1  0.826557  0.655379  0.249586  1
  Re  Re10  1  0.000691  0.000346  0.499819  1
  Re  Re11  1  0.999737  0.999869  0.000030  1
