# generated using pymatgen
data_HoErPb4
_symmetry_space_group_name_H-M   'P 1'
_cell_length_a   8.53216441
_cell_length_b   8.53216455
_cell_length_c   4.53447000
_cell_angle_alpha   90.00000000
_cell_angle_beta   90.00000000
_cell_angle_gamma   148.57558174
_symmetry_Int_Tables_number   1
_chemical_formula_structural   HoErPb4
_chemical_formula_sum   'Ho1 Er1 Pb4'
_cell_volume   172.10512370
_cell_formula_units_Z   1
loop_
 _symmetry_equiv_pos_site_id
 _symmetry_equiv_pos_as_xyz
  1  'x, y, z'
loop_
 _atom_site_type_symbol
 _atom_site_label
 _atom_site_symmetry_multiplicity
 _atom_site_fract_x
 _atom_site_fract_y
 _atom_site_fract_z
 _atom_site_occupancy
  Ho  Ho0  1  0.905945  0.094054  0.250000  1
  Er  Er1  1  0.094128  0.905871  0.750001  1
  Pb  Pb2  1  0.569171  0.430828  0.250000  1
  Pb  Pb3  1  0.251404  0.748595  0.250000  1
  Pb  Pb4  1  0.748424  0.251575  0.750001  1
  Pb  Pb5  1  0.430925  0.569074  0.750001  1
