# generated using pymatgen
data_Rb2ThS4
_symmetry_space_group_name_H-M   'P 1'
_cell_length_a   7.11908800
_cell_length_b   10.38166200
_cell_length_c   25.54372200
_cell_angle_alpha   90.00000000
_cell_angle_beta   90.00000000
_cell_angle_gamma   90.00000000
_symmetry_Int_Tables_number   1
_chemical_formula_structural   Rb2ThS4
_chemical_formula_sum   'Rb16 Th8 S32'
_cell_volume   1887.88452085
_cell_formula_units_Z   8
loop_
 _symmetry_equiv_pos_site_id
 _symmetry_equiv_pos_as_xyz
  1  'x, y, z'
loop_
 _atom_site_type_symbol
 _atom_site_label
 _atom_site_symmetry_multiplicity
 _atom_site_fract_x
 _atom_site_fract_y
 _atom_site_fract_z
 _atom_site_occupancy
  Rb  Rb0  1  0.299105  0.861078  0.468232  1
  Rb  Rb1  1  0.560819  0.920524  0.299847  1
  Rb  Rb2  1  0.060819  0.079476  0.200153  1
  Rb  Rb3  1  0.799105  0.638922  0.468232  1
  Rb  Rb4  1  0.060819  0.579476  0.299847  1
  Rb  Rb5  1  0.200895  0.361078  0.531768  1
  Rb  Rb6  1  0.439181  0.579476  0.799847  1
  Rb  Rb7  1  0.299105  0.361078  0.031768  1
  Rb  Rb8  1  0.939181  0.920524  0.799847  1
  Rb  Rb9  1  0.200895  0.861078  0.968232  1
  Rb  Rb10  1  0.700895  0.638922  0.968232  1
  Rb  Rb11  1  0.439181  0.079476  0.700153  1
  Rb  Rb12  1  0.799105  0.138922  0.031768  1
  Rb  Rb13  1  0.560819  0.420524  0.200153  1
  Rb  Rb14  1  0.939181  0.420524  0.700153  1
  Rb  Rb15  1  0.700895  0.138922  0.531768  1
  Th  Th16  1  0.038756  0.661347  0.129354  1
  Th  Th17  1  0.538756  0.838653  0.129354  1
  Th  Th18  1  0.461244  0.661347  0.629354  1
  Th  Th19  1  0.461244  0.161347  0.870646  1
  Th  Th20  1  0.538756  0.338653  0.370646  1
  Th  Th21  1  0.961244  0.838653  0.629354  1
  Th  Th22  1  0.961244  0.338653  0.870646  1
  Th  Th23  1  0.038756  0.161347  0.370646  1
  S  S24  1  0.047599  0.398656  0.156267  1
  S  S25  1  0.452401  0.398656  0.656267  1
  S  S26  1  0.952401  0.601344  0.843733  1
  S  S27  1  0.873539  0.433608  0.090198  1
  S  S28  1  0.771627  0.727514  0.201322  1
  S  S29  1  0.126461  0.566392  0.909802  1
  S  S30  1  0.645761  0.331051  0.935270  1
  S  S31  1  0.547599  0.601344  0.343733  1
  S  S32  1  0.126461  0.066392  0.590198  1
  S  S33  1  0.645761  0.831051  0.564730  1
  S  S34  1  0.354239  0.168949  0.435270  1
  S  S35  1  0.228373  0.272486  0.798678  1
  S  S36  1  0.047599  0.898656  0.343733  1
  S  S37  1  0.145761  0.168949  0.935270  1
  S  S38  1  0.373539  0.566392  0.409802  1
  S  S39  1  0.271627  0.272486  0.298678  1
  S  S40  1  0.728373  0.727514  0.701322  1
  S  S41  1  0.626461  0.933608  0.909802  1
  S  S42  1  0.873539  0.933608  0.409802  1
  S  S43  1  0.228373  0.772486  0.701322  1
  S  S44  1  0.771627  0.227514  0.298678  1
  S  S45  1  0.626461  0.433608  0.590198  1
  S  S46  1  0.728373  0.227514  0.798678  1
  S  S47  1  0.952401  0.101344  0.656267  1
  S  S48  1  0.854239  0.331051  0.435270  1
  S  S49  1  0.547599  0.101344  0.156267  1
  S  S50  1  0.145761  0.668949  0.564730  1
  S  S51  1  0.854239  0.831051  0.064730  1
  S  S52  1  0.354239  0.668949  0.064730  1
  S  S53  1  0.452401  0.898656  0.843733  1
  S  S54  1  0.271627  0.772486  0.201322  1
  S  S55  1  0.373539  0.066392  0.090198  1
