# generated using pymatgen
data_Tb4Ho12Cd4Ni3Os
_symmetry_space_group_name_H-M   'P 1'
_cell_length_a   9.57316756
_cell_length_b   9.57316764
_cell_length_c   9.57316749
_cell_angle_alpha   59.49572602
_cell_angle_beta   59.49572382
_cell_angle_gamma   59.49572906
_symmetry_Int_Tables_number   1
_chemical_formula_structural   Tb4Ho12Cd4Ni3Os
_chemical_formula_sum   'Tb4 Ho12 Cd4 Ni3 Os1'
_cell_volume   613.25676843
_cell_formula_units_Z   1
loop_
 _symmetry_equiv_pos_site_id
 _symmetry_equiv_pos_as_xyz
  1  'x, y, z'
loop_
 _atom_site_type_symbol
 _atom_site_label
 _atom_site_symmetry_multiplicity
 _atom_site_fract_x
 _atom_site_fract_y
 _atom_site_fract_z
 _atom_site_occupancy
  Tb  Tb0  1  0.347939  0.347939  0.347939  1
  Tb  Tb1  1  0.351382  0.351382  0.952194  1
  Tb  Tb2  1  0.351382  0.952194  0.351382  1
  Tb  Tb3  1  0.952194  0.351382  0.351382  1
  Ho  Ho4  1  0.810615  0.187951  0.187951  1
  Ho  Ho5  1  0.186361  0.811906  0.811906  1
  Ho  Ho6  1  0.187951  0.810615  0.187951  1
  Ho  Ho7  1  0.811906  0.186361  0.811906  1
  Ho  Ho8  1  0.187951  0.187951  0.810615  1
  Ho  Ho9  1  0.811906  0.811906  0.186361  1
  Ho  Ho10  1  0.935727  0.565854  0.565854  1
  Ho  Ho11  1  0.557549  0.938411  0.938411  1
  Ho  Ho12  1  0.565854  0.935727  0.565854  1
  Ho  Ho13  1  0.938411  0.557549  0.938411  1
  Ho  Ho14  1  0.565854  0.565854  0.935727  1
  Ho  Ho15  1  0.938411  0.938411  0.557549  1
  Cd  Cd16  1  0.580572  0.580572  0.580572  1
  Cd  Cd17  1  0.580432  0.580432  0.255213  1
  Cd  Cd18  1  0.580432  0.255213  0.580432  1
  Cd  Cd19  1  0.255213  0.580432  0.580432  1
  Ni  Ni20  1  0.141773  0.141773  0.575643  1
  Ni  Ni21  1  0.141773  0.575643  0.141773  1
  Ni  Ni22  1  0.575643  0.141773  0.141773  1
  Os  Os23  1  0.142768  0.142768  0.142768  1
