# generated using pymatgen
data_Pr2P7(Rh3W)3
_symmetry_space_group_name_H-M   'P 1'
_cell_length_a   3.97939904
_cell_length_b   9.59288871
_cell_length_c   9.59257501
_cell_angle_alpha   120.00142901
_cell_angle_beta   89.99755521
_cell_angle_gamma   90.00639672
_symmetry_Int_Tables_number   1
_chemical_formula_structural   Pr2P7(Rh3W)3
_chemical_formula_sum   'Pr2 P7 Rh9 W3'
_cell_volume   317.12207571
_cell_formula_units_Z   1
loop_
 _symmetry_equiv_pos_site_id
 _symmetry_equiv_pos_as_xyz
  1  'x, y, z'
loop_
 _atom_site_type_symbol
 _atom_site_label
 _atom_site_symmetry_multiplicity
 _atom_site_fract_x
 _atom_site_fract_y
 _atom_site_fract_z
 _atom_site_occupancy
  Pr  Pr0  1  0.262183  0.666638  0.333275  1
  Pr  Pr1  1  0.762049  0.333344  0.666695  1
  P  P2  1  0.261863  0.999993  0.999959  1
  P  P3  1  0.761889  0.885960  0.595761  1
  P  P4  1  0.761886  0.404219  0.290201  1
  P  P5  1  0.761882  0.709805  0.113990  1
  P  P6  1  0.261933  0.115636  0.409856  1
  P  P7  1  0.261938  0.590177  0.705806  1
  P  P8  1  0.261949  0.294226  0.884409  1
  Rh  Rh9  1  0.261884  0.887377  0.157955  1
  Rh  Rh10  1  0.261872  0.842017  0.729319  1
  Rh  Rh11  1  0.261874  0.270618  0.112697  1
  Rh  Rh12  1  0.761898  0.614697  0.564541  1
  Rh  Rh13  1  0.761870  0.435391  0.050094  1
  Rh  Rh14  1  0.761903  0.949829  0.385292  1
  Rh  Rh15  1  0.261839  0.369783  0.434826  1
  Rh  Rh16  1  0.261816  0.565242  0.935011  1
  Rh  Rh17  1  0.261813  0.065032  0.630248  1
  W  W18  1  0.761865  0.089838  0.871924  1
  W  W19  1  0.761892  0.128131  0.218035  1
  W  W20  1  0.761900  0.782048  0.910108  1
