# generated using pymatgen
data_Ce4B(Rh5Au)2
_symmetry_space_group_name_H-M   'P 1'
_cell_length_a   7.19256040
_cell_length_b   7.19230223
_cell_length_c   7.19230316
_cell_angle_alpha   108.20639730
_cell_angle_beta   110.10655394
_cell_angle_gamma   110.10655624
_symmetry_Int_Tables_number   1
_chemical_formula_structural   Ce4B(Rh5Au)2
_chemical_formula_sum   'Ce4 B1 Rh10 Au2'
_cell_volume   286.31717324
_cell_formula_units_Z   1
loop_
 _symmetry_equiv_pos_site_id
 _symmetry_equiv_pos_as_xyz
  1  'x, y, z'
loop_
 _atom_site_type_symbol
 _atom_site_label
 _atom_site_symmetry_multiplicity
 _atom_site_fract_x
 _atom_site_fract_y
 _atom_site_fract_z
 _atom_site_occupancy
  Ce  Ce0  1  0.017022  0.008511  0.508511  1
  Ce  Ce1  1  0.017022  0.508511  0.008511  1
  Ce  Ce2  1  0.486742  0.979791  0.979791  1
  Ce  Ce3  1  0.486742  0.506952  0.506952  1
  B  B4  1  0.999714  0.999857  0.999857  1
  Rh  Rh5  1  0.501290  0.250645  0.750645  1
  Rh  Rh6  1  0.250099  0.500238  0.749861  1
  Rh  Rh7  1  0.250099  0.749861  0.500238  1
  Rh  Rh8  1  0.501290  0.750645  0.250645  1
  Rh  Rh9  1  0.743459  0.742728  0.000731  1
  Rh  Rh10  1  0.257304  0.999910  0.257394  1
  Rh  Rh11  1  0.997999  0.253155  0.253155  1
  Rh  Rh12  1  0.257304  0.257394  0.999910  1
  Rh  Rh13  1  0.743459  0.000731  0.742728  1
  Rh  Rh14  1  0.997999  0.744844  0.744844  1
  Au  Au15  1  0.746229  0.247746  0.498484  1
  Au  Au16  1  0.746229  0.498484  0.247746  1
