# generated using pymatgen
data_Tl2Cr3O12
_symmetry_space_group_name_H-M   'P 1'
_cell_length_a   9.24717118
_cell_length_b   9.24716978
_cell_length_c   9.99439835
_cell_angle_alpha   117.55615500
_cell_angle_beta   62.44384351
_cell_angle_gamma   120.00000405
_symmetry_Int_Tables_number   1
_chemical_formula_structural   Tl2Cr3O12
_chemical_formula_sum   'Tl4 Cr6 O24'
_cell_volume   625.67760791
_cell_formula_units_Z   2
loop_
 _symmetry_equiv_pos_site_id
 _symmetry_equiv_pos_as_xyz
  1  'x, y, z'
loop_
 _atom_site_type_symbol
 _atom_site_label
 _atom_site_symmetry_multiplicity
 _atom_site_fract_x
 _atom_site_fract_y
 _atom_site_fract_z
 _atom_site_occupancy
  Tl  Tl0  1  0.649559  0.350442  0.051327  1
  Tl  Tl1  1  0.857528  0.142473  0.427418  1
  Tl  Tl2  1  0.142473  0.857528  0.572582  1
  Tl  Tl3  1  0.350442  0.649559  0.948673  1
  Cr  Cr4  1  0.250080  0.037235  0.248330  1
  Cr  Cr5  1  0.962764  0.461175  0.248330  1
  Cr  Cr6  1  0.538825  0.749919  0.248330  1
  Cr  Cr7  1  0.461175  0.250081  0.751670  1
  Cr  Cr8  1  0.037235  0.538825  0.751670  1
  Cr  Cr9  1  0.749919  0.962765  0.751670  1
  O  O10  1  0.156001  0.478340  0.108866  1
  O  O11  1  0.521659  0.786527  0.108866  1
  O  O12  1  0.213473  0.843998  0.108866  1
  O  O13  1  0.460006  0.166728  0.197744  1
  O  O14  1  0.833272  0.491022  0.197744  1
  O  O15  1  0.508978  0.539994  0.197744  1
  O  O16  1  0.121139  0.127751  0.268675  1
  O  O17  1  0.872248  0.262062  0.268675  1
  O  O18  1  0.737938  0.878861  0.268675  1
  O  O19  1  0.202322  0.009431  0.418809  1
  O  O20  1  0.990570  0.611700  0.418809  1
  O  O21  1  0.388300  0.797678  0.418809  1
  O  O22  1  0.611700  0.202321  0.581191  1
  O  O23  1  0.009430  0.388300  0.581191  1
  O  O24  1  0.797678  0.990569  0.581191  1
  O  O25  1  0.262062  0.121140  0.731325  1
  O  O26  1  0.127751  0.737938  0.731325  1
  O  O27  1  0.878862  0.872249  0.731325  1
  O  O28  1  0.491023  0.460006  0.802256  1
  O  O29  1  0.166727  0.508977  0.802256  1
  O  O30  1  0.539993  0.833271  0.802256  1
  O  O31  1  0.786526  0.156002  0.891134  1
  O  O32  1  0.478342  0.213474  0.891134  1
  O  O33  1  0.843998  0.521659  0.891134  1
