# generated using pymatgen
data_BaLaB2Pd3Pt3Au2
_symmetry_space_group_name_H-M   'P 1'
_cell_length_a   5.67209400
_cell_length_b   5.67209357
_cell_length_c   7.75870900
_cell_angle_alpha   90.00000000
_cell_angle_beta   90.00000000
_cell_angle_gamma   120.00000251
_symmetry_Int_Tables_number   1
_chemical_formula_structural   BaLaB2Pd3Pt3Au2
_chemical_formula_sum   'Ba1 La1 B2 Pd3 Pt3 Au2'
_cell_volume   216.17570812
_cell_formula_units_Z   1
loop_
 _symmetry_equiv_pos_site_id
 _symmetry_equiv_pos_as_xyz
  1  'x, y, z'
loop_
 _atom_site_type_symbol
 _atom_site_label
 _atom_site_symmetry_multiplicity
 _atom_site_fract_x
 _atom_site_fract_y
 _atom_site_fract_z
 _atom_site_occupancy
  Ba  Ba0  1  0.000000  0.000000  0.500543  1
  La  La1  1  0.000000  0.000000  0.000248  1
  B  B2  1  0.333521  0.673792  0.998753  1
  B  B3  1  0.666479  0.326208  0.998753  1
  Pd  Pd4  1  0.000000  0.500000  0.193332  1
  Pd  Pd5  1  0.500000  0.500000  0.189899  1
  Pd  Pd6  1  0.500000  0.500000  0.808667  1
  Pt  Pt7  1  0.500000  0.000000  0.189989  1
  Pt  Pt8  1  0.500000  0.000000  0.807851  1
  Pt  Pt9  1  0.000000  0.500000  0.813441  1
  Au  Au10  1  0.332950  0.667319  0.499262  1
  Au  Au11  1  0.667050  0.332681  0.499262  1
