# generated using pymatgen
data_Cs12Sc3FeS12
_symmetry_space_group_name_H-M   'P 1'
_cell_length_a   10.91937050
_cell_length_b   10.91937010
_cell_length_c   13.98854648
_cell_angle_alpha   89.93149572
_cell_angle_beta   89.93149414
_cell_angle_gamma   138.99352136
_symmetry_Int_Tables_number   1
_chemical_formula_structural   Cs12Sc3FeS12
_chemical_formula_sum   'Cs12 Sc3 Fe1 S12'
_cell_volume   1094.37118603
_cell_formula_units_Z   1
loop_
 _symmetry_equiv_pos_site_id
 _symmetry_equiv_pos_as_xyz
  1  'x, y, z'
loop_
 _atom_site_type_symbol
 _atom_site_label
 _atom_site_symmetry_multiplicity
 _atom_site_fract_x
 _atom_site_fract_y
 _atom_site_fract_z
 _atom_site_occupancy
  Cs  Cs0  1  0.869386  0.865450  0.673664  1
  Cs  Cs1  1  0.134550  0.130614  0.326336  1
  Cs  Cs2  1  0.627651  0.628322  0.179292  1
  Cs  Cs3  1  0.371678  0.372349  0.820708  1
  Cs  Cs4  1  0.167553  0.528993  0.132131  1
  Cs  Cs5  1  0.471007  0.832447  0.867869  1
  Cs  Cs6  1  0.974899  0.336769  0.630417  1
  Cs  Cs7  1  0.663231  0.025101  0.369583  1
  Cs  Cs8  1  0.833152  0.472828  0.867949  1
  Cs  Cs9  1  0.527172  0.166848  0.132051  1
  Cs  Cs10  1  0.009731  0.653995  0.373878  1
  Cs  Cs11  1  0.346005  0.990269  0.626122  1
  Sc  Sc12  1  0.916111  0.083889  0.000000  1
  Sc  Sc13  1  0.421846  0.578154  0.500000  1
  Sc  Sc14  1  0.083025  0.916975  0.000000  1
  Fe  Fe15  1  0.580092  0.419908  0.500000  1
  S  S16  1  0.305613  0.293519  0.568095  1
  S  S17  1  0.706481  0.694387  0.431905  1
  S  S18  1  0.202403  0.203199  0.069452  1
  S  S19  1  0.796801  0.797597  0.930548  1
  S  S20  1  0.701759  0.000735  0.119680  1
  S  S21  1  0.999265  0.298241  0.880320  1
  S  S22  1  0.499088  0.790790  0.618637  1
  S  S23  1  0.209210  0.500912  0.381363  1
  S  S24  1  0.297452  0.000122  0.880496  1
  S  S25  1  0.999878  0.702548  0.119504  1
  S  S26  1  0.511135  0.226173  0.387433  1
  S  S27  1  0.773827  0.488865  0.612567  1
