# generated using pymatgen
data_TbFeP3Rh4
_symmetry_space_group_name_H-M   'P 1'
_cell_length_a   3.86449800
_cell_length_b   10.76188900
_cell_length_c   12.43087400
_cell_angle_alpha   90.00000000
_cell_angle_beta   90.00000000
_cell_angle_gamma   90.00000000
_symmetry_Int_Tables_number   1
_chemical_formula_structural   TbFeP3Rh4
_chemical_formula_sum   'Tb4 Fe4 P12 Rh16'
_cell_volume   516.99132961
_cell_formula_units_Z   4
loop_
 _symmetry_equiv_pos_site_id
 _symmetry_equiv_pos_as_xyz
  1  'x, y, z'
loop_
 _atom_site_type_symbol
 _atom_site_label
 _atom_site_symmetry_multiplicity
 _atom_site_fract_x
 _atom_site_fract_y
 _atom_site_fract_z
 _atom_site_occupancy
  Tb  Tb0  1  0.250000  0.582775  0.709240  1
  Tb  Tb1  1  0.250000  0.917225  0.209240  1
  Tb  Tb2  1  0.750000  0.417225  0.290760  1
  Tb  Tb3  1  0.750000  0.082775  0.790760  1
  Fe  Fe4  1  0.250000  0.462074  0.933231  1
  Fe  Fe5  1  0.250000  0.037926  0.433231  1
  Fe  Fe6  1  0.750000  0.537926  0.066769  1
  Fe  Fe7  1  0.750000  0.962074  0.566769  1
  P  P8  1  0.250000  0.430157  0.105601  1
  P  P9  1  0.250000  0.069843  0.605601  1
  P  P10  1  0.750000  0.569843  0.894399  1
  P  P11  1  0.750000  0.930157  0.394399  1
  P  P12  1  0.250000  0.271141  0.870431  1
  P  P13  1  0.250000  0.228859  0.370431  1
  P  P14  1  0.750000  0.728859  0.129569  1
  P  P15  1  0.750000  0.771141  0.629569  1
  P  P16  1  0.250000  0.601203  0.389006  1
  P  P17  1  0.250000  0.898797  0.889006  1
  P  P18  1  0.750000  0.398797  0.610994  1
  P  P19  1  0.750000  0.101203  0.110994  1
  Rh  Rh20  1  0.250000  0.716519  0.990543  1
  Rh  Rh21  1  0.250000  0.783481  0.490543  1
  Rh  Rh22  1  0.750000  0.283481  0.009457  1
  Rh  Rh23  1  0.750000  0.216519  0.509457  1
  Rh  Rh24  1  0.250000  0.408473  0.479841  1
  Rh  Rh25  1  0.250000  0.091527  0.979841  1
  Rh  Rh26  1  0.750000  0.591527  0.520159  1
  Rh  Rh27  1  0.750000  0.908473  0.020159  1
  Rh  Rh28  1  0.250000  0.230680  0.175455  1
  Rh  Rh29  1  0.250000  0.269320  0.675455  1
  Rh  Rh30  1  0.750000  0.769320  0.824545  1
  Rh  Rh31  1  0.750000  0.730680  0.324545  1
  Rh  Rh32  1  0.250000  0.881920  0.700486  1
  Rh  Rh33  1  0.250000  0.618080  0.200486  1
  Rh  Rh34  1  0.750000  0.118080  0.299514  1
  Rh  Rh35  1  0.750000  0.381920  0.799514  1
