# generated using pymatgen
data_ThTe2
_symmetry_space_group_name_H-M   'P 1'
_cell_length_a   4.64760700
_cell_length_b   8.26029500
_cell_length_c   9.94701100
_cell_angle_alpha   90.00000000
_cell_angle_beta   90.00000000
_cell_angle_gamma   90.00000000
_symmetry_Int_Tables_number   1
_chemical_formula_structural   ThTe2
_chemical_formula_sum   'Th4 Te8'
_cell_volume   381.87176888
_cell_formula_units_Z   4
loop_
 _symmetry_equiv_pos_site_id
 _symmetry_equiv_pos_as_xyz
  1  'x, y, z'
loop_
 _atom_site_type_symbol
 _atom_site_label
 _atom_site_symmetry_multiplicity
 _atom_site_fract_x
 _atom_site_fract_y
 _atom_site_fract_z
 _atom_site_occupancy
  Th  Th0  1  0.250000  0.246611  0.873187  1
  Th  Th1  1  0.250000  0.746611  0.626813  1
  Th  Th2  1  0.750000  0.753389  0.126813  1
  Th  Th3  1  0.750000  0.253389  0.373187  1
  Te  Te4  1  0.250000  0.360906  0.570808  1
  Te  Te5  1  0.250000  0.860906  0.929192  1
  Te  Te6  1  0.750000  0.639094  0.429192  1
  Te  Te7  1  0.750000  0.139094  0.070808  1
  Te  Te8  1  0.250000  0.469515  0.161359  1
  Te  Te9  1  0.250000  0.969515  0.338641  1
  Te  Te10  1  0.750000  0.530485  0.838641  1
  Te  Te11  1  0.750000  0.030485  0.661359  1
