# generated using pymatgen
data_Y10HoThCo4
_symmetry_space_group_name_H-M   'P 1'
_cell_length_a   6.29726655
_cell_length_b   6.94113912
_cell_length_c   9.53651000
_cell_angle_alpha   90.00000000
_cell_angle_beta   90.00000000
_cell_angle_gamma   91.32079217
_symmetry_Int_Tables_number   1
_chemical_formula_structural   Y10HoThCo4
_chemical_formula_sum   'Y10 Ho1 Th1 Co4'
_cell_volume   416.73203894
_cell_formula_units_Z   1
loop_
 _symmetry_equiv_pos_site_id
 _symmetry_equiv_pos_as_xyz
  1  'x, y, z'
loop_
 _atom_site_type_symbol
 _atom_site_label
 _atom_site_symmetry_multiplicity
 _atom_site_fract_x
 _atom_site_fract_y
 _atom_site_fract_z
 _atom_site_occupancy
  Y  Y0  1  0.325033  0.672398  0.066517  1
  Y  Y1  1  0.174420  0.174685  0.430930  1
  Y  Y2  1  0.678671  0.326420  0.568931  1
  Y  Y3  1  0.822674  0.828333  0.929258  1
  Y  Y4  1  0.678671  0.326420  0.931069  1
  Y  Y5  1  0.822674  0.828333  0.570742  1
  Y  Y6  1  0.325033  0.672398  0.433483  1
  Y  Y7  1  0.174420  0.174685  0.069070  1
  Y  Y8  1  0.640804  0.043739  0.250000  1
  Y  Y9  1  0.357996  0.956322  0.750000  1
  Ho  Ho10  1  0.143519  0.451964  0.750000  1
  Th  Th11  1  0.846230  0.558164  0.250000  1
  Co  Co12  1  0.039968  0.869643  0.250000  1
  Co  Co13  1  0.473937  0.390913  0.250000  1
  Co  Co14  1  0.956304  0.115383  0.750000  1
  Co  Co15  1  0.539648  0.610202  0.750000  1
