# generated using pymatgen
data_Pr8ErThRu4
_symmetry_space_group_name_H-M   'P 1'
_cell_length_a   6.60320201
_cell_length_b   7.29669345
_cell_length_c   9.00273471
_cell_angle_alpha   96.29093761
_cell_angle_beta   111.51427039
_cell_angle_gamma   90.00000373
_symmetry_Int_Tables_number   1
_chemical_formula_structural   Pr8ErThRu4
_chemical_formula_sum   'Pr8 Er1 Th1 Ru4'
_cell_volume   400.73460647
_cell_formula_units_Z   1
loop_
 _symmetry_equiv_pos_site_id
 _symmetry_equiv_pos_as_xyz
  1  'x, y, z'
loop_
 _atom_site_type_symbol
 _atom_site_label
 _atom_site_symmetry_multiplicity
 _atom_site_fract_x
 _atom_site_fract_y
 _atom_site_fract_z
 _atom_site_occupancy
  Pr  Pr0  1  0.796085  0.581369  0.816748  1
  Pr  Pr1  1  0.979338  0.918631  0.183252  1
  Pr  Pr2  1  0.201047  0.412189  0.183889  1
  Pr  Pr3  1  0.017157  0.087811  0.816111  1
  Pr  Pr4  1  0.211108  0.687729  0.567822  1
  Pr  Pr5  1  0.643285  0.812271  0.432178  1
  Pr  Pr6  1  0.790583  0.314560  0.428096  1
  Pr  Pr7  1  0.362486  0.185440  0.571904  1
  Er  Er8  1  0.569952  0.250000  0.000000  1
  Th  Th9  1  0.425286  0.750000  0.000000  1
  Ru  Ru10  1  0.593902  0.927256  0.793882  1
  Ru  Ru11  1  0.800019  0.572744  0.206118  1
  Ru  Ru12  1  0.407854  0.061079  0.205958  1
  Ru  Ru13  1  0.201897  0.438921  0.794042  1
