# generated using pymatgen
data_Y4Ho4Cd2NiRu
_symmetry_space_group_name_H-M   'P 1'
_cell_length_a   9.68462171
_cell_length_b   9.61355242
_cell_length_c   9.62730959
_cell_angle_alpha   59.48105038
_cell_angle_beta   59.55283058
_cell_angle_gamma   59.69957415
_symmetry_Int_Tables_number   1
_chemical_formula_structural   Y4Ho4Cd2NiRu
_chemical_formula_sum   'Y8 Ho8 Cd4 Ni2 Ru2'
_cell_volume   627.71877876
_cell_formula_units_Z   2
loop_
 _symmetry_equiv_pos_site_id
 _symmetry_equiv_pos_as_xyz
  1  'x, y, z'
loop_
 _atom_site_type_symbol
 _atom_site_label
 _atom_site_symmetry_multiplicity
 _atom_site_fract_x
 _atom_site_fract_y
 _atom_site_fract_z
 _atom_site_occupancy
  Y  Y0  1  0.938806  0.938271  0.558625  1
  Y  Y1  1  0.811556  0.187455  0.186855  1
  Y  Y2  1  0.937627  0.563836  0.565568  1
  Y  Y3  1  0.937439  0.559037  0.937341  1
  Y  Y4  1  0.811041  0.811808  0.185774  1
  Y  Y5  1  0.344824  0.347744  0.350030  1
  Y  Y6  1  0.558240  0.941128  0.941120  1
  Y  Y7  1  0.566016  0.936308  0.562617  1
  Ho  Ho8  1  0.188810  0.810939  0.810520  1
  Ho  Ho9  1  0.188526  0.186409  0.811485  1
  Ho  Ho10  1  0.346172  0.352615  0.956396  1
  Ho  Ho11  1  0.346712  0.958376  0.352252  1
  Ho  Ho12  1  0.810059  0.186985  0.811916  1
  Ho  Ho13  1  0.565364  0.558053  0.939191  1
  Ho  Ho14  1  0.189693  0.811263  0.185987  1
  Ho  Ho15  1  0.959435  0.349320  0.349392  1
  Cd  Cd16  1  0.581160  0.578970  0.257120  1
  Cd  Cd17  1  0.258550  0.579600  0.579977  1
  Cd  Cd18  1  0.580950  0.578816  0.578486  1
  Cd  Cd19  1  0.581074  0.257401  0.578556  1
  Ni  Ni20  1  0.144473  0.576942  0.139937  1
  Ni  Ni21  1  0.138118  0.141247  0.579233  1
  Ru  Ru22  1  0.572407  0.146025  0.138988  1
  Ru  Ru23  1  0.142947  0.141461  0.142635  1
