# generated using pymatgen
data_K2Fe(TeO4)3
_symmetry_space_group_name_H-M   'P 1'
_cell_length_a   7.18997001
_cell_length_b   7.18997071
_cell_length_c   7.21392734
_cell_angle_alpha   60.75059898
_cell_angle_beta   60.75059270
_cell_angle_gamma   60.79335492
_symmetry_Int_Tables_number   1
_chemical_formula_structural   K2Fe(TeO4)3
_chemical_formula_sum   'K2 Fe1 Te3 O12'
_cell_volume   268.25065180
_cell_formula_units_Z   1
loop_
 _symmetry_equiv_pos_site_id
 _symmetry_equiv_pos_as_xyz
  1  'x, y, z'
loop_
 _atom_site_type_symbol
 _atom_site_label
 _atom_site_symmetry_multiplicity
 _atom_site_fract_x
 _atom_site_fract_y
 _atom_site_fract_z
 _atom_site_occupancy
  K  K0  1  0.832029  0.891230  0.380747  1
  K  K1  1  0.108770  0.167971  0.619253  1
  Fe  Fe2  1  0.497948  0.502052  0.000000  1
  Te  Te3  1  0.998917  0.501657  0.999776  1
  Te  Te4  1  0.498343  0.001083  0.000224  1
  Te  Te5  1  0.498078  0.501922  0.500000  1
  O  O6  1  0.171905  0.174324  0.071642  1
  O  O7  1  0.572108  0.569717  0.673462  1
  O  O8  1  0.174465  0.569386  0.072956  1
  O  O9  1  0.571539  0.174695  0.674872  1
  O  O10  1  0.569165  0.177086  0.070125  1
  O  O11  1  0.171887  0.571946  0.674462  1
  O  O12  1  0.825676  0.828095  0.928358  1
  O  O13  1  0.430283  0.427892  0.326538  1
  O  O14  1  0.822914  0.430835  0.929875  1
  O  O15  1  0.428054  0.828113  0.325538  1
  O  O16  1  0.430614  0.825535  0.927044  1
  O  O17  1  0.825305  0.428461  0.325128  1
