# generated using pymatgen
data_Cs2NaTi3F12
_symmetry_space_group_name_H-M   'P 1'
_cell_length_a   7.67927312
_cell_length_b   7.67927260
_cell_length_c   7.67927234
_cell_angle_alpha   59.84886635
_cell_angle_beta   59.84886552
_cell_angle_gamma   59.84886796
_symmetry_Int_Tables_number   1
_chemical_formula_structural   Cs2NaTi3F12
_chemical_formula_sum   'Cs2 Na1 Ti3 F12'
_cell_volume   319.11936612
_cell_formula_units_Z   1
loop_
 _symmetry_equiv_pos_site_id
 _symmetry_equiv_pos_as_xyz
  1  'x, y, z'
loop_
 _atom_site_type_symbol
 _atom_site_label
 _atom_site_symmetry_multiplicity
 _atom_site_fract_x
 _atom_site_fract_y
 _atom_site_fract_z
 _atom_site_occupancy
  Cs  Cs0  1  0.626291  0.626291  0.626291  1
  Cs  Cs1  1  0.373709  0.373709  0.373709  1
  Na  Na2  1  0.000000  0.000000  0.000000  1
  Ti  Ti3  1  0.500000  0.000000  0.000000  1
  Ti  Ti4  1  0.000000  0.500000  0.000000  1
  Ti  Ti5  1  0.000000  0.000000  0.500000  1
  F  F6  1  0.920142  0.313291  0.313291  1
  F  F7  1  0.078567  0.078567  0.643093  1
  F  F8  1  0.078567  0.643093  0.078567  1
  F  F9  1  0.921433  0.356907  0.921433  1
  F  F10  1  0.921433  0.921433  0.356907  1
  F  F11  1  0.643093  0.078567  0.078567  1
  F  F12  1  0.313291  0.313291  0.920142  1
  F  F13  1  0.313291  0.920142  0.313291  1
  F  F14  1  0.686709  0.079858  0.686709  1
  F  F15  1  0.079858  0.686709  0.686709  1
  F  F16  1  0.686709  0.686709  0.079858  1
  F  F17  1  0.356907  0.921433  0.921433  1
