# generated using pymatgen
data_Ta12Tc8B12IrRu3
_symmetry_space_group_name_H-M   'P 1'
_cell_length_a   3.16268500
_cell_length_b   9.06073745
_cell_length_c   15.66010251
_cell_angle_alpha   90.06486448
_cell_angle_beta   90.00000000
_cell_angle_gamma   90.00000000
_symmetry_Int_Tables_number   1
_chemical_formula_structural   Ta12Tc8B12IrRu3
_chemical_formula_sum   'Ta12 Tc8 B12 Ir1 Ru3'
_cell_volume   448.75965691
_cell_formula_units_Z   1
loop_
 _symmetry_equiv_pos_site_id
 _symmetry_equiv_pos_as_xyz
  1  'x, y, z'
loop_
 _atom_site_type_symbol
 _atom_site_label
 _atom_site_symmetry_multiplicity
 _atom_site_fract_x
 _atom_site_fract_y
 _atom_site_fract_z
 _atom_site_occupancy
  Ta  Ta0  1  0.000000  0.803858  0.493216  1
  Ta  Ta1  1  0.000000  0.196690  0.506457  1
  Ta  Ta2  1  0.000000  0.303645  0.006770  1
  Ta  Ta3  1  0.000000  0.696854  0.993931  1
  Ta  Ta4  1  0.000000  0.515709  0.593889  1
  Ta  Ta5  1  0.000000  0.484457  0.404374  1
  Ta  Ta6  1  0.000000  0.015418  0.904942  1
  Ta  Ta7  1  0.000000  0.984442  0.095538  1
  Ta  Ta8  1  0.000000  0.680486  0.205548  1
  Ta  Ta9  1  0.000000  0.315731  0.795796  1
  Ta  Ta10  1  0.000000  0.180653  0.294263  1
  Ta  Ta11  1  0.000000  0.821610  0.704991  1
  Tc  Tc12  1  0.500000  0.716879  0.357020  1
  Tc  Tc13  1  0.500000  0.284173  0.643413  1
  Tc  Tc14  1  0.500000  0.216836  0.142795  1
  Tc  Tc15  1  0.500000  0.782471  0.856704  1
  Tc  Tc16  1  0.500000  0.518514  0.095481  1
  Tc  Tc17  1  0.500000  0.480648  0.903325  1
  Tc  Tc18  1  0.500000  0.018635  0.404347  1
  Tc  Tc19  1  0.500000  0.981629  0.596341  1
  B  B20  1  0.500000  0.605345  0.495038  1
  B  B21  1  0.500000  0.395020  0.504146  1
  B  B22  1  0.500000  0.104815  0.004758  1
  B  B23  1  0.500000  0.894955  0.995347  1
  B  B24  1  0.000000  0.612697  0.836391  1
  B  B25  1  0.000000  0.388633  0.165685  1
  B  B26  1  0.000000  0.112304  0.665667  1
  B  B27  1  0.000000  0.888710  0.334225  1
  B  B28  1  0.500000  0.717060  0.599753  1
  B  B29  1  0.500000  0.283673  0.398996  1
  B  B30  1  0.500000  0.215407  0.899981  1
  B  B31  1  0.500000  0.783634  0.101032  1
  Ir  Ir32  1  0.500000  0.568310  0.732317  1
  Ru  Ru33  1  0.500000  0.430702  0.267359  1
  Ru  Ru34  1  0.500000  0.068655  0.767724  1
  Ru  Ru35  1  0.500000  0.930745  0.232439  1
