# generated using pymatgen
data_Rb4Na2Al3Ga(PO4)6
_symmetry_space_group_name_H-M   'P 1'
_cell_length_a   8.33589800
_cell_length_b   4.91172382
_cell_length_c   28.72906300
_cell_angle_alpha   89.50295526
_cell_angle_beta   90.00000000
_cell_angle_gamma   90.00000000
_symmetry_Int_Tables_number   1
_chemical_formula_structural   Rb4Na2Al3Ga(PO4)6
_chemical_formula_sum   'Rb8 Na4 Al6 Ga2 P12 O48'
_cell_volume   1176.22782915
_cell_formula_units_Z   2
loop_
 _symmetry_equiv_pos_site_id
 _symmetry_equiv_pos_as_xyz
  1  'x, y, z'
loop_
 _atom_site_type_symbol
 _atom_site_label
 _atom_site_symmetry_multiplicity
 _atom_site_fract_x
 _atom_site_fract_y
 _atom_site_fract_z
 _atom_site_occupancy
  Rb  Rb0  1  0.478951  0.262918  0.829150  1
  Rb  Rb1  1  0.143987  0.272842  0.952763  1
  Rb  Rb2  1  0.521095  0.738197  0.170998  1
  Rb  Rb3  1  0.021262  0.263245  0.329298  1
  Rb  Rb4  1  0.356610  0.271976  0.452609  1
  Rb  Rb5  1  0.856523  0.726890  0.047018  1
  Rb  Rb6  1  0.979406  0.736925  0.670725  1
  Rb  Rb7  1  0.643599  0.727832  0.547486  1
  Na  Na8  1  0.553709  0.222134  0.046636  1
  Na  Na9  1  0.449742  0.779255  0.953564  1
  Na  Na10  1  0.052109  0.777955  0.453187  1
  Na  Na11  1  0.947917  0.222011  0.546906  1
  Al  Al12  1  0.686132  0.810504  0.395391  1
  Al  Al13  1  0.529949  0.731923  0.707410  1
  Al  Al14  1  0.469949  0.266957  0.292997  1
  Al  Al15  1  0.969452  0.733147  0.207614  1
  Al  Al16  1  0.813999  0.810592  0.895229  1
  Al  Al17  1  0.315254  0.188794  0.604009  1
  Ga  Ga18  1  0.030025  0.268773  0.792850  1
  Ga  Ga19  1  0.184967  0.189476  0.104529  1
  P  P20  1  0.836291  0.243426  0.143467  1
  P  P21  1  0.163078  0.756327  0.858159  1
  P  P22  1  0.692442  0.301213  0.951538  1
  P  P23  1  0.339964  0.756900  0.357036  1
  P  P24  1  0.660577  0.242222  0.643160  1
  P  P25  1  0.714908  0.773598  0.290926  1
  P  P26  1  0.285637  0.225686  0.708301  1
  P  P27  1  0.309523  0.698000  0.047638  1
  P  P28  1  0.807727  0.301250  0.451649  1
  P  P29  1  0.780748  0.776667  0.790861  1
  P  P30  1  0.192333  0.698479  0.548175  1
  P  P31  1  0.215020  0.227998  0.209810  1
  O  O32  1  0.751786  0.145312  0.906921  1
  O  O33  1  0.371661  0.244051  0.237726  1
  O  O34  1  0.588882  0.577679  0.271935  1
  O  O35  1  0.709947  0.223113  0.494635  1
  O  O36  1  0.123267  0.243243  0.733794  1
  O  O37  1  0.252373  0.853703  0.592782  1
  O  O38  1  0.178755  0.767022  0.381661  1
  O  O39  1  0.910589  0.594223  0.770131  1
  O  O40  1  0.343644  0.926874  0.707761  1
  O  O41  1  0.490216  0.741924  0.041522  1
  O  O42  1  0.628418  0.533813  0.662126  1
  O  O43  1  0.747890  0.145781  0.407008  1
  O  O44  1  0.988856  0.263745  0.457779  1
  O  O45  1  0.726333  0.613112  0.939852  1
  O  O46  1  0.247830  0.833582  0.094121  1
  O  O47  1  0.738273  0.689369  0.842140  1
  O  O48  1  0.268996  0.315206  0.159256  1
  O  O49  1  0.872843  0.755237  0.263441  1
  O  O50  1  0.621754  0.752455  0.764049  1
  O  O51  1  0.354560  0.968901  0.317803  1
  O  O52  1  0.410304  0.420691  0.728249  1
  O  O53  1  0.763019  0.694323  0.342185  1
  O  O54  1  0.371643  0.465181  0.338163  1
  O  O55  1  0.673069  0.235461  0.119979  1
  O  O56  1  0.281290  0.379996  0.056485  1
  O  O57  1  0.646157  0.030103  0.682491  1
  O  O58  1  0.790130  0.223010  0.994549  1
  O  O59  1  0.821625  0.232714  0.618442  1
  O  O60  1  0.210195  0.783328  0.005396  1
  O  O61  1  0.475738  0.806719  0.395229  1
  O  O62  1  0.156064  0.929796  0.207741  1
  O  O63  1  0.656738  0.072435  0.291794  1
  O  O64  1  0.024453  0.812594  0.895038  1
  O  O65  1  0.322632  0.771597  0.883454  1
  O  O66  1  0.240543  0.307727  0.657018  1
  O  O67  1  0.011170  0.736083  0.542099  1
  O  O68  1  0.225622  0.386176  0.559666  1
  O  O69  1  0.290044  0.777201  0.505201  1
  O  O70  1  0.872516  0.533865  0.162187  1
  O  O71  1  0.774556  0.613338  0.439946  1
  O  O72  1  0.088174  0.422841  0.228728  1
  O  O73  1  0.831118  0.080241  0.792361  1
  O  O74  1  0.964980  0.191738  0.103003  1
  O  O75  1  0.525557  0.192193  0.604700  1
  O  O76  1  0.511403  0.264760  0.957727  1
  O  O77  1  0.134929  0.457679  0.841385  1
  O  O78  1  0.854129  0.030417  0.182437  1
  O  O79  1  0.152443  0.955331  0.816814  1
