# generated using pymatgen
data_Fe3Ag(NO3)8
_symmetry_space_group_name_H-M   'P 1'
_cell_length_a   7.78628268
_cell_length_b   7.78628342
_cell_length_c   7.78628370
_cell_angle_alpha   88.69791440
_cell_angle_beta   88.69791538
_cell_angle_gamma   88.69791613
_symmetry_Int_Tables_number   1
_chemical_formula_structural   Fe3Ag(NO3)8
_chemical_formula_sum   'Fe3 Ag1 N8 O24'
_cell_volume   471.69259480
_cell_formula_units_Z   1
loop_
 _symmetry_equiv_pos_site_id
 _symmetry_equiv_pos_as_xyz
  1  'x, y, z'
loop_
 _atom_site_type_symbol
 _atom_site_label
 _atom_site_symmetry_multiplicity
 _atom_site_fract_x
 _atom_site_fract_y
 _atom_site_fract_z
 _atom_site_occupancy
  Fe  Fe0  1  0.500000  0.500000  0.000000  1
  Fe  Fe1  1  0.000000  0.500000  0.500000  1
  Fe  Fe2  1  0.500000  0.000000  0.500000  1
  Ag  Ag3  1  0.000000  0.000000  0.000000  1
  N  N4  1  0.341122  0.183078  0.828598  1
  N  N5  1  0.828598  0.341122  0.183078  1
  N  N6  1  0.183078  0.828598  0.341122  1
  N  N7  1  0.676531  0.676531  0.676531  1
  N  N8  1  0.658878  0.816922  0.171402  1
  N  N9  1  0.171402  0.658878  0.816922  1
  N  N10  1  0.816922  0.171402  0.658878  1
  N  N11  1  0.323469  0.323469  0.323469  1
  O  O12  1  0.463004  0.288680  0.824293  1
  O  O13  1  0.824293  0.463004  0.288680  1
  O  O14  1  0.288680  0.824293  0.463004  1
  O  O15  1  0.226793  0.193869  0.945293  1
  O  O16  1  0.334278  0.067263  0.717729  1
  O  O17  1  0.717729  0.334278  0.067263  1
  O  O18  1  0.679106  0.559384  0.791639  1
  O  O19  1  0.193869  0.945293  0.226793  1
  O  O20  1  0.791639  0.679106  0.559384  1
  O  O21  1  0.945293  0.226793  0.193869  1
  O  O22  1  0.559384  0.791639  0.679106  1
  O  O23  1  0.067263  0.717729  0.334278  1
  O  O24  1  0.536996  0.711320  0.175707  1
  O  O25  1  0.175707  0.536996  0.711320  1
  O  O26  1  0.711320  0.175707  0.536996  1
  O  O27  1  0.773207  0.806131  0.054707  1
  O  O28  1  0.665722  0.932737  0.282271  1
  O  O29  1  0.282271  0.665722  0.932737  1
  O  O30  1  0.320894  0.440616  0.208361  1
  O  O31  1  0.806131  0.054707  0.773207  1
  O  O32  1  0.208361  0.320894  0.440616  1
  O  O33  1  0.054707  0.773207  0.806131  1
  O  O34  1  0.440616  0.208361  0.320894  1
  O  O35  1  0.932737  0.282271  0.665722  1
