# generated using pymatgen
data_Ba5CeOs3O16
_symmetry_space_group_name_H-M   'P 1'
_cell_length_a   6.08080171
_cell_length_b   6.08189684
_cell_length_c   10.65988933
_cell_angle_alpha   93.02692536
_cell_angle_beta   92.99792005
_cell_angle_gamma   89.87562780
_symmetry_Int_Tables_number   1
_chemical_formula_structural   Ba5CeOs3O16
_chemical_formula_sum   'Ba5 Ce1 Os3 O16'
_cell_volume   393.14377677
_cell_formula_units_Z   1
loop_
 _symmetry_equiv_pos_site_id
 _symmetry_equiv_pos_as_xyz
  1  'x, y, z'
loop_
 _atom_site_type_symbol
 _atom_site_label
 _atom_site_symmetry_multiplicity
 _atom_site_fract_x
 _atom_site_fract_y
 _atom_site_fract_z
 _atom_site_occupancy
  Ba  Ba0  1  0.511850  0.025664  0.205270  1
  Ba  Ba1  1  0.025812  0.511702  0.205321  1
  Ba  Ba2  1  0.000039  0.000035  0.499966  1
  Ba  Ba3  1  0.974218  0.488298  0.794728  1
  Ba  Ba4  1  0.488150  0.974365  0.794778  1
  Ce  Ce5  1  0.499997  0.499994  0.999995  1
  Os  Os6  1  0.000010  0.000010  0.000056  1
  Os  Os7  1  0.563342  0.563271  0.397449  1
  Os  Os8  1  0.436621  0.436696  0.602589  1
  O  O9  1  0.763255  0.233398  0.999660  1
  O  O10  1  0.768842  0.765811  0.020520  1
  O  O11  1  0.040823  0.041708  0.171142  1
  O  O12  1  0.482730  0.481916  0.204265  1
  O  O13  1  0.762888  0.763185  0.334606  1
  O  O14  1  0.319602  0.746676  0.373954  1
  O  O15  1  0.747661  0.320175  0.374317  1
  O  O16  1  0.327703  0.326707  0.436875  1
  O  O17  1  0.672281  0.673280  0.563084  1
  O  O18  1  0.252369  0.679818  0.625671  1
  O  O19  1  0.680388  0.253356  0.626032  1
  O  O20  1  0.237117  0.236821  0.665371  1
  O  O21  1  0.517268  0.518078  0.795744  1
  O  O22  1  0.959156  0.958268  0.828817  1
  O  O23  1  0.231148  0.234175  0.979474  1
  O  O24  1  0.236731  0.766583  0.000325  1
