# generated using pymatgen
data_Y6Er10CdAg3(PdPt)2
_symmetry_space_group_name_H-M   'P 1'
_cell_length_a   9.64153466
_cell_length_b   9.64154529
_cell_length_c   9.63294800
_cell_angle_alpha   60.02941710
_cell_angle_beta   60.02952474
_cell_angle_gamma   60.07003712
_symmetry_Int_Tables_number   1
_chemical_formula_structural   Y6Er10CdAg3(PdPt)2
_chemical_formula_sum   'Y6 Er10 Cd1 Ag3 Pd2 Pt2'
_cell_volume   633.81118181
_cell_formula_units_Z   1
loop_
 _symmetry_equiv_pos_site_id
 _symmetry_equiv_pos_as_xyz
  1  'x, y, z'
loop_
 _atom_site_type_symbol
 _atom_site_label
 _atom_site_symmetry_multiplicity
 _atom_site_fract_x
 _atom_site_fract_y
 _atom_site_fract_z
 _atom_site_occupancy
  Y  Y0  1  0.933141  0.565682  0.564178  1
  Y  Y1  1  0.564923  0.935899  0.934800  1
  Y  Y2  1  0.564981  0.935908  0.564510  1
  Y  Y3  1  0.933022  0.565851  0.936969  1
  Y  Y4  1  0.564788  0.565183  0.934989  1
  Y  Y5  1  0.933150  0.937479  0.564772  1
  Er  Er6  1  0.353677  0.353982  0.349754  1
  Er  Er7  1  0.353743  0.353956  0.942614  1
  Er  Er8  1  0.358445  0.935801  0.352874  1
  Er  Er9  1  0.933655  0.358618  0.353895  1
  Er  Er10  1  0.809995  0.188858  0.189405  1
  Er  Er11  1  0.189443  0.809606  0.812181  1
  Er  Er12  1  0.189420  0.809601  0.188669  1
  Er  Er13  1  0.810054  0.188854  0.811687  1
  Er  Er14  1  0.189974  0.189266  0.810313  1
  Er  Er15  1  0.811700  0.811294  0.188489  1
  Cd  Cd16  1  0.259049  0.578860  0.581001  1
  Ag  Ag17  1  0.582411  0.581897  0.582605  1
  Ag  Ag18  1  0.582450  0.581907  0.253045  1
  Ag  Ag19  1  0.582332  0.252343  0.582645  1
  Pd  Pd20  1  0.143902  0.143807  0.145715  1
  Pd  Pd21  1  0.143864  0.143861  0.566559  1
  Pt  Pt22  1  0.142005  0.569443  0.144280  1
  Pt  Pt23  1  0.569873  0.142044  0.144050  1
