# generated using pymatgen
data_Tb3Er9(Si3Pt)4
_symmetry_space_group_name_H-M   'P 1'
_cell_length_a   4.22851500
_cell_length_b   10.57467422
_cell_length_c   12.22870500
_cell_angle_alpha   90.08345668
_cell_angle_beta   90.00000000
_cell_angle_gamma   90.00000000
_symmetry_Int_Tables_number   1
_chemical_formula_structural   Tb3Er9(Si3Pt)4
_chemical_formula_sum   'Tb3 Er9 Si12 Pt4'
_cell_volume   546.80802516
_cell_formula_units_Z   1
loop_
 _symmetry_equiv_pos_site_id
 _symmetry_equiv_pos_as_xyz
  1  'x, y, z'
loop_
 _atom_site_type_symbol
 _atom_site_label
 _atom_site_symmetry_multiplicity
 _atom_site_fract_x
 _atom_site_fract_y
 _atom_site_fract_z
 _atom_site_occupancy
  Tb  Tb0  1  0.250000  0.840644  0.302400  1
  Tb  Tb1  1  0.750000  0.340803  0.197589  1
  Tb  Tb2  1  0.750000  0.159202  0.697651  1
  Er  Er3  1  0.250000  0.878823  0.021001  1
  Er  Er4  1  0.250000  0.620737  0.521929  1
  Er  Er5  1  0.750000  0.120700  0.978550  1
  Er  Er6  1  0.750000  0.379483  0.478946  1
  Er  Er7  1  0.250000  0.918512  0.601529  1
  Er  Er8  1  0.250000  0.581002  0.100542  1
  Er  Er9  1  0.750000  0.081207  0.398916  1
  Er  Er10  1  0.750000  0.419366  0.898757  1
  Er  Er11  1  0.250000  0.660007  0.801862  1
  Si  Si12  1  0.250000  0.014744  0.823096  1
  Si  Si13  1  0.250000  0.485361  0.322973  1
  Si  Si14  1  0.750000  0.985164  0.176880  1
  Si  Si15  1  0.750000  0.515582  0.677758  1
  Si  Si16  1  0.250000  0.245836  0.843266  1
  Si  Si17  1  0.250000  0.254278  0.343346  1
  Si  Si18  1  0.750000  0.754004  0.156157  1
  Si  Si19  1  0.750000  0.745394  0.657414  1
  Si  Si20  1  0.250000  0.194931  0.539967  1
  Si  Si21  1  0.250000  0.305101  0.039642  1
  Si  Si22  1  0.750000  0.804910  0.460478  1
  Si  Si23  1  0.750000  0.694108  0.958412  1
  Pt  Pt24  1  0.250000  0.390570  0.681325  1
  Pt  Pt25  1  0.250000  0.110399  0.180181  1
  Pt  Pt26  1  0.750000  0.610643  0.319633  1
  Pt  Pt27  1  0.750000  0.888491  0.819800  1
