# generated using pymatgen
data_YbYEr2Ni13C4
_symmetry_space_group_name_H-M   'P 1'
_cell_length_a   8.34220380
_cell_length_b   8.34220454
_cell_length_c   3.85355100
_cell_angle_alpha   90.00000000
_cell_angle_beta   90.00000000
_cell_angle_gamma   91.13586782
_symmetry_Int_Tables_number   1
_chemical_formula_structural   YbYEr2Ni13C4
_chemical_formula_sum   'Yb1 Y1 Er2 Ni13 C4'
_cell_volume   268.12505093
_cell_formula_units_Z   1
loop_
 _symmetry_equiv_pos_site_id
 _symmetry_equiv_pos_as_xyz
  1  'x, y, z'
loop_
 _atom_site_type_symbol
 _atom_site_label
 _atom_site_symmetry_multiplicity
 _atom_site_fract_x
 _atom_site_fract_y
 _atom_site_fract_z
 _atom_site_occupancy
  Yb  Yb0  1  0.652321  0.652321  0.500000  1
  Y  Y1  1  0.350738  0.350738  0.500000  1
  Er  Er2  1  0.812458  0.187909  0.500000  1
  Er  Er3  1  0.187909  0.812458  0.500000  1
  Ni  Ni4  1  0.500978  0.000766  0.500000  1
  Ni  Ni5  1  0.000766  0.500978  0.500000  1
  Ni  Ni6  1  0.000774  0.000774  0.000000  1
  Ni  Ni7  1  0.428589  0.782701  0.000000  1
  Ni  Ni8  1  0.570610  0.214112  0.000000  1
  Ni  Ni9  1  0.214112  0.570610  0.000000  1
  Ni  Ni10  1  0.782701  0.428589  0.000000  1
  Ni  Ni11  1  0.710977  0.926973  0.000000  1
  Ni  Ni12  1  0.291620  0.073251  0.000000  1
  Ni  Ni13  1  0.073251  0.291620  0.000000  1
  Ni  Ni14  1  0.926973  0.710977  0.000000  1
  Ni  Ni15  1  0.875541  0.875541  0.500000  1
  Ni  Ni16  1  0.123407  0.123407  0.500000  1
  C  C17  1  0.442458  0.555606  0.000000  1
  C  C18  1  0.555606  0.442458  0.000000  1
  C  C19  1  0.500855  0.997356  0.000000  1
  C  C20  1  0.997356  0.500855  0.000000  1
