# generated using pymatgen
data_Li3Tb4Lu(B6Os)4
_symmetry_space_group_name_H-M   'P 1'
_cell_length_a   3.56272200
_cell_length_b   8.92155372
_cell_length_c   11.29665817
_cell_angle_alpha   89.92892513
_cell_angle_beta   90.00000000
_cell_angle_gamma   90.00000000
_symmetry_Int_Tables_number   1
_chemical_formula_structural   Li3Tb4Lu(B6Os)4
_chemical_formula_sum   'Li3 Tb4 Lu1 B24 Os4'
_cell_volume   359.06418110
_cell_formula_units_Z   1
loop_
 _symmetry_equiv_pos_site_id
 _symmetry_equiv_pos_as_xyz
  1  'x, y, z'
loop_
 _atom_site_type_symbol
 _atom_site_label
 _atom_site_symmetry_multiplicity
 _atom_site_fract_x
 _atom_site_fract_y
 _atom_site_fract_z
 _atom_site_occupancy
  Li  Li0  1  0.000000  0.943095  0.371577  1
  Li  Li1  1  0.000000  0.054823  0.625342  1
  Li  Li2  1  0.000000  0.441917  0.130971  1
  Tb  Tb3  1  0.000000  0.320588  0.411213  1
  Tb  Tb4  1  0.000000  0.681989  0.581510  1
  Tb  Tb5  1  0.000000  0.823729  0.089992  1
  Tb  Tb6  1  0.000000  0.178535  0.916305  1
  Lu  Lu7  1  0.000000  0.556713  0.871343  1
  B  B8  1  0.500000  0.555187  0.431355  1
  B  B9  1  0.500000  0.444480  0.566527  1
  B  B10  1  0.500000  0.056563  0.069035  1
  B  B11  1  0.500000  0.947763  0.932610  1
  B  B12  1  0.500000  0.758263  0.416423  1
  B  B13  1  0.500000  0.240481  0.581907  1
  B  B14  1  0.500000  0.256767  0.084631  1
  B  B15  1  0.500000  0.750132  0.918287  1
  B  B16  1  0.500000  0.793783  0.264704  1
  B  B17  1  0.500000  0.203749  0.734986  1
  B  B18  1  0.500000  0.293459  0.236400  1
  B  B19  1  0.500000  0.709553  0.763301  1
  B  B20  1  0.500000  0.625663  0.183300  1
  B  B21  1  0.500000  0.368942  0.815540  1
  B  B22  1  0.500000  0.124660  0.318544  1
  B  B23  1  0.500000  0.876785  0.680203  1
  B  B24  1  0.500000  0.979274  0.214775  1
  B  B25  1  0.500000  0.020833  0.785077  1
  B  B26  1  0.500000  0.478710  0.286561  1
  B  B27  1  0.500000  0.518506  0.711856  1
  B  B28  1  0.500000  0.590734  0.030829  1
  B  B29  1  0.500000  0.404954  0.979997  1
  B  B30  1  0.500000  0.092482  0.474063  1
  B  B31  1  0.500000  0.907817  0.524209  1
  Os  Os32  1  0.000000  0.639482  0.317490  1
  Os  Os33  1  0.000000  0.357072  0.679052  1
  Os  Os34  1  0.000000  0.138961  0.183314  1
  Os  Os35  1  0.000000  0.863557  0.816771  1
