# generated using pymatgen
data_HoZr(Co5As3)2
_symmetry_space_group_name_H-M   'P 1'
_cell_length_a   3.76084000
_cell_length_b   12.15240952
_cell_length_c   10.64958040
_cell_angle_alpha   89.94025485
_cell_angle_beta   90.00000000
_cell_angle_gamma   90.00000000
_symmetry_Int_Tables_number   1
_chemical_formula_structural   HoZr(Co5As3)2
_chemical_formula_sum   'Ho2 Zr2 Co20 As12'
_cell_volume   486.72036029
_cell_formula_units_Z   2
loop_
 _symmetry_equiv_pos_site_id
 _symmetry_equiv_pos_as_xyz
  1  'x, y, z'
loop_
 _atom_site_type_symbol
 _atom_site_label
 _atom_site_symmetry_multiplicity
 _atom_site_fract_x
 _atom_site_fract_y
 _atom_site_fract_z
 _atom_site_occupancy
  Ho  Ho0  1  0.250000  0.797814  0.581908  1
  Ho  Ho1  1  0.750000  0.202186  0.418092  1
  Zr  Zr2  1  0.750000  0.700708  0.078922  1
  Zr  Zr3  1  0.250000  0.299292  0.921078  1
  Co  Co4  1  0.750000  0.696717  0.381918  1
  Co  Co5  1  0.250000  0.303283  0.618082  1
  Co  Co6  1  0.250000  0.801412  0.888131  1
  Co  Co7  1  0.750000  0.198588  0.111869  1
  Co  Co8  1  0.750000  0.993385  0.213350  1
  Co  Co9  1  0.250000  0.006615  0.786650  1
  Co  Co10  1  0.250000  0.508174  0.716135  1
  Co  Co11  1  0.750000  0.491826  0.283865  1
  Co  Co12  1  0.750000  0.678126  0.785382  1
  Co  Co13  1  0.250000  0.321874  0.214618  1
  Co  Co14  1  0.250000  0.820302  0.281350  1
  Co  Co15  1  0.750000  0.179698  0.718650  1
  Co  Co16  1  0.750000  0.930464  0.971432  1
  Co  Co17  1  0.250000  0.069536  0.028568  1
  Co  Co18  1  0.250000  0.568520  0.467712  1
  Co  Co19  1  0.750000  0.431480  0.532288  1
  Co  Co20  1  0.750000  0.988190  0.593008  1
  Co  Co21  1  0.250000  0.011810  0.406992  1
  Co  Co22  1  0.250000  0.513292  0.090350  1
  Co  Co23  1  0.750000  0.486707  0.909650  1
  As  As24  1  0.750000  0.613933  0.584967  1
  As  As25  1  0.250000  0.386067  0.415033  1
  As  As26  1  0.250000  0.884523  0.085481  1
  As  As27  1  0.750000  0.115477  0.914519  1
  As  As28  1  0.750000  0.889855  0.399100  1
  As  As29  1  0.250000  0.110145  0.600900  1
  As  As30  1  0.250000  0.610782  0.900955  1
  As  As31  1  0.750000  0.389218  0.099045  1
  As  As32  1  0.750000  0.870650  0.769751  1
  As  As33  1  0.250000  0.129350  0.230249  1
  As  As34  1  0.250000  0.629310  0.265192  1
  As  As35  1  0.750000  0.370690  0.734808  1
