# generated using pymatgen
data_YbY3Pd2(PtO7)2
_symmetry_space_group_name_H-M   'P 1'
_cell_length_a   7.25458574
_cell_length_b   7.25405395
_cell_length_c   7.27448979
_cell_angle_alpha   60.09287841
_cell_angle_beta   60.10255548
_cell_angle_gamma   60.00242658
_symmetry_Int_Tables_number   1
_chemical_formula_structural   YbY3Pd2(PtO7)2
_chemical_formula_sum   'Yb1 Y3 Pd2 Pt2 O14'
_cell_volume   271.09954819
_cell_formula_units_Z   1
loop_
 _symmetry_equiv_pos_site_id
 _symmetry_equiv_pos_as_xyz
  1  'x, y, z'
loop_
 _atom_site_type_symbol
 _atom_site_label
 _atom_site_symmetry_multiplicity
 _atom_site_fract_x
 _atom_site_fract_y
 _atom_site_fract_z
 _atom_site_occupancy
  Yb  Yb0  1  0.125000  0.125000  0.625000  1
  Y  Y1  1  0.125000  0.625000  0.125000  1
  Y  Y2  1  0.625000  0.125000  0.125000  1
  Y  Y3  1  0.125000  0.125000  0.125000  1
  Pd  Pd4  1  0.125000  0.625000  0.625000  1
  Pd  Pd5  1  0.625000  0.625000  0.125000  1
  Pt  Pt6  1  0.625000  0.625000  0.625000  1
  Pt  Pt7  1  0.625000  0.125000  0.625000  1
  O  O8  1  0.290056  0.708372  0.715067  1
  O  O9  1  0.537002  0.964377  0.963196  1
  O  O10  1  0.712998  0.714577  0.286804  1
  O  O11  1  0.290056  0.286507  0.715067  1
  O  O12  1  0.997970  0.998973  0.004084  1
  O  O13  1  0.285949  0.714134  0.285783  1
  O  O14  1  0.703165  0.290302  0.716232  1
  O  O15  1  0.964051  0.535866  0.964217  1
  O  O16  1  0.537002  0.535423  0.963196  1
  O  O17  1  0.959944  0.963493  0.534933  1
  O  O18  1  0.252030  0.251027  0.245916  1
  O  O19  1  0.546835  0.959698  0.533768  1
  O  O20  1  0.712998  0.285623  0.286804  1
  O  O21  1  0.959944  0.541628  0.534933  1
