# generated using pymatgen
data_Ce2PaS5
_symmetry_space_group_name_H-M   'P 1'
_cell_length_a   7.45910600
_cell_length_b   8.11358100
_cell_length_c   11.91554300
_cell_angle_alpha   90.00000000
_cell_angle_beta   90.00000000
_cell_angle_gamma   90.00000000
_symmetry_Int_Tables_number   1
_chemical_formula_structural   Ce2PaS5
_chemical_formula_sum   'Ce8 Pa4 S20'
_cell_volume   721.12938585
_cell_formula_units_Z   4
loop_
 _symmetry_equiv_pos_site_id
 _symmetry_equiv_pos_as_xyz
  1  'x, y, z'
loop_
 _atom_site_type_symbol
 _atom_site_label
 _atom_site_symmetry_multiplicity
 _atom_site_fract_x
 _atom_site_fract_y
 _atom_site_fract_z
 _atom_site_occupancy
  Ce  Ce0  1  0.970393  0.001032  0.323459  1
  Ce  Ce1  1  0.470393  0.998968  0.176541  1
  Ce  Ce2  1  0.529607  0.498968  0.823459  1
  Ce  Ce3  1  0.029607  0.501032  0.676541  1
  Ce  Ce4  1  0.029607  0.998968  0.676541  1
  Ce  Ce5  1  0.529607  0.001032  0.823459  1
  Ce  Ce6  1  0.470393  0.501032  0.176541  1
  Ce  Ce7  1  0.970393  0.498968  0.323459  1
  Pa  Pa8  1  0.427116  0.250000  0.492151  1
  Pa  Pa9  1  0.927116  0.750000  0.007849  1
  Pa  Pa10  1  0.072884  0.250000  0.992151  1
  Pa  Pa11  1  0.572884  0.750000  0.507849  1
  S  S12  1  0.047547  0.250000  0.498314  1
  S  S13  1  0.547547  0.750000  0.001686  1
  S  S14  1  0.452453  0.250000  0.998314  1
  S  S15  1  0.952453  0.750000  0.501686  1
  S  S16  1  0.664377  0.250000  0.312662  1
  S  S17  1  0.164377  0.750000  0.187338  1
  S  S18  1  0.835623  0.250000  0.812662  1
  S  S19  1  0.335623  0.750000  0.687338  1
  S  S20  1  0.665284  0.456997  0.593767  1
  S  S21  1  0.165284  0.543003  0.906233  1
  S  S22  1  0.834716  0.043003  0.093767  1
  S  S23  1  0.334716  0.956997  0.406233  1
  S  S24  1  0.334716  0.543003  0.406233  1
  S  S25  1  0.834716  0.456997  0.093767  1
  S  S26  1  0.165284  0.956997  0.906233  1
  S  S27  1  0.665284  0.043003  0.593767  1
  S  S28  1  0.307724  0.250000  0.714498  1
  S  S29  1  0.807724  0.750000  0.785502  1
  S  S30  1  0.192276  0.250000  0.214498  1
  S  S31  1  0.692276  0.750000  0.285502  1
