# generated using pymatgen
data_TbPr16Ho3Pb16
_symmetry_space_group_name_H-M   'P 1'
_cell_length_a   8.42239514
_cell_length_b   16.28434800
_cell_length_c   8.54538703
_cell_angle_alpha   90.00000000
_cell_angle_beta   89.98448350
_cell_angle_gamma   90.00000000
_symmetry_Int_Tables_number   1
_chemical_formula_structural   TbPr16Ho3Pb16
_chemical_formula_sum   'Tb1 Pr16 Ho3 Pb16'
_cell_volume   1172.02724867
_cell_formula_units_Z   1
loop_
 _symmetry_equiv_pos_site_id
 _symmetry_equiv_pos_as_xyz
  1  'x, y, z'
loop_
 _atom_site_type_symbol
 _atom_site_label
 _atom_site_symmetry_multiplicity
 _atom_site_fract_x
 _atom_site_fract_y
 _atom_site_fract_z
 _atom_site_occupancy
  Tb  Tb0  1  0.791551  0.750000  0.497524  1
  Pr  Pr1  1  0.622490  0.618388  0.158251  1
  Pr  Pr2  1  0.123404  0.881439  0.341890  1
  Pr  Pr3  1  0.376511  0.119187  0.841986  1
  Pr  Pr4  1  0.876815  0.380114  0.658091  1
  Pr  Pr5  1  0.376511  0.380813  0.841986  1
  Pr  Pr6  1  0.876815  0.119886  0.658091  1
  Pr  Pr7  1  0.622490  0.881612  0.158251  1
  Pr  Pr8  1  0.123404  0.618561  0.341890  1
  Pr  Pr9  1  0.468038  0.600204  0.679043  1
  Pr  Pr10  1  0.967469  0.899456  0.822484  1
  Pr  Pr11  1  0.533015  0.101434  0.321737  1
  Pr  Pr12  1  0.032682  0.399361  0.178085  1
  Pr  Pr13  1  0.533015  0.398566  0.321737  1
  Pr  Pr14  1  0.032682  0.100639  0.178085  1
  Pr  Pr15  1  0.468038  0.899796  0.679043  1
  Pr  Pr16  1  0.967469  0.600544  0.822484  1
  Ho  Ho17  1  0.291204  0.750000  0.004115  1
  Ho  Ho18  1  0.208946  0.250000  0.503020  1
  Ho  Ho19  1  0.708714  0.250000  0.996340  1
  Pb  Pb20  1  0.718679  0.453507  0.968796  1
  Pb  Pb21  1  0.218769  0.046541  0.530546  1
  Pb  Pb22  1  0.280624  0.954048  0.030361  1
  Pb  Pb23  1  0.781441  0.544446  0.468024  1
  Pb  Pb24  1  0.280624  0.545952  0.030361  1
  Pb  Pb25  1  0.781441  0.955554  0.468024  1
  Pb  Pb26  1  0.718679  0.046493  0.968796  1
  Pb  Pb27  1  0.218769  0.453459  0.530546  1
  Pb  Pb28  1  0.426645  0.750000  0.372699  1
  Pb  Pb29  1  0.929111  0.750000  0.124146  1
  Pb  Pb30  1  0.570674  0.250000  0.625492  1
  Pb  Pb31  1  0.071386  0.250000  0.874783  1
  Pb  Pb32  1  0.656805  0.750000  0.850751  1
  Pb  Pb33  1  0.160158  0.750000  0.653637  1
  Pb  Pb34  1  0.342190  0.250000  0.152430  1
  Pb  Pb35  1  0.842746  0.250000  0.346477  1
