# generated using pymatgen
data_Lu3ZnPd2
_symmetry_space_group_name_H-M   'P 1'
_cell_length_a   3.45847100
_cell_length_b   3.45847100
_cell_length_c   10.57213500
_cell_angle_alpha   90.00000000
_cell_angle_beta   90.00000000
_cell_angle_gamma   90.00000000
_symmetry_Int_Tables_number   1
_chemical_formula_structural   Lu3ZnPd2
_chemical_formula_sum   'Lu3 Zn1 Pd2'
_cell_volume   126.45353570
_cell_formula_units_Z   1
loop_
 _symmetry_equiv_pos_site_id
 _symmetry_equiv_pos_as_xyz
  1  'x, y, z'
loop_
 _atom_site_type_symbol
 _atom_site_label
 _atom_site_symmetry_multiplicity
 _atom_site_fract_x
 _atom_site_fract_y
 _atom_site_fract_z
 _atom_site_occupancy
  Lu  Lu0  1  0.499999  0.499999  0.000000  1
  Lu  Lu1  1  0.499999  0.499999  0.325911  1
  Lu  Lu2  1  0.499999  0.499999  0.674089  1
  Zn  Zn3  1  0.000000  0.000000  0.500000  1
  Pd  Pd4  1  0.000000  0.000000  0.164777  1
  Pd  Pd5  1  0.000000  0.000000  0.835223  1
