# generated using pymatgen
data_TbNi2HgPt2
_symmetry_space_group_name_H-M   'P 1'
_cell_length_a   5.42872465
_cell_length_b   5.19461005
_cell_length_c   5.19461040
_cell_angle_alpha   58.77426817
_cell_angle_beta   58.49758473
_cell_angle_gamma   58.49759492
_symmetry_Int_Tables_number   1
_chemical_formula_structural   TbNi2HgPt2
_chemical_formula_sum   'Tb1 Ni2 Hg1 Pt2'
_cell_volume   100.24161886
_cell_formula_units_Z   1
loop_
 _symmetry_equiv_pos_site_id
 _symmetry_equiv_pos_as_xyz
  1  'x, y, z'
loop_
 _atom_site_type_symbol
 _atom_site_label
 _atom_site_symmetry_multiplicity
 _atom_site_fract_x
 _atom_site_fract_y
 _atom_site_fract_z
 _atom_site_occupancy
  Tb  Tb0  1  0.998672  0.001328  0.001328  1
  Ni  Ni1  1  0.621705  0.627759  0.128831  1
  Ni  Ni2  1  0.621705  0.128831  0.627759  1
  Hg  Hg3  1  0.259452  0.240548  0.240548  1
  Pt  Pt4  1  0.124271  0.625767  0.625767  1
  Pt  Pt5  1  0.624195  0.625767  0.625767  1
