# generated using pymatgen
data_BaTc2(MoS2)4
_symmetry_space_group_name_H-M   'P 1'
_cell_length_a   6.68547125
_cell_length_b   6.66442745
_cell_length_c   6.72859226
_cell_angle_alpha   88.86236256
_cell_angle_beta   89.30057931
_cell_angle_gamma   89.07968915
_symmetry_Int_Tables_number   1
_chemical_formula_structural   BaTc2(MoS2)4
_chemical_formula_sum   'Ba1 Tc2 Mo4 S8'
_cell_volume   299.67238951
_cell_formula_units_Z   1
loop_
 _symmetry_equiv_pos_site_id
 _symmetry_equiv_pos_as_xyz
  1  'x, y, z'
loop_
 _atom_site_type_symbol
 _atom_site_label
 _atom_site_symmetry_multiplicity
 _atom_site_fract_x
 _atom_site_fract_y
 _atom_site_fract_z
 _atom_site_occupancy
  Ba  Ba0  1  0.000000  0.000000  0.000000  1
  Tc  Tc1  1  0.566568  0.416500  0.238041  1
  Tc  Tc2  1  0.433432  0.583500  0.761959  1
  Mo  Mo3  1  0.419301  0.236403  0.566108  1
  Mo  Mo4  1  0.580699  0.763597  0.433892  1
  Mo  Mo5  1  0.237025  0.562246  0.416623  1
  Mo  Mo6  1  0.762975  0.437754  0.583377  1
  S  S7  1  0.259094  0.250053  0.250708  1
  S  S8  1  0.740906  0.749947  0.749292  1
  S  S9  1  0.389140  0.723814  0.122147  1
  S  S10  1  0.610860  0.276186  0.877853  1
  S  S11  1  0.731241  0.125794  0.386580  1
  S  S12  1  0.268759  0.874206  0.613420  1
  S  S13  1  0.126488  0.388507  0.730928  1
  S  S14  1  0.873512  0.611493  0.269072  1
