# generated using pymatgen
data_Lu3UMn2As6Ru5
_symmetry_space_group_name_H-M   'P 1'
_cell_length_a   7.18273957
_cell_length_b   7.12534229
_cell_length_c   7.13619018
_cell_angle_alpha   109.47422717
_cell_angle_beta   109.79949020
_cell_angle_gamma   109.24235628
_symmetry_Int_Tables_number   1
_chemical_formula_structural   Lu3UMn2As6Ru5
_chemical_formula_sum   'Lu3 U1 Mn2 As6 Ru5'
_cell_volume   280.79054825
_cell_formula_units_Z   1
loop_
 _symmetry_equiv_pos_site_id
 _symmetry_equiv_pos_as_xyz
  1  'x, y, z'
loop_
 _atom_site_type_symbol
 _atom_site_label
 _atom_site_symmetry_multiplicity
 _atom_site_fract_x
 _atom_site_fract_y
 _atom_site_fract_z
 _atom_site_occupancy
  Lu  Lu0  1  0.008009  0.006439  0.506269  1
  Lu  Lu1  1  0.997070  0.497070  0.994140  1
  Lu  Lu2  1  0.498261  0.499830  0.506269  1
  U  U3  1  0.500963  0.000963  0.001927  1
  Mn  Mn4  1  0.741316  0.487193  0.242710  1
  Mn  Mn5  1  0.501394  0.755516  0.242710  1
  As  As6  1  0.309596  0.996333  0.311380  1
  As  As7  1  0.001785  0.315047  0.311380  1
  As  As8  1  0.991345  0.683430  0.678407  1
  As  As9  1  0.316456  0.322210  0.010006  1
  As  As10  1  0.693550  0.687796  0.010006  1
  As  As11  1  0.687062  0.994977  0.678407  1
  Ru  Ru12  1  0.502824  0.248562  0.757099  1
  Ru  Ru13  1  0.746762  0.246762  0.493523  1
  Ru  Ru14  1  0.250580  0.750580  0.501161  1
  Ru  Ru15  1  0.254275  0.508537  0.757099  1
  Ru  Ru16  1  0.998753  0.998753  0.997506  1
