# generated using pymatgen
data_La3YbSmSn4
_symmetry_space_group_name_H-M   'P 1'
_cell_length_a   8.19150700
_cell_length_b   8.53201500
_cell_length_c   16.28988300
_cell_angle_alpha   90.00000000
_cell_angle_beta   90.00000000
_cell_angle_gamma   90.00000000
_symmetry_Int_Tables_number   1
_chemical_formula_structural   La3YbSmSn4
_chemical_formula_sum   'La12 Yb4 Sm4 Sn16'
_cell_volume   1138.50090998
_cell_formula_units_Z   4
loop_
 _symmetry_equiv_pos_site_id
 _symmetry_equiv_pos_as_xyz
  1  'x, y, z'
loop_
 _atom_site_type_symbol
 _atom_site_label
 _atom_site_symmetry_multiplicity
 _atom_site_fract_x
 _atom_site_fract_y
 _atom_site_fract_z
 _atom_site_occupancy
  La  La0  1  0.350351  0.825591  0.375983  1
  La  La1  1  0.850351  0.674409  0.124017  1
  La  La2  1  0.649649  0.174409  0.875983  1
  La  La3  1  0.149649  0.325591  0.624017  1
  La  La4  1  0.495532  0.682617  0.597028  1
  La  La5  1  0.995532  0.817383  0.902972  1
  La  La6  1  0.504468  0.317383  0.097028  1
  La  La7  1  0.004468  0.182617  0.402972  1
  La  La8  1  0.505351  0.317545  0.403238  1
  La  La9  1  0.005351  0.182455  0.096762  1
  La  La10  1  0.494649  0.682455  0.903238  1
  La  La11  1  0.994649  0.817545  0.596762  1
  Yb  Yb12  1  0.818304  0.503982  0.749869  1
  Yb  Yb13  1  0.318304  0.996018  0.750131  1
  Yb  Yb14  1  0.181696  0.496018  0.249869  1
  Yb  Yb15  1  0.681696  0.003982  0.250131  1
  Sm  Sm16  1  0.650624  0.173419  0.623304  1
  Sm  Sm17  1  0.150624  0.326581  0.876696  1
  Sm  Sm18  1  0.349376  0.826581  0.123304  1
  Sm  Sm19  1  0.849376  0.673419  0.376696  1
  Sn  Sn20  1  0.687673  0.965102  0.463270  1
  Sn  Sn21  1  0.187673  0.534898  0.036730  1
  Sn  Sn22  1  0.312327  0.034898  0.963270  1
  Sn  Sn23  1  0.812327  0.465102  0.536730  1
  Sn  Sn24  1  0.318313  0.035147  0.538252  1
  Sn  Sn25  1  0.818313  0.464853  0.961748  1
  Sn  Sn26  1  0.681687  0.964853  0.038252  1
  Sn  Sn27  1  0.181687  0.535147  0.461748  1
  Sn  Sn28  1  0.449351  0.394308  0.750813  1
  Sn  Sn29  1  0.949351  0.105692  0.749187  1
  Sn  Sn30  1  0.550649  0.605692  0.250813  1
  Sn  Sn31  1  0.050649  0.894308  0.249187  1
  Sn  Sn32  1  0.691276  0.861517  0.749508  1
  Sn  Sn33  1  0.191276  0.638483  0.750492  1
  Sn  Sn34  1  0.308724  0.138483  0.249508  1
  Sn  Sn35  1  0.808724  0.361517  0.250492  1
