# generated using pymatgen
data_PrEu7Te8
_symmetry_space_group_name_H-M   'P 1'
_cell_length_a   9.24491757
_cell_length_b   9.24491840
_cell_length_c   9.24491600
_cell_angle_alpha   59.85281572
_cell_angle_beta   59.85281989
_cell_angle_gamma   59.85281756
_symmetry_Int_Tables_number   1
_chemical_formula_structural   PrEu7Te8
_chemical_formula_sum   'Pr1 Eu7 Te8'
_cell_volume   556.85368323
_cell_formula_units_Z   1
loop_
 _symmetry_equiv_pos_site_id
 _symmetry_equiv_pos_as_xyz
  1  'x, y, z'
loop_
 _atom_site_type_symbol
 _atom_site_label
 _atom_site_symmetry_multiplicity
 _atom_site_fract_x
 _atom_site_fract_y
 _atom_site_fract_z
 _atom_site_occupancy
  Pr  Pr0  1  0.625000  0.625000  0.625000  1
  Eu  Eu1  1  0.125000  0.625000  0.125000  1
  Eu  Eu2  1  0.125000  0.125000  0.625000  1
  Eu  Eu3  1  0.625000  0.125000  0.125000  1
  Eu  Eu4  1  0.125000  0.125000  0.125000  1
  Eu  Eu5  1  0.625000  0.125000  0.625000  1
  Eu  Eu6  1  0.125000  0.625000  0.625000  1
  Eu  Eu7  1  0.625000  0.625000  0.125000  1
  Te  Te8  1  0.376295  0.873692  0.376295  1
  Te  Te9  1  0.873705  0.376308  0.873705  1
  Te  Te10  1  0.873705  0.873705  0.376308  1
  Te  Te11  1  0.874986  0.874986  0.874986  1
  Te  Te12  1  0.873692  0.376295  0.376295  1
  Te  Te13  1  0.376295  0.376295  0.873692  1
  Te  Te14  1  0.375014  0.375014  0.375014  1
  Te  Te15  1  0.376308  0.873705  0.873705  1
