# generated using pymatgen
data_Sr6Sn8AsBr
_symmetry_space_group_name_H-M   'P 1'
_cell_length_a   8.96006389
_cell_length_b   8.96006401
_cell_length_c   8.96006436
_cell_angle_alpha   120.20725017
_cell_angle_beta   120.20724800
_cell_angle_gamma   89.64141045
_symmetry_Int_Tables_number   1
_chemical_formula_structural   Sr6Sn8AsBr
_chemical_formula_sum   'Sr6 Sn8 As1 Br1'
_cell_volume   507.04502736
_cell_formula_units_Z   1
loop_
 _symmetry_equiv_pos_site_id
 _symmetry_equiv_pos_as_xyz
  1  'x, y, z'
loop_
 _atom_site_type_symbol
 _atom_site_label
 _atom_site_symmetry_multiplicity
 _atom_site_fract_x
 _atom_site_fract_y
 _atom_site_fract_z
 _atom_site_occupancy
  Sr  Sr0  1  0.240330  0.240330  0.000000  1
  Sr  Sr1  1  0.759670  0.759670  0.000000  1
  Sr  Sr2  1  0.152144  0.679405  0.831551  1
  Sr  Sr3  1  0.847856  0.320595  0.168449  1
  Sr  Sr4  1  0.679405  0.847856  0.527260  1
  Sr  Sr5  1  0.320595  0.152144  0.472740  1
  Sn  Sn6  1  0.828918  0.333454  0.784007  1
  Sn  Sn7  1  0.171082  0.666546  0.215993  1
  Sn  Sn8  1  0.549447  0.044912  0.215993  1
  Sn  Sn9  1  0.333454  0.549447  0.504537  1
  Sn  Sn10  1  0.955088  0.171082  0.504537  1
  Sn  Sn11  1  0.450553  0.955088  0.784007  1
  Sn  Sn12  1  0.666546  0.450553  0.495463  1
  Sn  Sn13  1  0.044912  0.828918  0.495463  1
  As  As14  1  0.000000  0.000000  0.000000  1
  Br  Br15  1  0.500000  0.500000  0.000000  1
