# generated using pymatgen
data_Rb2La4Ag4Te9
_symmetry_space_group_name_H-M   'P 1'
_cell_length_a   8.47051612
_cell_length_b   8.47051734
_cell_length_c   18.46895900
_cell_angle_alpha   71.43231544
_cell_angle_beta   71.43231267
_cell_angle_gamma   32.02550676
_symmetry_Int_Tables_number   1
_chemical_formula_structural   Rb2La4Ag4Te9
_chemical_formula_sum   'Rb2 La4 Ag4 Te9'
_cell_volume   663.03786899
_cell_formula_units_Z   1
loop_
 _symmetry_equiv_pos_site_id
 _symmetry_equiv_pos_as_xyz
  1  'x, y, z'
loop_
 _atom_site_type_symbol
 _atom_site_label
 _atom_site_symmetry_multiplicity
 _atom_site_fract_x
 _atom_site_fract_y
 _atom_site_fract_z
 _atom_site_occupancy
  Rb  Rb0  1  0.036740  0.036740  0.728414  1
  Rb  Rb1  1  0.963260  0.963260  0.271586  1
  La  La2  1  0.229240  0.229240  0.896587  1
  La  La3  1  0.347730  0.347730  0.556989  1
  La  La4  1  0.652270  0.652270  0.443011  1
  La  La5  1  0.770760  0.770760  0.103413  1
  Ag  Ag6  1  0.423592  0.423592  0.969313  1
  Ag  Ag7  1  0.759994  0.759994  0.729333  1
  Ag  Ag8  1  0.240006  0.240006  0.270667  1
  Ag  Ag9  1  0.576408  0.576408  0.030687  1
  Te  Te10  1  0.858125  0.858125  0.919480  1
  Te  Te11  1  0.606232  0.606232  0.868109  1
  Te  Te12  1  0.360784  0.360784  0.724107  1
  Te  Te13  1  0.703414  0.703414  0.599835  1
  Te  Te14  1  0.000000  0.000000  0.500000  1
  Te  Te15  1  0.296586  0.296586  0.400165  1
  Te  Te16  1  0.639216  0.639216  0.275893  1
  Te  Te17  1  0.393768  0.393768  0.131891  1
  Te  Te18  1  0.141875  0.141875  0.080520  1
