# generated using pymatgen
data_Sr2Li6CaTa2O11
_symmetry_space_group_name_H-M   'P 1'
_cell_length_a   5.76103800
_cell_length_b   8.40776100
_cell_length_c   10.56303800
_cell_angle_alpha   90.00000000
_cell_angle_beta   90.00000000
_cell_angle_gamma   90.00000000
_symmetry_Int_Tables_number   1
_chemical_formula_structural   Sr2Li6CaTa2O11
_chemical_formula_sum   'Sr4 Li12 Ca2 Ta4 O22'
_cell_volume   511.64642022
_cell_formula_units_Z   2
loop_
 _symmetry_equiv_pos_site_id
 _symmetry_equiv_pos_as_xyz
  1  'x, y, z'
loop_
 _atom_site_type_symbol
 _atom_site_label
 _atom_site_symmetry_multiplicity
 _atom_site_fract_x
 _atom_site_fract_y
 _atom_site_fract_z
 _atom_site_occupancy
  Sr  Sr0  1  0.500000  0.260926  0.500000  1
  Sr  Sr1  1  0.500000  0.739074  0.500000  1
  Sr  Sr2  1  0.500000  0.739074  0.000000  1
  Sr  Sr3  1  0.500000  0.260926  0.000000  1
  Li  Li4  1  0.778289  0.312892  0.750000  1
  Li  Li5  1  0.221711  0.687108  0.250000  1
  Li  Li6  1  0.778289  0.687108  0.750000  1
  Li  Li7  1  0.221711  0.312892  0.250000  1
  Li  Li8  1  0.000000  0.357317  0.500000  1
  Li  Li9  1  0.000000  0.642683  0.500000  1
  Li  Li10  1  0.000000  0.642683  0.000000  1
  Li  Li11  1  0.000000  0.357317  0.000000  1
  Li  Li12  1  0.153007  0.144168  0.750000  1
  Li  Li13  1  0.846993  0.855832  0.250000  1
  Li  Li14  1  0.153007  0.855832  0.750000  1
  Li  Li15  1  0.846993  0.144168  0.250000  1
  Ca  Ca16  1  0.618652  0.000000  0.750000  1
  Ca  Ca17  1  0.381348  0.000000  0.250000  1
  Ta  Ta18  1  0.262474  0.500000  0.750000  1
  Ta  Ta19  1  0.737526  0.500000  0.250000  1
  Ta  Ta20  1  0.000000  0.000000  0.500000  1
  Ta  Ta21  1  0.000000  0.000000  0.000000  1
  O  O22  1  0.250693  0.500000  0.559599  1
  O  O23  1  0.749307  0.500000  0.440401  1
  O  O24  1  0.250693  0.500000  0.940401  1
  O  O25  1  0.749307  0.500000  0.059599  1
  O  O26  1  0.288458  0.000000  0.609357  1
  O  O27  1  0.711542  0.000000  0.390643  1
  O  O28  1  0.288458  0.000000  0.890643  1
  O  O29  1  0.711542  0.000000  0.109357  1
  O  O30  1  0.135903  0.170506  0.112591  1
  O  O31  1  0.864097  0.829494  0.887409  1
  O  O32  1  0.135903  0.829494  0.387409  1
  O  O33  1  0.864097  0.170506  0.887409  1
  O  O34  1  0.864097  0.170506  0.612591  1
  O  O35  1  0.135903  0.829494  0.112591  1
  O  O36  1  0.864097  0.829494  0.612591  1
  O  O37  1  0.135903  0.170506  0.387409  1
  O  O38  1  0.429618  0.299825  0.750000  1
  O  O39  1  0.570382  0.700175  0.250000  1
  O  O40  1  0.429618  0.700175  0.750000  1
  O  O41  1  0.570382  0.299825  0.250000  1
  O  O42  1  0.936557  0.500000  0.750000  1
  O  O43  1  0.063443  0.500000  0.250000  1
