# generated using pymatgen
data_LaY19Si15Ir
_symmetry_space_group_name_H-M   'P 1'
_cell_length_a   7.47715069
_cell_length_b   7.72452154
_cell_length_c   14.67140300
_cell_angle_alpha   89.69477301
_cell_angle_beta   89.84128058
_cell_angle_gamma   90.08628624
_symmetry_Int_Tables_number   1
_chemical_formula_structural   LaY19Si15Ir
_chemical_formula_sum   'La1 Y19 Si15 Ir1'
_cell_volume   847.36600603
_cell_formula_units_Z   1
loop_
 _symmetry_equiv_pos_site_id
 _symmetry_equiv_pos_as_xyz
  1  'x, y, z'
loop_
 _atom_site_type_symbol
 _atom_site_label
 _atom_site_symmetry_multiplicity
 _atom_site_fract_x
 _atom_site_fract_y
 _atom_site_fract_z
 _atom_site_occupancy
  La  La0  1  0.527511  0.322478  0.095035  1
  Y  Y1  1  0.145649  0.509707  0.747982  1
  Y  Y2  1  0.814761  0.333425  0.619008  1
  Y  Y3  1  0.468678  0.682864  0.898064  1
  Y  Y4  1  0.969566  0.816855  0.899509  1
  Y  Y5  1  0.180677  0.683291  0.122955  1
  Y  Y6  1  0.687736  0.822560  0.121391  1
  Y  Y7  1  0.310906  0.174005  0.874587  1
  Y  Y8  1  0.179005  0.675441  0.380163  1
  Y  Y9  1  0.032412  0.184439  0.100566  1
  Y  Y10  1  0.315741  0.177217  0.623432  1
  Y  Y11  1  0.849409  0.489468  0.258855  1
  Y  Y12  1  0.356515  0.010608  0.253341  1
  Y  Y13  1  0.533303  0.324338  0.401969  1
  Y  Y14  1  0.817908  0.318831  0.876967  1
  Y  Y15  1  0.969822  0.813081  0.597594  1
  Y  Y16  1  0.472834  0.681355  0.600174  1
  Y  Y17  1  0.031128  0.188102  0.403054  1
  Y  Y18  1  0.687033  0.813224  0.383744  1
  Y  Y19  1  0.644734  0.993903  0.748317  1
  Si  Si20  1  0.473604  0.613228  0.247688  1
  Si  Si21  1  0.237010  0.375684  0.249118  1
  Si  Si22  1  0.519498  0.395048  0.751476  1
  Si  Si23  1  0.639648  0.021991  0.955637  1
  Si  Si24  1  0.014802  0.103832  0.748270  1
  Si  Si25  1  0.762462  0.629093  0.751840  1
  Si  Si26  1  0.739195  0.122108  0.250182  1
  Si  Si27  1  0.356072  0.970097  0.461386  1
  Si  Si28  1  0.981174  0.899099  0.249927  1
  Si  Si29  1  0.353567  0.966236  0.037040  1
  Si  Si30  1  0.642289  0.027091  0.543126  1
  Si  Si31  1  0.149565  0.469094  0.959857  1
  Si  Si32  1  0.152770  0.471823  0.542097  1
  Si  Si33  1  0.863311  0.530557  0.038449  1
  Si  Si34  1  0.261933  0.870311  0.749502  1
  Ir  Ir35  1  0.857775  0.519514  0.457697  1
