# generated using pymatgen
data_Tm5Lu(AlAu)6
_symmetry_space_group_name_H-M   'P 1'
_cell_length_a   7.33326905
_cell_length_b   7.33337187
_cell_length_c   7.92229300
_cell_angle_alpha   90.00000000
_cell_angle_beta   90.00000000
_cell_angle_gamma   119.94549044
_symmetry_Int_Tables_number   1
_chemical_formula_structural   Tm5Lu(AlAu)6
_chemical_formula_sum   'Tm5 Lu1 Al6 Au6'
_cell_volume   369.16553122
_cell_formula_units_Z   1
loop_
 _symmetry_equiv_pos_site_id
 _symmetry_equiv_pos_as_xyz
  1  'x, y, z'
loop_
 _atom_site_type_symbol
 _atom_site_label
 _atom_site_symmetry_multiplicity
 _atom_site_fract_x
 _atom_site_fract_y
 _atom_site_fract_z
 _atom_site_occupancy
  Tm  Tm0  1  0.585845  0.996655  0.750000  1
  Tm  Tm1  1  0.003154  0.589102  0.750000  1
  Tm  Tm2  1  0.411230  0.414524  0.750000  1
  Tm  Tm3  1  0.996689  0.586701  0.250000  1
  Tm  Tm4  1  0.590093  0.003587  0.250000  1
  Lu  Lu5  1  0.412027  0.408566  0.250000  1
  Al  Al6  1  0.751045  0.751294  0.001931  1
  Al  Al7  1  0.248673  0.000379  0.999982  1
  Al  Al8  1  0.000630  0.248755  0.000007  1
  Al  Al9  1  0.751045  0.751294  0.498069  1
  Al  Al10  1  0.248673  0.000379  0.500018  1
  Al  Al11  1  0.000630  0.248755  0.499993  1
  Au  Au12  1  0.998982  0.998961  0.750000  1
  Au  Au13  1  0.001535  0.001549  0.250000  1
  Au  Au14  1  0.666099  0.333777  0.997427  1
  Au  Au15  1  0.666099  0.333777  0.502573  1
  Au  Au16  1  0.333777  0.665972  0.494042  1
  Au  Au17  1  0.333777  0.665972  0.005958  1
