# generated using pymatgen
data_Lu2AlCoNi
_symmetry_space_group_name_H-M   'P 1'
_cell_length_a   5.26725031
_cell_length_b   5.26725200
_cell_length_c   5.26725068
_cell_angle_alpha   134.68072126
_cell_angle_beta   118.74259563
_cell_angle_gamma   79.39535549
_symmetry_Int_Tables_number   1
_chemical_formula_structural   Lu2AlCoNi
_chemical_formula_sum   'Lu2 Al1 Co1 Ni1'
_cell_volume   88.27726445
_cell_formula_units_Z   1
loop_
 _symmetry_equiv_pos_site_id
 _symmetry_equiv_pos_as_xyz
  1  'x, y, z'
loop_
 _atom_site_type_symbol
 _atom_site_label
 _atom_site_symmetry_multiplicity
 _atom_site_fract_x
 _atom_site_fract_y
 _atom_site_fract_z
 _atom_site_occupancy
  Lu  Lu0  1  0.297670  0.799792  0.497878  1
  Lu  Lu1  1  0.698086  0.200208  0.497878  1
  Al  Al2  1  0.005289  0.000000  0.005289  1
  Co  Co3  1  0.267303  0.500000  0.767303  1
  Ni  Ni4  1  0.731651  0.500000  0.231651  1
