# generated using pymatgen
data_Cd4Ga6SO12
_symmetry_space_group_name_H-M   'P 1'
_cell_length_a   7.94086597
_cell_length_b   7.94086621
_cell_length_c   7.94086600
_cell_angle_alpha   109.47122520
_cell_angle_beta   109.47122580
_cell_angle_gamma   109.47121487
_symmetry_Int_Tables_number   1
_chemical_formula_structural   Cd4Ga6SO12
_chemical_formula_sum   'Cd4 Ga6 S1 O12'
_cell_volume   385.46211548
_cell_formula_units_Z   1
loop_
 _symmetry_equiv_pos_site_id
 _symmetry_equiv_pos_as_xyz
  1  'x, y, z'
loop_
 _atom_site_type_symbol
 _atom_site_label
 _atom_site_symmetry_multiplicity
 _atom_site_fract_x
 _atom_site_fract_y
 _atom_site_fract_z
 _atom_site_occupancy
  Cd  Cd0  1  0.676329  0.000000  0.000000  1
  Cd  Cd1  1  0.000000  0.676329  0.000000  1
  Cd  Cd2  1  0.323672  0.323672  0.323672  1
  Cd  Cd3  1  0.000000  0.000000  0.676329  1
  Ga  Ga4  1  0.750000  0.500000  0.250000  1
  Ga  Ga5  1  0.500000  0.750000  0.250000  1
  Ga  Ga6  1  0.750000  0.250000  0.500000  1
  Ga  Ga7  1  0.250000  0.750000  0.500000  1
  Ga  Ga8  1  0.500000  0.250000  0.750000  1
  Ga  Ga9  1  0.250000  0.500000  0.750000  1
  S  S10  1  0.000000  0.000000  0.000000  1
  O  O11  1  0.737324  0.456665  0.000000  1
  O  O12  1  0.456665  0.737324  0.000000  1
  O  O13  1  0.719340  0.262674  0.262674  1
  O  O14  1  0.262674  0.719340  0.262674  1
  O  O15  1  0.543334  0.543334  0.280659  1
  O  O16  1  0.737324  0.000000  0.456665  1
  O  O17  1  0.000000  0.737324  0.456665  1
  O  O18  1  0.543334  0.280659  0.543334  1
  O  O19  1  0.280659  0.543334  0.543334  1
  O  O20  1  0.262674  0.262674  0.719340  1
  O  O21  1  0.456665  0.000000  0.737324  1
  O  O22  1  0.000000  0.456665  0.737324  1
