# generated using pymatgen
data_Tm5Th(Si3Ru)8
_symmetry_space_group_name_H-M   'P 1'
_cell_length_a   10.10408110
_cell_length_b   10.10408092
_cell_length_c   8.14316971
_cell_angle_alpha   89.86633509
_cell_angle_beta   90.13366308
_cell_angle_gamma   132.57579066
_symmetry_Int_Tables_number   1
_chemical_formula_structural   Tm5Th(Si3Ru)8
_chemical_formula_sum   'Tm5 Th1 Si24 Ru8'
_cell_volume   612.19458418
_cell_formula_units_Z   1
loop_
 _symmetry_equiv_pos_site_id
 _symmetry_equiv_pos_as_xyz
  1  'x, y, z'
loop_
 _atom_site_type_symbol
 _atom_site_label
 _atom_site_symmetry_multiplicity
 _atom_site_fract_x
 _atom_site_fract_y
 _atom_site_fract_z
 _atom_site_occupancy
  Tm  Tm0  1  0.999940  0.000036  0.999498  1
  Tm  Tm1  1  0.500036  0.499940  0.500502  1
  Tm  Tm2  1  0.003068  0.503068  0.250000  1
  Tm  Tm3  1  0.996936  0.496936  0.750000  1
  Tm  Tm4  1  0.497243  0.997243  0.750000  1
  Th  Th5  1  0.503740  0.003740  0.250000  1
  Si  Si6  1  0.708675  0.297813  0.996633  1
  Si  Si7  1  0.290823  0.701277  0.996887  1
  Si  Si8  1  0.797813  0.208675  0.503367  1
  Si  Si9  1  0.201277  0.790823  0.503113  1
  Si  Si10  1  0.332225  0.333265  0.168153  1
  Si  Si11  1  0.667827  0.666979  0.832301  1
  Si  Si12  1  0.166979  0.167827  0.667699  1
  Si  Si13  1  0.833265  0.832225  0.331847  1
  Si  Si14  1  0.844596  0.611564  0.002751  1
  Si  Si15  1  0.155452  0.388371  0.996142  1
  Si  Si16  1  0.654753  0.889049  0.504869  1
  Si  Si17  1  0.111564  0.344596  0.497249  1
  Si  Si18  1  0.344261  0.110931  0.498532  1
  Si  Si19  1  0.888371  0.655452  0.503858  1
  Si  Si20  1  0.389049  0.154753  0.995131  1
  Si  Si21  1  0.610931  0.844261  0.001468  1
  Si  Si22  1  0.889358  0.124069  0.271386  1
  Si  Si23  1  0.111682  0.878504  0.728064  1
  Si  Si24  1  0.613419  0.379566  0.772053  1
  Si  Si25  1  0.624069  0.389358  0.228614  1
  Si  Si26  1  0.386112  0.620201  0.228609  1
  Si  Si27  1  0.378504  0.611682  0.771936  1
  Si  Si28  1  0.879566  0.113419  0.727947  1
  Si  Si29  1  0.120201  0.886112  0.271391  1
  Ru  Ru30  1  0.833008  0.169467  0.997532  1
  Ru  Ru31  1  0.166786  0.829801  0.997990  1
  Ru  Ru32  1  0.669467  0.333008  0.502468  1
  Ru  Ru33  1  0.329801  0.666786  0.502010  1
  Ru  Ru34  1  0.126348  0.126570  0.373241  1
  Ru  Ru35  1  0.872523  0.873763  0.625875  1
  Ru  Ru36  1  0.373763  0.372523  0.874125  1
  Ru  Ru37  1  0.626570  0.626348  0.126759  1
