# generated using pymatgen
data_Tm5ReBWC6
_symmetry_space_group_name_H-M   'P 1'
_cell_length_a   8.25983581
_cell_length_b   8.25983539
_cell_length_c   3.37687200
_cell_angle_alpha   90.00000000
_cell_angle_beta   90.00000000
_cell_angle_gamma   121.94746809
_symmetry_Int_Tables_number   1
_chemical_formula_structural   Tm5ReBWC6
_chemical_formula_sum   'Tm5 Re1 B1 W1 C6'
_cell_volume   195.49085632
_cell_formula_units_Z   1
loop_
 _symmetry_equiv_pos_site_id
 _symmetry_equiv_pos_as_xyz
  1  'x, y, z'
loop_
 _atom_site_type_symbol
 _atom_site_label
 _atom_site_symmetry_multiplicity
 _atom_site_fract_x
 _atom_site_fract_y
 _atom_site_fract_z
 _atom_site_occupancy
  Tm  Tm0  1  0.498638  0.501362  0.000000  1
  Tm  Tm1  1  0.080713  0.330021  0.500000  1
  Tm  Tm2  1  0.921883  0.671939  0.500000  1
  Tm  Tm3  1  0.669979  0.919287  0.500000  1
  Tm  Tm4  1  0.328061  0.078117  0.500000  1
  Re  Re5  1  0.286386  0.713614  0.000000  1
  B  B6  1  0.999785  0.000215  0.000000  1
  W  W7  1  0.713953  0.286047  0.000000  1
  C  C8  1  0.624637  0.375363  0.500000  1
  C  C9  1  0.373199  0.626801  0.500000  1
  C  C10  1  0.184218  0.182953  0.000000  1
  C  C11  1  0.817047  0.815782  0.000000  1
  C  C12  1  0.001122  0.499621  0.000000  1
  C  C13  1  0.500379  0.998878  0.000000  1
