# generated using pymatgen
data_Pr5Bi3O14
_symmetry_space_group_name_H-M   'P 1'
_cell_length_a   6.80047361
_cell_length_b   6.84305309
_cell_length_c   8.00361635
_cell_angle_alpha   106.69706509
_cell_angle_beta   89.70574912
_cell_angle_gamma   97.81546373
_symmetry_Int_Tables_number   1
_chemical_formula_structural   Pr5Bi3O14
_chemical_formula_sum   'Pr5 Bi3 O14'
_cell_volume   353.21264526
_cell_formula_units_Z   1
loop_
 _symmetry_equiv_pos_site_id
 _symmetry_equiv_pos_as_xyz
  1  'x, y, z'
loop_
 _atom_site_type_symbol
 _atom_site_label
 _atom_site_symmetry_multiplicity
 _atom_site_fract_x
 _atom_site_fract_y
 _atom_site_fract_z
 _atom_site_occupancy
  Pr  Pr0  1  0.456033  0.008232  0.254979  1
  Pr  Pr1  1  0.538755  0.001872  0.750193  1
  Pr  Pr2  1  0.266386  0.531445  0.881216  1
  Pr  Pr3  1  0.745153  0.462963  0.115997  1
  Pr  Pr4  1  0.753027  0.484217  0.618548  1
  Bi  Bi5  1  0.993582  0.998435  0.499773  1
  Bi  Bi6  1  0.998241  0.995160  0.997302  1
  Bi  Bi7  1  0.290455  0.539158  0.390538  1
  O  O8  1  0.443621  0.646229  0.173515  1
  O  O9  1  0.561835  0.362012  0.836573  1
  O  O10  1  0.294926  0.922094  0.953303  1
  O  O11  1  0.703786  0.072625  0.048865  1
  O  O12  1  0.289210  0.926715  0.513231  1
  O  O13  1  0.704896  0.085847  0.492933  1
  O  O14  1  0.547734  0.367514  0.346025  1
  O  O15  1  0.453952  0.638627  0.650067  1
  O  O16  1  0.926285  0.669606  0.948221  1
  O  O17  1  0.069106  0.312956  0.025341  1
  O  O18  1  0.070098  0.325125  0.624362  1
  O  O19  1  0.906308  0.675226  0.385652  1
  O  O20  1  0.883298  0.906721  0.727119  1
  O  O21  1  0.103311  0.067224  0.266244  1
