# generated using pymatgen
data_TaReOF10
_symmetry_space_group_name_H-M   'P 1'
_cell_length_a   6.72513200
_cell_length_b   8.18126546
_cell_length_c   8.20630118
_cell_angle_alpha   85.34320049
_cell_angle_beta   90.00000000
_cell_angle_gamma   90.00000000
_symmetry_Int_Tables_number   1
_chemical_formula_structural   TaReOF10
_chemical_formula_sum   'Ta2 Re2 O2 F20'
_cell_volume   450.02093926
_cell_formula_units_Z   2
loop_
 _symmetry_equiv_pos_site_id
 _symmetry_equiv_pos_as_xyz
  1  'x, y, z'
loop_
 _atom_site_type_symbol
 _atom_site_label
 _atom_site_symmetry_multiplicity
 _atom_site_fract_x
 _atom_site_fract_y
 _atom_site_fract_z
 _atom_site_occupancy
  Ta  Ta0  1  0.514173  0.327602  0.323683  1
  Ta  Ta1  1  0.514173  0.672398  0.676317  1
  Re  Re2  1  0.010169  0.806951  0.191169  1
  Re  Re3  1  0.010169  0.193049  0.808831  1
  O  O4  1  0.023725  0.344612  0.657920  1
  O  O5  1  0.023725  0.655388  0.342080  1
  F  F6  1  0.285234  0.765324  0.566014  1
  F  F7  1  0.002676  0.016406  0.682657  1
  F  F8  1  0.992683  0.000000  0.000000  1
  F  F9  1  0.347328  0.481997  0.201841  1
  F  F10  1  0.015490  0.317999  0.986162  1
  F  F11  1  0.279209  0.155343  0.838435  1
  F  F12  1  0.508473  0.500000  0.500000  1
  F  F13  1  0.737058  0.819638  0.171139  1
  F  F14  1  0.002676  0.983594  0.317343  1
  F  F15  1  0.519116  0.173724  0.166568  1
  F  F16  1  0.742522  0.555439  0.762077  1
  F  F17  1  0.279209  0.844657  0.161565  1
  F  F18  1  0.681522  0.206004  0.477591  1
  F  F19  1  0.015490  0.682001  0.013838  1
  F  F20  1  0.737058  0.180362  0.828861  1
  F  F21  1  0.519116  0.826276  0.833432  1
  F  F22  1  0.681522  0.793996  0.522409  1
  F  F23  1  0.347328  0.518003  0.798159  1
  F  F24  1  0.742522  0.444561  0.237923  1
  F  F25  1  0.285234  0.234676  0.433986  1
