# generated using pymatgen
data_Ca7La10Tb3Sn16
_symmetry_space_group_name_H-M   'P 1'
_cell_length_a   8.02688308
_cell_length_b   8.57395786
_cell_length_c   16.14308600
_cell_angle_alpha   89.94480893
_cell_angle_beta   90.00833003
_cell_angle_gamma   90.02594295
_symmetry_Int_Tables_number   1
_chemical_formula_structural   Ca7La10Tb3Sn16
_chemical_formula_sum   'Ca7 La10 Tb3 Sn16'
_cell_volume   1111.00136277
_cell_formula_units_Z   1
loop_
 _symmetry_equiv_pos_site_id
 _symmetry_equiv_pos_as_xyz
  1  'x, y, z'
loop_
 _atom_site_type_symbol
 _atom_site_label
 _atom_site_symmetry_multiplicity
 _atom_site_fract_x
 _atom_site_fract_y
 _atom_site_fract_z
 _atom_site_occupancy
  Ca  Ca0  1  0.329624  0.829350  0.878308  1
  Ca  Ca1  1  0.830698  0.670948  0.621907  1
  Ca  Ca2  1  0.670955  0.170832  0.375841  1
  Ca  Ca3  1  0.161025  0.498572  0.750147  1
  Ca  Ca4  1  0.660387  0.002502  0.749954  1
  Ca  Ca5  1  0.837559  0.498048  0.250469  1
  Ca  Ca6  1  0.338872  0.999561  0.250411  1
  La  La7  1  0.333023  0.826315  0.623982  1
  La  La8  1  0.832779  0.674851  0.876272  1
  La  La9  1  0.492372  0.315117  0.906185  1
  La  La10  1  0.992548  0.186613  0.594333  1
  La  La11  1  0.509252  0.684505  0.402906  1
  La  La12  1  0.008137  0.815298  0.096850  1
  La  La13  1  0.506465  0.683922  0.096890  1
  La  La14  1  0.005843  0.816285  0.403294  1
  La  La15  1  0.493658  0.316317  0.594179  1
  La  La16  1  0.992399  0.184473  0.905193  1
  Tb  Tb17  1  0.168508  0.326761  0.124636  1
  Tb  Tb18  1  0.668448  0.172429  0.125025  1
  Tb  Tb19  1  0.167553  0.326870  0.374312  1
  Sn  Sn20  1  0.328726  0.039031  0.040970  1
  Sn  Sn21  1  0.831629  0.463359  0.459680  1
  Sn  Sn22  1  0.673035  0.966814  0.538521  1
  Sn  Sn23  1  0.173921  0.532314  0.963802  1
  Sn  Sn24  1  0.669527  0.966625  0.964422  1
  Sn  Sn25  1  0.171002  0.533977  0.535166  1
  Sn  Sn26  1  0.327152  0.039664  0.459747  1
  Sn  Sn27  1  0.828103  0.459069  0.040670  1
  Sn  Sn28  1  0.531343  0.602862  0.749683  1
  Sn  Sn29  1  0.030712  0.898856  0.750265  1
  Sn  Sn30  1  0.466618  0.390508  0.248635  1
  Sn  Sn31  1  0.970587  0.111076  0.248526  1
  Sn  Sn32  1  0.287990  0.142287  0.749313  1
  Sn  Sn33  1  0.787596  0.358953  0.750842  1
  Sn  Sn34  1  0.711364  0.860122  0.248725  1
  Sn  Sn35  1  0.210589  0.634910  0.249938  1
