# generated using pymatgen
data_Th3HgGe2Ir2Rh
_symmetry_space_group_name_H-M   'P 1'
_cell_length_a   7.38680940
_cell_length_b   7.53540879
_cell_length_c   4.02491300
_cell_angle_alpha   90.00000000
_cell_angle_beta   90.00000000
_cell_angle_gamma   120.66759144
_symmetry_Int_Tables_number   1
_chemical_formula_structural   Th3HgGe2Ir2Rh
_chemical_formula_sum   'Th3 Hg1 Ge2 Ir2 Rh1'
_cell_volume   192.70359429
_cell_formula_units_Z   1
loop_
 _symmetry_equiv_pos_site_id
 _symmetry_equiv_pos_as_xyz
  1  'x, y, z'
loop_
 _atom_site_type_symbol
 _atom_site_label
 _atom_site_symmetry_multiplicity
 _atom_site_fract_x
 _atom_site_fract_y
 _atom_site_fract_z
 _atom_site_occupancy
  Th  Th0  1  0.000009  0.409484  0.500000  1
  Th  Th1  1  0.586918  0.585643  0.500000  1
  Th  Th2  1  0.413083  0.998717  0.500000  1
  Hg  Hg3  1  0.999994  0.752344  0.000000  1
  Ge  Ge4  1  0.248280  0.246229  0.000000  1
  Ge  Ge5  1  0.751722  0.997950  0.000000  1
  Ir  Ir6  1  0.348699  0.660975  0.000000  1
  Ir  Ir7  1  0.651295  0.312273  0.000000  1
  Rh  Rh8  1  0.000000  0.036385  0.500000  1
