# generated using pymatgen
data_Ho3GeSe2O10F
_symmetry_space_group_name_H-M   'P 1'
_cell_length_a   6.01542300
_cell_length_b   10.46143300
_cell_length_c   15.69640200
_cell_angle_alpha   90.00000000
_cell_angle_beta   90.00000000
_cell_angle_gamma   90.00000000
_symmetry_Int_Tables_number   1
_chemical_formula_structural   Ho3GeSe2O10F
_chemical_formula_sum   'Ho12 Ge4 Se8 O40 F4'
_cell_volume   987.77370955
_cell_formula_units_Z   4
loop_
 _symmetry_equiv_pos_site_id
 _symmetry_equiv_pos_as_xyz
  1  'x, y, z'
loop_
 _atom_site_type_symbol
 _atom_site_label
 _atom_site_symmetry_multiplicity
 _atom_site_fract_x
 _atom_site_fract_y
 _atom_site_fract_z
 _atom_site_occupancy
  Ho  Ho0  1  0.926425  0.886022  0.655350  1
  Ho  Ho1  1  0.073575  0.113978  0.344650  1
  Ho  Ho2  1  0.250000  0.375058  0.500000  1
  Ho  Ho3  1  0.750000  0.624942  0.500000  1
  Ho  Ho4  1  0.426425  0.113978  0.655350  1
  Ho  Ho5  1  0.426425  0.386022  0.844650  1
  Ho  Ho6  1  0.573575  0.613978  0.155350  1
  Ho  Ho7  1  0.750000  0.875058  0.000000  1
  Ho  Ho8  1  0.926425  0.613978  0.844650  1
  Ho  Ho9  1  0.073575  0.386022  0.155350  1
  Ho  Ho10  1  0.573575  0.886022  0.344650  1
  Ho  Ho11  1  0.250000  0.124942  0.000000  1
  Ge  Ge12  1  0.750000  0.357440  0.000000  1
  Ge  Ge13  1  0.250000  0.857440  0.500000  1
  Ge  Ge14  1  0.750000  0.142560  0.500000  1
  Ge  Ge15  1  0.250000  0.642560  0.000000  1
  Se  Se16  1  0.027168  0.884471  0.174227  1
  Se  Se17  1  0.972832  0.115529  0.825773  1
  Se  Se18  1  0.972832  0.384471  0.674227  1
  Se  Se19  1  0.527168  0.115529  0.174227  1
  Se  Se20  1  0.527168  0.384471  0.325773  1
  Se  Se21  1  0.472832  0.615529  0.674227  1
  Se  Se22  1  0.027168  0.615529  0.325773  1
  Se  Se23  1  0.472832  0.884471  0.825773  1
  O  O24  1  0.482488  0.984113  0.914225  1
  O  O25  1  0.982488  0.015887  0.914225  1
  O  O26  1  0.240275  0.549672  0.094808  1
  O  O27  1  0.008823  0.772440  0.531685  1
  O  O28  1  0.380419  0.032903  0.252957  1
  O  O29  1  0.740275  0.450328  0.094808  1
  O  O30  1  0.017512  0.984113  0.085775  1
  O  O31  1  0.740275  0.049672  0.405192  1
  O  O32  1  0.491177  0.727560  0.031685  1
  O  O33  1  0.991177  0.227560  0.468315  1
  O  O34  1  0.491177  0.772440  0.468315  1
  O  O35  1  0.880419  0.967097  0.252957  1
  O  O36  1  0.517512  0.015887  0.085775  1
  O  O37  1  0.819396  0.782819  0.138667  1
  O  O38  1  0.982488  0.484113  0.585775  1
  O  O39  1  0.180604  0.217181  0.861333  1
  O  O40  1  0.880419  0.532903  0.247043  1
  O  O41  1  0.759725  0.049672  0.594808  1
  O  O42  1  0.240275  0.950328  0.405192  1
  O  O43  1  0.119581  0.467097  0.752957  1
  O  O44  1  0.380419  0.467097  0.247043  1
  O  O45  1  0.508823  0.227560  0.531685  1
  O  O46  1  0.319396  0.282819  0.361333  1
  O  O47  1  0.759725  0.450328  0.905192  1
  O  O48  1  0.259725  0.549672  0.905192  1
  O  O49  1  0.319396  0.217181  0.138667  1
  O  O50  1  0.508823  0.272440  0.968315  1
  O  O51  1  0.180604  0.282819  0.638667  1
  O  O52  1  0.482488  0.515887  0.585775  1
  O  O53  1  0.008823  0.727560  0.968315  1
  O  O54  1  0.819396  0.717181  0.361333  1
  O  O55  1  0.619581  0.532903  0.752957  1
  O  O56  1  0.680604  0.782819  0.861333  1
  O  O57  1  0.517512  0.484113  0.414225  1
  O  O58  1  0.259725  0.950328  0.594808  1
  O  O59  1  0.119581  0.032903  0.747043  1
  O  O60  1  0.680604  0.717181  0.638667  1
  O  O61  1  0.017512  0.515887  0.414225  1
  O  O62  1  0.991177  0.272440  0.031685  1
  O  O63  1  0.619581  0.967097  0.747043  1
  F  F64  1  0.438709  0.750000  0.250000  1
  F  F65  1  0.938709  0.250000  0.250000  1
  F  F66  1  0.561291  0.250000  0.750000  1
  F  F67  1  0.061291  0.750000  0.750000  1
