# generated using pymatgen
data_LiAc2Si3As3Pd20
_symmetry_space_group_name_H-M   'P 1'
_cell_length_a   8.83869965
_cell_length_b   8.87849564
_cell_length_c   8.91487968
_cell_angle_alpha   59.56881221
_cell_angle_beta   60.01089125
_cell_angle_gamma   60.42029266
_symmetry_Int_Tables_number   1
_chemical_formula_structural   LiAc2Si3As3Pd20
_chemical_formula_sum   'Li1 Ac2 Si3 As3 Pd20'
_cell_volume   494.62978836
_cell_formula_units_Z   1
loop_
 _symmetry_equiv_pos_site_id
 _symmetry_equiv_pos_as_xyz
  1  'x, y, z'
loop_
 _atom_site_type_symbol
 _atom_site_label
 _atom_site_symmetry_multiplicity
 _atom_site_fract_x
 _atom_site_fract_y
 _atom_site_fract_z
 _atom_site_occupancy
  Li  Li0  1  0.999112  0.000888  0.999112  1
  Ac  Ac1  1  0.249752  0.250248  0.249752  1
  Ac  Ac2  1  0.749752  0.750248  0.749752  1
  Si  Si3  1  0.736291  0.263709  0.736291  1
  Si  Si4  1  0.263213  0.262927  0.737073  1
  Si  Si5  1  0.737073  0.736787  0.263213  1
  As  As6  1  0.738671  0.261329  0.260924  1
  As  As7  1  0.260924  0.739076  0.738671  1
  As  As8  1  0.261510  0.738490  0.261510  1
  Pd  Pd9  1  0.384897  0.383498  0.392718  1
  Pd  Pd10  1  0.617871  0.609776  0.611523  1
  Pd  Pd11  1  0.390224  0.382129  0.839169  1
  Pd  Pd12  1  0.392718  0.838885  0.384897  1
  Pd  Pd13  1  0.616502  0.615103  0.161115  1
  Pd  Pd14  1  0.611523  0.160831  0.617871  1
  Pd  Pd15  1  0.839169  0.388477  0.390224  1
  Pd  Pd16  1  0.161115  0.607282  0.616502  1
  Pd  Pd17  1  0.347835  0.006512  0.993488  1
  Pd  Pd18  1  0.656092  0.999439  0.000561  1
  Pd  Pd19  1  0.000561  0.343908  0.656092  1
  Pd  Pd20  1  0.993488  0.652165  0.347835  1
  Pd  Pd21  1  0.006054  0.347649  0.990909  1
  Pd  Pd22  1  0.652351  0.993946  0.344612  1
  Pd  Pd23  1  0.990909  0.655388  0.006054  1
  Pd  Pd24  1  0.344612  0.009091  0.652351  1
  Pd  Pd25  1  0.000831  0.999169  0.348663  1
  Pd  Pd26  1  0.992429  0.007571  0.655861  1
  Pd  Pd27  1  0.655861  0.344139  0.992429  1
  Pd  Pd28  1  0.348663  0.651337  0.000831  1
