# generated using pymatgen
data_ThAl10ReRu
_symmetry_space_group_name_H-M   'P 1'
_cell_length_a   6.91340741
_cell_length_b   6.91340943
_cell_length_c   9.23123485
_cell_angle_alpha   90.14851570
_cell_angle_beta   89.85148800
_cell_angle_gamma   96.89212001
_symmetry_Int_Tables_number   1
_chemical_formula_structural   ThAl10ReRu
_chemical_formula_sum   'Th2 Al20 Re2 Ru2'
_cell_volume   438.01799667
_cell_formula_units_Z   2
loop_
 _symmetry_equiv_pos_site_id
 _symmetry_equiv_pos_as_xyz
  1  'x, y, z'
loop_
 _atom_site_type_symbol
 _atom_site_label
 _atom_site_symmetry_multiplicity
 _atom_site_fract_x
 _atom_site_fract_y
 _atom_site_fract_z
 _atom_site_occupancy
  Th  Th0  1  0.871587  0.128413  0.752526  1
  Th  Th1  1  0.128413  0.871587  0.247474  1
  Al  Al2  1  0.773086  0.773086  0.000000  1
  Al  Al3  1  0.772550  0.772550  0.500000  1
  Al  Al4  1  0.226914  0.226914  0.000000  1
  Al  Al5  1  0.227450  0.227450  0.500000  1
  Al  Al6  1  0.621852  0.378148  0.953134  1
  Al  Al7  1  0.378148  0.621852  0.046866  1
  Al  Al8  1  0.622007  0.377993  0.547829  1
  Al  Al9  1  0.377993  0.622007  0.452171  1
  Al  Al10  1  0.840080  0.159920  0.397780  1
  Al  Al11  1  0.159920  0.840080  0.602220  1
  Al  Al12  1  0.840130  0.159870  0.102915  1
  Al  Al13  1  0.159870  0.840130  0.897085  1
  Al  Al14  1  0.408142  0.140829  0.748831  1
  Al  Al15  1  0.140829  0.408142  0.251169  1
  Al  Al16  1  0.591858  0.859171  0.251169  1
  Al  Al17  1  0.859171  0.591858  0.748831  1
  Al  Al18  1  0.517138  0.780731  0.749647  1
  Al  Al19  1  0.780731  0.517138  0.250353  1
  Al  Al20  1  0.482862  0.219269  0.250353  1
  Al  Al21  1  0.219269  0.482862  0.749647  1
  Re  Re22  1  0.500000  0.000000  0.000000  1
  Re  Re23  1  0.000000  0.500000  0.000000  1
  Ru  Ru24  1  0.500000  0.000000  0.500000  1
  Ru  Ru25  1  0.000000  0.500000  0.500000  1
