# generated using pymatgen
data_Hf6U(Fe8Si3)2
_symmetry_space_group_name_H-M   'P 1'
_cell_length_a   8.09914361
_cell_length_b   8.09914383
_cell_length_c   8.09914300
_cell_angle_alpha   59.99999933
_cell_angle_beta   59.99999840
_cell_angle_gamma   59.99999514
_symmetry_Int_Tables_number   1
_chemical_formula_structural   Hf6U(Fe8Si3)2
_chemical_formula_sum   'Hf6 U1 Fe16 Si6'
_cell_volume   375.66631708
_cell_formula_units_Z   1
loop_
 _symmetry_equiv_pos_site_id
 _symmetry_equiv_pos_as_xyz
  1  'x, y, z'
loop_
 _atom_site_type_symbol
 _atom_site_label
 _atom_site_symmetry_multiplicity
 _atom_site_fract_x
 _atom_site_fract_y
 _atom_site_fract_z
 _atom_site_occupancy
  Hf  Hf0  1  0.297335  0.702665  0.702665  1
  Hf  Hf1  1  0.702665  0.702665  0.297335  1
  Hf  Hf2  1  0.297335  0.297335  0.702665  1
  Hf  Hf3  1  0.702665  0.297335  0.297335  1
  Hf  Hf4  1  0.702665  0.297335  0.702665  1
  Hf  Hf5  1  0.297335  0.702665  0.297335  1
  U  U6  1  0.000000  0.000000  0.000000  1
  Fe  Fe7  1  0.878974  0.878974  0.878974  1
  Fe  Fe8  1  0.027080  0.324306  0.324306  1
  Fe  Fe9  1  0.121026  0.121026  0.636920  1
  Fe  Fe10  1  0.324306  0.027080  0.324306  1
  Fe  Fe11  1  0.324306  0.324306  0.324306  1
  Fe  Fe12  1  0.675694  0.675694  0.972920  1
  Fe  Fe13  1  0.878974  0.878974  0.363080  1
  Fe  Fe14  1  0.675694  0.675694  0.675694  1
  Fe  Fe15  1  0.675694  0.972920  0.675694  1
  Fe  Fe16  1  0.324306  0.324306  0.027080  1
  Fe  Fe17  1  0.878974  0.363080  0.878974  1
  Fe  Fe18  1  0.636920  0.121026  0.121026  1
  Fe  Fe19  1  0.121026  0.636920  0.121026  1
  Fe  Fe20  1  0.121026  0.121026  0.121026  1
  Fe  Fe21  1  0.972920  0.675694  0.675694  1
  Fe  Fe22  1  0.363080  0.878974  0.878974  1
  Si  Si23  1  0.000000  0.000000  0.500000  1
  Si  Si24  1  0.000000  0.500000  0.000000  1
  Si  Si25  1  0.500000  0.000000  0.500000  1
  Si  Si26  1  0.000000  0.500000  0.500000  1
  Si  Si27  1  0.500000  0.000000  0.000000  1
  Si  Si28  1  0.500000  0.500000  0.000000  1
