# generated using pymatgen
data_Gd2MnTc3
_symmetry_space_group_name_H-M   'P 1'
_cell_length_a   5.51264340
_cell_length_b   5.51264472
_cell_length_c   5.51264200
_cell_angle_alpha   57.43216872
_cell_angle_beta   57.43216000
_cell_angle_gamma   57.43216599
_symmetry_Int_Tables_number   1
_chemical_formula_structural   Gd2MnTc3
_chemical_formula_sum   'Gd2 Mn1 Tc3'
_cell_volume   111.45963854
_cell_formula_units_Z   1
loop_
 _symmetry_equiv_pos_site_id
 _symmetry_equiv_pos_as_xyz
  1  'x, y, z'
loop_
 _atom_site_type_symbol
 _atom_site_label
 _atom_site_symmetry_multiplicity
 _atom_site_fract_x
 _atom_site_fract_y
 _atom_site_fract_z
 _atom_site_occupancy
  Gd  Gd0  1  0.122882  0.122882  0.122882  1
  Gd  Gd1  1  0.877118  0.877118  0.877118  1
  Mn  Mn2  1  0.500000  0.500000  0.500000  1
  Tc  Tc3  1  0.500000  0.000000  0.500000  1
  Tc  Tc4  1  0.000000  0.500000  0.500000  1
  Tc  Tc5  1  0.500000  0.500000  0.000000  1
