# generated using pymatgen
data_Li(ThSi)2
_symmetry_space_group_name_H-M   'P 1'
_cell_length_a   7.34705600
_cell_length_b   7.34705600
_cell_length_c   4.31195800
_cell_angle_alpha   90.00000000
_cell_angle_beta   90.00000000
_cell_angle_gamma   90.00000000
_symmetry_Int_Tables_number   1
_chemical_formula_structural   Li(ThSi)2
_chemical_formula_sum   'Li2 Th4 Si4'
_cell_volume   232.75618068
_cell_formula_units_Z   2
loop_
 _symmetry_equiv_pos_site_id
 _symmetry_equiv_pos_as_xyz
  1  'x, y, z'
loop_
 _atom_site_type_symbol
 _atom_site_label
 _atom_site_symmetry_multiplicity
 _atom_site_fract_x
 _atom_site_fract_y
 _atom_site_fract_z
 _atom_site_occupancy
  Li  Li0  1  0.000000  0.000000  0.000000  1
  Li  Li1  1  0.500000  0.500000  0.000000  1
  Th  Th2  1  0.819340  0.680660  0.500000  1
  Th  Th3  1  0.180660  0.319340  0.500000  1
  Th  Th4  1  0.680660  0.180660  0.500000  1
  Th  Th5  1  0.319340  0.819340  0.500000  1
  Si  Si6  1  0.615813  0.884187  0.000000  1
  Si  Si7  1  0.384187  0.115813  0.000000  1
  Si  Si8  1  0.884187  0.384187  0.000000  1
  Si  Si9  1  0.115813  0.615813  0.000000  1
