# generated using pymatgen
data_Nd2Ho2Zn10SiSn
_symmetry_space_group_name_H-M   'P 1'
_cell_length_a   8.37002041
_cell_length_b   8.37002053
_cell_length_c   8.89767200
_cell_angle_alpha   90.00000000
_cell_angle_beta   90.00000000
_cell_angle_gamma   149.63831594
_symmetry_Int_Tables_number   1
_chemical_formula_structural   Nd2Ho2Zn10SiSn
_chemical_formula_sum   'Nd2 Ho2 Zn10 Si1 Sn1'
_cell_volume   315.07469341
_cell_formula_units_Z   1
loop_
 _symmetry_equiv_pos_site_id
 _symmetry_equiv_pos_as_xyz
  1  'x, y, z'
loop_
 _atom_site_type_symbol
 _atom_site_label
 _atom_site_symmetry_multiplicity
 _atom_site_fract_x
 _atom_site_fract_y
 _atom_site_fract_z
 _atom_site_occupancy
  Nd  Nd0  1  0.000737  0.999263  0.486359  1
  Nd  Nd1  1  0.000737  0.999263  0.013641  1
  Ho  Ho2  1  0.202336  0.797664  0.250000  1
  Ho  Ho3  1  0.794840  0.205160  0.750000  1
  Zn  Zn4  1  0.812002  0.187998  0.391058  1
  Zn  Zn5  1  0.186821  0.813179  0.606629  1
  Zn  Zn6  1  0.812002  0.187998  0.108942  1
  Zn  Zn7  1  0.186821  0.813179  0.893371  1
  Zn  Zn8  1  0.650877  0.349123  0.472880  1
  Zn  Zn9  1  0.343474  0.656526  0.515774  1
  Zn  Zn10  1  0.650877  0.349123  0.027120  1
  Zn  Zn11  1  0.343474  0.656526  0.984226  1
  Zn  Zn12  1  0.404680  0.595320  0.250000  1
  Zn  Zn13  1  0.606674  0.393326  0.750000  1
  Si  Si14  1  0.558935  0.441065  0.250000  1
  Sn  Sn15  1  0.444710  0.555290  0.750000  1
