# generated using pymatgen
data_Tm4Sn2Ge4Rh7
_symmetry_space_group_name_H-M   'P 1'
_cell_length_a   7.36449249
_cell_length_b   7.32757173
_cell_length_c   7.32757241
_cell_angle_alpha   109.37822914
_cell_angle_beta   109.41595485
_cell_angle_gamma   109.41594473
_symmetry_Int_Tables_number   1
_chemical_formula_structural   Tm4Sn2Ge4Rh7
_chemical_formula_sum   'Tm4 Sn2 Ge4 Rh7'
_cell_volume   305.15971418
_cell_formula_units_Z   1
loop_
 _symmetry_equiv_pos_site_id
 _symmetry_equiv_pos_as_xyz
  1  'x, y, z'
loop_
 _atom_site_type_symbol
 _atom_site_label
 _atom_site_symmetry_multiplicity
 _atom_site_fract_x
 _atom_site_fract_y
 _atom_site_fract_z
 _atom_site_occupancy
  Tm  Tm0  1  0.462170  0.457370  0.457370  1
  Tm  Tm1  1  0.012668  0.506334  0.006334  1
  Tm  Tm2  1  0.462170  0.004800  0.004800  1
  Tm  Tm3  1  0.012668  0.006334  0.506334  1
  Sn  Sn4  1  0.691928  0.991044  0.700884  1
  Sn  Sn5  1  0.691928  0.700884  0.991044  1
  Ge  Ge6  1  0.327316  0.333701  0.993615  1
  Ge  Ge7  1  0.987159  0.673929  0.673929  1
  Ge  Ge8  1  0.987159  0.313230  0.313230  1
  Ge  Ge9  1  0.327316  0.993615  0.333701  1
  Rh  Rh10  1  0.750849  0.501286  0.249564  1
  Rh  Rh11  1  0.502929  0.251464  0.751464  1
  Rh  Rh12  1  0.750849  0.249564  0.501286  1
  Rh  Rh13  1  0.242570  0.742056  0.500514  1
  Rh  Rh14  1  0.242570  0.500514  0.742056  1
  Rh  Rh15  1  0.502929  0.751464  0.251464  1
  Rh  Rh16  1  0.044821  0.022411  0.022411  1
