# generated using pymatgen
data_Ba2BeSi3Au10
_symmetry_space_group_name_H-M   'P 1'
_cell_length_a   7.05428100
_cell_length_b   9.11975400
_cell_length_c   10.22907100
_cell_angle_alpha   90.00000000
_cell_angle_beta   90.00000000
_cell_angle_gamma   90.00000000
_symmetry_Int_Tables_number   1
_chemical_formula_structural   Ba2BeSi3Au10
_chemical_formula_sum   'Ba4 Be2 Si6 Au20'
_cell_volume   658.06996872
_cell_formula_units_Z   2
loop_
 _symmetry_equiv_pos_site_id
 _symmetry_equiv_pos_as_xyz
  1  'x, y, z'
loop_
 _atom_site_type_symbol
 _atom_site_label
 _atom_site_symmetry_multiplicity
 _atom_site_fract_x
 _atom_site_fract_y
 _atom_site_fract_z
 _atom_site_occupancy
  Ba  Ba0  1  0.250000  0.243869  0.116079  1
  Ba  Ba1  1  0.250000  0.743869  0.383921  1
  Ba  Ba2  1  0.750000  0.758734  0.882333  1
  Ba  Ba3  1  0.750000  0.258734  0.617667  1
  Be  Be4  1  0.250000  0.051487  0.636222  1
  Be  Be5  1  0.250000  0.551487  0.863778  1
  Si  Si6  1  0.750000  0.952006  0.372921  1
  Si  Si7  1  0.750000  0.452006  0.127079  1
  Si  Si8  1  0.250000  0.321600  0.463219  1
  Si  Si9  1  0.250000  0.821600  0.036781  1
  Si  Si10  1  0.750000  0.665930  0.543376  1
  Si  Si11  1  0.750000  0.165930  0.956624  1
  Au  Au12  1  0.048409  0.097453  0.398041  1
  Au  Au13  1  0.451591  0.597453  0.101959  1
  Au  Au14  1  0.540386  0.903634  0.606627  1
  Au  Au15  1  0.959614  0.403634  0.893373  1
  Au  Au16  1  0.959614  0.903634  0.606627  1
  Au  Au17  1  0.540386  0.403634  0.893373  1
  Au  Au18  1  0.451591  0.097453  0.398041  1
  Au  Au19  1  0.048409  0.597453  0.101959  1
  Au  Au20  1  0.035575  0.076120  0.845197  1
  Au  Au21  1  0.464425  0.576120  0.654803  1
  Au  Au22  1  0.528864  0.926647  0.145282  1
  Au  Au23  1  0.971136  0.426647  0.354718  1
  Au  Au24  1  0.971136  0.926647  0.145282  1
  Au  Au25  1  0.528864  0.426647  0.354718  1
  Au  Au26  1  0.464425  0.076120  0.845197  1
  Au  Au27  1  0.035575  0.576120  0.654803  1
  Au  Au28  1  0.250000  0.307452  0.701758  1
  Au  Au29  1  0.250000  0.807452  0.798242  1
  Au  Au30  1  0.750000  0.691215  0.303458  1
  Au  Au31  1  0.750000  0.191215  0.196542  1
