# generated using pymatgen
data_Ho2CuSi2Ru
_symmetry_space_group_name_H-M   'P 1'
_cell_length_a   4.21424500
_cell_length_b   6.92777487
_cell_length_c   7.30724016
_cell_angle_alpha   91.34236919
_cell_angle_beta   90.00000000
_cell_angle_gamma   90.00000000
_symmetry_Int_Tables_number   1
_chemical_formula_structural   Ho2CuSi2Ru
_chemical_formula_sum   'Ho4 Cu2 Si4 Ru2'
_cell_volume   213.27881690
_cell_formula_units_Z   2
loop_
 _symmetry_equiv_pos_site_id
 _symmetry_equiv_pos_as_xyz
  1  'x, y, z'
loop_
 _atom_site_type_symbol
 _atom_site_label
 _atom_site_symmetry_multiplicity
 _atom_site_fract_x
 _atom_site_fract_y
 _atom_site_fract_z
 _atom_site_occupancy
  Ho  Ho0  1  0.250000  0.992576  0.798059  1
  Ho  Ho1  1  0.750000  0.007424  0.201941  1
  Ho  Ho2  1  0.250000  0.491300  0.687238  1
  Ho  Ho3  1  0.750000  0.508700  0.312762  1
  Cu  Cu4  1  0.750000  0.834375  0.574090  1
  Cu  Cu5  1  0.250000  0.165625  0.425910  1
  Si  Si6  1  0.250000  0.298773  0.091666  1
  Si  Si7  1  0.750000  0.701227  0.908334  1
  Si  Si8  1  0.250000  0.796715  0.389108  1
  Si  Si9  1  0.750000  0.203285  0.610892  1
  Ru  Ru10  1  0.750000  0.346613  0.934730  1
  Ru  Ru11  1  0.250000  0.653387  0.065270  1
