# generated using pymatgen
data_Ba3Ga10SnO20
_symmetry_space_group_name_H-M   'P 1'
_cell_length_a   10.03345586
_cell_length_b   10.03345537
_cell_length_c   5.26561722
_cell_angle_alpha   75.59708386
_cell_angle_beta   75.59708908
_cell_angle_gamma   72.91853689
_symmetry_Int_Tables_number   1
_chemical_formula_structural   Ba3Ga10SnO20
_chemical_formula_sum   'Ba3 Ga10 Sn1 O20'
_cell_volume   481.86595686
_cell_formula_units_Z   1
loop_
 _symmetry_equiv_pos_site_id
 _symmetry_equiv_pos_as_xyz
  1  'x, y, z'
loop_
 _atom_site_type_symbol
 _atom_site_label
 _atom_site_symmetry_multiplicity
 _atom_site_fract_x
 _atom_site_fract_y
 _atom_site_fract_z
 _atom_site_occupancy
  Ba  Ba0  1  0.500000  0.500000  0.500000  1
  Ba  Ba1  1  0.221871  0.221871  0.765765  1
  Ba  Ba2  1  0.778129  0.778129  0.234235  1
  Ga  Ga3  1  0.078077  0.643976  0.662680  1
  Ga  Ga4  1  0.643976  0.078077  0.662680  1
  Ga  Ga5  1  0.921923  0.356024  0.337320  1
  Ga  Ga6  1  0.356024  0.921923  0.337320  1
  Ga  Ga7  1  0.216505  0.492608  0.157088  1
  Ga  Ga8  1  0.492608  0.216505  0.157088  1
  Ga  Ga9  1  0.783495  0.507392  0.842912  1
  Ga  Ga10  1  0.507392  0.783495  0.842912  1
  Ga  Ga11  1  0.862904  0.137096  0.000000  1
  Ga  Ga12  1  0.137096  0.862904  0.000000  1
  Sn  Sn13  1  0.000000  0.000000  0.500000  1
  O  O14  1  0.100580  0.377062  0.170474  1
  O  O15  1  0.377062  0.100580  0.170474  1
  O  O16  1  0.899420  0.622938  0.829526  1
  O  O17  1  0.622938  0.899420  0.829526  1
  O  O18  1  0.164400  0.669634  0.925507  1
  O  O19  1  0.669634  0.164400  0.925507  1
  O  O20  1  0.835600  0.330366  0.074493  1
  O  O21  1  0.330366  0.835600  0.074493  1
  O  O22  1  0.064678  0.064678  0.101024  1
  O  O23  1  0.935322  0.935322  0.898976  1
  O  O24  1  0.216258  0.503615  0.505752  1
  O  O25  1  0.503615  0.216258  0.505752  1
  O  O26  1  0.783742  0.496385  0.494248  1
  O  O27  1  0.496385  0.783742  0.494248  1
  O  O28  1  0.399326  0.399326  0.015311  1
  O  O29  1  0.600674  0.600674  0.984689  1
  O  O30  1  0.952092  0.197563  0.614224  1
  O  O31  1  0.197563  0.952092  0.614224  1
  O  O32  1  0.047908  0.802437  0.385776  1
  O  O33  1  0.802437  0.047908  0.385776  1
