# generated using pymatgen
data_Tb6Ho10MgHg3Rh4
_symmetry_space_group_name_H-M   'P 1'
_cell_length_a   9.59152151
_cell_length_b   9.60688655
_cell_length_c   9.60688700
_cell_angle_alpha   60.00000188
_cell_angle_beta   59.94699598
_cell_angle_gamma   59.94699576
_symmetry_Int_Tables_number   1
_chemical_formula_structural   Tb6Ho10MgHg3Rh4
_chemical_formula_sum   'Tb6 Ho10 Mg1 Hg3 Rh4'
_cell_volume   625.44547441
_cell_formula_units_Z   1
loop_
 _symmetry_equiv_pos_site_id
 _symmetry_equiv_pos_as_xyz
  1  'x, y, z'
loop_
 _atom_site_type_symbol
 _atom_site_label
 _atom_site_symmetry_multiplicity
 _atom_site_fract_x
 _atom_site_fract_y
 _atom_site_fract_z
 _atom_site_occupancy
  Tb  Tb0  1  0.935115  0.563983  0.563983  1
  Tb  Tb1  1  0.562600  0.936674  0.936674  1
  Tb  Tb2  1  0.562600  0.936674  0.564053  1
  Tb  Tb3  1  0.935115  0.563983  0.936919  1
  Tb  Tb4  1  0.562600  0.564053  0.936674  1
  Tb  Tb5  1  0.935115  0.936919  0.563983  1
  Ho  Ho6  1  0.351010  0.348889  0.348889  1
  Ho  Ho7  1  0.351010  0.348889  0.951212  1
  Ho  Ho8  1  0.351010  0.951212  0.348889  1
  Ho  Ho9  1  0.942251  0.352583  0.352583  1
  Ho  Ho10  1  0.810543  0.189190  0.189190  1
  Ho  Ho11  1  0.185376  0.813590  0.813590  1
  Ho  Ho12  1  0.185376  0.813590  0.187443  1
  Ho  Ho13  1  0.810543  0.189190  0.811078  1
  Ho  Ho14  1  0.185376  0.187443  0.813590  1
  Ho  Ho15  1  0.810543  0.811078  0.189190  1
  Mg  Mg16  1  0.285226  0.571592  0.571592  1
  Hg  Hg17  1  0.581026  0.586322  0.586322  1
  Hg  Hg18  1  0.581026  0.586322  0.246330  1
  Hg  Hg19  1  0.581026  0.246330  0.586322  1
  Rh  Rh20  1  0.141322  0.143682  0.143682  1
  Rh  Rh21  1  0.141322  0.143682  0.571313  1
  Rh  Rh22  1  0.141322  0.571313  0.143682  1
  Rh  Rh23  1  0.571547  0.142817  0.142817  1
