# generated using pymatgen
data_YbHo6Sn23Ir6
_symmetry_space_group_name_H-M   'P 1'
_cell_length_a   9.86403400
_cell_length_b   9.86403261
_cell_length_c   10.08640700
_cell_angle_alpha   90.00000000
_cell_angle_beta   90.00000000
_cell_angle_gamma   119.99999795
_symmetry_Int_Tables_number   1
_chemical_formula_structural   YbHo6Sn23Ir6
_chemical_formula_sum   'Yb1 Ho6 Sn23 Ir6'
_cell_volume   849.91636008
_cell_formula_units_Z   1
loop_
 _symmetry_equiv_pos_site_id
 _symmetry_equiv_pos_as_xyz
  1  'x, y, z'
loop_
 _atom_site_type_symbol
 _atom_site_label
 _atom_site_symmetry_multiplicity
 _atom_site_fract_x
 _atom_site_fract_y
 _atom_site_fract_z
 _atom_site_occupancy
  Yb  Yb0  1  0.000000  0.000000  0.000000  1
  Ho  Ho1  1  0.519060  0.480940  0.693323  1
  Ho  Ho2  1  0.519060  0.038119  0.693323  1
  Ho  Ho3  1  0.961881  0.480940  0.693323  1
  Ho  Ho4  1  0.038119  0.519060  0.306677  1
  Ho  Ho5  1  0.480940  0.961881  0.306677  1
  Ho  Ho6  1  0.480940  0.519060  0.306677  1
  Sn  Sn7  1  0.666667  0.333333  0.174176  1
  Sn  Sn8  1  0.666667  0.333333  0.876443  1
  Sn  Sn9  1  0.333333  0.666667  0.123557  1
  Sn  Sn10  1  0.351676  0.351676  0.000000  1
  Sn  Sn11  1  0.000000  0.648324  0.000000  1
  Sn  Sn12  1  0.648324  0.000000  0.000000  1
  Sn  Sn13  1  0.648324  0.648324  0.000000  1
  Sn  Sn14  1  0.333333  0.666667  0.825824  1
  Sn  Sn15  1  0.445299  0.222649  0.456837  1
  Sn  Sn16  1  0.222649  0.777351  0.543163  1
  Sn  Sn17  1  0.222649  0.445299  0.543163  1
  Sn  Sn18  1  0.554701  0.777351  0.543163  1
  Sn  Sn19  1  0.118429  0.881571  0.283405  1
  Sn  Sn20  1  0.777351  0.554701  0.456837  1
  Sn  Sn21  1  0.777351  0.222649  0.456837  1
  Sn  Sn22  1  0.351676  0.000000  0.000000  1
  Sn  Sn23  1  0.118429  0.236858  0.283405  1
  Sn  Sn24  1  0.763142  0.881571  0.283405  1
  Sn  Sn25  1  0.236858  0.118429  0.716595  1
  Sn  Sn26  1  0.881571  0.763142  0.716595  1
  Sn  Sn27  1  0.881571  0.118429  0.716595  1
  Sn  Sn28  1  0.000000  0.000000  0.500000  1
  Sn  Sn29  1  0.000000  0.351676  0.000000  1
  Ir  Ir30  1  0.169903  0.830097  0.799899  1
  Ir  Ir31  1  0.169903  0.339804  0.799899  1
  Ir  Ir32  1  0.660196  0.830097  0.799899  1
  Ir  Ir33  1  0.339804  0.169903  0.200101  1
  Ir  Ir34  1  0.830097  0.660196  0.200101  1
  Ir  Ir35  1  0.830097  0.169903  0.200101  1
