# generated using pymatgen
data_Tb5Pr3(HgRh)2
_symmetry_space_group_name_H-M   'P 1'
_cell_length_a   9.77978726
_cell_length_b   9.77978663
_cell_length_c   9.77978700
_cell_angle_alpha   59.99999535
_cell_angle_beta   59.99999751
_cell_angle_gamma   59.99999814
_symmetry_Int_Tables_number   1
_chemical_formula_structural   Tb5Pr3(HgRh)2
_chemical_formula_sum   'Tb10 Pr6 Hg4 Rh4'
_cell_volume   661.41365393
_cell_formula_units_Z   2
loop_
 _symmetry_equiv_pos_site_id
 _symmetry_equiv_pos_as_xyz
  1  'x, y, z'
loop_
 _atom_site_type_symbol
 _atom_site_label
 _atom_site_symmetry_multiplicity
 _atom_site_fract_x
 _atom_site_fract_y
 _atom_site_fract_z
 _atom_site_occupancy
  Tb  Tb0  1  0.349555  0.349555  0.349555  1
  Tb  Tb1  1  0.349555  0.349555  0.951334  1
  Tb  Tb2  1  0.349555  0.951334  0.349555  1
  Tb  Tb3  1  0.951334  0.349555  0.349555  1
  Tb  Tb4  1  0.812366  0.187634  0.187634  1
  Tb  Tb5  1  0.187634  0.812367  0.812366  1
  Tb  Tb6  1  0.187634  0.812366  0.187633  1
  Tb  Tb7  1  0.812366  0.187634  0.812366  1
  Tb  Tb8  1  0.187634  0.187634  0.812366  1
  Tb  Tb9  1  0.812367  0.812367  0.187633  1
  Pr  Pr10  1  0.940161  0.559839  0.559839  1
  Pr  Pr11  1  0.559839  0.940161  0.940161  1
  Pr  Pr12  1  0.559839  0.940161  0.559839  1
  Pr  Pr13  1  0.940161  0.559839  0.940161  1
  Pr  Pr14  1  0.559839  0.559839  0.940161  1
  Pr  Pr15  1  0.940161  0.940161  0.559839  1
  Hg  Hg16  1  0.582592  0.582592  0.582592  1
  Hg  Hg17  1  0.582592  0.582592  0.252225  1
  Hg  Hg18  1  0.582592  0.252225  0.582592  1
  Hg  Hg19  1  0.252225  0.582592  0.582592  1
  Rh  Rh20  1  0.142180  0.142180  0.142180  1
  Rh  Rh21  1  0.142180  0.142180  0.573461  1
  Rh  Rh22  1  0.142180  0.573461  0.142180  1
  Rh  Rh23  1  0.573461  0.142180  0.142180  1
