# generated using pymatgen
data_Lu4CrB16W3
_symmetry_space_group_name_H-M   'P 1'
_cell_length_a   3.54116300
_cell_length_b   5.96851353
_cell_length_c   11.51915998
_cell_angle_alpha   89.91774188
_cell_angle_beta   90.00000000
_cell_angle_gamma   90.00000000
_symmetry_Int_Tables_number   1
_chemical_formula_structural   Lu4CrB16W3
_chemical_formula_sum   'Lu4 Cr1 B16 W3'
_cell_volume   243.46271620
_cell_formula_units_Z   1
loop_
 _symmetry_equiv_pos_site_id
 _symmetry_equiv_pos_as_xyz
  1  'x, y, z'
loop_
 _atom_site_type_symbol
 _atom_site_label
 _atom_site_symmetry_multiplicity
 _atom_site_fract_x
 _atom_site_fract_y
 _atom_site_fract_z
 _atom_site_occupancy
  Lu  Lu0  1  0.000000  0.627313  0.353146  1
  Lu  Lu1  1  0.000000  0.376239  0.648211  1
  Lu  Lu2  1  0.000000  0.127552  0.150131  1
  Lu  Lu3  1  0.000000  0.872258  0.846685  1
  Cr  Cr4  1  0.000000  0.871499  0.582109  1
  B  B5  1  0.500000  0.788907  0.188075  1
  B  B6  1  0.500000  0.209464  0.810710  1
  B  B7  1  0.500000  0.288055  0.314162  1
  B  B8  1  0.500000  0.717315  0.683314  1
  B  B9  1  0.500000  0.868886  0.031726  1
  B  B10  1  0.500000  0.131295  0.967297  1
  B  B11  1  0.500000  0.368406  0.470391  1
  B  B12  1  0.500000  0.636060  0.533839  1
  B  B13  1  0.500000  0.881736  0.455385  1
  B  B14  1  0.500000  0.110390  0.550924  1
  B  B15  1  0.500000  0.384284  0.047616  1
  B  B16  1  0.500000  0.616215  0.950959  1
  B  B17  1  0.500000  0.975071  0.307099  1
  B  B18  1  0.500000  0.019021  0.692495  1
  B  B19  1  0.500000  0.475721  0.195133  1
  B  B20  1  0.500000  0.526171  0.803407  1
  W  W21  1  0.000000  0.631815  0.085207  1
  W  W22  1  0.000000  0.368519  0.913428  1
  W  W23  1  0.000000  0.127807  0.418551  1
