# generated using pymatgen
data_Hf2Be2GaIr5
_symmetry_space_group_name_H-M   'P 1'
_cell_length_a   9.37280000
_cell_length_b   9.37280000
_cell_length_c   3.23001200
_cell_angle_alpha   90.00000000
_cell_angle_beta   90.00000000
_cell_angle_gamma   90.00000000
_symmetry_Int_Tables_number   1
_chemical_formula_structural   Hf2Be2GaIr5
_chemical_formula_sum   'Hf4 Be4 Ga2 Ir10'
_cell_volume   283.75455108
_cell_formula_units_Z   2
loop_
 _symmetry_equiv_pos_site_id
 _symmetry_equiv_pos_as_xyz
  1  'x, y, z'
loop_
 _atom_site_type_symbol
 _atom_site_label
 _atom_site_symmetry_multiplicity
 _atom_site_fract_x
 _atom_site_fract_y
 _atom_site_fract_z
 _atom_site_occupancy
  Hf  Hf0  1  0.676454  0.176454  0.000000  1
  Hf  Hf1  1  0.323546  0.823546  0.000000  1
  Hf  Hf2  1  0.176454  0.323546  0.000000  1
  Hf  Hf3  1  0.823546  0.676454  0.000000  1
  Be  Be4  1  0.123025  0.623025  0.000000  1
  Be  Be5  1  0.876975  0.376975  0.000000  1
  Be  Be6  1  0.623025  0.876975  0.000000  1
  Be  Be7  1  0.376975  0.123025  0.000000  1
  Ga  Ga8  1  0.000000  0.000000  0.000000  1
  Ga  Ga9  1  0.500000  0.500000  0.000000  1
  Ir  Ir10  1  0.211406  0.069532  0.500000  1
  Ir  Ir11  1  0.788594  0.930468  0.500000  1
  Ir  Ir12  1  0.069532  0.788594  0.500000  1
  Ir  Ir13  1  0.711406  0.430468  0.500000  1
  Ir  Ir14  1  0.930468  0.211406  0.500000  1
  Ir  Ir15  1  0.288594  0.569532  0.500000  1
  Ir  Ir16  1  0.569532  0.711406  0.500000  1
  Ir  Ir17  1  0.430468  0.288594  0.500000  1
  Ir  Ir18  1  0.500000  0.000000  0.500000  1
  Ir  Ir19  1  0.000000  0.500000  0.500000  1
