# generated using pymatgen
data_Li8LuTh7Sn8
_symmetry_space_group_name_H-M   'P 1'
_cell_length_a   9.65389100
_cell_length_b   9.65389051
_cell_length_c   7.32395400
_cell_angle_alpha   90.00000000
_cell_angle_beta   90.00000000
_cell_angle_gamma   120.00000510
_symmetry_Int_Tables_number   1
_chemical_formula_structural   Li8LuTh7Sn8
_chemical_formula_sum   'Li8 Lu1 Th7 Sn8'
_cell_volume   591.12724633
_cell_formula_units_Z   1
loop_
 _symmetry_equiv_pos_site_id
 _symmetry_equiv_pos_as_xyz
  1  'x, y, z'
loop_
 _atom_site_type_symbol
 _atom_site_label
 _atom_site_symmetry_multiplicity
 _atom_site_fract_x
 _atom_site_fract_y
 _atom_site_fract_z
 _atom_site_occupancy
  Li  Li0  1  0.165730  0.331462  0.263791  1
  Li  Li1  1  0.165730  0.834270  0.263791  1
  Li  Li2  1  0.668538  0.834270  0.263791  1
  Li  Li3  1  0.835325  0.670649  0.783772  1
  Li  Li4  1  0.835325  0.164675  0.783772  1
  Li  Li5  1  0.329351  0.164675  0.783772  1
  Li  Li6  1  0.333333  0.666667  0.695989  1
  Li  Li7  1  0.666667  0.333333  0.193104  1
  Lu  Lu8  1  0.000000  0.000000  0.000210  1
  Th  Th9  1  0.507887  0.015774  0.494694  1
  Th  Th10  1  0.507887  0.492113  0.494694  1
  Th  Th11  1  0.984226  0.492113  0.494694  1
  Th  Th12  1  0.492147  0.984294  0.994446  1
  Th  Th13  1  0.492147  0.507853  0.994446  1
  Th  Th14  1  0.015706  0.507853  0.994446  1
  Th  Th15  1  0.000000  0.000000  0.498902  1
  Sn  Sn16  1  0.165231  0.330462  0.740059  1
  Sn  Sn17  1  0.165231  0.834769  0.740059  1
  Sn  Sn18  1  0.669538  0.834769  0.740059  1
  Sn  Sn19  1  0.835614  0.671228  0.231651  1
  Sn  Sn20  1  0.835614  0.164386  0.231651  1
  Sn  Sn21  1  0.328772  0.164386  0.231651  1
  Sn  Sn22  1  0.333333  0.666667  0.265370  1
  Sn  Sn23  1  0.666667  0.333333  0.763182  1
