# generated using pymatgen
data_LaTbTmTaO7
_symmetry_space_group_name_H-M   'P 1'
_cell_length_a   6.52141797
_cell_length_b   6.52141873
_cell_length_c   7.61362100
_cell_angle_alpha   90.00000000
_cell_angle_beta   90.00000000
_cell_angle_gamma   109.83105403
_symmetry_Int_Tables_number   1
_chemical_formula_structural   LaTbTmTaO7
_chemical_formula_sum   'La2 Tb2 Tm2 Ta2 O14'
_cell_volume   304.59667086
_cell_formula_units_Z   2
loop_
 _symmetry_equiv_pos_site_id
 _symmetry_equiv_pos_as_xyz
  1  'x, y, z'
loop_
 _atom_site_type_symbol
 _atom_site_label
 _atom_site_symmetry_multiplicity
 _atom_site_fract_x
 _atom_site_fract_y
 _atom_site_fract_z
 _atom_site_occupancy
  La  La0  1  0.999693  0.000307  0.000000  1
  La  La1  1  0.999693  0.000307  0.500000  1
  Tb  Tb2  1  0.055594  0.515590  0.250000  1
  Tb  Tb3  1  0.484410  0.944406  0.750000  1
  Tm  Tm4  1  0.514407  0.048178  0.250000  1
  Tm  Tm5  1  0.951822  0.485593  0.750000  1
  Ta  Ta6  1  0.500979  0.499021  0.000000  1
  Ta  Ta7  1  0.500979  0.499021  0.500000  1
  O  O8  1  0.874262  0.159459  0.250000  1
  O  O9  1  0.840541  0.125738  0.750000  1
  O  O10  1  0.820348  0.559124  0.030749  1
  O  O11  1  0.820348  0.559124  0.469251  1
  O  O12  1  0.440876  0.179652  0.969251  1
  O  O13  1  0.440876  0.179652  0.530749  1
  O  O14  1  0.574415  0.577317  0.750000  1
  O  O15  1  0.422683  0.425585  0.250000  1
  O  O16  1  0.557464  0.818334  0.038012  1
  O  O17  1  0.181666  0.442536  0.538012  1
  O  O18  1  0.557464  0.818334  0.461988  1
  O  O19  1  0.181666  0.442536  0.961988  1
  O  O20  1  0.116737  0.836926  0.750000  1
  O  O21  1  0.163074  0.883263  0.250000  1
