# generated using pymatgen
data_Tm6AlFeSi
_symmetry_space_group_name_H-M   'P 1'
_cell_length_a   8.28040996
_cell_length_b   8.28040974
_cell_length_c   8.28041084
_cell_angle_alpha   112.75606545
_cell_angle_beta   110.83732179
_cell_angle_gamma   104.92032802
_symmetry_Int_Tables_number   1
_chemical_formula_structural   Tm6AlFeSi
_chemical_formula_sum   'Tm12 Al2 Fe2 Si2'
_cell_volume   434.87322524
_cell_formula_units_Z   2
loop_
 _symmetry_equiv_pos_site_id
 _symmetry_equiv_pos_as_xyz
  1  'x, y, z'
loop_
 _atom_site_type_symbol
 _atom_site_label
 _atom_site_symmetry_multiplicity
 _atom_site_fract_x
 _atom_site_fract_y
 _atom_site_fract_z
 _atom_site_occupancy
  Tm  Tm0  1  0.440326  0.241755  0.198570  1
  Tm  Tm1  1  0.559674  0.758245  0.801430  1
  Tm  Tm2  1  0.043184  0.241755  0.801430  1
  Tm  Tm3  1  0.956816  0.758245  0.198570  1
  Tm  Tm4  1  0.186911  0.285542  0.472453  1
  Tm  Tm5  1  0.813089  0.714458  0.527547  1
  Tm  Tm6  1  0.186911  0.714458  0.901369  1
  Tm  Tm7  1  0.813089  0.285542  0.098631  1
  Tm  Tm8  1  0.306078  0.614042  0.307964  1
  Tm  Tm9  1  0.693922  0.385958  0.692036  1
  Tm  Tm10  1  0.306078  0.998114  0.692036  1
  Tm  Tm11  1  0.693922  0.001886  0.307964  1
  Al  Al12  1  0.500000  0.500000  0.000000  1
  Al  Al13  1  0.000000  0.000000  0.000000  1
  Fe  Fe14  1  0.105555  0.605555  0.500000  1
  Fe  Fe15  1  0.894445  0.394445  0.500000  1
  Si  Si16  1  0.359491  0.000000  0.359491  1
  Si  Si17  1  0.640509  0.000000  0.640509  1
