# generated using pymatgen
data_Zr5Ta(TiSi)6
_symmetry_space_group_name_H-M   'P 1'
_cell_length_a   7.90409951
_cell_length_b   7.90588019
_cell_length_c   7.90409812
_cell_angle_alpha   127.38117641
_cell_angle_beta   124.44768927
_cell_angle_gamma   80.04549199
_symmetry_Int_Tables_number   1
_chemical_formula_structural   Zr5Ta(TiSi)6
_chemical_formula_sum   'Zr5 Ta1 Ti6 Si6'
_cell_volume   312.49647962
_cell_formula_units_Z   1
loop_
 _symmetry_equiv_pos_site_id
 _symmetry_equiv_pos_as_xyz
  1  'x, y, z'
loop_
 _atom_site_type_symbol
 _atom_site_label
 _atom_site_symmetry_multiplicity
 _atom_site_fract_x
 _atom_site_fract_y
 _atom_site_fract_z
 _atom_site_occupancy
  Zr  Zr0  1  0.952686  0.911548  0.458863  1
  Zr  Zr1  1  0.045457  0.500564  0.955106  1
  Zr  Zr2  1  0.547066  0.506409  0.459341  1
  Zr  Zr3  1  0.454717  0.910238  0.955521  1
  Zr  Zr4  1  0.750180  0.096881  0.846701  1
  Ta  Ta5  1  0.249696  0.098203  0.348507  1
  Ti  Ti6  1  0.494430  0.751882  0.246328  1
  Ti  Ti7  1  0.005554  0.751882  0.757452  1
  Ti  Ti8  1  0.875426  0.252971  0.377869  1
  Ti  Ti9  1  0.125496  0.502339  0.378168  1
  Ti  Ti10  1  0.375101  0.252971  0.877544  1
  Ti  Ti11  1  0.624171  0.502339  0.876845  1
  Si  Si12  1  0.750082  0.505093  0.255010  1
  Si  Si13  1  0.250018  0.494702  0.744685  1
  Si  Si14  1  0.659113  0.168989  0.499814  1
  Si  Si15  1  0.330686  0.840900  0.499954  1
  Si  Si16  1  0.169175  0.168989  0.009877  1
  Si  Si17  1  0.840945  0.840900  0.010214  1
