# generated using pymatgen
data_Th2Mn(Al2Pt)8
_symmetry_space_group_name_H-M   'P 1'
_cell_length_a   11.15797764
_cell_length_b   11.15797959
_cell_length_c   11.15797935
_cell_angle_alpha   158.55234283
_cell_angle_beta   116.05206871
_cell_angle_gamma   68.28809576
_symmetry_Int_Tables_number   1
_chemical_formula_structural   Th2Mn(Al2Pt)8
_chemical_formula_sum   'Th2 Mn1 Al16 Pt8'
_cell_volume   453.14240339
_cell_formula_units_Z   1
loop_
 _symmetry_equiv_pos_site_id
 _symmetry_equiv_pos_as_xyz
  1  'x, y, z'
loop_
 _atom_site_type_symbol
 _atom_site_label
 _atom_site_symmetry_multiplicity
 _atom_site_fract_x
 _atom_site_fract_y
 _atom_site_fract_z
 _atom_site_occupancy
  Th  Th0  1  0.230301  0.230018  0.000282  1
  Th  Th1  1  0.770264  0.769982  0.000282  1
  Mn  Mn2  1  0.776319  0.500000  0.276319  1
  Al  Al3  1  0.275362  0.392054  0.883307  1
  Al  Al4  1  0.091051  0.925191  0.165862  1
  Al  Al5  1  0.503670  0.200816  0.302855  1
  Al  Al6  1  0.240671  0.074809  0.165862  1
  Al  Al7  1  0.910520  0.417397  0.493123  1
  Al  Al8  1  0.725195  0.599145  0.126049  1
  Al  Al9  1  0.901383  0.207013  0.694370  1
  Al  Al10  1  0.487359  0.792987  0.694370  1
  Al  Al11  1  0.390971  0.000000  0.390971  1
  Al  Al12  1  0.623958  0.000000  0.623958  1
  Al  Al13  1  0.491253  0.607946  0.883307  1
  Al  Al14  1  0.102039  0.799184  0.302855  1
  Al  Al15  1  0.902067  0.082946  0.819120  1
  Al  Al16  1  0.736175  0.917054  0.819120  1
  Al  Al17  1  0.526904  0.400855  0.126049  1
  Al  Al18  1  0.075725  0.582603  0.493123  1
  Pt  Pt19  1  0.022856  0.342638  0.680218  1
  Pt  Pt20  1  0.631420  0.128266  0.503154  1
  Pt  Pt21  1  0.258553  0.500000  0.758553  1
  Pt  Pt22  1  0.374888  0.871734  0.503154  1
  Pt  Pt23  1  0.983541  0.000000  0.983541  1
  Pt  Pt24  1  0.651063  0.336073  0.314988  1
  Pt  Pt25  1  0.337579  0.657362  0.680218  1
  Pt  Pt26  1  0.978915  0.663927  0.314988  1
