# generated using pymatgen
data_Tb10InSi4Pt
_symmetry_space_group_name_H-M   'P 1'
_cell_length_a   7.59850291
_cell_length_b   7.59850326
_cell_length_c   9.06586800
_cell_angle_alpha   114.77602148
_cell_angle_beta   114.77602270
_cell_angle_gamma   89.99999942
_symmetry_Int_Tables_number   1
_chemical_formula_structural   Tb10InSi4Pt
_chemical_formula_sum   'Tb10 In1 Si4 Pt1'
_cell_volume   421.60575776
_cell_formula_units_Z   1
loop_
 _symmetry_equiv_pos_site_id
 _symmetry_equiv_pos_as_xyz
  1  'x, y, z'
loop_
 _atom_site_type_symbol
 _atom_site_label
 _atom_site_symmetry_multiplicity
 _atom_site_fract_x
 _atom_site_fract_y
 _atom_site_fract_z
 _atom_site_occupancy
  Tb  Tb0  1  0.524464  0.524464  0.048930  1
  Tb  Tb1  1  0.975536  0.975536  0.951070  1
  Tb  Tb2  1  0.983945  0.833691  0.278667  1
  Tb  Tb3  1  0.294722  0.444976  0.278667  1
  Tb  Tb4  1  0.833691  0.294722  0.278667  1
  Tb  Tb5  1  0.444976  0.983945  0.278667  1
  Tb  Tb6  1  0.055024  0.205278  0.721333  1
  Tb  Tb7  1  0.666309  0.516055  0.721333  1
  Tb  Tb8  1  0.205278  0.666309  0.721333  1
  Tb  Tb9  1  0.516055  0.055024  0.721333  1
  In  In10  1  0.750000  0.750000  0.500000  1
  Si  Si11  1  0.620154  0.879846  0.000000  1
  Si  Si12  1  0.379846  0.120154  0.000000  1
  Si  Si13  1  0.879846  0.379846  0.000000  1
  Si  Si14  1  0.120154  0.620154  0.000000  1
  Pt  Pt15  1  0.250000  0.250000  0.500000  1
