# generated using pymatgen
data_Ac3GaSi4Ge
_symmetry_space_group_name_H-M   'P 1'
_cell_length_a   4.55040316
_cell_length_b   4.49539015
_cell_length_c   22.28943400
_cell_angle_alpha   84.21236870
_cell_angle_beta   95.85867834
_cell_angle_gamma   89.99999834
_symmetry_Int_Tables_number   1
_chemical_formula_structural   Ac3GaSi4Ge
_chemical_formula_sum   'Ac6 Ga2 Si8 Ge2'
_cell_volume   451.23101144
_cell_formula_units_Z   2
loop_
 _symmetry_equiv_pos_site_id
 _symmetry_equiv_pos_as_xyz
  1  'x, y, z'
loop_
 _atom_site_type_symbol
 _atom_site_label
 _atom_site_symmetry_multiplicity
 _atom_site_fract_x
 _atom_site_fract_y
 _atom_site_fract_z
 _atom_site_occupancy
  Ac  Ac0  1  0.375247  0.875646  0.249297  1
  Ac  Ac1  1  0.042805  0.208141  0.584166  1
  Ac  Ac2  1  0.706580  0.544477  0.911741  1
  Ac  Ac3  1  0.293043  0.456321  0.087026  1
  Ac  Ac4  1  0.958099  0.791322  0.417187  1
  Ac  Ac5  1  0.624783  0.124118  0.751118  1
  Ga  Ga6  1  0.235473  0.014752  0.971227  1
  Ga  Ga7  1  0.763760  0.986360  0.026943  1
  Si  Si8  1  0.431428  0.317384  0.363056  1
  Si  Si9  1  0.099480  0.649608  0.698369  1
  Si  Si10  1  0.847203  0.403708  0.191854  1
  Si  Si11  1  0.513759  0.736349  0.526868  1
  Si  Si12  1  0.179820  0.071362  0.858582  1
  Si  Si13  1  0.818802  0.929630  0.139723  1
  Si  Si14  1  0.485512  0.264225  0.471909  1
  Si  Si15  1  0.152360  0.597163  0.806288  1
  Ge  Ge16  1  0.901821  0.348800  0.304448  1
  Ge  Ge17  1  0.570026  0.680633  0.640198  1
