# generated using pymatgen
data_Ca3CeSc4(ReB6)4
_symmetry_space_group_name_H-M   'P 1'
_cell_length_a   3.58461900
_cell_length_b   9.07114806
_cell_length_c   11.43752735
_cell_angle_alpha   90.05556225
_cell_angle_beta   90.00000000
_cell_angle_gamma   90.00000000
_symmetry_Int_Tables_number   1
_chemical_formula_structural   Ca3CeSc4(ReB6)4
_chemical_formula_sum   'Ca3 Ce1 Sc4 Re4 B24'
_cell_volume   371.90943784
_cell_formula_units_Z   1
loop_
 _symmetry_equiv_pos_site_id
 _symmetry_equiv_pos_as_xyz
  1  'x, y, z'
loop_
 _atom_site_type_symbol
 _atom_site_label
 _atom_site_symmetry_multiplicity
 _atom_site_fract_x
 _atom_site_fract_y
 _atom_site_fract_z
 _atom_site_occupancy
  Ca  Ca0  1  0.000000  0.323410  0.414935  1
  Ca  Ca1  1  0.000000  0.676675  0.585139  1
  Ca  Ca2  1  0.000000  0.821397  0.085796  1
  Ce  Ce3  1  0.000000  0.177203  0.915665  1
  Sc  Sc4  1  0.000000  0.943238  0.366790  1
  Sc  Sc5  1  0.000000  0.056077  0.631252  1
  Sc  Sc6  1  0.000000  0.444537  0.132615  1
  Sc  Sc7  1  0.000000  0.556829  0.867755  1
  Re  Re8  1  0.000000  0.643873  0.318155  1
  Re  Re9  1  0.000000  0.355011  0.683157  1
  Re  Re10  1  0.000000  0.142880  0.182930  1
  Re  Re11  1  0.000000  0.859177  0.817089  1
  B  B12  1  0.500000  0.554272  0.432358  1
  B  B13  1  0.500000  0.444837  0.567869  1
  B  B14  1  0.500000  0.055915  0.068717  1
  B  B15  1  0.500000  0.944646  0.931719  1
  B  B16  1  0.500000  0.755134  0.417998  1
  B  B17  1  0.500000  0.244998  0.581472  1
  B  B18  1  0.500000  0.255048  0.083430  1
  B  B19  1  0.500000  0.744956  0.917751  1
  B  B20  1  0.500000  0.796166  0.263347  1
  B  B21  1  0.500000  0.204121  0.735425  1
  B  B22  1  0.500000  0.296247  0.236538  1
  B  B23  1  0.500000  0.704196  0.764210  1
  B  B24  1  0.500000  0.629310  0.182537  1
  B  B25  1  0.500000  0.370617  0.816833  1
  B  B26  1  0.500000  0.129272  0.317672  1
  B  B27  1  0.500000  0.870285  0.681857  1
  B  B28  1  0.500000  0.982077  0.213886  1
  B  B29  1  0.500000  0.017252  0.786054  1
  B  B30  1  0.500000  0.482413  0.286629  1
  B  B31  1  0.500000  0.517441  0.713133  1
  B  B32  1  0.500000  0.593749  0.025294  1
  B  B33  1  0.500000  0.406931  0.974971  1
  B  B34  1  0.500000  0.091715  0.474665  1
  B  B35  1  0.500000  0.908093  0.524355  1
