# generated using pymatgen
data_HoTm2Th3Si4
_symmetry_space_group_name_H-M   'P 1'
_cell_length_a   7.56559819
_cell_length_b   7.56559832
_cell_length_c   4.25358800
_cell_angle_alpha   90.00000000
_cell_angle_beta   90.00000000
_cell_angle_gamma   90.56607718
_symmetry_Int_Tables_number   1
_chemical_formula_structural   HoTm2Th3Si4
_chemical_formula_sum   'Ho1 Tm2 Th3 Si4'
_cell_volume   243.45616539
_cell_formula_units_Z   1
loop_
 _symmetry_equiv_pos_site_id
 _symmetry_equiv_pos_as_xyz
  1  'x, y, z'
loop_
 _atom_site_type_symbol
 _atom_site_label
 _atom_site_symmetry_multiplicity
 _atom_site_fract_x
 _atom_site_fract_y
 _atom_site_fract_z
 _atom_site_occupancy
  Ho  Ho0  1  0.676161  0.176161  0.500000  1
  Tm  Tm1  1  0.500813  0.501151  0.000000  1
  Tm  Tm2  1  0.001151  0.000813  0.000000  1
  Th  Th3  1  0.323392  0.823392  0.500000  1
  Th  Th4  1  0.177925  0.320006  0.500000  1
  Th  Th5  1  0.820006  0.677925  0.500000  1
  Si  Si6  1  0.116914  0.616914  0.000000  1
  Si  Si7  1  0.878430  0.378430  0.000000  1
  Si  Si8  1  0.619153  0.886055  0.000000  1
  Si  Si9  1  0.386055  0.119153  0.000000  1
