# generated using pymatgen
data_Pr2Lu4ZnRh17
_symmetry_space_group_name_H-M   'P 1'
_cell_length_a   5.26430100
_cell_length_b   5.26434532
_cell_length_c   17.34188800
_cell_angle_alpha   90.00000000
_cell_angle_beta   90.00000000
_cell_angle_gamma   120.00034358
_symmetry_Int_Tables_number   1
_chemical_formula_structural   Pr2Lu4ZnRh17
_chemical_formula_sum   'Pr2 Lu4 Zn1 Rh17'
_cell_volume   416.20815772
_cell_formula_units_Z   1
loop_
 _symmetry_equiv_pos_site_id
 _symmetry_equiv_pos_as_xyz
  1  'x, y, z'
loop_
 _atom_site_type_symbol
 _atom_site_label
 _atom_site_symmetry_multiplicity
 _atom_site_fract_x
 _atom_site_fract_y
 _atom_site_fract_z
 _atom_site_occupancy
  Pr  Pr0  1  0.333325  0.666670  0.750000  1
  Pr  Pr1  1  0.666662  0.333334  0.250000  1
  Lu  Lu2  1  0.333335  0.666669  0.958769  1
  Lu  Lu3  1  0.666667  0.333335  0.039719  1
  Lu  Lu4  1  0.666667  0.333335  0.460281  1
  Lu  Lu5  1  0.333335  0.666669  0.541231  1
  Zn  Zn6  1  0.333335  0.666661  0.250000  1
  Rh  Rh7  1  0.168736  0.831268  0.375505  1
  Rh  Rh8  1  0.168741  0.337468  0.375514  1
  Rh  Rh9  1  0.662542  0.831268  0.375509  1
  Rh  Rh10  1  0.832574  0.167419  0.622817  1
  Rh  Rh11  1  0.832569  0.665151  0.622820  1
  Rh  Rh12  1  0.334844  0.167421  0.622820  1
  Rh  Rh13  1  0.832574  0.167419  0.877183  1
  Rh  Rh14  1  0.832569  0.665151  0.877180  1
  Rh  Rh15  1  0.334844  0.167421  0.877180  1
  Rh  Rh16  1  0.168736  0.831268  0.124495  1
  Rh  Rh17  1  0.168741  0.337468  0.124486  1
  Rh  Rh18  1  0.662542  0.831268  0.124491  1
  Rh  Rh19  1  0.666690  0.333347  0.750000  1
  Rh  Rh20  1  0.999992  0.000015  0.250000  1
  Rh  Rh21  1  0.999982  0.999987  0.750000  1
  Rh  Rh22  1  0.999999  0.999995  0.497552  1
  Rh  Rh23  1  0.999999  0.999995  0.002448  1
