# generated using pymatgen
data_Tb2DyY2Ir3
_symmetry_space_group_name_H-M   'P 1'
_cell_length_a   10.94273100
_cell_length_b   10.94273100
_cell_length_c   6.39218600
_cell_angle_alpha   90.00000000
_cell_angle_beta   90.00000000
_cell_angle_gamma   90.00000000
_symmetry_Int_Tables_number   1
_chemical_formula_structural   Tb2DyY2Ir3
_chemical_formula_sum   'Tb8 Dy4 Y8 Ir12'
_cell_volume   765.42184050
_cell_formula_units_Z   4
loop_
 _symmetry_equiv_pos_site_id
 _symmetry_equiv_pos_as_xyz
  1  'x, y, z'
loop_
 _atom_site_type_symbol
 _atom_site_label
 _atom_site_symmetry_multiplicity
 _atom_site_fract_x
 _atom_site_fract_y
 _atom_site_fract_z
 _atom_site_occupancy
  Tb  Tb0  1  0.291167  0.088537  0.378396  1
  Tb  Tb1  1  0.291167  0.911463  0.878396  1
  Tb  Tb2  1  0.708833  0.088537  0.878396  1
  Tb  Tb3  1  0.708833  0.911463  0.378396  1
  Tb  Tb4  1  0.588537  0.791167  0.878396  1
  Tb  Tb5  1  0.588537  0.208833  0.378396  1
  Tb  Tb6  1  0.411463  0.791167  0.378396  1
  Tb  Tb7  1  0.411463  0.208833  0.878396  1
  Dy  Dy8  1  0.000000  0.000000  0.500218  1
  Dy  Dy9  1  0.000000  0.000000  0.000218  1
  Dy  Dy10  1  0.500000  0.500000  0.000218  1
  Dy  Dy11  1  0.500000  0.500000  0.500218  1
  Y  Y12  1  0.208660  0.411697  0.621571  1
  Y  Y13  1  0.208660  0.588303  0.121571  1
  Y  Y14  1  0.791340  0.411697  0.121571  1
  Y  Y15  1  0.791340  0.588303  0.621571  1
  Y  Y16  1  0.911697  0.708660  0.121571  1
  Y  Y17  1  0.911697  0.291340  0.621571  1
  Y  Y18  1  0.088303  0.708660  0.621571  1
  Y  Y19  1  0.088303  0.291340  0.121571  1
  Ir  Ir20  1  0.846856  0.152763  0.249878  1
  Ir  Ir21  1  0.846856  0.847237  0.749878  1
  Ir  Ir22  1  0.153144  0.152763  0.749878  1
  Ir  Ir23  1  0.153144  0.847237  0.249878  1
  Ir  Ir24  1  0.652763  0.346856  0.749878  1
  Ir  Ir25  1  0.652763  0.653144  0.249878  1
  Ir  Ir26  1  0.347237  0.346856  0.249878  1
  Ir  Ir27  1  0.347237  0.653144  0.749878  1
  Ir  Ir28  1  0.500000  0.000000  0.124346  1
  Ir  Ir29  1  0.500000  0.000000  0.624346  1
  Ir  Ir30  1  0.000000  0.500000  0.875836  1
  Ir  Ir31  1  0.000000  0.500000  0.375836  1
