# generated using pymatgen
data_Re3Tc3IrPd
_symmetry_space_group_name_H-M   'P 1'
_cell_length_a   5.57220700
_cell_length_b   5.57220827
_cell_length_c   4.39134000
_cell_angle_alpha   90.00000000
_cell_angle_beta   90.00000000
_cell_angle_gamma   119.99999837
_symmetry_Int_Tables_number   1
_chemical_formula_structural   Re3Tc3IrPd
_chemical_formula_sum   'Re3 Tc3 Ir1 Pd1'
_cell_volume   118.08161514
_cell_formula_units_Z   1
loop_
 _symmetry_equiv_pos_site_id
 _symmetry_equiv_pos_as_xyz
  1  'x, y, z'
loop_
 _atom_site_type_symbol
 _atom_site_label
 _atom_site_symmetry_multiplicity
 _atom_site_fract_x
 _atom_site_fract_y
 _atom_site_fract_z
 _atom_site_occupancy
  Re  Re0  1  0.840184  0.159816  0.750000  1
  Re  Re1  1  0.319633  0.159816  0.750000  1
  Re  Re2  1  0.840184  0.680367  0.750000  1
  Tc  Tc3  1  0.159497  0.840503  0.250000  1
  Tc  Tc4  1  0.681005  0.840503  0.250000  1
  Tc  Tc5  1  0.159497  0.318995  0.250000  1
  Ir  Ir6  1  0.666667  0.333333  0.250000  1
  Pd  Pd7  1  0.333333  0.666667  0.750000  1
