# generated using pymatgen
data_DyHo2AlSi2Ag3
_symmetry_space_group_name_H-M   'P 1'
_cell_length_a   7.12293713
_cell_length_b   7.11478598
_cell_length_c   4.18686800
_cell_angle_alpha   90.00000000
_cell_angle_beta   90.00000000
_cell_angle_gamma   119.96215086
_symmetry_Int_Tables_number   1
_chemical_formula_structural   DyHo2AlSi2Ag3
_chemical_formula_sum   'Dy1 Ho2 Al1 Si2 Ag3'
_cell_volume   183.82575708
_cell_formula_units_Z   1
loop_
 _symmetry_equiv_pos_site_id
 _symmetry_equiv_pos_as_xyz
  1  'x, y, z'
loop_
 _atom_site_type_symbol
 _atom_site_label
 _atom_site_symmetry_multiplicity
 _atom_site_fract_x
 _atom_site_fract_y
 _atom_site_fract_z
 _atom_site_occupancy
  Dy  Dy0  1  0.000000  0.571197  0.500000  1
  Ho  Ho1  1  0.428991  0.428796  0.500000  1
  Ho  Ho2  1  0.571009  0.999807  0.500000  1
  Al  Al3  1  0.000000  0.000801  0.500000  1
  Si  Si4  1  0.666214  0.332865  0.000000  1
  Si  Si5  1  0.333786  0.666652  0.000000  1
  Ag  Ag6  1  0.749751  0.750108  0.000000  1
  Ag  Ag7  1  0.250249  0.000357  0.000000  1
  Ag  Ag8  1  0.000000  0.249417  0.000000  1
