# generated using pymatgen
data_Hf4Ga2PtRh9
_symmetry_space_group_name_H-M   'P 1'
_cell_length_a   4.10522700
_cell_length_b   5.54046594
_cell_length_c   10.96241140
_cell_angle_alpha   89.51889909
_cell_angle_beta   90.00000000
_cell_angle_gamma   90.00000000
_symmetry_Int_Tables_number   1
_chemical_formula_structural   Hf4Ga2PtRh9
_chemical_formula_sum   'Hf4 Ga2 Pt1 Rh9'
_cell_volume   249.32983624
_cell_formula_units_Z   1
loop_
 _symmetry_equiv_pos_site_id
 _symmetry_equiv_pos_as_xyz
  1  'x, y, z'
loop_
 _atom_site_type_symbol
 _atom_site_label
 _atom_site_symmetry_multiplicity
 _atom_site_fract_x
 _atom_site_fract_y
 _atom_site_fract_z
 _atom_site_occupancy
  Hf  Hf0  1  0.500000  0.177973  0.636258  1
  Hf  Hf1  1  0.500000  0.815506  0.360468  1
  Hf  Hf2  1  0.500000  0.690606  0.864148  1
  Hf  Hf3  1  0.500000  0.316031  0.139286  1
  Ga  Ga4  1  0.000000  0.499873  0.498145  1
  Ga  Ga5  1  0.000000  0.000556  0.000597  1
  Pt  Pt6  1  0.000000  0.436345  0.746740  1
  Rh  Rh7  1  0.500000  0.193268  0.890502  1
  Rh  Rh8  1  0.500000  0.809233  0.109847  1
  Rh  Rh9  1  0.500000  0.689718  0.609392  1
  Rh  Rh10  1  0.500000  0.308308  0.390690  1
  Rh  Rh11  1  0.000000  0.564227  0.253699  1
  Rh  Rh12  1  0.000000  0.997639  0.499205  1
  Rh  Rh13  1  0.000000  0.500250  0.000746  1
  Rh  Rh14  1  0.000000  0.064746  0.245998  1
  Rh  Rh15  1  0.000000  0.935720  0.754281  1
