# generated using pymatgen
data_Dy4Ta4Mn5Fe11P12
_symmetry_space_group_name_H-M   'P 1'
_cell_length_a   3.69205700
_cell_length_b   10.57804048
_cell_length_c   12.31513395
_cell_angle_alpha   89.93750816
_cell_angle_beta   90.00000000
_cell_angle_gamma   90.00000000
_symmetry_Int_Tables_number   1
_chemical_formula_structural   Dy4Ta4Mn5Fe11P12
_chemical_formula_sum   'Dy4 Ta4 Mn5 Fe11 P12'
_cell_volume   480.96392528
_cell_formula_units_Z   1
loop_
 _symmetry_equiv_pos_site_id
 _symmetry_equiv_pos_as_xyz
  1  'x, y, z'
loop_
 _atom_site_type_symbol
 _atom_site_label
 _atom_site_symmetry_multiplicity
 _atom_site_fract_x
 _atom_site_fract_y
 _atom_site_fract_z
 _atom_site_occupancy
  Dy  Dy0  1  0.250000  0.584319  0.712915  1
  Dy  Dy1  1  0.250000  0.914321  0.212981  1
  Dy  Dy2  1  0.750000  0.418185  0.288465  1
  Dy  Dy3  1  0.750000  0.084192  0.786677  1
  Ta  Ta4  1  0.250000  0.702691  0.990986  1
  Ta  Ta5  1  0.250000  0.797597  0.491291  1
  Ta  Ta6  1  0.750000  0.296343  0.009116  1
  Ta  Ta7  1  0.750000  0.202941  0.509714  1
  Mn  Mn8  1  0.250000  0.409817  0.492711  1
  Mn  Mn9  1  0.250000  0.089806  0.990696  1
  Mn  Mn10  1  0.750000  0.591748  0.508713  1
  Mn  Mn11  1  0.750000  0.905555  0.007304  1
  Mn  Mn12  1  0.250000  0.215351  0.173915  1
  Fe  Fe13  1  0.250000  0.283966  0.671753  1
  Fe  Fe14  1  0.750000  0.784030  0.828558  1
  Fe  Fe15  1  0.750000  0.716175  0.329309  1
  Fe  Fe16  1  0.250000  0.878626  0.699653  1
  Fe  Fe17  1  0.250000  0.622100  0.199698  1
  Fe  Fe18  1  0.750000  0.122667  0.298531  1
  Fe  Fe19  1  0.750000  0.378802  0.799591  1
  Fe  Fe20  1  0.250000  0.463637  0.932543  1
  Fe  Fe21  1  0.250000  0.037002  0.432765  1
  Fe  Fe22  1  0.750000  0.536606  0.066154  1
  Fe  Fe23  1  0.750000  0.963346  0.566388  1
  P  P24  1  0.250000  0.429726  0.112731  1
  P  P25  1  0.250000  0.071365  0.612849  1
  P  P26  1  0.750000  0.572370  0.886383  1
  P  P27  1  0.750000  0.928050  0.387012  1
  P  P28  1  0.250000  0.271387  0.858367  1
  P  P29  1  0.250000  0.231764  0.362135  1
  P  P30  1  0.750000  0.727341  0.142384  1
  P  P31  1  0.750000  0.771960  0.642358  1
  P  P32  1  0.250000  0.592717  0.380807  1
  P  P33  1  0.250000  0.907966  0.879705  1
  P  P34  1  0.750000  0.409151  0.619176  1
  P  P35  1  0.750000  0.086383  0.115667  1
