# generated using pymatgen
data_K2Bi(TeO4)3
_symmetry_space_group_name_H-M   'P 1'
_cell_length_a   7.49577680
_cell_length_b   7.49577733
_cell_length_c   7.49039351
_cell_angle_alpha   59.16824826
_cell_angle_beta   59.16824815
_cell_angle_gamma   59.10850851
_symmetry_Int_Tables_number   1
_chemical_formula_structural   K2Bi(TeO4)3
_chemical_formula_sum   'K2 Bi1 Te3 O12'
_cell_volume   291.81668000
_cell_formula_units_Z   1
loop_
 _symmetry_equiv_pos_site_id
 _symmetry_equiv_pos_as_xyz
  1  'x, y, z'
loop_
 _atom_site_type_symbol
 _atom_site_label
 _atom_site_symmetry_multiplicity
 _atom_site_fract_x
 _atom_site_fract_y
 _atom_site_fract_z
 _atom_site_occupancy
  K  K0  1  0.833010  0.896664  0.383895  1
  K  K1  1  0.103336  0.166990  0.616105  1
  Bi  Bi2  1  0.495837  0.504163  0.000000  1
  Te  Te3  1  0.998615  0.501168  0.000276  1
  Te  Te4  1  0.498832  0.001385  0.999724  1
  Te  Te5  1  0.499234  0.500766  0.500000  1
  O  O6  1  0.184005  0.185323  0.080480  1
  O  O7  1  0.585322  0.580796  0.644189  1
  O  O8  1  0.142115  0.580860  0.087704  1
  O  O9  1  0.582347  0.185400  0.684466  1
  O  O10  1  0.580101  0.147144  0.082304  1
  O  O11  1  0.185320  0.580551  0.685615  1
  O  O12  1  0.814677  0.815995  0.919520  1
  O  O13  1  0.419204  0.414678  0.355811  1
  O  O14  1  0.852856  0.419899  0.917696  1
  O  O15  1  0.419449  0.814680  0.314385  1
  O  O16  1  0.419140  0.857885  0.912296  1
  O  O17  1  0.814600  0.417653  0.315534  1
