# generated using pymatgen
data_Tb3Sm4Ho(ReB6)4
_symmetry_space_group_name_H-M   'P 1'
_cell_length_a   3.72198400
_cell_length_b   9.23689503
_cell_length_c   11.66191804
_cell_angle_alpha   90.00898637
_cell_angle_beta   90.00000000
_cell_angle_gamma   90.00000000
_symmetry_Int_Tables_number   1
_chemical_formula_structural   Tb3Sm4Ho(ReB6)4
_chemical_formula_sum   'Tb3 Sm4 Ho1 Re4 B24'
_cell_volume   400.93178672
_cell_formula_units_Z   1
loop_
 _symmetry_equiv_pos_site_id
 _symmetry_equiv_pos_as_xyz
  1  'x, y, z'
loop_
 _atom_site_type_symbol
 _atom_site_label
 _atom_site_symmetry_multiplicity
 _atom_site_fract_x
 _atom_site_fract_y
 _atom_site_fract_z
 _atom_site_occupancy
  Tb  Tb0  1  0.000000  0.942778  0.369521  1
  Tb  Tb1  1  0.000000  0.057281  0.630622  1
  Tb  Tb2  1  0.000000  0.442903  0.130062  1
  Sm  Sm3  1  0.000000  0.323368  0.414188  1
  Sm  Sm4  1  0.000000  0.676597  0.586036  1
  Sm  Sm5  1  0.000000  0.823143  0.085787  1
  Sm  Sm6  1  0.000000  0.176824  0.914079  1
  Ho  Ho7  1  0.000000  0.557329  0.869262  1
  Re  Re8  1  0.000000  0.638641  0.320104  1
  Re  Re9  1  0.000000  0.361756  0.680257  1
  Re  Re10  1  0.000000  0.138835  0.179698  1
  Re  Re11  1  0.000000  0.860542  0.820253  1
  B  B12  1  0.500000  0.554026  0.431669  1
  B  B13  1  0.500000  0.446056  0.568607  1
  B  B14  1  0.500000  0.053960  0.068296  1
  B  B15  1  0.500000  0.945621  0.931590  1
  B  B16  1  0.500000  0.748614  0.416821  1
  B  B17  1  0.500000  0.251556  0.583342  1
  B  B18  1  0.500000  0.248645  0.083147  1
  B  B19  1  0.500000  0.750431  0.916853  1
  B  B20  1  0.500000  0.791026  0.265780  1
  B  B21  1  0.500000  0.209297  0.734310  1
  B  B22  1  0.500000  0.291127  0.234133  1
  B  B23  1  0.500000  0.708226  0.765989  1
  B  B24  1  0.500000  0.630281  0.186301  1
  B  B25  1  0.500000  0.370348  0.814033  1
  B  B26  1  0.500000  0.130364  0.313598  1
  B  B27  1  0.500000  0.869433  0.686548  1
  B  B28  1  0.500000  0.983598  0.212250  1
  B  B29  1  0.500000  0.016213  0.787834  1
  B  B30  1  0.500000  0.483527  0.287657  1
  B  B31  1  0.500000  0.516885  0.712770  1
  B  B32  1  0.500000  0.598119  0.026526  1
  B  B33  1  0.500000  0.402620  0.971983  1
  B  B34  1  0.500000  0.098379  0.472632  1
  B  B35  1  0.500000  0.901650  0.527460  1
