# generated using pymatgen
data_La6YbOsCl12
_symmetry_space_group_name_H-M   'P 1'
_cell_length_a   9.09984030
_cell_length_b   9.37001005
_cell_length_c   9.36413300
_cell_angle_alpha   107.49924111
_cell_angle_beta   107.32333439
_cell_angle_gamma   106.82802569
_symmetry_Int_Tables_number   1
_chemical_formula_structural   La6YbOsCl12
_chemical_formula_sum   'La6 Yb1 Os1 Cl12'
_cell_volume   660.95511521
_cell_formula_units_Z   1
loop_
 _symmetry_equiv_pos_site_id
 _symmetry_equiv_pos_as_xyz
  1  'x, y, z'
loop_
 _atom_site_type_symbol
 _atom_site_label
 _atom_site_symmetry_multiplicity
 _atom_site_fract_x
 _atom_site_fract_y
 _atom_site_fract_z
 _atom_site_occupancy
  La  La0  1  0.315709  0.109142  0.027007  1
  La  La1  1  0.025487  0.334188  0.118999  1
  La  La2  1  0.121980  0.028522  0.334182  1
  La  La3  1  0.878020  0.971478  0.665819  1
  La  La4  1  0.974513  0.665813  0.881002  1
  La  La5  1  0.684292  0.890858  0.972994  1
  Yb  Yb6  1  0.500000  0.500000  0.500000  1
  Os  Os7  1  0.000000  0.000000  0.000000  1
  Cl  Cl8  1  0.680008  0.215629  0.066730  1
  Cl  Cl9  1  0.381367  0.459126  0.179836  1
  Cl  Cl10  1  0.068473  0.685306  0.213554  1
  Cl  Cl11  1  0.786001  0.932626  0.315607  1
  Cl  Cl12  1  0.466450  0.180570  0.383734  1
  Cl  Cl13  1  0.173409  0.378902  0.459796  1
  Cl  Cl14  1  0.826591  0.621099  0.540204  1
  Cl  Cl15  1  0.533550  0.819431  0.616266  1
  Cl  Cl16  1  0.214000  0.067375  0.684393  1
  Cl  Cl17  1  0.931527  0.314694  0.786447  1
  Cl  Cl18  1  0.618634  0.540874  0.820164  1
  Cl  Cl19  1  0.319993  0.784371  0.933270  1
