# generated using pymatgen
data_Ac2LaCu3(Ni5B)2
_symmetry_space_group_name_H-M   'P 1'
_cell_length_a   5.16359000
_cell_length_b   5.16359077
_cell_length_c   10.97675500
_cell_angle_alpha   90.00000000
_cell_angle_beta   90.00000000
_cell_angle_gamma   119.99999509
_symmetry_Int_Tables_number   1
_chemical_formula_structural   Ac2LaCu3(Ni5B)2
_chemical_formula_sum   'Ac2 La1 Cu3 Ni10 B2'
_cell_volume   253.45927642
_cell_formula_units_Z   1
loop_
 _symmetry_equiv_pos_site_id
 _symmetry_equiv_pos_as_xyz
  1  'x, y, z'
loop_
 _atom_site_type_symbol
 _atom_site_label
 _atom_site_symmetry_multiplicity
 _atom_site_fract_x
 _atom_site_fract_y
 _atom_site_fract_z
 _atom_site_occupancy
  Ac  Ac0  1  0.000000  0.000000  0.331474  1
  Ac  Ac1  1  0.000000  0.000000  0.671464  1
  La  La2  1  0.000000  0.000000  0.999439  1
  Cu  Cu3  1  0.333333  0.666667  0.315466  1
  Cu  Cu4  1  0.666667  0.333333  0.315493  1
  Cu  Cu5  1  0.666667  0.333333  0.685009  1
  Ni  Ni6  1  0.499304  0.998608  0.500440  1
  Ni  Ni7  1  0.499304  0.500696  0.500440  1
  Ni  Ni8  1  0.001392  0.500696  0.500440  1
  Ni  Ni9  1  0.333333  0.666667  0.683169  1
  Ni  Ni10  1  0.500208  0.000415  0.126917  1
  Ni  Ni11  1  0.500208  0.499792  0.126917  1
  Ni  Ni12  1  0.999585  0.499792  0.126917  1
  Ni  Ni13  1  0.498679  0.997358  0.872329  1
  Ni  Ni14  1  0.498679  0.501321  0.872329  1
  Ni  Ni15  1  0.002642  0.501321  0.872329  1
  B  B16  1  0.333333  0.666667  0.000138  1
  B  B17  1  0.666667  0.333333  0.999291  1
