# generated using pymatgen
data_HoInNi3Ir
_symmetry_space_group_name_H-M   'P 1'
_cell_length_a   5.14491397
_cell_length_b   5.14491361
_cell_length_c   5.14491385
_cell_angle_alpha   57.96748776
_cell_angle_beta   57.96748426
_cell_angle_gamma   57.96749282
_symmetry_Int_Tables_number   1
_chemical_formula_structural   HoInNi3Ir
_chemical_formula_sum   'Ho1 In1 Ni3 Ir1'
_cell_volume   91.80789771
_cell_formula_units_Z   1
loop_
 _symmetry_equiv_pos_site_id
 _symmetry_equiv_pos_as_xyz
  1  'x, y, z'
loop_
 _atom_site_type_symbol
 _atom_site_label
 _atom_site_symmetry_multiplicity
 _atom_site_fract_x
 _atom_site_fract_y
 _atom_site_fract_z
 _atom_site_occupancy
  Ho  Ho0  1  0.249232  0.249232  0.249232  1
  In  In1  1  0.003314  0.003314  0.003314  1
  Ni  Ni2  1  0.624870  0.624870  0.122406  1
  Ni  Ni3  1  0.624870  0.122406  0.624870  1
  Ni  Ni4  1  0.122406  0.624870  0.624870  1
  Ir  Ir5  1  0.625308  0.625308  0.625308  1
