# generated using pymatgen
data_DyErAl8GeIr3
_symmetry_space_group_name_H-M   'P 1'
_cell_length_a   7.55078634
_cell_length_b   7.55050824
_cell_length_c   9.42957200
_cell_angle_alpha   90.00000000
_cell_angle_beta   90.00000000
_cell_angle_gamma   119.70763064
_symmetry_Int_Tables_number   1
_chemical_formula_structural   DyErAl8GeIr3
_chemical_formula_sum   'Dy2 Er2 Al16 Ge2 Ir6'
_cell_volume   466.94199433
_cell_formula_units_Z   2
loop_
 _symmetry_equiv_pos_site_id
 _symmetry_equiv_pos_as_xyz
  1  'x, y, z'
loop_
 _atom_site_type_symbol
 _atom_site_label
 _atom_site_symmetry_multiplicity
 _atom_site_fract_x
 _atom_site_fract_y
 _atom_site_fract_z
 _atom_site_occupancy
  Dy  Dy0  1  0.675706  0.995498  0.750000  1
  Dy  Dy1  1  0.324294  0.004502  0.250000  1
  Er  Er2  1  0.995520  0.675751  0.750000  1
  Er  Er3  1  0.004480  0.324249  0.250000  1
  Al  Al4  1  0.000507  0.337607  0.573961  1
  Al  Al5  1  0.999493  0.662393  0.426039  1
  Al  Al6  1  0.999493  0.662393  0.073961  1
  Al  Al7  1  0.337064  0.000252  0.925756  1
  Al  Al8  1  0.000507  0.337607  0.926039  1
  Al  Al9  1  0.662936  0.999748  0.074244  1
  Al  Al10  1  0.662936  0.999748  0.425756  1
  Al  Al11  1  0.337064  0.000252  0.574244  1
  Al  Al12  1  0.335432  0.335696  0.059017  1
  Al  Al13  1  0.664568  0.664304  0.940983  1
  Al  Al14  1  0.664568  0.664304  0.559017  1
  Al  Al15  1  0.335432  0.335696  0.440983  1
  Al  Al16  1  0.335750  0.552842  0.750000  1
  Al  Al17  1  0.664250  0.447158  0.250000  1
  Al  Al18  1  0.553102  0.336250  0.750000  1
  Al  Al19  1  0.446898  0.663750  0.250000  1
  Ge  Ge20  1  0.134380  0.134252  0.750000  1
  Ge  Ge21  1  0.865620  0.865748  0.250000  1
  Ir  Ir22  1  0.671353  0.329000  0.500016  1
  Ir  Ir23  1  0.328647  0.671000  0.499984  1
  Ir  Ir24  1  0.328647  0.671000  0.000016  1
  Ir  Ir25  1  0.671353  0.329000  0.999984  1
  Ir  Ir26  1  0.000000  0.000000  0.500000  1
  Ir  Ir27  1  0.000000  0.000000  0.000000  1
