# generated using pymatgen
data_NdPa3(CoB10)2
_symmetry_space_group_name_H-M   'P 1'
_cell_length_a   4.12773200
_cell_length_b   5.54123327
_cell_length_c   11.07873455
_cell_angle_alpha   89.96404213
_cell_angle_beta   90.00000000
_cell_angle_gamma   90.00000000
_symmetry_Int_Tables_number   1
_chemical_formula_structural   NdPa3(CoB10)2
_chemical_formula_sum   'Nd1 Pa3 Co2 B20'
_cell_volume   253.40080867
_cell_formula_units_Z   1
loop_
 _symmetry_equiv_pos_site_id
 _symmetry_equiv_pos_as_xyz
  1  'x, y, z'
loop_
 _atom_site_type_symbol
 _atom_site_label
 _atom_site_symmetry_multiplicity
 _atom_site_fract_x
 _atom_site_fract_y
 _atom_site_fract_z
 _atom_site_occupancy
  Nd  Nd0  1  0.500000  0.695727  0.136090  1
  Pa  Pa1  1  0.500000  0.195751  0.366705  1
  Pa  Pa2  1  0.500000  0.805209  0.635778  1
  Pa  Pa3  1  0.500000  0.302821  0.862998  1
  Co  Co4  1  0.000000  0.005207  0.997281  1
  Co  Co5  1  0.000000  0.500512  0.501162  1
  B  B6  1  0.000000  0.372303  0.038583  1
  B  B7  1  0.000000  0.625708  0.958708  1
  B  B8  1  0.000000  0.126982  0.538929  1
  B  B9  1  0.000000  0.873659  0.461437  1
  B  B10  1  0.000000  0.343744  0.198500  1
  B  B11  1  0.000000  0.652821  0.801770  1
  B  B12  1  0.000000  0.151771  0.696945  1
  B  B13  1  0.000000  0.848672  0.304079  1
  B  B14  1  0.000000  0.032165  0.187215  1
  B  B15  1  0.000000  0.968317  0.812093  1
  B  B16  1  0.000000  0.468519  0.687155  1
  B  B17  1  0.000000  0.529414  0.314917  1
  B  B18  1  0.300832  0.200771  0.112997  1
  B  B19  1  0.698741  0.800472  0.885363  1
  B  B20  1  0.301259  0.800472  0.885363  1
  B  B21  1  0.697680  0.299925  0.613665  1
  B  B22  1  0.699168  0.200771  0.112997  1
  B  B23  1  0.301453  0.699180  0.387803  1
  B  B24  1  0.698547  0.699180  0.387803  1
  B  B25  1  0.302320  0.299925  0.613665  1
