# generated using pymatgen
data_Ca2YbErNi13C4
_symmetry_space_group_name_H-M   'P 1'
_cell_length_a   8.33193726
_cell_length_b   8.33193816
_cell_length_c   3.87621500
_cell_angle_alpha   90.00000000
_cell_angle_beta   90.00000000
_cell_angle_gamma   90.43575493
_symmetry_Int_Tables_number   1
_chemical_formula_structural   Ca2YbErNi13C4
_chemical_formula_sum   'Ca2 Yb1 Er1 Ni13 C4'
_cell_volume   269.08366019
_cell_formula_units_Z   1
loop_
 _symmetry_equiv_pos_site_id
 _symmetry_equiv_pos_as_xyz
  1  'x, y, z'
loop_
 _atom_site_type_symbol
 _atom_site_label
 _atom_site_symmetry_multiplicity
 _atom_site_fract_x
 _atom_site_fract_y
 _atom_site_fract_z
 _atom_site_occupancy
  Ca  Ca0  1  0.349299  0.352461  0.500000  1
  Ca  Ca1  1  0.647539  0.650701  0.500000  1
  Yb  Yb2  1  0.192638  0.807362  0.500000  1
  Er  Er3  1  0.812659  0.187341  0.500000  1
  Ni  Ni4  1  0.000831  0.999169  0.000000  1
  Ni  Ni5  1  0.214103  0.575264  0.000000  1
  Ni  Ni6  1  0.785283  0.426539  0.000000  1
  Ni  Ni7  1  0.424736  0.785897  0.000000  1
  Ni  Ni8  1  0.573461  0.214717  0.000000  1
  Ni  Ni9  1  0.997524  0.499673  0.500000  1
  Ni  Ni10  1  0.500327  0.002476  0.500000  1
  Ni  Ni11  1  0.069074  0.288346  0.000000  1
  Ni  Ni12  1  0.928273  0.711677  0.000000  1
  Ni  Ni13  1  0.711654  0.930926  0.000000  1
  Ni  Ni14  1  0.288323  0.071727  0.000000  1
  Ni  Ni15  1  0.122899  0.116143  0.500000  1
  Ni  Ni16  1  0.883857  0.877101  0.500000  1
  C  C17  1  0.000406  0.501453  0.000000  1
  C  C18  1  0.498547  0.999594  0.000000  1
  C  C19  1  0.442428  0.557572  0.000000  1
  C  C20  1  0.556142  0.443858  0.000000  1
