# generated using pymatgen
data_GdYReB6
_symmetry_space_group_name_H-M   'P 1'
_cell_length_a   3.69670300
_cell_length_b   9.20858800
_cell_length_c   11.60894500
_cell_angle_alpha   90.00000000
_cell_angle_beta   90.00000000
_cell_angle_gamma   90.00000000
_symmetry_Int_Tables_number   1
_chemical_formula_structural   GdYReB6
_chemical_formula_sum   'Gd4 Y4 Re4 B24'
_cell_volume   395.18491313
_cell_formula_units_Z   4
loop_
 _symmetry_equiv_pos_site_id
 _symmetry_equiv_pos_as_xyz
  1  'x, y, z'
loop_
 _atom_site_type_symbol
 _atom_site_label
 _atom_site_symmetry_multiplicity
 _atom_site_fract_x
 _atom_site_fract_y
 _atom_site_fract_z
 _atom_site_occupancy
  Gd  Gd0  1  0.000000  0.323349  0.414066  1
  Gd  Gd1  1  0.000000  0.676651  0.585934  1
  Gd  Gd2  1  0.000000  0.823349  0.085934  1
  Gd  Gd3  1  0.000000  0.176651  0.914066  1
  Y  Y4  1  0.000000  0.942714  0.370042  1
  Y  Y5  1  0.000000  0.057286  0.629958  1
  Y  Y6  1  0.000000  0.442714  0.129958  1
  Y  Y7  1  0.000000  0.557286  0.870042  1
  Re  Re8  1  0.000000  0.638157  0.320494  1
  Re  Re9  1  0.000000  0.361843  0.679506  1
  Re  Re10  1  0.000000  0.138157  0.179506  1
  Re  Re11  1  0.000000  0.861843  0.820494  1
  B  B12  1  0.500000  0.553384  0.432327  1
  B  B13  1  0.500000  0.446616  0.567673  1
  B  B14  1  0.500000  0.053384  0.067673  1
  B  B15  1  0.500000  0.946616  0.932327  1
  B  B16  1  0.500000  0.748364  0.417781  1
  B  B17  1  0.500000  0.251636  0.582219  1
  B  B18  1  0.500000  0.248364  0.082219  1
  B  B19  1  0.500000  0.751636  0.917781  1
  B  B20  1  0.500000  0.791162  0.265366  1
  B  B21  1  0.500000  0.208838  0.734634  1
  B  B22  1  0.500000  0.291162  0.234634  1
  B  B23  1  0.500000  0.708838  0.765366  1
  B  B24  1  0.500000  0.630384  0.185869  1
  B  B25  1  0.500000  0.369616  0.814131  1
  B  B26  1  0.500000  0.130384  0.314131  1
  B  B27  1  0.500000  0.869616  0.685869  1
  B  B28  1  0.500000  0.982396  0.211881  1
  B  B29  1  0.500000  0.017604  0.788119  1
  B  B30  1  0.500000  0.482396  0.288119  1
  B  B31  1  0.500000  0.517604  0.711881  1
  B  B32  1  0.500000  0.599371  0.027816  1
  B  B33  1  0.500000  0.400629  0.972184  1
  B  B34  1  0.500000  0.099371  0.472184  1
  B  B35  1  0.500000  0.900629  0.527816  1
