# generated using pymatgen
data_Ba10TaReN10
_symmetry_space_group_name_H-M   'P 1'
_cell_length_a   8.21776833
_cell_length_b   8.21776906
_cell_length_c   9.64420585
_cell_angle_alpha   76.13086915
_cell_angle_beta   76.13087434
_cell_angle_gamma   96.88545161
_symmetry_Int_Tables_number   1
_chemical_formula_structural   Ba10TaReN10
_chemical_formula_sum   'Ba10 Ta1 Re1 N10'
_cell_volume   602.90371695
_cell_formula_units_Z   1
loop_
 _symmetry_equiv_pos_site_id
 _symmetry_equiv_pos_as_xyz
  1  'x, y, z'
loop_
 _atom_site_type_symbol
 _atom_site_label
 _atom_site_symmetry_multiplicity
 _atom_site_fract_x
 _atom_site_fract_y
 _atom_site_fract_z
 _atom_site_occupancy
  Ba  Ba0  1  0.390938  0.392154  0.382795  1
  Ba  Ba1  1  0.607846  0.609062  0.617205  1
  Ba  Ba2  1  0.667854  0.667450  0.009486  1
  Ba  Ba3  1  0.332550  0.332146  0.990514  1
  Ba  Ba4  1  0.921944  0.915722  0.203784  1
  Ba  Ba5  1  0.084278  0.078056  0.796216  1
  Ba  Ba6  1  0.558609  0.094131  0.753085  1
  Ba  Ba7  1  0.905869  0.441391  0.246915  1
  Ba  Ba8  1  0.431811  0.897732  0.247757  1
  Ba  Ba9  1  0.102268  0.568189  0.752243  1
  Ta  Ta10  1  0.243736  0.756264  0.000000  1
  Re  Re11  1  0.756821  0.243179  0.000000  1
  N  N12  1  0.654541  0.654248  0.309242  1
  N  N13  1  0.345752  0.345459  0.690758  1
  N  N14  1  0.713615  0.021016  0.990544  1
  N  N15  1  0.978984  0.286385  0.009456  1
  N  N16  1  0.286952  0.993197  0.008542  1
  N  N17  1  0.006803  0.713048  0.991458  1
  N  N18  1  0.400059  0.731387  0.820137  1
  N  N19  1  0.268613  0.599941  0.179862  1
  N  N20  1  0.608698  0.268541  0.166604  1
  N  N21  1  0.731459  0.391302  0.833395  1
