# generated using pymatgen
data_Li28Mg2Si7Ge
_symmetry_space_group_name_H-M   'P 1'
_cell_length_a   9.22064489
_cell_length_b   9.21796104
_cell_length_c   9.21937916
_cell_angle_alpha   109.40583685
_cell_angle_beta   109.43204436
_cell_angle_gamma   109.57332051
_symmetry_Int_Tables_number   1
_chemical_formula_structural   Li28Mg2Si7Ge
_chemical_formula_sum   'Li28 Mg2 Si7 Ge1'
_cell_volume   603.23749833
_cell_formula_units_Z   1
loop_
 _symmetry_equiv_pos_site_id
 _symmetry_equiv_pos_as_xyz
  1  'x, y, z'
loop_
 _atom_site_type_symbol
 _atom_site_label
 _atom_site_symmetry_multiplicity
 _atom_site_fract_x
 _atom_site_fract_y
 _atom_site_fract_z
 _atom_site_occupancy
  Li  Li0  1  0.064076  0.539174  0.276583  1
  Li  Li1  1  0.262914  0.788647  0.723697  1
  Li  Li2  1  0.185142  0.961422  0.974227  1
  Li  Li3  1  0.986223  0.209934  0.025291  1
  Li  Li4  1  0.038558  0.012826  0.223762  1
  Li  Li5  1  0.789069  0.814798  0.776228  1
  Li  Li6  1  0.461447  0.737742  0.526811  1
  Li  Li7  1  0.211417  0.935162  0.474306  1
  Li  Li8  1  0.717898  0.346511  0.061840  1
  Li  Li9  1  0.964256  0.403030  0.870370  1
  Li  Li10  1  0.284803  0.656375  0.937451  1
  Li  Li11  1  0.532241  0.093936  0.128721  1
  Li  Li12  1  0.690949  0.858353  0.089569  1
  Li  Li13  1  0.481841  0.892802  0.333184  1
  Li  Li14  1  0.559065  0.148610  0.667398  1
  Li  Li15  1  0.768933  0.601521  0.910413  1
  Li  Li16  1  0.851274  0.518766  0.410453  1
  Li  Li17  1  0.398936  0.308264  0.167413  1
  Li  Li18  1  0.141218  0.230304  0.831654  1
  Li  Li19  1  0.108267  0.440854  0.589532  1
  Li  Li20  1  0.905993  0.034726  0.438167  1
  Li  Li21  1  0.343955  0.282071  0.628645  1
  Li  Li22  1  0.596513  0.467820  0.561775  1
  Li  Li23  1  0.654579  0.715847  0.371870  1
  Li  Li24  1  0.000101  0.875004  0.625062  1
  Li  Li25  1  0.249928  0.374574  0.375627  1
  Li  Li26  1  0.124559  0.750655  0.124958  1
  Li  Li27  1  0.624978  0.999993  0.875028  1
  Mg  Mg28  1  0.501024  0.499859  0.999278  1
  Mg  Mg29  1  0.750030  0.250073  0.499954  1
  Si  Si30  1  0.373761  0.127500  0.836914  1
  Si  Si31  1  0.959488  0.622544  0.746335  1
  Si  Si32  1  0.876286  0.213219  0.253678  1
  Si  Si33  1  0.377407  0.123805  0.336967  1
  Si  Si34  1  0.786912  0.040599  0.663172  1
  Si  Si35  1  0.463161  0.626195  0.753697  1
  Si  Si36  1  0.872658  0.709480  0.246293  1
  Ge  Ge37  1  0.290142  0.537003  0.163680  1
