# generated using pymatgen
data_Li2NpV3O8
_symmetry_space_group_name_H-M   'P 1'
_cell_length_a   6.05039677
_cell_length_b   6.05563680
_cell_length_c   10.09260663
_cell_angle_alpha   89.98285187
_cell_angle_beta   90.01844159
_cell_angle_gamma   120.03366193
_symmetry_Int_Tables_number   1
_chemical_formula_structural   Li2NpV3O8
_chemical_formula_sum   'Li4 Np2 V6 O16'
_cell_volume   320.13282921
_cell_formula_units_Z   2
loop_
 _symmetry_equiv_pos_site_id
 _symmetry_equiv_pos_as_xyz
  1  'x, y, z'
loop_
 _atom_site_type_symbol
 _atom_site_label
 _atom_site_symmetry_multiplicity
 _atom_site_fract_x
 _atom_site_fract_y
 _atom_site_fract_z
 _atom_site_occupancy
  Li  Li0  1  0.334526  0.667263  0.903173  1
  Li  Li1  1  0.665576  0.332772  0.403048  1
  Li  Li2  1  0.000433  0.000432  0.992036  1
  Li  Li3  1  0.999187  0.999720  0.492348  1
  Np  Np4  1  0.332651  0.666226  0.485454  1
  Np  Np5  1  0.667144  0.333476  0.985645  1
  V  V6  1  0.663356  0.831782  0.213779  1
  V  V7  1  0.832688  0.663949  0.714269  1
  V  V8  1  0.831407  0.167997  0.713839  1
  V  V9  1  0.167724  0.831730  0.213952  1
  V  V10  1  0.168158  0.336303  0.213831  1
  V  V11  1  0.337181  0.168546  0.713687  1
  O  O12  1  0.332686  0.666613  0.110258  1
  O  O13  1  0.667375  0.333968  0.610171  1
  O  O14  1  0.999919  0.000179  0.310823  1
  O  O15  1  0.000215  0.000200  0.810540  1
  O  O16  1  0.164885  0.848612  0.598849  1
  O  O17  1  0.151924  0.316446  0.598881  1
  O  O18  1  0.317226  0.152330  0.099067  1
  O  O19  1  0.682744  0.834557  0.599195  1
  O  O20  1  0.835384  0.683756  0.098808  1
  O  O21  1  0.847604  0.164178  0.098789  1
  O  O22  1  0.029369  0.522620  0.337731  1
  O  O23  1  0.492513  0.969408  0.338045  1
  O  O24  1  0.476729  0.506995  0.337601  1
  O  O25  1  0.506761  0.476014  0.838356  1
  O  O26  1  0.524044  0.030135  0.837611  1
  O  O27  1  0.970592  0.494093  0.838052  1
