# generated using pymatgen
data_LiMn2(NiP)3
_symmetry_space_group_name_H-M   'P 1'
_cell_length_a   5.81528204
_cell_length_b   5.92158709
_cell_length_c   3.46281200
_cell_angle_alpha   90.00000000
_cell_angle_beta   90.00000000
_cell_angle_gamma   119.42151751
_symmetry_Int_Tables_number   1
_chemical_formula_structural   LiMn2(NiP)3
_chemical_formula_sum   'Li1 Mn2 Ni3 P3'
_cell_volume   103.86533512
_cell_formula_units_Z   1
loop_
 _symmetry_equiv_pos_site_id
 _symmetry_equiv_pos_as_xyz
  1  'x, y, z'
loop_
 _atom_site_type_symbol
 _atom_site_label
 _atom_site_symmetry_multiplicity
 _atom_site_fract_x
 _atom_site_fract_y
 _atom_site_fract_z
 _atom_site_occupancy
  Li  Li0  1  0.589339  0.999972  0.000000  1
  Mn  Mn1  1  0.001899  0.597114  0.000000  1
  Mn  Mn2  1  0.404526  0.403051  0.000000  1
  Ni  Ni3  1  0.265844  0.000072  0.500000  1
  Ni  Ni4  1  0.990497  0.245066  0.500000  1
  Ni  Ni5  1  0.745309  0.754729  0.500000  1
  P  P6  1  0.011646  0.999924  0.000000  1
  P  P7  1  0.320976  0.651127  0.500000  1
  P  P8  1  0.669963  0.348945  0.500000  1
