# generated using pymatgen
data_Sr6LaPrSb6
_symmetry_space_group_name_H-M   'P 1'
_cell_length_a   8.58765088
_cell_length_b   8.56689666
_cell_length_c   9.93376500
_cell_angle_alpha   55.07108324
_cell_angle_beta   55.01018198
_cell_angle_gamma   70.79103322
_symmetry_Int_Tables_number   1
_chemical_formula_structural   Sr6LaPrSb6
_chemical_formula_sum   'Sr6 La1 Pr1 Sb6'
_cell_volume   490.87555497
_cell_formula_units_Z   1
loop_
 _symmetry_equiv_pos_site_id
 _symmetry_equiv_pos_as_xyz
  1  'x, y, z'
loop_
 _atom_site_type_symbol
 _atom_site_label
 _atom_site_symmetry_multiplicity
 _atom_site_fract_x
 _atom_site_fract_y
 _atom_site_fract_z
 _atom_site_occupancy
  Sr  Sr0  1  0.000860  0.133297  0.113499  1
  Sr  Sr1  1  0.866013  0.000458  0.885628  1
  Sr  Sr2  1  0.499608  0.858333  0.750569  1
  Sr  Sr3  1  0.142390  0.500210  0.249260  1
  Sr  Sr4  1  0.999114  0.644497  0.605601  1
  Sr  Sr5  1  0.355359  0.000239  0.394778  1
  La  La6  1  0.636719  0.498445  0.248813  1
  Pr  Pr7  1  0.500483  0.365849  0.751837  1
  Sb  Sb8  1  0.861193  0.138226  0.500788  1
  Sb  Sb9  1  0.624258  0.374745  0.998568  1
  Sb  Sb10  1  0.262084  0.257622  0.621525  1
  Sb  Sb11  1  0.741285  0.736574  0.380875  1
  Sb  Sb12  1  0.125799  0.614079  0.877967  1
  Sb  Sb13  1  0.384832  0.877426  0.120294  1
