# generated using pymatgen
data_Y5Er15(GaBi2)4
_symmetry_space_group_name_H-M   'P 1'
_cell_length_a   8.05164821
_cell_length_b   9.23777500
_cell_length_c   12.05045831
_cell_angle_alpha   90.00000000
_cell_angle_beta   90.02593375
_cell_angle_gamma   90.00000000
_symmetry_Int_Tables_number   1
_chemical_formula_structural   Y5Er15(GaBi2)4
_chemical_formula_sum   'Y5 Er15 Ga4 Bi8'
_cell_volume   896.30473669
_cell_formula_units_Z   1
loop_
 _symmetry_equiv_pos_site_id
 _symmetry_equiv_pos_as_xyz
  1  'x, y, z'
loop_
 _atom_site_type_symbol
 _atom_site_label
 _atom_site_symmetry_multiplicity
 _atom_site_fract_x
 _atom_site_fract_y
 _atom_site_fract_z
 _atom_site_occupancy
  Y  Y0  1  0.668266  0.750000  0.715771  1
  Y  Y1  1  0.331476  0.250000  0.284226  1
  Y  Y2  1  0.168499  0.250000  0.784239  1
  Y  Y3  1  0.831397  0.750000  0.215900  1
  Y  Y4  1  0.143678  0.750000  0.794583  1
  Er  Er5  1  0.856406  0.250000  0.205183  1
  Er  Er6  1  0.643640  0.250000  0.705100  1
  Er  Er7  1  0.356498  0.750000  0.294900  1
  Er  Er8  1  0.539538  0.750000  0.002683  1
  Er  Er9  1  0.460477  0.250000  0.997344  1
  Er  Er10  1  0.039475  0.250000  0.497240  1
  Er  Er11  1  0.960445  0.750000  0.502443  1
  Er  Er12  1  0.819065  0.446517  0.936300  1
  Er  Er13  1  0.180949  0.553481  0.063993  1
  Er  Er14  1  0.319311  0.553443  0.563385  1
  Er  Er15  1  0.180949  0.946519  0.063993  1
  Er  Er16  1  0.680821  0.446389  0.436356  1
  Er  Er17  1  0.819065  0.053483  0.936300  1
  Er  Er18  1  0.680821  0.053611  0.436356  1
  Er  Er19  1  0.319311  0.946557  0.563385  1
  Ga  Ga20  1  0.908309  0.750000  0.975533  1
  Ga  Ga21  1  0.091017  0.250000  0.025283  1
  Ga  Ga22  1  0.409055  0.250000  0.525126  1
  Ga  Ga23  1  0.591007  0.750000  0.474671  1
  Bi  Bi24  1  0.934977  0.009092  0.673592  1
  Bi  Bi25  1  0.064754  0.991297  0.326167  1
  Bi  Bi26  1  0.435833  0.991652  0.826193  1
  Bi  Bi27  1  0.064754  0.508703  0.326167  1
  Bi  Bi28  1  0.564700  0.008746  0.173902  1
  Bi  Bi29  1  0.934977  0.490908  0.673592  1
  Bi  Bi30  1  0.564700  0.491254  0.173902  1
  Bi  Bi31  1  0.435833  0.508348  0.826193  1
