# generated using pymatgen
data_Rb4ZnMo3N8
_symmetry_space_group_name_H-M   'P 1'
_cell_length_a   6.00163800
_cell_length_b   8.58144800
_cell_length_c   12.30114900
_cell_angle_alpha   90.00000000
_cell_angle_beta   90.00000000
_cell_angle_gamma   90.00000000
_symmetry_Int_Tables_number   1
_chemical_formula_structural   Rb4ZnMo3N8
_chemical_formula_sum   'Rb8 Zn2 Mo6 N16'
_cell_volume   633.54293292
_cell_formula_units_Z   2
loop_
 _symmetry_equiv_pos_site_id
 _symmetry_equiv_pos_as_xyz
  1  'x, y, z'
loop_
 _atom_site_type_symbol
 _atom_site_label
 _atom_site_symmetry_multiplicity
 _atom_site_fract_x
 _atom_site_fract_y
 _atom_site_fract_z
 _atom_site_occupancy
  Rb  Rb0  1  0.750000  0.184037  0.500000  1
  Rb  Rb1  1  0.250000  0.815963  0.000000  1
  Rb  Rb2  1  0.250000  0.890675  0.500000  1
  Rb  Rb3  1  0.750000  0.109325  0.000000  1
  Rb  Rb4  1  0.819979  0.390502  0.776217  1
  Rb  Rb5  1  0.319979  0.609498  0.723783  1
  Rb  Rb6  1  0.180021  0.609498  0.276217  1
  Rb  Rb7  1  0.680021  0.390502  0.223783  1
  Zn  Zn8  1  0.250000  0.360935  0.500000  1
  Zn  Zn9  1  0.750000  0.639065  0.000000  1
  Mo  Mo10  1  0.750000  0.627291  0.500000  1
  Mo  Mo11  1  0.250000  0.372709  0.000000  1
  Mo  Mo12  1  0.304296  0.114337  0.749645  1
  Mo  Mo13  1  0.804296  0.885663  0.750355  1
  Mo  Mo14  1  0.695704  0.885663  0.249645  1
  Mo  Mo15  1  0.195704  0.114337  0.250355  1
  N  N16  1  0.619261  0.067100  0.739981  1
  N  N17  1  0.119261  0.932900  0.760019  1
  N  N18  1  0.380739  0.932900  0.239981  1
  N  N19  1  0.880739  0.067100  0.260019  1
  N  N20  1  0.258096  0.242552  0.870668  1
  N  N21  1  0.758096  0.757448  0.629332  1
  N  N22  1  0.741904  0.757448  0.370668  1
  N  N23  1  0.241904  0.242552  0.129332  1
  N  N24  1  0.769255  0.777694  0.130820  1
  N  N25  1  0.269255  0.222306  0.369180  1
  N  N26  1  0.230745  0.222306  0.630820  1
  N  N27  1  0.730745  0.777694  0.869180  1
  N  N28  1  0.004757  0.492722  0.995199  1
  N  N29  1  0.504757  0.507278  0.504801  1
  N  N30  1  0.995243  0.507278  0.495199  1
  N  N31  1  0.495243  0.492722  0.004801  1
