# generated using pymatgen
data_Sr3Pr5(US5)4
_symmetry_space_group_name_H-M   'P 1'
_cell_length_a   7.59241649
_cell_length_b   8.14577546
_cell_length_c   11.95184300
_cell_angle_alpha   89.98227482
_cell_angle_beta   89.90032646
_cell_angle_gamma   90.21065282
_symmetry_Int_Tables_number   1
_chemical_formula_structural   Sr3Pr5(US5)4
_chemical_formula_sum   'Sr3 Pr5 U4 S20'
_cell_volume   739.16896427
_cell_formula_units_Z   1
loop_
 _symmetry_equiv_pos_site_id
 _symmetry_equiv_pos_as_xyz
  1  'x, y, z'
loop_
 _atom_site_type_symbol
 _atom_site_label
 _atom_site_symmetry_multiplicity
 _atom_site_fract_x
 _atom_site_fract_y
 _atom_site_fract_z
 _atom_site_occupancy
  Sr  Sr0  1  0.535732  0.503010  0.325172  1
  Sr  Sr1  1  0.963854  0.996352  0.824501  1
  Sr  Sr2  1  0.464171  0.003347  0.677154  1
  Pr  Pr3  1  0.031071  0.498928  0.176641  1
  Pr  Pr4  1  0.466063  0.499298  0.674097  1
  Pr  Pr5  1  0.037436  0.001300  0.172232  1
  Pr  Pr6  1  0.533768  0.999689  0.327381  1
  Pr  Pr7  1  0.963930  0.500332  0.825302  1
  U  U8  1  0.067748  0.750734  0.493401  1
  U  U9  1  0.437940  0.748446  0.992905  1
  U  U10  1  0.934864  0.250152  0.506690  1
  U  U11  1  0.563424  0.250468  0.007048  1
  S  S12  1  0.840416  0.959396  0.582151  1
  S  S13  1  0.665456  0.540073  0.085568  1
  S  S14  1  0.155988  0.461458  0.408827  1
  S  S15  1  0.337143  0.037686  0.918802  1
  S  S16  1  0.167403  0.042595  0.409553  1
  S  S17  1  0.333896  0.457621  0.911864  1
  S  S18  1  0.834012  0.541701  0.587830  1
  S  S19  1  0.666075  0.959966  0.090617  1
  S  S20  1  0.849346  0.756180  0.311218  1
  S  S21  1  0.656628  0.738131  0.815321  1
  S  S22  1  0.155233  0.262922  0.683753  1
  S  S23  1  0.338183  0.244172  0.184948  1
  S  S24  1  0.442627  0.751882  0.496445  1
  S  S25  1  0.054478  0.740439  0.000894  1
  S  S26  1  0.557797  0.251263  0.502772  1
  S  S27  1  0.946496  0.254876  0.006756  1
  S  S28  1  0.181667  0.737788  0.709415  1
  S  S29  1  0.314819  0.756768  0.208572  1
  S  S30  1  0.820275  0.241705  0.289061  1
  S  S31  1  0.682058  0.261321  0.793109  1
