# generated using pymatgen
data_Nd8Sc12Si11Ge5
_symmetry_space_group_name_H-M   'P 1'
_cell_length_a   7.27686688
_cell_length_b   7.53178319
_cell_length_c   14.27678671
_cell_angle_alpha   89.99221604
_cell_angle_beta   89.54032225
_cell_angle_gamma   90.04665623
_symmetry_Int_Tables_number   1
_chemical_formula_structural   Nd8Sc12Si11Ge5
_chemical_formula_sum   'Nd8 Sc12 Si11 Ge5'
_cell_volume   782.45358757
_cell_formula_units_Z   1
loop_
 _symmetry_equiv_pos_site_id
 _symmetry_equiv_pos_as_xyz
  1  'x, y, z'
loop_
 _atom_site_type_symbol
 _atom_site_label
 _atom_site_symmetry_multiplicity
 _atom_site_fract_x
 _atom_site_fract_y
 _atom_site_fract_z
 _atom_site_occupancy
  Nd  Nd0  1  0.010690  0.172126  0.097220  1
  Nd  Nd1  1  0.990529  0.827775  0.902407  1
  Nd  Nd2  1  0.489678  0.673147  0.902098  1
  Nd  Nd3  1  0.994146  0.824963  0.599271  1
  Nd  Nd4  1  0.508011  0.326406  0.097522  1
  Nd  Nd5  1  0.005691  0.174759  0.400782  1
  Nd  Nd6  1  0.505288  0.325131  0.400697  1
  Nd  Nd7  1  0.494560  0.674512  0.599401  1
  Sc  Sc8  1  0.164858  0.498232  0.751202  1
  Sc  Sc9  1  0.835286  0.501822  0.250177  1
  Sc  Sc10  1  0.335263  0.998338  0.248868  1
  Sc  Sc11  1  0.664566  0.001928  0.751137  1
  Sc  Sc12  1  0.338412  0.171834  0.627264  1
  Sc  Sc13  1  0.661803  0.828538  0.372584  1
  Sc  Sc14  1  0.161679  0.671764  0.372750  1
  Sc  Sc15  1  0.665156  0.826543  0.126022  1
  Sc  Sc16  1  0.838431  0.328279  0.627251  1
  Sc  Sc17  1  0.333408  0.175351  0.874453  1
  Sc  Sc18  1  0.833841  0.323448  0.874552  1
  Sc  Sc19  1  0.168534  0.675444  0.124922  1
  Si  Si20  1  0.038918  0.123341  0.750779  1
  Si  Si21  1  0.961560  0.875834  0.248857  1
  Si  Si22  1  0.461344  0.623798  0.249125  1
  Si  Si23  1  0.539420  0.376085  0.750905  1
  Si  Si24  1  0.291501  0.880973  0.750888  1
  Si  Si25  1  0.708515  0.119880  0.249001  1
  Si  Si26  1  0.207567  0.380985  0.248871  1
  Si  Si27  1  0.792025  0.618761  0.751245  1
  Si  Si28  1  0.157440  0.461825  0.959291  1
  Si  Si29  1  0.652705  0.036938  0.960376  1
  Si  Si30  1  0.347279  0.962738  0.039420  1
  Ge  Ge31  1  0.168348  0.457641  0.541672  1
  Ge  Ge32  1  0.831708  0.542369  0.458502  1
  Ge  Ge33  1  0.332127  0.957387  0.458597  1
  Ge  Ge34  1  0.841632  0.538655  0.040343  1
  Ge  Ge35  1  0.668083  0.042450  0.541549  1
