# generated using pymatgen
data_Tb20Ir7PdRu4
_symmetry_space_group_name_H-M   'P 1'
_cell_length_a   10.88408207
_cell_length_b   10.88408207
_cell_length_c   6.46805871
_cell_angle_alpha   90.11678783
_cell_angle_beta   90.11678783
_cell_angle_gamma   89.75714605
_symmetry_Int_Tables_number   1
_chemical_formula_structural   Tb20Ir7PdRu4
_chemical_formula_sum   'Tb20 Ir7 Pd1 Ru4'
_cell_volume   766.21715404
_cell_formula_units_Z   1
loop_
 _symmetry_equiv_pos_site_id
 _symmetry_equiv_pos_as_xyz
  1  'x, y, z'
loop_
 _atom_site_type_symbol
 _atom_site_label
 _atom_site_symmetry_multiplicity
 _atom_site_fract_x
 _atom_site_fract_y
 _atom_site_fract_z
 _atom_site_occupancy
  Tb  Tb0  1  0.292203  0.086363  0.378920  1
  Tb  Tb1  1  0.294749  0.913017  0.878681  1
  Tb  Tb2  1  0.703068  0.084346  0.869985  1
  Tb  Tb3  1  0.704332  0.907119  0.382028  1
  Tb  Tb4  1  0.587117  0.792542  0.880289  1
  Tb  Tb5  1  0.580617  0.206858  0.379358  1
  Tb  Tb6  1  0.412002  0.793220  0.379703  1
  Tb  Tb7  1  0.412110  0.206863  0.880133  1
  Tb  Tb8  1  0.207458  0.412883  0.619711  1
  Tb  Tb9  1  0.206780  0.587998  0.120297  1
  Tb  Tb10  1  0.793142  0.419383  0.120642  1
  Tb  Tb11  1  0.793137  0.587890  0.619867  1
  Tb  Tb12  1  0.913637  0.707797  0.121080  1
  Tb  Tb13  1  0.915654  0.296932  0.630015  1
  Tb  Tb14  1  0.086983  0.705251  0.621319  1
  Tb  Tb15  1  0.092881  0.295668  0.117972  1
  Tb  Tb16  1  0.001636  0.997670  0.501712  1
  Tb  Tb17  1  0.002330  0.998364  0.998288  1
  Tb  Tb18  1  0.499611  0.500101  0.999646  1
  Tb  Tb19  1  0.499899  0.500389  0.500354  1
  Ir  Ir20  1  0.848449  0.849429  0.750013  1
  Ir  Ir21  1  0.150571  0.151551  0.749987  1
  Ir  Ir22  1  0.152732  0.847268  0.250000  1
  Ir  Ir23  1  0.653280  0.346720  0.750000  1
  Ir  Ir24  1  0.652242  0.651591  0.250049  1
  Ir  Ir25  1  0.348409  0.347758  0.249951  1
  Ir  Ir26  1  0.347702  0.652298  0.750000  1
  Pd  Pd27  1  0.846201  0.153799  0.250000  1
  Ru  Ru28  1  0.501026  0.000483  0.123697  1
  Ru  Ru29  1  0.500679  0.000155  0.621790  1
  Ru  Ru30  1  0.999845  0.499321  0.878210  1
  Ru  Ru31  1  0.999517  0.498974  0.376303  1
