# generated using pymatgen
data_Er3Tm7In8(PtAu)2
_symmetry_space_group_name_H-M   'P 1'
_cell_length_a   3.61775300
_cell_length_b   8.11791534
_cell_length_c   18.17814175
_cell_angle_alpha   90.02704125
_cell_angle_beta   90.00000000
_cell_angle_gamma   90.00000000
_symmetry_Int_Tables_number   1
_chemical_formula_structural   Er3Tm7In8(PtAu)2
_chemical_formula_sum   'Er3 Tm7 In8 Pt2 Au2'
_cell_volume   533.86674282
_cell_formula_units_Z   1
loop_
 _symmetry_equiv_pos_site_id
 _symmetry_equiv_pos_as_xyz
  1  'x, y, z'
loop_
 _atom_site_type_symbol
 _atom_site_label
 _atom_site_symmetry_multiplicity
 _atom_site_fract_x
 _atom_site_fract_y
 _atom_site_fract_z
 _atom_site_occupancy
  Er  Er0  1  0.000000  0.732149  0.278752  1
  Er  Er1  1  0.000000  0.000062  0.999992  1
  Er  Er2  1  0.000000  0.499993  0.500038  1
  Tm  Tm3  1  0.000000  0.119998  0.418631  1
  Tm  Tm4  1  0.000000  0.880073  0.581421  1
  Tm  Tm5  1  0.000000  0.384656  0.915690  1
  Tm  Tm6  1  0.000000  0.615318  0.084228  1
  Tm  Tm7  1  0.000000  0.251900  0.217627  1
  Tm  Tm8  1  0.000000  0.748046  0.782368  1
  Tm  Tm9  1  0.000000  0.267892  0.721329  1
  In  In10  1  0.500000  0.422833  0.352664  1
  In  In11  1  0.500000  0.576934  0.647386  1
  In  In12  1  0.500000  0.077652  0.852929  1
  In  In13  1  0.500000  0.922480  0.146985  1
  In  In14  1  0.500000  0.292029  0.065562  1
  In  In15  1  0.500000  0.707921  0.934431  1
  In  In16  1  0.500000  0.209210  0.566360  1
  In  In17  1  0.500000  0.790828  0.433766  1
  Pt  Pt18  1  0.500000  0.473273  0.803598  1
  Pt  Pt19  1  0.500000  0.526138  0.196177  1
  Au  Au20  1  0.500000  0.028150  0.302560  1
  Au  Au21  1  0.500000  0.972462  0.697505  1
