# generated using pymatgen
data_K4CuAu3S4
_symmetry_space_group_name_H-M   'P 1'
_cell_length_a   5.90507012
_cell_length_b   6.09737672
_cell_length_c   10.75159498
_cell_angle_alpha   90.13558319
_cell_angle_beta   89.14257863
_cell_angle_gamma   89.09947273
_symmetry_Int_Tables_number   1
_chemical_formula_structural   K4CuAu3S4
_chemical_formula_sum   'K4 Cu1 Au3 S4'
_cell_volume   387.02341224
_cell_formula_units_Z   1
loop_
 _symmetry_equiv_pos_site_id
 _symmetry_equiv_pos_as_xyz
  1  'x, y, z'
loop_
 _atom_site_type_symbol
 _atom_site_label
 _atom_site_symmetry_multiplicity
 _atom_site_fract_x
 _atom_site_fract_y
 _atom_site_fract_z
 _atom_site_occupancy
  K  K0  1  0.746390  0.535293  0.849427  1
  K  K1  1  0.251043  0.030810  0.653296  1
  K  K2  1  0.748957  0.969190  0.346704  1
  K  K3  1  0.253610  0.464707  0.150573  1
  Cu  Cu4  1  0.000000  0.000000  0.000000  1
  Au  Au5  1  0.500000  0.000000  0.000000  1
  Au  Au6  1  0.500000  0.500000  0.500000  1
  Au  Au7  1  0.000000  0.500000  0.500000  1
  S  S8  1  0.767902  0.230237  0.089669  1
  S  S9  1  0.751211  0.254506  0.597759  1
  S  S10  1  0.232098  0.769763  0.910331  1
  S  S11  1  0.248789  0.745494  0.402241  1
