# generated using pymatgen
data_CeEr3CdPt4Au
_symmetry_space_group_name_H-M   'P 1'
_cell_length_a   7.69692367
_cell_length_b   7.69600618
_cell_length_c   3.66993500
_cell_angle_alpha   90.00000000
_cell_angle_beta   90.00000000
_cell_angle_gamma   90.75131937
_symmetry_Int_Tables_number   1
_chemical_formula_structural   CeEr3CdPt4Au
_chemical_formula_sum   'Ce1 Er3 Cd1 Pt4 Au1'
_cell_volume   217.37200950
_cell_formula_units_Z   1
loop_
 _symmetry_equiv_pos_site_id
 _symmetry_equiv_pos_as_xyz
  1  'x, y, z'
loop_
 _atom_site_type_symbol
 _atom_site_label
 _atom_site_symmetry_multiplicity
 _atom_site_fract_x
 _atom_site_fract_y
 _atom_site_fract_z
 _atom_site_occupancy
  Ce  Ce0  1  0.655790  0.182204  0.500000  1
  Er  Er1  1  0.183684  0.348884  0.500000  1
  Er  Er2  1  0.345777  0.813368  0.500000  1
  Er  Er3  1  0.817425  0.655868  0.500000  1
  Cd  Cd4  1  0.003078  0.997607  0.000000  1
  Pt  Pt5  1  0.639077  0.875182  0.000000  1
  Pt  Pt6  1  0.120810  0.641376  0.000000  1
  Pt  Pt7  1  0.877209  0.357957  0.000000  1
  Pt  Pt8  1  0.361115  0.123750  0.000000  1
  Au  Au9  1  0.496035  0.503805  0.000000  1
