# generated using pymatgen
data_La2Th2Al4RuRh3
_symmetry_space_group_name_H-M   'P 1'
_cell_length_a   4.24059100
_cell_length_b   7.23911299
_cell_length_c   16.27902712
_cell_angle_alpha   89.87921558
_cell_angle_beta   90.00000000
_cell_angle_gamma   90.00000000
_symmetry_Int_Tables_number   1
_chemical_formula_structural   La2Th2Al4RuRh3
_chemical_formula_sum   'La4 Th4 Al8 Ru2 Rh6'
_cell_volume   499.73437497
_cell_formula_units_Z   2
loop_
 _symmetry_equiv_pos_site_id
 _symmetry_equiv_pos_as_xyz
  1  'x, y, z'
loop_
 _atom_site_type_symbol
 _atom_site_label
 _atom_site_symmetry_multiplicity
 _atom_site_fract_x
 _atom_site_fract_y
 _atom_site_fract_z
 _atom_site_occupancy
  La  La0  1  0.250000  0.655039  0.559383  1
  La  La1  1  0.750000  0.344961  0.440617  1
  La  La2  1  0.750000  0.844212  0.060785  1
  La  La3  1  0.250000  0.155788  0.939215  1
  Th  Th4  1  0.250000  0.517647  0.779929  1
  Th  Th5  1  0.750000  0.482353  0.220071  1
  Th  Th6  1  0.750000  0.977354  0.278452  1
  Th  Th7  1  0.250000  0.022646  0.721548  1
  Al  Al8  1  0.250000  0.654698  0.350734  1
  Al  Al9  1  0.750000  0.345302  0.649266  1
  Al  Al10  1  0.750000  0.846271  0.850689  1
  Al  Al11  1  0.250000  0.153729  0.149311  1
  Al  Al12  1  0.250000  0.506356  0.061396  1
  Al  Al13  1  0.750000  0.493644  0.938604  1
  Al  Al14  1  0.750000  0.993115  0.561022  1
  Al  Al15  1  0.250000  0.006885  0.438978  1
  Ru  Ru16  1  0.250000  0.764838  0.186062  1
  Ru  Ru17  1  0.750000  0.235162  0.813938  1
  Rh  Rh18  1  0.750000  0.738419  0.686993  1
  Rh  Rh19  1  0.250000  0.261581  0.313007  1
  Rh  Rh20  1  0.250000  0.712833  0.925369  1
  Rh  Rh21  1  0.750000  0.287167  0.074631  1
  Rh  Rh22  1  0.750000  0.787890  0.425194  1
  Rh  Rh23  1  0.250000  0.212110  0.574806  1
