# generated using pymatgen
data_Pa2(NiRh)3
_symmetry_space_group_name_H-M   'P 1'
_cell_length_a   5.63595400
_cell_length_b   5.63595421
_cell_length_c   4.54261600
_cell_angle_alpha   90.00000000
_cell_angle_beta   90.00000000
_cell_angle_gamma   120.00001053
_symmetry_Int_Tables_number   1
_chemical_formula_structural   Pa2(NiRh)3
_chemical_formula_sum   'Pa2 Ni3 Rh3'
_cell_volume   124.96014124
_cell_formula_units_Z   1
loop_
 _symmetry_equiv_pos_site_id
 _symmetry_equiv_pos_as_xyz
  1  'x, y, z'
loop_
 _atom_site_type_symbol
 _atom_site_label
 _atom_site_symmetry_multiplicity
 _atom_site_fract_x
 _atom_site_fract_y
 _atom_site_fract_z
 _atom_site_occupancy
  Pa  Pa0  1  0.666667  0.333332  0.250000  1
  Pa  Pa1  1  0.333334  0.666667  0.750000  1
  Ni  Ni2  1  0.841778  0.158221  0.750000  1
  Ni  Ni3  1  0.316442  0.158221  0.750000  1
  Ni  Ni4  1  0.841778  0.683558  0.750000  1
  Rh  Rh5  1  0.162215  0.837784  0.250000  1
  Rh  Rh6  1  0.675571  0.837784  0.250000  1
  Rh  Rh7  1  0.162215  0.324429  0.250000  1
