# generated using pymatgen
data_MnNbP12Os
_symmetry_space_group_name_H-M   'P 1'
_cell_length_a   8.66770402
_cell_length_b   8.66770323
_cell_length_c   10.78603025
_cell_angle_alpha   65.53343577
_cell_angle_beta   65.53343813
_cell_angle_gamma   39.36172374
_symmetry_Int_Tables_number   1
_chemical_formula_structural   MnNbP12Os
_chemical_formula_sum   'Mn2 Nb2 P24 Os2'
_cell_volume   461.54574238
_cell_formula_units_Z   2
loop_
 _symmetry_equiv_pos_site_id
 _symmetry_equiv_pos_as_xyz
  1  'x, y, z'
loop_
 _atom_site_type_symbol
 _atom_site_label
 _atom_site_symmetry_multiplicity
 _atom_site_fract_x
 _atom_site_fract_y
 _atom_site_fract_z
 _atom_site_occupancy
  Mn  Mn0  1  0.626644  0.009926  0.546744  1
  Mn  Mn1  1  0.990074  0.373356  0.953256  1
  Nb  Nb2  1  0.305752  0.694248  0.250000  1
  Nb  Nb3  1  0.696288  0.303712  0.750000  1
  P  P4  1  0.581812  0.961389  0.073281  1
  P  P5  1  0.038611  0.418188  0.426719  1
  P  P6  1  0.402532  0.050304  0.923413  1
  P  P7  1  0.949696  0.597468  0.576587  1
  P  P8  1  0.585847  0.294175  0.164060  1
  P  P9  1  0.705825  0.414153  0.335940  1
  P  P10  1  0.976621  0.332551  0.758893  1
  P  P11  1  0.667449  0.023379  0.741107  1
  P  P12  1  0.024651  0.671199  0.245544  1
  P  P13  1  0.328801  0.975349  0.254456  1
  P  P14  1  0.017879  0.928095  0.922510  1
  P  P15  1  0.071905  0.982121  0.577490  1
  P  P16  1  0.987064  0.080120  0.072093  1
  P  P17  1  0.919880  0.012936  0.427907  1
  P  P18  1  0.331349  0.433321  0.504995  1
  P  P19  1  0.566679  0.668651  0.995005  1
  P  P20  1  0.675989  0.552680  0.497075  1
  P  P21  1  0.447320  0.324011  0.002925  1
  P  P22  1  0.993147  0.646447  0.829290  1
  P  P23  1  0.353553  0.006853  0.670710  1
  P  P24  1  0.001676  0.341657  0.165044  1
  P  P25  1  0.658343  0.998324  0.334956  1
  P  P26  1  0.293485  0.578910  0.665596  1
  P  P27  1  0.421090  0.706515  0.834404  1
  Os  Os28  1  0.371166  0.991127  0.453334  1
  Os  Os29  1  0.008873  0.628834  0.046666  1
