# generated using pymatgen
data_Yb2Ni7P4
_symmetry_space_group_name_H-M   'P 1'
_cell_length_a   3.68130100
_cell_length_b   9.09166600
_cell_length_c   10.24391100
_cell_angle_alpha   90.00000000
_cell_angle_beta   90.00000000
_cell_angle_gamma   90.00000000
_symmetry_Int_Tables_number   1
_chemical_formula_structural   Yb2Ni7P4
_chemical_formula_sum   'Yb4 Ni14 P8'
_cell_volume   342.85508745
_cell_formula_units_Z   2
loop_
 _symmetry_equiv_pos_site_id
 _symmetry_equiv_pos_as_xyz
  1  'x, y, z'
loop_
 _atom_site_type_symbol
 _atom_site_label
 _atom_site_symmetry_multiplicity
 _atom_site_fract_x
 _atom_site_fract_y
 _atom_site_fract_z
 _atom_site_occupancy
  Yb  Yb0  1  0.000000  0.441274  0.519451  1
  Yb  Yb1  1  0.500000  0.558726  0.019451  1
  Yb  Yb2  1  0.000000  0.058515  0.738863  1
  Yb  Yb3  1  0.500000  0.941485  0.238863  1
  Ni  Ni4  1  0.000000  0.774333  0.404203  1
  Ni  Ni5  1  0.500000  0.225667  0.904203  1
  Ni  Ni6  1  0.000000  0.753421  0.641037  1
  Ni  Ni7  1  0.500000  0.246579  0.141037  1
  Ni  Ni8  1  0.000000  0.813505  0.002280  1
  Ni  Ni9  1  0.500000  0.186495  0.502280  1
  Ni  Ni10  1  0.000000  0.441881  0.211864  1
  Ni  Ni11  1  0.500000  0.558119  0.711864  1
  Ni  Ni12  1  0.000000  0.403327  0.817420  1
  Ni  Ni13  1  0.500000  0.596673  0.317420  1
  Ni  Ni14  1  0.000000  0.194891  0.312845  1
  Ni  Ni15  1  0.500000  0.805109  0.812845  1
  Ni  Ni16  1  0.000000  0.082332  0.046006  1
  Ni  Ni17  1  0.500000  0.917668  0.546006  1
  P  P18  1  0.000000  0.689938  0.200192  1
  P  P19  1  0.500000  0.310062  0.700192  1
  P  P20  1  0.000000  0.022943  0.457458  1
  P  P21  1  0.500000  0.977057  0.957458  1
  P  P22  1  0.000000  0.318687  0.021503  1
  P  P23  1  0.500000  0.681313  0.521503  1
  P  P24  1  0.000000  0.654544  0.831679  1
  P  P25  1  0.500000  0.345456  0.331679  1
