# generated using pymatgen
data_HoTm2Zn2Co9B4
_symmetry_space_group_name_H-M   'P 1'
_cell_length_a   5.09030737
_cell_length_b   5.09785675
_cell_length_c   9.68923000
_cell_angle_alpha   89.99965893
_cell_angle_beta   90.00011687
_cell_angle_gamma   120.02058536
_symmetry_Int_Tables_number   1
_chemical_formula_structural   HoTm2Zn2Co9B4
_chemical_formula_sum   'Ho1 Tm2 Zn2 Co9 B4'
_cell_volume   217.70149336
_cell_formula_units_Z   1
loop_
 _symmetry_equiv_pos_site_id
 _symmetry_equiv_pos_as_xyz
  1  'x, y, z'
loop_
 _atom_site_type_symbol
 _atom_site_label
 _atom_site_symmetry_multiplicity
 _atom_site_fract_x
 _atom_site_fract_y
 _atom_site_fract_z
 _atom_site_occupancy
  Ho  Ho0  1  0.999985  0.000001  0.000055  1
  Tm  Tm1  1  0.999995  0.000001  0.342084  1
  Tm  Tm2  1  0.000000  0.999999  0.657875  1
  Zn  Zn3  1  0.333365  0.666636  0.000024  1
  Zn  Zn4  1  0.666615  0.333364  0.000024  1
  Co  Co5  1  0.499997  0.999999  0.499985  1
  Co  Co6  1  0.499998  0.500002  0.499995  1
  Co  Co7  1  0.999995  0.499999  0.499992  1
  Co  Co8  1  0.499994  0.000000  0.210796  1
  Co  Co9  1  0.499993  0.500000  0.210793  1
  Co  Co10  1  0.999993  0.500000  0.210794  1
  Co  Co11  1  0.499998  0.000000  0.789227  1
  Co  Co12  1  0.499998  0.500000  0.789199  1
  Co  Co13  1  0.999996  0.500000  0.789246  1
  B  B14  1  0.333224  0.666538  0.350853  1
  B  B15  1  0.666763  0.333462  0.350852  1
  B  B16  1  0.666959  0.333491  0.649103  1
  B  B17  1  0.333033  0.666507  0.649102  1
