# generated using pymatgen
data_Dy7Y13Cd6TcRu
_symmetry_space_group_name_H-M   'P 1'
_cell_length_a   9.60606685
_cell_length_b   9.60248306
_cell_length_c   9.91260326
_cell_angle_alpha   90.00000161
_cell_angle_beta   89.93309894
_cell_angle_gamma   119.98766294
_symmetry_Int_Tables_number   1
_chemical_formula_structural   Dy7Y13Cd6TcRu
_chemical_formula_sum   'Dy7 Y13 Cd6 Tc1 Ru1'
_cell_volume   791.95607125
_cell_formula_units_Z   1
loop_
 _symmetry_equiv_pos_site_id
 _symmetry_equiv_pos_as_xyz
  1  'x, y, z'
loop_
 _atom_site_type_symbol
 _atom_site_label
 _atom_site_symmetry_multiplicity
 _atom_site_fract_x
 _atom_site_fract_y
 _atom_site_fract_z
 _atom_site_occupancy
  Dy  Dy0  1  0.999646  0.999823  0.499986  1
  Dy  Dy1  1  0.999983  0.999991  0.999903  1
  Dy  Dy2  1  0.209872  0.789837  0.441035  1
  Dy  Dy3  1  0.209872  0.420035  0.441035  1
  Dy  Dy4  1  0.579889  0.789944  0.441024  1
  Dy  Dy5  1  0.789811  0.210366  0.559524  1
  Dy  Dy6  1  0.789811  0.579443  0.559524  1
  Y  Y7  1  0.419675  0.209836  0.558684  1
  Y  Y8  1  0.790110  0.209789  0.940963  1
  Y  Y9  1  0.790110  0.580319  0.940963  1
  Y  Y10  1  0.419802  0.209900  0.941020  1
  Y  Y11  1  0.209686  0.790254  0.058562  1
  Y  Y12  1  0.209686  0.419433  0.058562  1
  Y  Y13  1  0.580641  0.790320  0.058591  1
  Y  Y14  1  0.540009  0.460091  0.250298  1
  Y  Y15  1  0.540009  0.079918  0.250298  1
  Y  Y16  1  0.919963  0.459982  0.250472  1
  Y  Y17  1  0.458755  0.541340  0.749597  1
  Y  Y18  1  0.458755  0.917416  0.749597  1
  Y  Y19  1  0.082375  0.541188  0.749454  1
  Cd  Cd20  1  0.885551  0.114426  0.249812  1
  Cd  Cd21  1  0.885551  0.771126  0.249812  1
  Cd  Cd22  1  0.228932  0.114466  0.249924  1
  Cd  Cd23  1  0.114353  0.885791  0.750130  1
  Cd  Cd24  1  0.114353  0.228562  0.750130  1
  Cd  Cd25  1  0.771432  0.885716  0.750234  1
  Tc  Tc26  1  0.333373  0.666687  0.252622  1
  Ru  Ru27  1  0.667995  0.333997  0.748244  1
