# generated using pymatgen
data_TbDy2Al3Ge2Ir
_symmetry_space_group_name_H-M   'P 1'
_cell_length_a   6.99974500
_cell_length_b   7.00216717
_cell_length_c   4.23423700
_cell_angle_alpha   90.00000000
_cell_angle_beta   90.00000000
_cell_angle_gamma   119.98855308
_symmetry_Int_Tables_number   1
_chemical_formula_structural   TbDy2Al3Ge2Ir
_chemical_formula_sum   'Tb1 Dy2 Al3 Ge2 Ir1'
_cell_volume   179.75069218
_cell_formula_units_Z   1
loop_
 _symmetry_equiv_pos_site_id
 _symmetry_equiv_pos_as_xyz
  1  'x, y, z'
loop_
 _atom_site_type_symbol
 _atom_site_label
 _atom_site_symmetry_multiplicity
 _atom_site_fract_x
 _atom_site_fract_y
 _atom_site_fract_z
 _atom_site_occupancy
  Tb  Tb0  1  0.413277  0.000000  0.000000  1
  Dy  Dy1  1  0.000110  0.412819  0.000000  1
  Dy  Dy2  1  0.587292  0.587181  0.000000  1
  Al  Al3  1  0.771721  0.000000  0.499999  1
  Al  Al4  1  0.228439  0.228715  0.499999  1
  Al  Al5  1  0.999725  0.771285  0.499999  1
  Ge  Ge6  1  0.666958  0.333770  0.499999  1
  Ge  Ge7  1  0.333189  0.666230  0.499999  1
  Ir  Ir8  1  0.999289  0.000000  0.000000  1
