# generated using pymatgen
data_AcLuSe3
_symmetry_space_group_name_H-M   'P 1'
_cell_length_a   6.99246041
_cell_length_b   6.99245998
_cell_length_c   10.13022700
_cell_angle_alpha   90.00000000
_cell_angle_beta   90.00000000
_cell_angle_gamma   145.23341901
_symmetry_Int_Tables_number   1
_chemical_formula_structural   AcLuSe3
_chemical_formula_sum   'Ac2 Lu2 Se6'
_cell_volume   282.44421567
_cell_formula_units_Z   2
loop_
 _symmetry_equiv_pos_site_id
 _symmetry_equiv_pos_as_xyz
  1  'x, y, z'
loop_
 _atom_site_type_symbol
 _atom_site_label
 _atom_site_symmetry_multiplicity
 _atom_site_fract_x
 _atom_site_fract_y
 _atom_site_fract_z
 _atom_site_occupancy
  Ac  Ac0  1  0.747426  0.252574  0.250000  1
  Ac  Ac1  1  0.252574  0.747426  0.750000  1
  Lu  Lu2  1  0.000000  0.000000  0.500000  1
  Lu  Lu3  1  0.000000  0.000000  0.000000  1
  Se  Se4  1  0.638658  0.361342  0.557975  1
  Se  Se5  1  0.638658  0.361342  0.942025  1
  Se  Se6  1  0.361342  0.638658  0.057975  1
  Se  Se7  1  0.361342  0.638658  0.442025  1
  Se  Se8  1  0.078182  0.921818  0.250000  1
  Se  Se9  1  0.921818  0.078182  0.750000  1
