# generated using pymatgen
data_Tb7Dy5InCo4Cu
_symmetry_space_group_name_H-M   'P 1'
_cell_length_a   8.34904249
_cell_length_b   8.34904322
_cell_length_c   8.34749826
_cell_angle_alpha   111.30895597
_cell_angle_beta   110.34828490
_cell_angle_gamma   106.79861385
_symmetry_Int_Tables_number   1
_chemical_formula_structural   Tb7Dy5InCo4Cu
_chemical_formula_sum   'Tb7 Dy5 In1 Co4 Cu1'
_cell_volume   447.12229119
_cell_formula_units_Z   1
loop_
 _symmetry_equiv_pos_site_id
 _symmetry_equiv_pos_as_xyz
  1  'x, y, z'
loop_
 _atom_site_type_symbol
 _atom_site_label
 _atom_site_symmetry_multiplicity
 _atom_site_fract_x
 _atom_site_fract_y
 _atom_site_fract_z
 _atom_site_occupancy
  Tb  Tb0  1  0.413484  0.214260  0.199028  1
  Tb  Tb1  1  0.587277  0.786258  0.801110  1
  Tb  Tb2  1  0.014854  0.213833  0.801110  1
  Tb  Tb3  1  0.984768  0.785543  0.199028  1
  Tb  Tb4  1  0.186235  0.294174  0.480409  1
  Tb  Tb5  1  0.813390  0.705399  0.518790  1
  Tb  Tb6  1  0.186761  0.705605  0.892366  1
  Dy  Dy7  1  0.813373  0.294442  0.107815  1
  Dy  Dy8  1  0.315726  0.621749  0.305541  1
  Dy  Dy9  1  0.684005  0.378051  0.694609  1
  Dy  Dy10  1  0.316558  0.010604  0.694609  1
  Dy  Dy11  1  0.683792  0.989817  0.305541  1
  In  In12  1  0.500043  0.499998  0.000041  1
  Co  Co13  1  0.378127  0.999935  0.378062  1
  Co  Co14  1  0.621925  0.000383  0.622309  1
  Co  Co15  1  0.111751  0.611866  0.499241  1
  Co  Co16  1  0.887374  0.387490  0.499241  1
  Cu  Cu17  1  0.000557  0.000591  0.001148  1
