# generated using pymatgen
data_La12Zn(OsBr4)3
_symmetry_space_group_name_H-M   'P 1'
_cell_length_a   10.76286493
_cell_length_b   10.76286551
_cell_length_c   10.76286477
_cell_angle_alpha   109.91384944
_cell_angle_beta   109.91385235
_cell_angle_gamma   109.91384743
_symmetry_Int_Tables_number   1
_chemical_formula_structural   La12Zn(OsBr4)3
_chemical_formula_sum   'La12 Zn1 Os3 Br12'
_cell_volume   943.70219726
_cell_formula_units_Z   1
loop_
 _symmetry_equiv_pos_site_id
 _symmetry_equiv_pos_as_xyz
  1  'x, y, z'
loop_
 _atom_site_type_symbol
 _atom_site_label
 _atom_site_symmetry_multiplicity
 _atom_site_fract_x
 _atom_site_fract_y
 _atom_site_fract_z
 _atom_site_occupancy
  La  La0  1  0.470349  0.496176  0.228837  1
  La  La1  1  0.750000  0.233522  0.266478  1
  La  La2  1  0.750000  0.015482  0.484518  1
  La  La3  1  0.228837  0.470349  0.496176  1
  La  La4  1  0.266478  0.750000  0.233522  1
  La  La5  1  0.029651  0.271163  0.003824  1
  La  La6  1  0.003824  0.029651  0.271163  1
  La  La7  1  0.484518  0.750000  0.015482  1
  La  La8  1  0.496176  0.228837  0.470349  1
  La  La9  1  0.015482  0.484518  0.750000  1
  La  La10  1  0.271163  0.003824  0.029651  1
  La  La11  1  0.233522  0.266478  0.750000  1
  Zn  Zn12  1  0.250000  0.250000  0.250000  1
  Os  Os13  1  0.500092  0.999908  0.250000  1
  Os  Os14  1  0.999908  0.250000  0.500092  1
  Os  Os15  1  0.250000  0.500092  0.999908  1
  Br  Br16  1  0.250000  0.756747  0.743253  1
  Br  Br17  1  0.506888  0.500776  0.750174  1
  Br  Br18  1  0.993112  0.749826  0.999224  1
  Br  Br19  1  0.743253  0.250000  0.756747  1
  Br  Br20  1  0.999224  0.993112  0.749826  1
  Br  Br21  1  0.250000  0.000133  0.499867  1
  Br  Br22  1  0.750174  0.506888  0.500776  1
  Br  Br23  1  0.499867  0.250000  0.000133  1
  Br  Br24  1  0.756747  0.743253  0.250000  1
  Br  Br25  1  0.749826  0.999224  0.993112  1
  Br  Br26  1  0.000133  0.499867  0.250000  1
  Br  Br27  1  0.500776  0.750174  0.506888  1
