# generated using pymatgen
data_Ho2ThSi5PPd20
_symmetry_space_group_name_H-M   'P 1'
_cell_length_a   8.72472569
_cell_length_b   8.72229367
_cell_length_c   8.72229374
_cell_angle_alpha   60.03471067
_cell_angle_beta   59.99077190
_cell_angle_gamma   59.99077489
_symmetry_Int_Tables_number   1
_chemical_formula_structural   Ho2ThSi5PPd20
_chemical_formula_sum   'Ho2 Th1 Si5 P1 Pd20'
_cell_volume   469.40896668
_cell_formula_units_Z   1
loop_
 _symmetry_equiv_pos_site_id
 _symmetry_equiv_pos_as_xyz
  1  'x, y, z'
loop_
 _atom_site_type_symbol
 _atom_site_label
 _atom_site_symmetry_multiplicity
 _atom_site_fract_x
 _atom_site_fract_y
 _atom_site_fract_z
 _atom_site_occupancy
  Ho  Ho0  1  0.749455  0.750545  0.750545  1
  Ho  Ho1  1  0.000732  0.999268  0.999268  1
  Th  Th2  1  0.249397  0.250603  0.250603  1
  Si  Si3  1  0.266528  0.733472  0.733472  1
  Si  Si4  1  0.264809  0.735038  0.266436  1
  Si  Si5  1  0.733717  0.266436  0.735038  1
  Si  Si6  1  0.264809  0.266436  0.735038  1
  Si  Si7  1  0.733717  0.735038  0.266436  1
  P  P8  1  0.735610  0.264390  0.264390  1
  Pd  Pd9  1  0.386982  0.384291  0.384291  1
  Pd  Pd10  1  0.617269  0.616965  0.616965  1
  Pd  Pd11  1  0.384766  0.384345  0.846124  1
  Pd  Pd12  1  0.384766  0.846124  0.384345  1
  Pd  Pd13  1  0.617456  0.614796  0.150291  1
  Pd  Pd14  1  0.617456  0.150291  0.614796  1
  Pd  Pd15  1  0.844436  0.384291  0.384291  1
  Pd  Pd16  1  0.148800  0.616965  0.616965  1
  Pd  Pd17  1  0.346119  0.000151  0.000151  1
  Pd  Pd18  1  0.653580  0.000151  0.000151  1
  Pd  Pd19  1  0.001888  0.344541  0.651685  1
  Pd  Pd20  1  0.001888  0.651685  0.344541  1
  Pd  Pd21  1  0.998892  0.344736  0.003025  1
  Pd  Pd22  1  0.653347  0.003025  0.344736  1
  Pd  Pd23  1  0.001064  0.653310  0.001020  1
  Pd  Pd24  1  0.344607  0.001020  0.653310  1
  Pd  Pd25  1  0.998892  0.003025  0.344736  1
  Pd  Pd26  1  0.001064  0.001020  0.653310  1
  Pd  Pd27  1  0.653347  0.344736  0.003025  1
  Pd  Pd28  1  0.344607  0.653310  0.001020  1
