# generated using pymatgen
data_Yb3Th(US5)2
_symmetry_space_group_name_H-M   'P 1'
_cell_length_a   7.41987800
_cell_length_b   8.03737033
_cell_length_c   11.60241682
_cell_angle_alpha   89.89603979
_cell_angle_beta   90.00000000
_cell_angle_gamma   90.00000000
_symmetry_Int_Tables_number   1
_chemical_formula_structural   Yb3Th(US5)2
_chemical_formula_sum   'Yb6 Th2 U4 S20'
_cell_volume   691.92415532
_cell_formula_units_Z   2
loop_
 _symmetry_equiv_pos_site_id
 _symmetry_equiv_pos_as_xyz
  1  'x, y, z'
loop_
 _atom_site_type_symbol
 _atom_site_label
 _atom_site_symmetry_multiplicity
 _atom_site_fract_x
 _atom_site_fract_y
 _atom_site_fract_z
 _atom_site_occupancy
  Yb  Yb0  1  0.968355  0.999748  0.326182  1
  Yb  Yb1  1  0.468355  0.000252  0.173818  1
  Yb  Yb2  1  0.537525  0.496506  0.817832  1
  Yb  Yb3  1  0.037525  0.503494  0.682168  1
  Yb  Yb4  1  0.037752  0.996139  0.678028  1
  Yb  Yb5  1  0.537752  0.003861  0.821972  1
  Th  Th6  1  0.457462  0.503722  0.164087  1
  Th  Th7  1  0.957462  0.496278  0.335913  1
  U  U8  1  0.427587  0.250294  0.496957  1
  U  U9  1  0.927587  0.749706  0.003043  1
  U  U10  1  0.066984  0.243436  0.985803  1
  U  U11  1  0.566984  0.756564  0.514197  1
  S  S12  1  0.047971  0.251371  0.496153  1
  S  S13  1  0.547971  0.748629  0.003847  1
  S  S14  1  0.453034  0.251031  0.998234  1
  S  S15  1  0.953034  0.748969  0.501766  1
  S  S16  1  0.649694  0.260432  0.308043  1
  S  S17  1  0.149694  0.739568  0.191957  1
  S  S18  1  0.845509  0.251303  0.811658  1
  S  S19  1  0.345509  0.748697  0.688342  1
  S  S20  1  0.672311  0.456714  0.578759  1
  S  S21  1  0.172311  0.543286  0.921241  1
  S  S22  1  0.835741  0.039001  0.089443  1
  S  S23  1  0.335741  0.960999  0.410557  1
  S  S24  1  0.330414  0.543194  0.407063  1
  S  S25  1  0.830414  0.456806  0.092937  1
  S  S26  1  0.172558  0.952215  0.914750  1
  S  S27  1  0.672558  0.047785  0.585250  1
  S  S28  1  0.317692  0.250669  0.713460  1
  S  S29  1  0.817692  0.749331  0.786540  1
  S  S30  1  0.179413  0.257986  0.212401  1
  S  S31  1  0.679413  0.742014  0.287599  1
