# generated using pymatgen
data_Dy2Ga2CoRu
_symmetry_space_group_name_H-M   'P 1'
_cell_length_a   4.47020300
_cell_length_b   6.98200240
_cell_length_c   7.10696335
_cell_angle_alpha   89.63001820
_cell_angle_beta   90.00000000
_cell_angle_gamma   90.00000000
_symmetry_Int_Tables_number   1
_chemical_formula_structural   Dy2Ga2CoRu
_chemical_formula_sum   'Dy4 Ga4 Co2 Ru2'
_cell_volume   221.81058146
_cell_formula_units_Z   2
loop_
 _symmetry_equiv_pos_site_id
 _symmetry_equiv_pos_as_xyz
  1  'x, y, z'
loop_
 _atom_site_type_symbol
 _atom_site_label
 _atom_site_symmetry_multiplicity
 _atom_site_fract_x
 _atom_site_fract_y
 _atom_site_fract_z
 _atom_site_occupancy
  Dy  Dy0  1  0.750000  0.197755  0.517628  1
  Dy  Dy1  1  0.250000  0.802245  0.482372  1
  Dy  Dy2  1  0.750000  0.304531  0.024414  1
  Dy  Dy3  1  0.250000  0.695469  0.975586  1
  Ga  Ga4  1  0.750000  0.887605  0.201688  1
  Ga  Ga5  1  0.250000  0.112395  0.798312  1
  Ga  Ga6  1  0.750000  0.597429  0.689332  1
  Ga  Ga7  1  0.250000  0.402571  0.310668  1
  Co  Co8  1  0.250000  0.438199  0.656186  1
  Co  Co9  1  0.750000  0.561801  0.343814  1
  Ru  Ru10  1  0.250000  0.067241  0.159924  1
  Ru  Ru11  1  0.750000  0.932759  0.840076  1
