# generated using pymatgen
data_Er4Tm12CdNi4Ag3
_symmetry_space_group_name_H-M   'P 1'
_cell_length_a   9.34055949
_cell_length_b   9.35725560
_cell_length_c   9.35725500
_cell_angle_alpha   60.00000565
_cell_angle_beta   59.94085849
_cell_angle_gamma   59.94086034
_symmetry_Int_Tables_number   1
_chemical_formula_structural   Er4Tm12CdNi4Ag3
_chemical_formula_sum   'Er4 Tm12 Cd1 Ni4 Ag3'
_cell_volume   577.78474302
_cell_formula_units_Z   1
loop_
 _symmetry_equiv_pos_site_id
 _symmetry_equiv_pos_as_xyz
  1  'x, y, z'
loop_
 _atom_site_type_symbol
 _atom_site_label
 _atom_site_symmetry_multiplicity
 _atom_site_fract_x
 _atom_site_fract_y
 _atom_site_fract_z
 _atom_site_occupancy
  Er  Er0  1  0.349765  0.349303  0.349303  1
  Er  Er1  1  0.349765  0.349303  0.951629  1
  Er  Er2  1  0.349765  0.951629  0.349303  1
  Er  Er3  1  0.949093  0.350302  0.350302  1
  Tm  Tm4  1  0.811185  0.188806  0.188806  1
  Tm  Tm5  1  0.188464  0.811405  0.811405  1
  Tm  Tm6  1  0.188464  0.811405  0.188726  1
  Tm  Tm7  1  0.811185  0.188806  0.811204  1
  Tm  Tm8  1  0.188464  0.188726  0.811405  1
  Tm  Tm9  1  0.811185  0.811204  0.188806  1
  Tm  Tm10  1  0.933224  0.564268  0.564268  1
  Tm  Tm11  1  0.563737  0.936101  0.936101  1
  Tm  Tm12  1  0.563737  0.936101  0.564062  1
  Tm  Tm13  1  0.933224  0.564268  0.938240  1
  Tm  Tm14  1  0.563737  0.564062  0.936101  1
  Tm  Tm15  1  0.933224  0.938240  0.564268  1
  Cd  Cd16  1  0.262073  0.579310  0.579310  1
  Ni  Ni17  1  0.142231  0.142757  0.142757  1
  Ni  Ni18  1  0.142231  0.142757  0.572257  1
  Ni  Ni19  1  0.142231  0.572257  0.142757  1
  Ni  Ni20  1  0.572243  0.142586  0.142586  1
  Ag  Ag21  1  0.583594  0.582686  0.582686  1
  Ag  Ag22  1  0.583594  0.582686  0.251036  1
  Ag  Ag23  1  0.583594  0.251036  0.582686  1
