# generated using pymatgen
data_TbCe2Al2Pd3Au
_symmetry_space_group_name_H-M   'P 1'
_cell_length_a   7.28276237
_cell_length_b   7.53553810
_cell_length_c   3.97383400
_cell_angle_alpha   90.00000000
_cell_angle_beta   90.00000000
_cell_angle_gamma   121.15494533
_symmetry_Int_Tables_number   1
_chemical_formula_structural   TbCe2Al2Pd3Au
_chemical_formula_sum   'Tb1 Ce2 Al2 Pd3 Au1'
_cell_volume   186.62845987
_cell_formula_units_Z   1
loop_
 _symmetry_equiv_pos_site_id
 _symmetry_equiv_pos_as_xyz
  1  'x, y, z'
loop_
 _atom_site_type_symbol
 _atom_site_label
 _atom_site_symmetry_multiplicity
 _atom_site_fract_x
 _atom_site_fract_y
 _atom_site_fract_z
 _atom_site_occupancy
  Tb  Tb0  1  0.000000  0.582644  0.500000  1
  Ce  Ce1  1  0.400929  0.410142  0.500000  1
  Ce  Ce2  1  0.599071  0.009213  0.500000  1
  Al  Al3  1  0.761438  0.754681  0.000000  1
  Al  Al4  1  0.238562  0.993243  0.000000  1
  Pd  Pd5  1  0.000000  0.969380  0.500000  1
  Pd  Pd6  1  0.356374  0.692433  0.000000  1
  Pd  Pd7  1  0.643626  0.336059  0.000000  1
  Au  Au8  1  0.000000  0.252208  0.000000  1
