# generated using pymatgen
data_Er2Co5RuC5
_symmetry_space_group_name_H-M   'P 1'
_cell_length_a   8.39462900
_cell_length_b   8.39462900
_cell_length_c   4.06343600
_cell_angle_alpha   90.00000000
_cell_angle_beta   90.00000000
_cell_angle_gamma   90.00000000
_symmetry_Int_Tables_number   1
_chemical_formula_structural   Er2Co5RuC5
_chemical_formula_sum   'Er4 Co10 Ru2 C10'
_cell_volume   286.34950617
_cell_formula_units_Z   2
loop_
 _symmetry_equiv_pos_site_id
 _symmetry_equiv_pos_as_xyz
  1  'x, y, z'
loop_
 _atom_site_type_symbol
 _atom_site_label
 _atom_site_symmetry_multiplicity
 _atom_site_fract_x
 _atom_site_fract_y
 _atom_site_fract_z
 _atom_site_occupancy
  Er  Er0  1  0.328145  0.828145  0.500000  1
  Er  Er1  1  0.828145  0.671855  0.500000  1
  Er  Er2  1  0.171855  0.328145  0.500000  1
  Er  Er3  1  0.671855  0.171855  0.500000  1
  Co  Co4  1  0.714263  0.429102  0.000000  1
  Co  Co5  1  0.429102  0.285737  0.000000  1
  Co  Co6  1  0.500000  0.000000  0.000000  1
  Co  Co7  1  0.000000  0.500000  0.000000  1
  Co  Co8  1  0.785737  0.929102  0.000000  1
  Co  Co9  1  0.929102  0.214263  0.000000  1
  Co  Co10  1  0.070898  0.785737  0.000000  1
  Co  Co11  1  0.214263  0.070898  0.000000  1
  Co  Co12  1  0.570898  0.714263  0.000000  1
  Co  Co13  1  0.285737  0.570898  0.000000  1
  Ru  Ru14  1  0.000000  0.000000  0.500000  1
  Ru  Ru15  1  0.500000  0.500000  0.500000  1
  C  C16  1  0.500000  0.500000  0.000000  1
  C  C17  1  0.000000  0.000000  0.000000  1
  C  C18  1  0.877044  0.377044  0.675158  1
  C  C19  1  0.122956  0.622956  0.675158  1
  C  C20  1  0.877044  0.377044  0.324842  1
  C  C21  1  0.377044  0.122956  0.324842  1
  C  C22  1  0.622956  0.877044  0.324842  1
  C  C23  1  0.122956  0.622956  0.324842  1
  C  C24  1  0.622956  0.877044  0.675158  1
  C  C25  1  0.377044  0.122956  0.675158  1
