# generated using pymatgen
data_CeTm3(TiIr)4
_symmetry_space_group_name_H-M   'P 1'
_cell_length_a   6.87702948
_cell_length_b   4.40197800
_cell_length_c   8.00551567
_cell_angle_alpha   90.00000000
_cell_angle_beta   90.88380973
_cell_angle_gamma   90.00000000
_symmetry_Int_Tables_number   1
_chemical_formula_structural   CeTm3(TiIr)4
_chemical_formula_sum   'Ce1 Tm3 Ti4 Ir4'
_cell_volume   242.31840143
_cell_formula_units_Z   1
loop_
 _symmetry_equiv_pos_site_id
 _symmetry_equiv_pos_as_xyz
  1  'x, y, z'
loop_
 _atom_site_type_symbol
 _atom_site_label
 _atom_site_symmetry_multiplicity
 _atom_site_fract_x
 _atom_site_fract_y
 _atom_site_fract_z
 _atom_site_occupancy
  Ce  Ce0  1  0.516545  0.750000  0.682449  1
  Tm  Tm1  1  0.982477  0.250000  0.180864  1
  Tm  Tm2  1  0.483041  0.250000  0.312463  1
  Tm  Tm3  1  0.014708  0.750000  0.818567  1
  Ti  Ti4  1  0.867044  0.250000  0.567348  1
  Ti  Ti5  1  0.353971  0.250000  0.936233  1
  Ti  Ti6  1  0.142519  0.750000  0.427427  1
  Ti  Ti7  1  0.640032  0.750000  0.074418  1
  Ir  Ir8  1  0.717882  0.250000  0.904372  1
  Ir  Ir9  1  0.225722  0.250000  0.592278  1
  Ir  Ir10  1  0.275890  0.750000  0.097303  1
  Ir  Ir11  1  0.780170  0.750000  0.406279  1
