# generated using pymatgen
data_Pr2Sn(AsRh2)6
_symmetry_space_group_name_H-M   'P 1'
_cell_length_a   10.10775900
_cell_length_b   10.10775919
_cell_length_c   3.99698300
_cell_angle_alpha   90.00000000
_cell_angle_beta   90.00000000
_cell_angle_gamma   120.00000265
_symmetry_Int_Tables_number   1
_chemical_formula_structural   Pr2Sn(AsRh2)6
_chemical_formula_sum   'Pr2 Sn1 As6 Rh12'
_cell_volume   353.64920513
_cell_formula_units_Z   1
loop_
 _symmetry_equiv_pos_site_id
 _symmetry_equiv_pos_as_xyz
  1  'x, y, z'
loop_
 _atom_site_type_symbol
 _atom_site_label
 _atom_site_symmetry_multiplicity
 _atom_site_fract_x
 _atom_site_fract_y
 _atom_site_fract_z
 _atom_site_occupancy
  Pr  Pr0  1  0.333333  0.666667  0.751954  1
  Pr  Pr1  1  0.000000  0.000000  0.248899  1
  Sn  Sn2  1  0.666667  0.333333  0.592780  1
  As  As3  1  0.955363  0.218145  0.747929  1
  As  As4  1  0.781855  0.737218  0.747929  1
  As  As5  1  0.262782  0.044637  0.747929  1
  As  As6  1  0.377464  0.446267  0.253071  1
  As  As7  1  0.553733  0.931196  0.253071  1
  As  As8  1  0.068804  0.622536  0.253071  1
  Rh  Rh9  1  0.730231  0.951313  0.749831  1
  Rh  Rh10  1  0.048687  0.778918  0.749831  1
  Rh  Rh11  1  0.221082  0.269769  0.749831  1
  Rh  Rh12  1  0.605810  0.719091  0.251772  1
  Rh  Rh13  1  0.280909  0.886720  0.251772  1
  Rh  Rh14  1  0.113280  0.394190  0.251772  1
  Rh  Rh15  1  0.953266  0.459053  0.756659  1
  Rh  Rh16  1  0.540947  0.494213  0.756659  1
  Rh  Rh17  1  0.505787  0.046734  0.756659  1
  Rh  Rh18  1  0.394950  0.212055  0.244254  1
  Rh  Rh19  1  0.787945  0.182895  0.244254  1
  Rh  Rh20  1  0.817105  0.605050  0.244254  1
