# generated using pymatgen
data_Yb2LuNbO6
_symmetry_space_group_name_H-M   'P 1'
_cell_length_a   5.53709095
_cell_length_b   5.76764300
_cell_length_c   7.97933409
_cell_angle_alpha   90.00000000
_cell_angle_beta   90.02480748
_cell_angle_gamma   90.00000000
_symmetry_Int_Tables_number   1
_chemical_formula_structural   Yb2LuNbO6
_chemical_formula_sum   'Yb4 Lu2 Nb2 O12'
_cell_volume   254.82770134
_cell_formula_units_Z   2
loop_
 _symmetry_equiv_pos_site_id
 _symmetry_equiv_pos_as_xyz
  1  'x, y, z'
loop_
 _atom_site_type_symbol
 _atom_site_label
 _atom_site_symmetry_multiplicity
 _atom_site_fract_x
 _atom_site_fract_y
 _atom_site_fract_z
 _atom_site_occupancy
  Yb  Yb0  1  0.484310  0.943389  0.247053  1
  Yb  Yb1  1  0.015689  0.443389  0.252948  1
  Yb  Yb2  1  0.984311  0.556611  0.747052  1
  Yb  Yb3  1  0.515690  0.056610  0.752948  1
  Lu  Lu4  1  0.500000  0.500001  0.000000  1
  Lu  Lu5  1  0.000000  0.000000  0.500000  1
  Nb  Nb6  1  0.000000  0.000000  0.000000  1
  Nb  Nb7  1  0.499999  0.500001  0.500000  1
  O  O8  1  0.295302  0.186444  0.056196  1
  O  O9  1  0.182688  0.708636  0.064749  1
  O  O10  1  0.886034  0.046348  0.238515  1
  O  O11  1  0.613966  0.546347  0.261485  1
  O  O12  1  0.317312  0.208636  0.435251  1
  O  O13  1  0.204697  0.686445  0.443803  1
  O  O14  1  0.795303  0.313555  0.556197  1
  O  O15  1  0.682689  0.791364  0.564750  1
  O  O16  1  0.386034  0.453653  0.738515  1
  O  O17  1  0.113967  0.953651  0.761485  1
  O  O18  1  0.817311  0.291365  0.935251  1
  O  O19  1  0.704698  0.813555  0.943803  1
