# generated using pymatgen
data_CaTh3(Ga3Rh)6
_symmetry_space_group_name_H-M   'P 1'
_cell_length_a   7.67179421
_cell_length_b   7.68904325
_cell_length_c   9.54428500
_cell_angle_alpha   90.00000000
_cell_angle_beta   90.00000000
_cell_angle_gamma   119.61188868
_symmetry_Int_Tables_number   1
_chemical_formula_structural   CaTh3(Ga3Rh)6
_chemical_formula_sum   'Ca1 Th3 Ga18 Rh6'
_cell_volume   489.47272516
_cell_formula_units_Z   1
loop_
 _symmetry_equiv_pos_site_id
 _symmetry_equiv_pos_as_xyz
  1  'x, y, z'
loop_
 _atom_site_type_symbol
 _atom_site_label
 _atom_site_symmetry_multiplicity
 _atom_site_fract_x
 _atom_site_fract_y
 _atom_site_fract_z
 _atom_site_occupancy
  Ca  Ca0  1  0.328535  0.004574  0.250000  1
  Th  Th1  1  0.998078  0.671208  0.750000  1
  Th  Th2  1  0.001487  0.329361  0.250000  1
  Th  Th3  1  0.670071  0.996252  0.750000  1
  Ga  Ga4  1  0.134492  0.131942  0.750000  1
  Ga  Ga5  1  0.871063  0.870566  0.250000  1
  Ga  Ga6  1  0.005714  0.335468  0.579465  1
  Ga  Ga7  1  0.002010  0.671084  0.417027  1
  Ga  Ga8  1  0.002010  0.671084  0.082973  1
  Ga  Ga9  1  0.335312  0.004402  0.927222  1
  Ga  Ga10  1  0.005714  0.335468  0.920535  1
  Ga  Ga11  1  0.657786  0.995385  0.083086  1
  Ga  Ga12  1  0.657786  0.995385  0.416914  1
  Ga  Ga13  1  0.335312  0.004402  0.572778  1
  Ga  Ga14  1  0.335780  0.331035  0.062111  1
  Ga  Ga15  1  0.663697  0.663418  0.944979  1
  Ga  Ga16  1  0.663697  0.663418  0.555021  1
  Ga  Ga17  1  0.335780  0.331035  0.437889  1
  Ga  Ga18  1  0.341731  0.543099  0.750000  1
  Ga  Ga19  1  0.657532  0.451401  0.250000  1
  Ga  Ga20  1  0.543406  0.338821  0.750000  1
  Ga  Ga21  1  0.452735  0.659579  0.250000  1
  Rh  Rh22  1  0.676319  0.331045  0.501701  1
  Rh  Rh23  1  0.327582  0.669643  0.502209  1
  Rh  Rh24  1  0.327582  0.669643  0.997791  1
  Rh  Rh25  1  0.676319  0.331045  0.998299  1
  Rh  Rh26  1  0.996236  0.000119  0.501921  1
  Rh  Rh27  1  0.996236  0.000119  0.998079  1
