# generated using pymatgen
data_Dy2BeCo16
_symmetry_space_group_name_H-M   'P 1'
_cell_length_a   6.25508470
_cell_length_b   6.19349863
_cell_length_c   6.25508500
_cell_angle_alpha   83.39119091
_cell_angle_beta   82.52216718
_cell_angle_gamma   83.39117887
_symmetry_Int_Tables_number   1
_chemical_formula_structural   Dy2BeCo16
_chemical_formula_sum   'Dy2 Be1 Co16'
_cell_volume   237.43372493
_cell_formula_units_Z   1
loop_
 _symmetry_equiv_pos_site_id
 _symmetry_equiv_pos_as_xyz
  1  'x, y, z'
loop_
 _atom_site_type_symbol
 _atom_site_label
 _atom_site_symmetry_multiplicity
 _atom_site_fract_x
 _atom_site_fract_y
 _atom_site_fract_z
 _atom_site_occupancy
  Dy  Dy0  1  0.656223  0.656746  0.656223  1
  Dy  Dy1  1  0.343777  0.343254  0.343777  1
  Be  Be2  1  0.000000  0.500000  0.000000  1
  Co  Co3  1  0.000000  0.000000  0.500000  1
  Co  Co4  1  0.500000  0.000000  0.000000  1
  Co  Co5  1  0.283041  0.706801  0.998978  1
  Co  Co6  1  0.712352  0.000000  0.287648  1
  Co  Co7  1  0.001022  0.293199  0.716959  1
  Co  Co8  1  0.287648  0.000000  0.712352  1
  Co  Co9  1  0.998978  0.706801  0.283041  1
  Co  Co10  1  0.716959  0.293199  0.001022  1
  Co  Co11  1  0.340452  0.349283  0.853850  1
  Co  Co12  1  0.346551  0.846550  0.346551  1
  Co  Co13  1  0.853850  0.349283  0.340452  1
  Co  Co14  1  0.659548  0.650717  0.146150  1
  Co  Co15  1  0.653449  0.153450  0.653449  1
  Co  Co16  1  0.146150  0.650717  0.659548  1
  Co  Co17  1  0.903030  0.904252  0.903030  1
  Co  Co18  1  0.096970  0.095748  0.096970  1
