# generated using pymatgen
data_Pr5ScRuO12
_symmetry_space_group_name_H-M   'P 1'
_cell_length_a   7.16264045
_cell_length_b   7.16264102
_cell_length_c   7.69130241
_cell_angle_alpha   74.49806240
_cell_angle_beta   74.49805918
_cell_angle_gamma   50.64859015
_symmetry_Int_Tables_number   1
_chemical_formula_structural   Pr5ScRuO12
_chemical_formula_sum   'Pr5 Sc1 Ru1 O12'
_cell_volume   291.48171213
_cell_formula_units_Z   1
loop_
 _symmetry_equiv_pos_site_id
 _symmetry_equiv_pos_as_xyz
  1  'x, y, z'
loop_
 _atom_site_type_symbol
 _atom_site_label
 _atom_site_symmetry_multiplicity
 _atom_site_fract_x
 _atom_site_fract_y
 _atom_site_fract_z
 _atom_site_occupancy
  Pr  Pr0  1  0.309782  0.299258  0.358492  1
  Pr  Pr1  1  0.700742  0.690218  0.641508  1
  Pr  Pr2  1  0.689645  0.696509  0.166321  1
  Pr  Pr3  1  0.303491  0.310355  0.833679  1
  Pr  Pr4  1  0.009577  0.990423  0.500000  1
  Sc  Sc5  1  0.754552  0.245448  0.000000  1
  Ru  Ru6  1  0.241565  0.758435  0.000000  1
  O  O7  1  0.097680  0.595873  0.573252  1
  O  O8  1  0.018453  0.980412  0.178436  1
  O  O9  1  0.404127  0.902320  0.426748  1
  O  O10  1  0.484360  0.517644  0.177581  1
  O  O11  1  0.102716  0.587399  0.078923  1
  O  O12  1  0.907834  0.402072  0.420997  1
  O  O13  1  0.019588  0.981547  0.821564  1
  O  O14  1  0.597928  0.092165  0.579003  1
  O  O15  1  0.482356  0.515640  0.822419  1
  O  O16  1  0.564591  0.101589  0.081386  1
  O  O17  1  0.412601  0.897284  0.921077  1
  O  O18  1  0.898411  0.435409  0.918614  1
