# generated using pymatgen
data_Ba8Si12HgPt3
_symmetry_space_group_name_H-M   'P 1'
_cell_length_a   12.47467346
_cell_length_b   10.93200990
_cell_length_c   8.48705527
_cell_angle_alpha   78.86133049
_cell_angle_beta   59.22978731
_cell_angle_gamma   41.92959007
_symmetry_Int_Tables_number   1
_chemical_formula_structural   Ba8Si12HgPt3
_chemical_formula_sum   'Ba8 Si12 Hg1 Pt3'
_cell_volume   628.12017562
_cell_formula_units_Z   1
loop_
 _symmetry_equiv_pos_site_id
 _symmetry_equiv_pos_as_xyz
  1  'x, y, z'
loop_
 _atom_site_type_symbol
 _atom_site_label
 _atom_site_symmetry_multiplicity
 _atom_site_fract_x
 _atom_site_fract_y
 _atom_site_fract_z
 _atom_site_occupancy
  Ba  Ba0  1  0.123796  0.118325  0.381594  1
  Ba  Ba1  1  0.872288  0.882951  0.124284  1
  Ba  Ba2  1  0.125066  0.120553  0.871221  1
  Ba  Ba3  1  0.380581  0.375108  0.125169  1
  Ba  Ba4  1  0.617045  0.631198  0.379173  1
  Ba  Ba5  1  0.379811  0.372005  0.616904  1
  Ba  Ba6  1  0.623276  0.622821  0.876586  1
  Ba  Ba7  1  0.876602  0.878486  0.623186  1
  Si  Si8  1  0.332251  0.663603  0.835759  1
  Si  Si9  1  0.166520  0.829758  0.668032  1
  Si  Si10  1  0.834614  0.168825  0.332096  1
  Si  Si11  1  0.666990  0.335395  0.166526  1
  Si  Si12  1  0.906107  0.594300  0.438597  1
  Si  Si13  1  0.087391  0.412828  0.580592  1
  Si  Si14  1  0.438913  0.061346  0.905731  1
  Si  Si15  1  0.906221  0.594774  0.905043  1
  Si  Si16  1  0.666476  0.334088  0.667432  1
  Si  Si17  1  0.333578  0.666272  0.332502  1
  Si  Si18  1  0.581691  0.918392  0.581562  1
  Si  Si19  1  0.580308  0.919628  0.087609  1
  Hg  Hg20  1  0.083511  0.416051  0.083778  1
  Pt  Pt21  1  0.165789  0.834343  0.166308  1
  Pt  Pt22  1  0.416831  0.083011  0.416457  1
  Pt  Pt23  1  0.834342  0.165939  0.833858  1
