# generated using pymatgen
data_CaPaBe26
_symmetry_space_group_name_H-M   'P 1'
_cell_length_a   7.21531877
_cell_length_b   7.21531896
_cell_length_c   7.21531900
_cell_angle_alpha   59.99999522
_cell_angle_beta   59.99999438
_cell_angle_gamma   59.99999709
_symmetry_Int_Tables_number   1
_chemical_formula_structural   CaPaBe26
_chemical_formula_sum   'Ca1 Pa1 Be26'
_cell_volume   265.61436091
_cell_formula_units_Z   1
loop_
 _symmetry_equiv_pos_site_id
 _symmetry_equiv_pos_as_xyz
  1  'x, y, z'
loop_
 _atom_site_type_symbol
 _atom_site_label
 _atom_site_symmetry_multiplicity
 _atom_site_fract_x
 _atom_site_fract_y
 _atom_site_fract_z
 _atom_site_occupancy
  Ca  Ca0  1  0.250000  0.250000  0.250000  1
  Pa  Pa1  1  0.750000  0.750000  0.750000  1
  Be  Be2  1  0.500000  0.500000  0.500000  1
  Be  Be3  1  0.000000  0.000000  0.000000  1
  Be  Be4  1  0.208043  0.787864  0.439805  1
  Be  Be5  1  0.935712  0.291957  0.712136  1
  Be  Be6  1  0.712136  0.060195  0.935712  1
  Be  Be7  1  0.935712  0.060195  0.291957  1
  Be  Be8  1  0.060195  0.935712  0.712136  1
  Be  Be9  1  0.060195  0.291957  0.935712  1
  Be  Be10  1  0.712136  0.935712  0.291957  1
  Be  Be11  1  0.439805  0.787864  0.564288  1
  Be  Be12  1  0.564288  0.787864  0.208043  1
  Be  Be13  1  0.787864  0.564288  0.439805  1
  Be  Be14  1  0.564288  0.208043  0.439805  1
  Be  Be15  1  0.787864  0.439805  0.208043  1
  Be  Be16  1  0.439805  0.208043  0.787864  1
  Be  Be17  1  0.208043  0.564288  0.787864  1
  Be  Be18  1  0.208043  0.439805  0.564288  1
  Be  Be19  1  0.712136  0.291957  0.060195  1
  Be  Be20  1  0.291957  0.935712  0.060195  1
  Be  Be21  1  0.291957  0.060195  0.712136  1
  Be  Be22  1  0.935712  0.712136  0.060195  1
  Be  Be23  1  0.060195  0.712136  0.291957  1
  Be  Be24  1  0.291957  0.712136  0.935712  1
  Be  Be25  1  0.439805  0.564288  0.208043  1
  Be  Be26  1  0.787864  0.208043  0.564288  1
  Be  Be27  1  0.564288  0.439805  0.787864  1
