# generated using pymatgen
data_Tb6Tm5Lu5(CdIr)4
_symmetry_space_group_name_H-M   'P 1'
_cell_length_a   9.54528140
_cell_length_b   9.54189277
_cell_length_c   9.54189334
_cell_angle_alpha   60.01040286
_cell_angle_beta   59.98824727
_cell_angle_gamma   59.98825000
_symmetry_Int_Tables_number   1
_chemical_formula_structural   Tb6Tm5Lu5(CdIr)4
_chemical_formula_sum   'Tb6 Tm5 Lu5 Cd4 Ir4'
_cell_volume   614.46872716
_cell_formula_units_Z   1
loop_
 _symmetry_equiv_pos_site_id
 _symmetry_equiv_pos_as_xyz
  1  'x, y, z'
loop_
 _atom_site_type_symbol
 _atom_site_label
 _atom_site_symmetry_multiplicity
 _atom_site_fract_x
 _atom_site_fract_y
 _atom_site_fract_z
 _atom_site_occupancy
  Tb  Tb0  1  0.189416  0.810584  0.810584  1
  Tb  Tb1  1  0.810573  0.189427  0.189427  1
  Tb  Tb2  1  0.810500  0.189276  0.810775  1
  Tb  Tb3  1  0.189449  0.810775  0.189276  1
  Tb  Tb4  1  0.810500  0.810775  0.189276  1
  Tb  Tb5  1  0.189449  0.189276  0.810775  1
  Tm  Tm6  1  0.598492  0.598745  0.598745  1
  Tm  Tm7  1  0.598706  0.598833  0.203756  1
  Tm  Tm8  1  0.598706  0.203756  0.598833  1
  Tm  Tm9  1  0.204020  0.598745  0.598745  1
  Tm  Tm10  1  0.062346  0.437654  0.437654  1
  Lu  Lu11  1  0.437410  0.062590  0.062590  1
  Lu  Lu12  1  0.437683  0.062282  0.437501  1
  Lu  Lu13  1  0.062534  0.437501  0.062282  1
  Lu  Lu14  1  0.437683  0.437501  0.062282  1
  Lu  Lu15  1  0.062534  0.062282  0.437501  1
  Cd  Cd16  1  0.830280  0.830269  0.830269  1
  Cd  Cd17  1  0.830209  0.830388  0.509196  1
  Cd  Cd18  1  0.830209  0.509196  0.830388  1
  Cd  Cd19  1  0.509185  0.830269  0.830269  1
  Ir  Ir20  1  0.392029  0.391129  0.391129  1
  Ir  Ir21  1  0.391189  0.391327  0.826296  1
  Ir  Ir22  1  0.391189  0.826296  0.391327  1
  Ir  Ir23  1  0.825713  0.391129  0.391129  1
