# generated using pymatgen
data_LiDy3Ho13Cd3Ir4
_symmetry_space_group_name_H-M   'P 1'
_cell_length_a   9.63307725
_cell_length_b   9.63306914
_cell_length_c   9.63173433
_cell_angle_alpha   59.69984070
_cell_angle_beta   59.69492283
_cell_angle_gamma   59.69619394
_symmetry_Int_Tables_number   1
_chemical_formula_structural   LiDy3Ho13Cd3Ir4
_chemical_formula_sum   'Li1 Dy3 Ho13 Cd3 Ir4'
_cell_volume   627.65299335
_cell_formula_units_Z   1
loop_
 _symmetry_equiv_pos_site_id
 _symmetry_equiv_pos_as_xyz
  1  'x, y, z'
loop_
 _atom_site_type_symbol
 _atom_site_label
 _atom_site_symmetry_multiplicity
 _atom_site_fract_x
 _atom_site_fract_y
 _atom_site_fract_z
 _atom_site_occupancy
  Li  Li0  1  0.821281  0.821276  0.821238  1
  Dy  Dy1  1  0.186377  0.812224  0.186354  1
  Dy  Dy2  1  0.811410  0.811581  0.189290  1
  Dy  Dy3  1  0.186253  0.186400  0.812185  1
  Ho  Ho4  1  0.600061  0.600047  0.600062  1
  Ho  Ho5  1  0.597731  0.597535  0.208071  1
  Ho  Ho6  1  0.597693  0.208029  0.597674  1
  Ho  Ho7  1  0.208031  0.597653  0.597840  1
  Ho  Ho8  1  0.061143  0.439712  0.439882  1
  Ho  Ho9  1  0.435165  0.062325  0.062186  1
  Ho  Ho10  1  0.439820  0.061217  0.439792  1
  Ho  Ho11  1  0.062287  0.435071  0.062200  1
  Ho  Ho12  1  0.439928  0.439707  0.061127  1
  Ho  Ho13  1  0.062194  0.062260  0.435216  1
  Ho  Ho14  1  0.189539  0.811430  0.811324  1
  Ho  Ho15  1  0.812149  0.186521  0.186328  1
  Ho  Ho16  1  0.811390  0.189540  0.811465  1
  Cd  Cd17  1  0.832417  0.832600  0.506565  1
  Cd  Cd18  1  0.832365  0.506535  0.832589  1
  Cd  Cd19  1  0.506618  0.832406  0.832445  1
  Ir  Ir20  1  0.392154  0.391973  0.391979  1
  Ir  Ir21  1  0.393952  0.393900  0.826292  1
  Ir  Ir22  1  0.393790  0.826323  0.393947  1
  Ir  Ir23  1  0.826251  0.393733  0.393950  1
