# generated using pymatgen
data_EuS4(IO8)2
_symmetry_space_group_name_H-M   'P 1'
_cell_length_a   6.56829070
_cell_length_b   6.56828941
_cell_length_c   9.16435400
_cell_angle_alpha   75.35703878
_cell_angle_beta   75.35704170
_cell_angle_gamma   89.96613733
_symmetry_Int_Tables_number   1
_chemical_formula_structural   EuS4(IO8)2
_chemical_formula_sum   'Eu1 S4 I2 O16'
_cell_volume   369.25862795
_cell_formula_units_Z   1
loop_
 _symmetry_equiv_pos_site_id
 _symmetry_equiv_pos_as_xyz
  1  'x, y, z'
loop_
 _atom_site_type_symbol
 _atom_site_label
 _atom_site_symmetry_multiplicity
 _atom_site_fract_x
 _atom_site_fract_y
 _atom_site_fract_z
 _atom_site_occupancy
  Eu  Eu0  1  0.000000  0.000000  0.000000  1
  S  S1  1  0.080363  0.582022  0.752694  1
  S  S2  1  0.582022  0.080363  0.752694  1
  S  S3  1  0.919637  0.417978  0.247306  1
  S  S4  1  0.417978  0.919637  0.247306  1
  I  I5  1  0.000000  0.000000  0.500000  1
  I  I6  1  0.500000  0.500000  0.500000  1
  O  O7  1  0.319900  0.633019  0.686683  1
  O  O8  1  0.633019  0.319900  0.686683  1
  O  O9  1  0.680100  0.366981  0.313317  1
  O  O10  1  0.366981  0.680100  0.313317  1
  O  O11  1  0.010770  0.699461  0.868632  1
  O  O12  1  0.699461  0.010770  0.868632  1
  O  O13  1  0.989230  0.300539  0.131368  1
  O  O14  1  0.300539  0.989230  0.131368  1
  O  O15  1  0.983494  0.663356  0.612696  1
  O  O16  1  0.663356  0.983494  0.612696  1
  O  O17  1  0.016506  0.336644  0.387304  1
  O  O18  1  0.336644  0.016506  0.387304  1
  O  O19  1  0.030068  0.355740  0.804113  1
  O  O20  1  0.355740  0.030068  0.804113  1
  O  O21  1  0.969932  0.644260  0.195887  1
  O  O22  1  0.644260  0.969932  0.195887  1
