# generated using pymatgen
data_H3SeCl
_symmetry_space_group_name_H-M   'P 1'
_cell_length_a   4.43944856
_cell_length_b   4.58429396
_cell_length_c   5.42310204
_cell_angle_alpha   78.56528297
_cell_angle_beta   79.47508465
_cell_angle_gamma   73.26253973
_symmetry_Int_Tables_number   1
_chemical_formula_structural   H3SeCl
_chemical_formula_sum   'H3 Se1 Cl1'
_cell_volume   102.66457197
_cell_formula_units_Z   1
loop_
 _symmetry_equiv_pos_site_id
 _symmetry_equiv_pos_as_xyz
  1  'x, y, z'
loop_
 _atom_site_type_symbol
 _atom_site_label
 _atom_site_symmetry_multiplicity
 _atom_site_fract_x
 _atom_site_fract_y
 _atom_site_fract_z
 _atom_site_occupancy
  H  H0  1  0.948535  0.955569  0.892962  1
  H  H1  1  0.866160  0.401042  0.472097  1
  H  H2  1  0.484231  0.441314  0.778026  1
  Se  Se3  1  0.647165  0.210752  0.605328  1
  Cl  Cl4  1  0.141319  0.800256  0.070465  1
