# generated using pymatgen
data_Ta4Ti2V4Si6B
_symmetry_space_group_name_H-M   'P 1'
_cell_length_a   7.43450165
_cell_length_b   7.43057135
_cell_length_c   5.00982711
_cell_angle_alpha   90.03815159
_cell_angle_beta   89.92372945
_cell_angle_gamma   120.01750750
_symmetry_Int_Tables_number   1
_chemical_formula_structural   Ta4Ti2V4Si6B
_chemical_formula_sum   'Ta4 Ti2 V4 Si6 B1'
_cell_volume   239.63508985
_cell_formula_units_Z   1
loop_
 _symmetry_equiv_pos_site_id
 _symmetry_equiv_pos_as_xyz
  1  'x, y, z'
loop_
 _atom_site_type_symbol
 _atom_site_label
 _atom_site_symmetry_multiplicity
 _atom_site_fract_x
 _atom_site_fract_y
 _atom_site_fract_z
 _atom_site_occupancy
  Ta  Ta0  1  0.756177  0.000000  0.243785  1
  Ta  Ta1  1  0.000775  0.245715  0.754792  1
  Ta  Ta2  1  0.755061  0.754285  0.754792  1
  Ta  Ta3  1  0.245217  0.000000  0.753465  1
  Ti  Ti4  1  0.998947  0.755410  0.245093  1
  Ti  Ti5  1  0.243537  0.244590  0.245093  1
  V  V6  1  0.334212  0.667319  0.500197  1
  V  V7  1  0.666894  0.332681  0.500197  1
  V  V8  1  0.666657  0.332875  0.001527  1
  V  V9  1  0.333780  0.667125  0.001527  1
  Si  Si10  1  0.002428  0.406481  0.247843  1
  Si  Si11  1  0.595947  0.593519  0.247843  1
  Si  Si12  1  0.399109  0.000000  0.248165  1
  Si  Si13  1  0.000185  0.597242  0.754786  1
  Si  Si14  1  0.402944  0.402758  0.754786  1
  Si  Si15  1  0.596022  0.000000  0.752064  1
  B  B16  1  0.002106  0.000000  0.494044  1
