# generated using pymatgen
data_PrNd7TiZn7Rh8
_symmetry_space_group_name_H-M   'P 1'
_cell_length_a   4.04150900
_cell_length_b   7.35548558
_cell_length_c   16.68625451
_cell_angle_alpha   90.18547721
_cell_angle_beta   90.00000000
_cell_angle_gamma   90.00000000
_symmetry_Int_Tables_number   1
_chemical_formula_structural   PrNd7TiZn7Rh8
_chemical_formula_sum   'Pr1 Nd7 Ti1 Zn7 Rh8'
_cell_volume   496.03404692
_cell_formula_units_Z   1
loop_
 _symmetry_equiv_pos_site_id
 _symmetry_equiv_pos_as_xyz
  1  'x, y, z'
loop_
 _atom_site_type_symbol
 _atom_site_label
 _atom_site_symmetry_multiplicity
 _atom_site_fract_x
 _atom_site_fract_y
 _atom_site_fract_z
 _atom_site_occupancy
  Pr  Pr0  1  0.250000  0.667111  0.567931  1
  Nd  Nd1  1  0.750000  0.448286  0.216220  1
  Nd  Nd2  1  0.750000  0.954975  0.274089  1
  Nd  Nd3  1  0.750000  0.826964  0.058623  1
  Nd  Nd4  1  0.250000  0.045694  0.718383  1
  Nd  Nd5  1  0.250000  0.168278  0.939250  1
  Nd  Nd6  1  0.250000  0.546071  0.786257  1
  Nd  Nd7  1  0.750000  0.354793  0.439614  1
  Ti  Ti8  1  0.250000  0.994748  0.438660  1
  Zn  Zn9  1  0.750000  0.499347  0.939705  1
  Zn  Zn10  1  0.750000  0.003002  0.564355  1
  Zn  Zn11  1  0.250000  0.636484  0.345179  1
  Zn  Zn12  1  0.750000  0.366609  0.650910  1
  Zn  Zn13  1  0.750000  0.875794  0.850296  1
  Zn  Zn14  1  0.250000  0.496226  0.060605  1
  Zn  Zn15  1  0.250000  0.120050  0.145590  1
  Rh  Rh16  1  0.250000  0.233882  0.557868  1
  Rh  Rh17  1  0.750000  0.254806  0.065232  1
  Rh  Rh18  1  0.250000  0.230651  0.323968  1
  Rh  Rh19  1  0.750000  0.252306  0.813341  1
  Rh  Rh20  1  0.250000  0.742620  0.935599  1
  Rh  Rh21  1  0.750000  0.752661  0.690204  1
  Rh  Rh22  1  0.750000  0.786021  0.432880  1
  Rh  Rh23  1  0.250000  0.742617  0.185241  1
