# generated using pymatgen
data_CeDy3Cd2(PtAu)2
_symmetry_space_group_name_H-M   'P 1'
_cell_length_a   7.84268026
_cell_length_b   7.89104982
_cell_length_c   3.76562700
_cell_angle_alpha   90.00000000
_cell_angle_beta   90.00000000
_cell_angle_gamma   90.28911863
_symmetry_Int_Tables_number   1
_chemical_formula_structural   CeDy3Cd2(PtAu)2
_chemical_formula_sum   'Ce1 Dy3 Cd2 Pt2 Au2'
_cell_volume   233.04031828
_cell_formula_units_Z   1
loop_
 _symmetry_equiv_pos_site_id
 _symmetry_equiv_pos_as_xyz
  1  'x, y, z'
loop_
 _atom_site_type_symbol
 _atom_site_label
 _atom_site_symmetry_multiplicity
 _atom_site_fract_x
 _atom_site_fract_y
 _atom_site_fract_z
 _atom_site_occupancy
  Ce  Ce0  1  0.667527  0.183677  0.500000  1
  Dy  Dy1  1  0.169145  0.318848  0.500000  1
  Dy  Dy2  1  0.326325  0.843428  0.500000  1
  Dy  Dy3  1  0.829873  0.657646  0.500000  1
  Cd  Cd4  1  0.496947  0.501695  0.000000  1
  Cd  Cd5  1  0.000141  0.000396  0.000000  1
  Pt  Pt6  1  0.870705  0.368565  0.000000  1
  Pt  Pt7  1  0.375650  0.130702  0.000000  1
  Au  Au8  1  0.632354  0.867994  0.000000  1
  Au  Au9  1  0.131332  0.627051  0.000000  1
