# generated using pymatgen
data_Ho4Al18AgOs4Pt
_symmetry_space_group_name_H-M   'P 1'
_cell_length_a   7.60354290
_cell_length_b   7.60354270
_cell_length_c   9.54492666
_cell_angle_alpha   90.07593111
_cell_angle_beta   90.07592447
_cell_angle_gamma   119.68070371
_symmetry_Int_Tables_number   1
_chemical_formula_structural   Ho4Al18AgOs4Pt
_chemical_formula_sum   'Ho4 Al18 Ag1 Os4 Pt1'
_cell_volume   479.42651637
_cell_formula_units_Z   1
loop_
 _symmetry_equiv_pos_site_id
 _symmetry_equiv_pos_as_xyz
  1  'x, y, z'
loop_
 _atom_site_type_symbol
 _atom_site_label
 _atom_site_symmetry_multiplicity
 _atom_site_fract_x
 _atom_site_fract_y
 _atom_site_fract_z
 _atom_site_occupancy
  Ho  Ho0  1  0.997735  0.671603  0.248815  1
  Ho  Ho1  1  0.002265  0.328397  0.751185  1
  Ho  Ho2  1  0.671603  0.997735  0.248815  1
  Ho  Ho3  1  0.328397  0.002265  0.751185  1
  Al  Al4  1  0.136277  0.136277  0.245334  1
  Al  Al5  1  0.863723  0.863723  0.754666  1
  Al  Al6  1  0.001171  0.339487  0.072273  1
  Al  Al7  1  0.998829  0.660513  0.927727  1
  Al  Al8  1  0.996977  0.654137  0.576476  1
  Al  Al9  1  0.345863  0.003023  0.423524  1
  Al  Al10  1  0.003023  0.345863  0.423524  1
  Al  Al11  1  0.654137  0.996977  0.576476  1
  Al  Al12  1  0.660513  0.998829  0.927727  1
  Al  Al13  1  0.339487  0.001171  0.072273  1
  Al  Al14  1  0.345333  0.345333  0.554128  1
  Al  Al15  1  0.654667  0.654668  0.445872  1
  Al  Al16  1  0.661277  0.661278  0.049329  1
  Al  Al17  1  0.338723  0.338723  0.950671  1
  Al  Al18  1  0.337185  0.550338  0.249218  1
  Al  Al19  1  0.662815  0.449662  0.750782  1
  Al  Al20  1  0.550338  0.337185  0.249218  1
  Al  Al21  1  0.449662  0.662815  0.750782  1
  Ag  Ag22  1  0.000000  0.000000  0.500000  1
  Os  Os23  1  0.672281  0.327719  0.000000  1
  Os  Os24  1  0.327719  0.672281  0.000000  1
  Os  Os25  1  0.327162  0.672838  0.500000  1
  Os  Os26  1  0.672838  0.327162  0.500000  1
  Pt  Pt27  1  0.000000  0.000000  0.000000  1
