# generated using pymatgen
data_Sm3Np(In2Br5)4
_symmetry_space_group_name_H-M   'P 1'
_cell_length_a   8.63674980
_cell_length_b   9.15477300
_cell_length_c   13.52834100
_cell_angle_alpha   90.00000000
_cell_angle_beta   89.92298643
_cell_angle_gamma   90.00000000
_symmetry_Int_Tables_number   1
_chemical_formula_structural   Sm3Np(In2Br5)4
_chemical_formula_sum   'Sm3 Np1 In8 Br20'
_cell_volume   1069.65091788
_cell_formula_units_Z   1
loop_
 _symmetry_equiv_pos_site_id
 _symmetry_equiv_pos_as_xyz
  1  'x, y, z'
loop_
 _atom_site_type_symbol
 _atom_site_label
 _atom_site_symmetry_multiplicity
 _atom_site_fract_x
 _atom_site_fract_y
 _atom_site_fract_z
 _atom_site_occupancy
  Sm  Sm0  1  0.576110  0.750000  0.005541  1
  Sm  Sm1  1  0.076168  0.250000  0.494250  1
  Sm  Sm2  1  0.423926  0.250000  0.994839  1
  Np  Np3  1  0.925064  0.750000  0.506378  1
  In  In4  1  0.939335  0.006498  0.828802  1
  In  In5  1  0.059115  0.994063  0.171186  1
  In  In6  1  0.560021  0.494151  0.327649  1
  In  In7  1  0.059115  0.505937  0.171186  1
  In  In8  1  0.939335  0.493502  0.828802  1
  In  In9  1  0.441386  0.504736  0.671740  1
  In  In10  1  0.560021  0.005849  0.327649  1
  In  In11  1  0.441386  0.995264  0.671740  1
  Br  Br12  1  0.578062  0.750000  0.505848  1
  Br  Br13  1  0.169879  0.955703  0.427803  1
  Br  Br14  1  0.830885  0.048050  0.572118  1
  Br  Br15  1  0.331921  0.545411  0.929234  1
  Br  Br16  1  0.169879  0.544297  0.427803  1
  Br  Br17  1  0.345066  0.250000  0.203488  1
  Br  Br18  1  0.331921  0.954589  0.929234  1
  Br  Br19  1  0.830885  0.451950  0.572118  1
  Br  Br20  1  0.392488  0.750000  0.186237  1
  Br  Br21  1  0.667916  0.045591  0.070929  1
  Br  Br22  1  0.154817  0.250000  0.703422  1
  Br  Br23  1  0.607660  0.250000  0.813708  1
  Br  Br24  1  0.419495  0.250000  0.493622  1
  Br  Br25  1  0.107812  0.750000  0.687860  1
  Br  Br26  1  0.667916  0.454409  0.070929  1
  Br  Br27  1  0.080473  0.250000  0.994017  1
  Br  Br28  1  0.919333  0.750000  0.006264  1
  Br  Br29  1  0.845075  0.750000  0.294822  1
  Br  Br30  1  0.655148  0.750000  0.796555  1
  Br  Br31  1  0.892390  0.250000  0.314223  1
