# generated using pymatgen
data_Ce2PuNi3Sb4
_symmetry_space_group_name_H-M   'P 1'
_cell_length_a   8.23855286
_cell_length_b   8.23855260
_cell_length_c   8.23855189
_cell_angle_alpha   109.35973982
_cell_angle_beta   109.69442196
_cell_angle_gamma   109.35973127
_symmetry_Int_Tables_number   1
_chemical_formula_structural   Ce2PuNi3Sb4
_chemical_formula_sum   'Ce4 Pu2 Ni6 Sb8'
_cell_volume   430.45315483
_cell_formula_units_Z   2
loop_
 _symmetry_equiv_pos_site_id
 _symmetry_equiv_pos_as_xyz
  1  'x, y, z'
loop_
 _atom_site_type_symbol
 _atom_site_label
 _atom_site_symmetry_multiplicity
 _atom_site_fract_x
 _atom_site_fract_y
 _atom_site_fract_z
 _atom_site_occupancy
  Ce  Ce0  1  0.250000  0.124912  0.874912  1
  Ce  Ce1  1  0.750000  0.375088  0.625088  1
  Ce  Ce2  1  0.125088  0.875088  0.250000  1
  Ce  Ce3  1  0.374912  0.624912  0.750000  1
  Pu  Pu4  1  0.875000  0.250000  0.125000  1
  Pu  Pu5  1  0.625000  0.750000  0.375000  1
  Ni  Ni6  1  0.375000  0.250000  0.625000  1
  Ni  Ni7  1  0.125000  0.750000  0.875000  1
  Ni  Ni8  1  0.250000  0.627508  0.377508  1
  Ni  Ni9  1  0.750000  0.872492  0.122492  1
  Ni  Ni10  1  0.622492  0.372492  0.250000  1
  Ni  Ni11  1  0.877508  0.127508  0.750000  1
  Sb  Sb12  1  0.659947  0.499516  0.002195  1
  Sb  Sb13  1  0.502680  0.000484  0.660431  1
  Sb  Sb14  1  0.997320  0.657752  0.497805  1
  Sb  Sb15  1  0.840053  0.842248  0.839569  1
  Sb  Sb16  1  0.502195  0.999516  0.159947  1
  Sb  Sb17  1  0.160431  0.500484  0.002680  1
  Sb  Sb18  1  0.997805  0.157752  0.497320  1
  Sb  Sb19  1  0.339569  0.342248  0.340053  1
