# generated using pymatgen
data_P2HI9
_symmetry_space_group_name_H-M   'P 1'
_cell_length_a   6.49041900
_cell_length_b   9.57522600
_cell_length_c   19.19727400
_cell_angle_alpha   90.00000000
_cell_angle_beta   90.00000000
_cell_angle_gamma   90.00000000
_symmetry_Int_Tables_number   1
_chemical_formula_structural   P2HI9
_chemical_formula_sum   'P4 H2 I18'
_cell_volume   1193.05737884
_cell_formula_units_Z   2
loop_
 _symmetry_equiv_pos_site_id
 _symmetry_equiv_pos_as_xyz
  1  'x, y, z'
loop_
 _atom_site_type_symbol
 _atom_site_label
 _atom_site_symmetry_multiplicity
 _atom_site_fract_x
 _atom_site_fract_y
 _atom_site_fract_z
 _atom_site_occupancy
  P  P0  1  0.037119  0.750000  0.639555  1
  P  P1  1  0.037119  0.250000  0.860445  1
  P  P2  1  0.971667  0.250000  0.365618  1
  P  P3  1  0.971667  0.750000  0.134382  1
  H  H4  1  0.102411  0.250000  0.425116  1
  H  H5  1  0.102411  0.750000  0.074884  1
  I  I6  1  0.206938  0.750000  0.234825  1
  I  I7  1  0.206938  0.250000  0.265175  1
  I  I8  1  0.820997  0.250000  0.752746  1
  I  I9  1  0.820997  0.750000  0.747254  1
  I  I10  1  0.766903  0.967769  0.126936  1
  I  I11  1  0.766903  0.032231  0.373064  1
  I  I12  1  0.251091  0.466978  0.869399  1
  I  I13  1  0.251091  0.533022  0.630601  1
  I  I14  1  0.251091  0.033022  0.869399  1
  I  I15  1  0.251091  0.966978  0.630601  1
  I  I16  1  0.766903  0.532231  0.126936  1
  I  I17  1  0.766903  0.467769  0.373064  1
  I  I18  1  0.492184  0.750000  0.383370  1
  I  I19  1  0.492184  0.250000  0.116630  1
  I  I20  1  0.531129  0.250000  0.612930  1
  I  I21  1  0.531129  0.750000  0.887070  1
  I  I22  1  0.801567  0.750000  0.539609  1
  I  I23  1  0.801567  0.250000  0.960391  1
