# generated using pymatgen
data_NdEr3(CuPt)2
_symmetry_space_group_name_H-M   'P 1'
_cell_length_a   4.49895700
_cell_length_b   5.47466317
_cell_length_c   7.14675912
_cell_angle_alpha   90.87914219
_cell_angle_beta   90.00000000
_cell_angle_gamma   90.00000000
_symmetry_Int_Tables_number   1
_chemical_formula_structural   NdEr3(CuPt)2
_chemical_formula_sum   'Nd1 Er3 Cu2 Pt2'
_cell_volume   176.00591556
_cell_formula_units_Z   1
loop_
 _symmetry_equiv_pos_site_id
 _symmetry_equiv_pos_as_xyz
  1  'x, y, z'
loop_
 _atom_site_type_symbol
 _atom_site_label
 _atom_site_symmetry_multiplicity
 _atom_site_fract_x
 _atom_site_fract_y
 _atom_site_fract_z
 _atom_site_occupancy
  Nd  Nd0  1  0.500000  0.607661  0.816374  1
  Er  Er1  1  0.000000  0.117269  0.682170  1
  Er  Er2  1  0.000000  0.884639  0.186356  1
  Er  Er3  1  0.500000  0.393513  0.316143  1
  Cu  Cu4  1  0.500000  0.895983  0.460187  1
  Cu  Cu5  1  0.500000  0.107967  0.967505  1
  Pt  Pt6  1  0.000000  0.615522  0.526802  1
  Pt  Pt7  1  0.000000  0.377445  0.044466  1
