# generated using pymatgen
data_YTm(LuPb)3
_symmetry_space_group_name_H-M   'P 1'
_cell_length_a   6.53700800
_cell_length_b   8.91581781
_cell_length_c   8.94190089
_cell_angle_alpha   119.90355356
_cell_angle_beta   89.99961679
_cell_angle_gamma   90.00076473
_symmetry_Int_Tables_number   1
_chemical_formula_structural   YTm(LuPb)3
_chemical_formula_sum   'Y2 Tm2 Lu6 Pb6'
_cell_volume   451.77473374
_cell_formula_units_Z   2
loop_
 _symmetry_equiv_pos_site_id
 _symmetry_equiv_pos_as_xyz
  1  'x, y, z'
loop_
 _atom_site_type_symbol
 _atom_site_label
 _atom_site_symmetry_multiplicity
 _atom_site_fract_x
 _atom_site_fract_y
 _atom_site_fract_z
 _atom_site_occupancy
  Y  Y0  1  0.750017  0.234331  0.000000  1
  Y  Y1  1  0.249954  0.765541  0.000000  1
  Tm  Tm2  1  0.750003  0.763973  0.762821  1
  Tm  Tm3  1  0.750003  0.001153  0.237179  1
  Lu  Lu4  1  0.249978  0.235324  0.236183  1
  Lu  Lu5  1  0.249978  0.999140  0.763817  1
  Lu  Lu6  1  0.499902  0.333688  0.667378  1
  Lu  Lu7  1  0.499902  0.666310  0.332622  1
  Lu  Lu8  1  0.000073  0.666346  0.332625  1
  Lu  Lu9  1  0.000073  0.333722  0.667375  1
  Pb  Pb10  1  0.749847  0.604168  0.000000  1
  Pb  Pb11  1  0.749968  0.397135  0.397786  1
  Pb  Pb12  1  0.749968  0.999350  0.602214  1
  Pb  Pb13  1  0.249929  0.395231  0.000000  1
  Pb  Pb14  1  0.250203  0.603209  0.601830  1
  Pb  Pb15  1  0.250203  0.001378  0.398170  1
