# generated using pymatgen
data_Y5ErAl16(SiOs)8
_symmetry_space_group_name_H-M   'P 1'
_cell_length_a   8.70619747
_cell_length_b   8.70619800
_cell_length_c   9.44177500
_cell_angle_alpha   90.00000000
_cell_angle_beta   90.00000000
_cell_angle_gamma   120.13395038
_symmetry_Int_Tables_number   1
_chemical_formula_structural   Y5ErAl16(SiOs)8
_chemical_formula_sum   'Y5 Er1 Al16 Si8 Os8'
_cell_volume   618.94712323
_cell_formula_units_Z   1
loop_
 _symmetry_equiv_pos_site_id
 _symmetry_equiv_pos_as_xyz
  1  'x, y, z'
loop_
 _atom_site_type_symbol
 _atom_site_label
 _atom_site_symmetry_multiplicity
 _atom_site_fract_x
 _atom_site_fract_y
 _atom_site_fract_z
 _atom_site_occupancy
  Y  Y0  1  0.191561  0.386221  0.250000  1
  Y  Y1  1  0.808114  0.613028  0.750000  1
  Y  Y2  1  0.613779  0.808439  0.250000  1
  Y  Y3  1  0.386972  0.191886  0.750000  1
  Y  Y4  1  0.194193  0.805807  0.250000  1
  Er  Er5  1  0.804644  0.195356  0.750000  1
  Al  Al6  1  0.165264  0.329396  0.578308  1
  Al  Al7  1  0.834291  0.670468  0.422257  1
  Al  Al8  1  0.670604  0.834736  0.578308  1
  Al  Al9  1  0.834291  0.670468  0.077743  1
  Al  Al10  1  0.329532  0.165709  0.422257  1
  Al  Al11  1  0.165264  0.329396  0.921692  1
  Al  Al12  1  0.164733  0.835267  0.577804  1
  Al  Al13  1  0.329532  0.165709  0.077743  1
  Al  Al14  1  0.835379  0.164621  0.422965  1
  Al  Al15  1  0.670604  0.834736  0.921692  1
  Al  Al16  1  0.835379  0.164621  0.077035  1
  Al  Al17  1  0.164733  0.835267  0.922196  1
  Al  Al18  1  0.564920  0.435080  0.250000  1
  Al  Al19  1  0.434811  0.565189  0.750000  1
  Al  Al20  1  0.000260  0.999740  0.250000  1
  Al  Al21  1  0.999030  0.000970  0.750000  1
  Si  Si22  1  0.335091  0.664909  0.039333  1
  Si  Si23  1  0.665349  0.334651  0.959746  1
  Si  Si24  1  0.665349  0.334651  0.540254  1
  Si  Si25  1  0.335091  0.664909  0.460667  1
  Si  Si26  1  0.564662  0.124633  0.250000  1
  Si  Si27  1  0.436439  0.875714  0.750000  1
  Si  Si28  1  0.875367  0.435338  0.250000  1
  Si  Si29  1  0.124286  0.563561  0.750000  1
  Os  Os30  1  0.500506  0.000423  0.999522  1
  Os  Os31  1  0.999577  0.499494  0.999522  1
  Os  Os32  1  0.500506  0.000423  0.500478  1
  Os  Os33  1  0.500226  0.499774  0.999833  1
  Os  Os34  1  0.999577  0.499494  0.500478  1
  Os  Os35  1  0.500226  0.499774  0.500167  1
  Os  Os36  1  0.999930  0.000070  0.000044  1
  Os  Os37  1  0.999930  0.000070  0.499956  1
