# generated using pymatgen
data_Er2Tm8Si5Pb
_symmetry_space_group_name_H-M   'P 1'
_cell_length_a   8.44448766
_cell_length_b   8.44448681
_cell_length_c   6.29932700
_cell_angle_alpha   90.00000000
_cell_angle_beta   90.00000000
_cell_angle_gamma   120.24405696
_symmetry_Int_Tables_number   1
_chemical_formula_structural   Er2Tm8Si5Pb
_chemical_formula_sum   'Er2 Tm8 Si5 Pb1'
_cell_volume   388.05924866
_cell_formula_units_Z   1
loop_
 _symmetry_equiv_pos_site_id
 _symmetry_equiv_pos_as_xyz
  1  'x, y, z'
loop_
 _atom_site_type_symbol
 _atom_site_label
 _atom_site_symmetry_multiplicity
 _atom_site_fract_x
 _atom_site_fract_y
 _atom_site_fract_z
 _atom_site_occupancy
  Er  Er0  1  0.767587  0.767587  0.250000  1
  Er  Er1  1  0.239445  0.239445  0.750000  1
  Tm  Tm2  1  0.675211  0.331280  0.503851  1
  Tm  Tm3  1  0.331280  0.675211  0.503851  1
  Tm  Tm4  1  0.331280  0.675211  0.996149  1
  Tm  Tm5  1  0.675211  0.331280  0.996149  1
  Tm  Tm6  1  0.239669  0.987319  0.250000  1
  Tm  Tm7  1  0.987319  0.239669  0.250000  1
  Tm  Tm8  1  0.756368  0.998498  0.750000  1
  Tm  Tm9  1  0.998498  0.756368  0.750000  1
  Si  Si10  1  0.603734  0.998537  0.250000  1
  Si  Si11  1  0.998537  0.603734  0.250000  1
  Si  Si12  1  0.606094  0.606094  0.750000  1
  Si  Si13  1  0.393906  0.001453  0.750000  1
  Si  Si14  1  0.001453  0.393906  0.750000  1
  Pb  Pb15  1  0.394407  0.394407  0.250000  1
