# generated using pymatgen
data_Dy2Lu4CrCo17P12
_symmetry_space_group_name_H-M   'P 1'
_cell_length_a   3.67005100
_cell_length_b   10.49073400
_cell_length_c   12.14373900
_cell_angle_alpha   90.00000000
_cell_angle_beta   90.00000000
_cell_angle_gamma   90.00000000
_symmetry_Int_Tables_number   1
_chemical_formula_structural   Dy2Lu4CrCo17P12
_chemical_formula_sum   'Dy2 Lu4 Cr1 Co17 P12'
_cell_volume   467.55251694
_cell_formula_units_Z   1
loop_
 _symmetry_equiv_pos_site_id
 _symmetry_equiv_pos_as_xyz
  1  'x, y, z'
loop_
 _atom_site_type_symbol
 _atom_site_label
 _atom_site_symmetry_multiplicity
 _atom_site_fract_x
 _atom_site_fract_y
 _atom_site_fract_z
 _atom_site_occupancy
  Dy  Dy0  1  0.000000  0.500000  0.523339  1
  Dy  Dy1  1  0.500000  0.000000  0.476976  1
  Lu  Lu2  1  0.500000  0.818266  0.206221  1
  Lu  Lu3  1  0.500000  0.181734  0.206221  1
  Lu  Lu4  1  0.000000  0.681511  0.795906  1
  Lu  Lu5  1  0.000000  0.318489  0.795906  1
  Cr  Cr6  1  0.500000  0.500000  0.153566  1
  Co  Co7  1  0.000000  0.000000  0.840170  1
  Co  Co8  1  0.500000  0.500000  0.704406  1
  Co  Co9  1  0.000000  0.000000  0.295184  1
  Co  Co10  1  0.000000  0.500000  0.987272  1
  Co  Co11  1  0.500000  0.000000  0.014615  1
  Co  Co12  1  0.500000  0.332069  0.992805  1
  Co  Co13  1  0.500000  0.667931  0.992805  1
  Co  Co14  1  0.000000  0.167061  0.006261  1
  Co  Co15  1  0.000000  0.832939  0.006261  1
  Co  Co16  1  0.500000  0.296386  0.430461  1
  Co  Co17  1  0.500000  0.703614  0.430461  1
  Co  Co18  1  0.000000  0.203270  0.569669  1
  Co  Co19  1  0.000000  0.796730  0.569669  1
  Co  Co20  1  0.500000  0.877997  0.709819  1
  Co  Co21  1  0.500000  0.122003  0.709819  1
  Co  Co22  1  0.000000  0.621674  0.290428  1
  Co  Co23  1  0.000000  0.378326  0.290428  1
  P  P24  1  0.500000  0.500000  0.881752  1
  P  P25  1  0.000000  0.000000  0.117743  1
  P  P26  1  0.500000  0.500000  0.345904  1
  P  P27  1  0.000000  0.000000  0.655914  1
  P  P28  1  0.500000  0.311468  0.617951  1
  P  P29  1  0.500000  0.688532  0.617951  1
  P  P30  1  0.000000  0.188323  0.382761  1
  P  P31  1  0.000000  0.811677  0.382761  1
  P  P32  1  0.500000  0.847841  0.891464  1
  P  P33  1  0.500000  0.152159  0.891464  1
  P  P34  1  0.000000  0.654913  0.107834  1
  P  P35  1  0.000000  0.345087  0.107834  1
