# generated using pymatgen
data_VHgTeO6
_symmetry_space_group_name_H-M   'P 1'
_cell_length_a   5.23331248
_cell_length_b   5.23641164
_cell_length_c   5.01306818
_cell_angle_alpha   89.97569099
_cell_angle_beta   90.01215952
_cell_angle_gamma   120.01958806
_symmetry_Int_Tables_number   1
_chemical_formula_structural   VHgTeO6
_chemical_formula_sum   'V1 Hg1 Te1 O6'
_cell_volume   118.94847941
_cell_formula_units_Z   1
loop_
 _symmetry_equiv_pos_site_id
 _symmetry_equiv_pos_as_xyz
  1  'x, y, z'
loop_
 _atom_site_type_symbol
 _atom_site_label
 _atom_site_symmetry_multiplicity
 _atom_site_fract_x
 _atom_site_fract_y
 _atom_site_fract_z
 _atom_site_occupancy
  V  V0  1  0.000273  0.000137  0.500000  1
  Hg  Hg1  1  0.666738  0.333369  0.000000  1
  Te  Te2  1  0.333289  0.666644  0.500000  1
  O  O3  1  0.288956  0.334099  0.285831  1
  O  O4  1  0.045274  0.710862  0.285590  1
  O  O5  1  0.665622  0.954734  0.285826  1
  O  O6  1  0.045274  0.334413  0.714409  1
  O  O7  1  0.665622  0.710888  0.714173  1
  O  O8  1  0.288956  0.954857  0.714168  1
