# generated using pymatgen
data_Er5Zr3(Ta3Si4)4
_symmetry_space_group_name_H-M   'P 1'
_cell_length_a   6.96766162
_cell_length_b   6.96559948
_cell_length_c   12.87492536
_cell_angle_alpha   89.92569624
_cell_angle_beta   90.11662604
_cell_angle_gamma   90.06178600
_symmetry_Int_Tables_number   1
_chemical_formula_structural   Er5Zr3(Ta3Si4)4
_chemical_formula_sum   'Er5 Zr3 Ta12 Si16'
_cell_volume   624.86867533
_cell_formula_units_Z   1
loop_
 _symmetry_equiv_pos_site_id
 _symmetry_equiv_pos_as_xyz
  1  'x, y, z'
loop_
 _atom_site_type_symbol
 _atom_site_label
 _atom_site_symmetry_multiplicity
 _atom_site_fract_x
 _atom_site_fract_y
 _atom_site_fract_z
 _atom_site_occupancy
  Er  Er0  1  0.997715  0.659200  0.032364  1
  Er  Er1  1  0.003462  0.339436  0.531562  1
  Er  Er2  1  0.659824  0.997193  0.969186  1
  Er  Er3  1  0.161345  0.502371  0.779857  1
  Er  Er4  1  0.839423  0.497293  0.281729  1
  Zr  Zr5  1  0.496185  0.157349  0.219637  1
  Zr  Zr6  1  0.503970  0.844459  0.717420  1
  Zr  Zr7  1  0.343894  0.997355  0.468664  1
  Ta  Ta8  1  0.348282  0.508629  0.375962  1
  Ta  Ta9  1  0.845976  0.997556  0.374243  1
  Ta  Ta10  1  0.007988  0.153858  0.127471  1
  Ta  Ta11  1  0.992966  0.848281  0.624821  1
  Ta  Ta12  1  0.650274  0.491661  0.874271  1
  Ta  Ta13  1  0.502484  0.345922  0.622987  1
  Ta  Ta14  1  0.494768  0.653267  0.125292  1
  Ta  Ta15  1  0.153815  0.003663  0.872801  1
  Ta  Ta16  1  0.668235  0.673664  0.499850  1
  Ta  Ta17  1  0.828949  0.167378  0.749213  1
  Ta  Ta18  1  0.171962  0.833607  0.251406  1
  Ta  Ta19  1  0.329853  0.328102  0.999784  1
  Si  Si20  1  0.045526  0.706857  0.436581  1
  Si  Si21  1  0.956106  0.294980  0.936556  1
  Si  Si22  1  0.701026  0.045110  0.563578  1
  Si  Si23  1  0.205159  0.455646  0.187256  1
  Si  Si24  1  0.794171  0.543734  0.685757  1
  Si  Si25  1  0.455824  0.199573  0.812683  1
  Si  Si26  1  0.544252  0.800549  0.313776  1
  Si  Si27  1  0.296759  0.956479  0.064415  1
  Si  Si28  1  0.863191  0.793123  0.817727  1
  Si  Si29  1  0.139530  0.205078  0.321245  1
  Si  Si30  1  0.792171  0.869049  0.181511  1
  Si  Si31  1  0.297168  0.639332  0.570998  1
  Si  Si32  1  0.701680  0.362944  0.071354  1
  Si  Si33  1  0.630672  0.292218  0.429088  1
  Si  Si34  1  0.365864  0.704520  0.930104  1
  Si  Si35  1  0.209529  0.130564  0.678849  1
