# generated using pymatgen
data_SmHf2Zr6(In2Co)7
_symmetry_space_group_name_H-M   'P 1'
_cell_length_a   9.49177129
_cell_length_b   9.49037995
_cell_length_c   9.48729653
_cell_angle_alpha   60.17698790
_cell_angle_beta   60.17127465
_cell_angle_gamma   60.16859271
_symmetry_Int_Tables_number   1
_chemical_formula_structural   SmHf2Zr6(In2Co)7
_chemical_formula_sum   'Sm1 Hf2 Zr6 In14 Co7'
_cell_volume   606.66592200
_cell_formula_units_Z   1
loop_
 _symmetry_equiv_pos_site_id
 _symmetry_equiv_pos_as_xyz
  1  'x, y, z'
loop_
 _atom_site_type_symbol
 _atom_site_label
 _atom_site_symmetry_multiplicity
 _atom_site_fract_x
 _atom_site_fract_y
 _atom_site_fract_z
 _atom_site_occupancy
  Sm  Sm0  1  0.499926  0.500035  0.500021  1
  Hf  Hf1  1  0.119579  0.643489  0.118344  1
  Hf  Hf2  1  0.356508  0.880414  0.881613  1
  Zr  Zr3  1  0.880134  0.878598  0.879862  1
  Zr  Zr4  1  0.637713  0.120576  0.120667  1
  Zr  Zr5  1  0.879764  0.878594  0.362359  1
  Zr  Zr6  1  0.121292  0.119933  0.120138  1
  Zr  Zr7  1  0.879445  0.362277  0.879422  1
  Zr  Zr8  1  0.121509  0.120180  0.637625  1
  In  In9  1  0.500494  0.845239  0.153590  1
  In  In10  1  0.500973  0.844861  0.501012  1
  In  In11  1  0.499980  0.154181  0.500020  1
  In  In12  1  0.500232  0.500266  0.845707  1
  In  In13  1  0.155140  0.499002  0.498976  1
  In  In14  1  0.846005  0.154182  0.499953  1
  In  In15  1  0.154562  0.845440  0.499980  1
  In  In16  1  0.500393  0.153637  0.845523  1
  In  In17  1  0.154717  0.499425  0.846448  1
  In  In18  1  0.499618  0.499804  0.154241  1
  In  In19  1  0.845872  0.500068  0.499934  1
  In  In20  1  0.846329  0.499617  0.154463  1
  In  In21  1  0.248503  0.254673  0.249160  1
  In  In22  1  0.745293  0.751492  0.750875  1
  Co  Co23  1  0.781570  0.779977  0.218938  1
  Co  Co24  1  0.002513  0.997501  0.000016  1
  Co  Co25  1  0.220177  0.780144  0.218584  1
  Co  Co26  1  0.219869  0.779820  0.781349  1
  Co  Co27  1  0.220061  0.218448  0.781024  1
  Co  Co28  1  0.780796  0.218862  0.780791  1
  Co  Co29  1  0.781033  0.219266  0.219368  1
