# generated using pymatgen
data_DyEr19(CoBi2)4
_symmetry_space_group_name_H-M   'P 1'
_cell_length_a   7.94934969
_cell_length_b   8.83794100
_cell_length_c   12.38352612
_cell_angle_alpha   90.00000000
_cell_angle_beta   90.04820842
_cell_angle_gamma   90.00000000
_symmetry_Int_Tables_number   1
_chemical_formula_structural   DyEr19(CoBi2)4
_chemical_formula_sum   'Dy1 Er19 Co4 Bi8'
_cell_volume   870.01526084
_cell_formula_units_Z   1
loop_
 _symmetry_equiv_pos_site_id
 _symmetry_equiv_pos_as_xyz
  1  'x, y, z'
loop_
 _atom_site_type_symbol
 _atom_site_label
 _atom_site_symmetry_multiplicity
 _atom_site_fract_x
 _atom_site_fract_y
 _atom_site_fract_z
 _atom_site_occupancy
  Dy  Dy0  1  0.656236  0.750000  0.699716  1
  Er  Er1  1  0.343716  0.250000  0.300994  1
  Er  Er2  1  0.155686  0.250000  0.801741  1
  Er  Er3  1  0.844030  0.750000  0.198886  1
  Er  Er4  1  0.120580  0.750000  0.814220  1
  Er  Er5  1  0.880245  0.250000  0.185494  1
  Er  Er6  1  0.620145  0.250000  0.685747  1
  Er  Er7  1  0.380115  0.750000  0.314197  1
  Er  Er8  1  0.552524  0.750000  0.997576  1
  Er  Er9  1  0.446872  0.250000  0.003178  1
  Er  Er10  1  0.052689  0.250000  0.502339  1
  Er  Er11  1  0.947729  0.750000  0.497135  1
  Er  Er12  1  0.827319  0.463064  0.935795  1
  Er  Er13  1  0.172703  0.536456  0.064366  1
  Er  Er14  1  0.326956  0.536071  0.563758  1
  Er  Er15  1  0.172703  0.963544  0.064366  1
  Er  Er16  1  0.672778  0.463114  0.435338  1
  Er  Er17  1  0.827319  0.036936  0.935795  1
  Er  Er18  1  0.672778  0.036886  0.435338  1
  Er  Er19  1  0.326956  0.963929  0.563758  1
  Co  Co20  1  0.937463  0.750000  0.993164  1
  Co  Co21  1  0.062411  0.250000  0.007031  1
  Co  Co22  1  0.437355  0.250000  0.506637  1
  Co  Co23  1  0.562335  0.750000  0.492962  1
  Bi  Bi24  1  0.935284  0.008416  0.673367  1
  Bi  Bi25  1  0.065560  0.992068  0.326262  1
  Bi  Bi26  1  0.433521  0.992695  0.826859  1
  Bi  Bi27  1  0.065560  0.507932  0.326262  1
  Bi  Bi28  1  0.565815  0.008126  0.173746  1
  Bi  Bi29  1  0.935284  0.491584  0.673367  1
  Bi  Bi30  1  0.565815  0.491874  0.173746  1
  Bi  Bi31  1  0.433521  0.507305  0.826859  1
