# generated using pymatgen
data_CaPrNd(Si3Pd10)2
_symmetry_space_group_name_H-M   'P 1'
_cell_length_a   8.75629396
_cell_length_b   8.75629410
_cell_length_c   8.75629400
_cell_angle_alpha   60.00000036
_cell_angle_beta   59.99999985
_cell_angle_gamma   59.99999605
_symmetry_Int_Tables_number   1
_chemical_formula_structural   CaPrNd(Si3Pd10)2
_chemical_formula_sum   'Ca1 Pr1 Nd1 Si6 Pd20'
_cell_volume   474.72925687
_cell_formula_units_Z   1
loop_
 _symmetry_equiv_pos_site_id
 _symmetry_equiv_pos_as_xyz
  1  'x, y, z'
loop_
 _atom_site_type_symbol
 _atom_site_label
 _atom_site_symmetry_multiplicity
 _atom_site_fract_x
 _atom_site_fract_y
 _atom_site_fract_z
 _atom_site_occupancy
  Ca  Ca0  1  0.000000  0.000000  0.000000  1
  Pr  Pr1  1  0.250000  0.250000  0.250000  1
  Nd  Nd2  1  0.750000  0.750000  0.750000  1
  Si  Si3  1  0.734077  0.265923  0.265923  1
  Si  Si4  1  0.265923  0.734077  0.734077  1
  Si  Si5  1  0.265923  0.734077  0.265923  1
  Si  Si6  1  0.734077  0.265923  0.734077  1
  Si  Si7  1  0.265923  0.265923  0.734077  1
  Si  Si8  1  0.734077  0.734077  0.265923  1
  Pd  Pd9  1  0.346226  0.999934  0.999934  1
  Pd  Pd10  1  0.653906  0.999934  0.999934  1
  Pd  Pd11  1  0.999934  0.346226  0.653906  1
  Pd  Pd12  1  0.999934  0.653906  0.346226  1
  Pd  Pd13  1  0.999934  0.346226  0.999934  1
  Pd  Pd14  1  0.653906  0.999934  0.346226  1
  Pd  Pd15  1  0.999934  0.653906  0.999934  1
  Pd  Pd16  1  0.346226  0.999934  0.653906  1
  Pd  Pd17  1  0.999934  0.999934  0.346226  1
  Pd  Pd18  1  0.999934  0.999934  0.653906  1
  Pd  Pd19  1  0.653906  0.346226  0.999934  1
  Pd  Pd20  1  0.346226  0.653906  0.999934  1
  Pd  Pd21  1  0.385329  0.385329  0.385329  1
  Pd  Pd22  1  0.614827  0.614827  0.614827  1
  Pd  Pd23  1  0.385329  0.385329  0.844013  1
  Pd  Pd24  1  0.385329  0.844013  0.385329  1
  Pd  Pd25  1  0.614827  0.614827  0.155518  1
  Pd  Pd26  1  0.614827  0.155518  0.614827  1
  Pd  Pd27  1  0.844013  0.385329  0.385329  1
  Pd  Pd28  1  0.155518  0.614827  0.614827  1
