# generated using pymatgen
data_Cs3NdBr6
_symmetry_space_group_name_H-M   'P 1'
_cell_length_a   10.16296800
_cell_length_b   10.16296800
_cell_length_c   8.41904900
_cell_angle_alpha   90.00000000
_cell_angle_beta   90.00000000
_cell_angle_gamma   90.00000000
_symmetry_Int_Tables_number   1
_chemical_formula_structural   Cs3NdBr6
_chemical_formula_sum   'Cs6 Nd2 Br12'
_cell_volume   869.56920944
_cell_formula_units_Z   2
loop_
 _symmetry_equiv_pos_site_id
 _symmetry_equiv_pos_as_xyz
  1  'x, y, z'
loop_
 _atom_site_type_symbol
 _atom_site_label
 _atom_site_symmetry_multiplicity
 _atom_site_fract_x
 _atom_site_fract_y
 _atom_site_fract_z
 _atom_site_occupancy
  Cs  Cs0  1  0.000000  0.000000  0.500000  1
  Cs  Cs1  1  0.000000  0.000000  0.000000  1
  Cs  Cs2  1  0.234575  0.585888  0.500000  1
  Cs  Cs3  1  0.765425  0.414112  0.500000  1
  Cs  Cs4  1  0.414112  0.234575  0.000000  1
  Cs  Cs5  1  0.585888  0.765425  0.000000  1
  Nd  Nd6  1  0.500000  0.000000  0.500000  1
  Nd  Nd7  1  0.000000  0.500000  0.000000  1
  Br  Br8  1  0.695285  0.059657  0.744009  1
  Br  Br9  1  0.304715  0.940343  0.744009  1
  Br  Br10  1  0.940343  0.695285  0.244009  1
  Br  Br11  1  0.059657  0.304715  0.244009  1
  Br  Br12  1  0.304715  0.940343  0.255991  1
  Br  Br13  1  0.695285  0.059657  0.255991  1
  Br  Br14  1  0.059657  0.304715  0.755991  1
  Br  Br15  1  0.940343  0.695285  0.755991  1
  Br  Br16  1  0.569499  0.723553  0.500000  1
  Br  Br17  1  0.430501  0.276447  0.500000  1
  Br  Br18  1  0.276447  0.569499  0.000000  1
  Br  Br19  1  0.723553  0.430501  0.000000  1
