# generated using pymatgen
data_Rb4LiMnS4
_symmetry_space_group_name_H-M   'P 1'
_cell_length_a   8.25023562
_cell_length_b   8.25023504
_cell_length_c   8.25023600
_cell_angle_alpha   134.59522370
_cell_angle_beta   130.94279311
_cell_angle_gamma   69.05946446
_symmetry_Int_Tables_number   1
_chemical_formula_structural   Rb4LiMnS4
_chemical_formula_sum   'Rb4 Li1 Mn1 S4'
_cell_volume   296.50021744
_cell_formula_units_Z   1
loop_
 _symmetry_equiv_pos_site_id
 _symmetry_equiv_pos_as_xyz
  1  'x, y, z'
loop_
 _atom_site_type_symbol
 _atom_site_label
 _atom_site_symmetry_multiplicity
 _atom_site_fract_x
 _atom_site_fract_y
 _atom_site_fract_z
 _atom_site_occupancy
  Rb  Rb0  1  0.522719  0.862708  0.678240  1
  Rb  Rb1  1  0.477281  0.155521  0.339989  1
  Rb  Rb2  1  0.815532  0.637292  0.160011  1
  Rb  Rb3  1  0.184468  0.344479  0.821760  1
  Li  Li4  1  0.000000  0.250000  0.250000  1
  Mn  Mn5  1  0.000000  0.750000  0.750000  1
  S  S6  1  0.066457  0.881499  0.149456  1
  S  S7  1  0.732044  0.417001  0.350544  1
  S  S8  1  0.933543  0.082999  0.815042  1
  S  S9  1  0.267957  0.618501  0.684958  1
