# generated using pymatgen
data_Hf6Al4FeNiC2
_symmetry_space_group_name_H-M   'P 1'
_cell_length_a   8.49191459
_cell_length_b   8.49197212
_cell_length_c   8.50922200
_cell_angle_alpha   59.93406752
_cell_angle_beta   59.93381971
_cell_angle_gamma   59.97904816
_symmetry_Int_Tables_number   1
_chemical_formula_structural   Hf6Al4FeNiC2
_chemical_formula_sum   'Hf12 Al8 Fe2 Ni2 C4'
_cell_volume   433.39711491
_cell_formula_units_Z   2
loop_
 _symmetry_equiv_pos_site_id
 _symmetry_equiv_pos_as_xyz
  1  'x, y, z'
loop_
 _atom_site_type_symbol
 _atom_site_label
 _atom_site_symmetry_multiplicity
 _atom_site_fract_x
 _atom_site_fract_y
 _atom_site_fract_z
 _atom_site_occupancy
  Hf  Hf0  1  0.551238  0.945438  0.556699  1
  Hf  Hf1  1  0.304556  0.698756  0.693317  1
  Hf  Hf2  1  0.698787  0.304559  0.303353  1
  Hf  Hf3  1  0.304550  0.698784  0.303348  1
  Hf  Hf4  1  0.694691  0.694673  0.305311  1
  Hf  Hf5  1  0.303084  0.303087  0.696932  1
  Hf  Hf6  1  0.555309  0.555327  0.944689  1
  Hf  Hf7  1  0.945444  0.551244  0.556683  1
  Hf  Hf8  1  0.551213  0.945441  0.946647  1
  Hf  Hf9  1  0.946916  0.946913  0.553068  1
  Hf  Hf10  1  0.698762  0.304562  0.693301  1
  Hf  Hf11  1  0.945450  0.551216  0.946652  1
  Al  Al12  1  0.921351  0.921375  0.917420  1
  Al  Al13  1  0.010888  0.326811  0.331092  1
  Al  Al14  1  0.326834  0.010868  0.331091  1
  Al  Al15  1  0.328588  0.328563  0.010207  1
  Al  Al16  1  0.923166  0.239132  0.918909  1
  Al  Al17  1  0.921412  0.921437  0.239793  1
  Al  Al18  1  0.239112  0.923189  0.918908  1
  Al  Al19  1  0.328649  0.328625  0.332580  1
  Fe  Fe20  1  0.125000  0.125000  0.125000  1
  Fe  Fe21  1  0.125000  0.125000  0.625000  1
  Ni  Ni22  1  0.625000  0.125000  0.125000  1
  Ni  Ni23  1  0.125000  0.625000  0.125000  1
  C  C24  1  0.625000  0.625000  0.625000  1
  C  C25  1  0.125000  0.625000  0.625000  1
  C  C26  1  0.625000  0.125000  0.625000  1
  C  C27  1  0.625000  0.625000  0.125000  1
