# generated using pymatgen
data_Ho2Mn5(PIr)7
_symmetry_space_group_name_H-M   'P 1'
_cell_length_a   9.39112957
_cell_length_b   9.35479647
_cell_length_c   3.87353900
_cell_angle_alpha   90.00000000
_cell_angle_beta   90.00000000
_cell_angle_gamma   119.86072600
_symmetry_Int_Tables_number   1
_chemical_formula_structural   Ho2Mn5(PIr)7
_chemical_formula_sum   'Ho2 Mn5 P7 Ir7'
_cell_volume   295.11992177
_cell_formula_units_Z   1
loop_
 _symmetry_equiv_pos_site_id
 _symmetry_equiv_pos_as_xyz
  1  'x, y, z'
loop_
 _atom_site_type_symbol
 _atom_site_label
 _atom_site_symmetry_multiplicity
 _atom_site_fract_x
 _atom_site_fract_y
 _atom_site_fract_z
 _atom_site_occupancy
  Ho  Ho0  1  0.666097  0.333632  0.000000  1
  Ho  Ho1  1  0.335160  0.668940  0.500000  1
  Mn  Mn2  1  0.265203  0.159713  0.000000  1
  Mn  Mn3  1  0.841293  0.111734  0.000000  1
  Mn  Mn4  1  0.892434  0.729512  0.000000  1
  Mn  Mn5  1  0.779819  0.875505  0.500000  1
  Mn  Mn6  1  0.123347  0.903720  0.500000  1
  P  P7  1  0.305411  0.414325  0.000000  1
  P  P8  1  0.592355  0.890908  0.000000  1
  P  P9  1  0.112977  0.701522  0.000000  1
  P  P10  1  0.394704  0.116665  0.500000  1
  P  P11  1  0.875772  0.275160  0.500000  1
  P  P12  1  0.724955  0.606899  0.500000  1
  P  P13  1  0.995187  0.997017  0.000000  1
  Ir  Ir14  1  0.069092  0.428811  0.000000  1
  Ir  Ir15  1  0.574772  0.639179  0.000000  1
  Ir  Ir16  1  0.362741  0.936550  0.000000  1
  Ir  Ir17  1  0.444377  0.387140  0.500000  1
  Ir  Ir18  1  0.611834  0.054827  0.500000  1
  Ir  Ir19  1  0.944201  0.554007  0.500000  1
  Ir  Ir20  1  0.088266  0.214233  0.500000  1
