# generated using pymatgen
data_Sm3Ho2Pb3Br
_symmetry_space_group_name_H-M   'P 1'
_cell_length_a   9.39311100
_cell_length_b   9.39311197
_cell_length_c   6.73891200
_cell_angle_alpha   90.00000000
_cell_angle_beta   90.00000000
_cell_angle_gamma   120.00000715
_symmetry_Int_Tables_number   1
_chemical_formula_structural   Sm3Ho2Pb3Br
_chemical_formula_sum   'Sm6 Ho4 Pb6 Br2'
_cell_volume   514.91950063
_cell_formula_units_Z   2
loop_
 _symmetry_equiv_pos_site_id
 _symmetry_equiv_pos_as_xyz
  1  'x, y, z'
loop_
 _atom_site_type_symbol
 _atom_site_label
 _atom_site_symmetry_multiplicity
 _atom_site_fract_x
 _atom_site_fract_y
 _atom_site_fract_z
 _atom_site_occupancy
  Sm  Sm0  1  0.733327  0.000000  0.750000  1
  Sm  Sm1  1  0.000000  0.266673  0.250000  1
  Sm  Sm2  1  0.733327  0.733327  0.250000  1
  Sm  Sm3  1  0.266673  0.000000  0.250000  1
  Sm  Sm4  1  0.266673  0.266673  0.750000  1
  Sm  Sm5  1  0.000000  0.733327  0.750000  1
  Ho  Ho6  1  0.333333  0.666667  0.500000  1
  Ho  Ho7  1  0.333333  0.666667  0.000000  1
  Ho  Ho8  1  0.666667  0.333333  0.500000  1
  Ho  Ho9  1  0.666667  0.333333  0.000000  1
  Pb  Pb10  1  0.389311  0.000000  0.750000  1
  Pb  Pb11  1  0.610689  0.000000  0.250000  1
  Pb  Pb12  1  0.000000  0.610689  0.250000  1
  Pb  Pb13  1  0.610689  0.610689  0.750000  1
  Pb  Pb14  1  0.000000  0.389311  0.750000  1
  Pb  Pb15  1  0.389311  0.389311  0.250000  1
  Br  Br16  1  0.000000  0.000000  0.500000  1
  Br  Br17  1  0.000000  0.000000  0.000000  1
