# generated using pymatgen
data_Mn5Si3Mo4
_symmetry_space_group_name_H-M   'P 1'
_cell_length_a   4.70391700
_cell_length_b   4.76550195
_cell_length_c   7.80232900
_cell_angle_alpha   90.00000000
_cell_angle_beta   90.00000000
_cell_angle_gamma   119.57342783
_symmetry_Int_Tables_number   1
_chemical_formula_structural   Mn5Si3Mo4
_chemical_formula_sum   'Mn5 Si3 Mo4'
_cell_volume   152.11567596
_cell_formula_units_Z   1
loop_
 _symmetry_equiv_pos_site_id
 _symmetry_equiv_pos_as_xyz
  1  'x, y, z'
loop_
 _atom_site_type_symbol
 _atom_site_label
 _atom_site_symmetry_multiplicity
 _atom_site_fract_x
 _atom_site_fract_y
 _atom_site_fract_z
 _atom_site_occupancy
  Mn  Mn0  1  0.173604  0.840814  0.250000  1
  Mn  Mn1  1  0.667211  0.840814  0.250000  1
  Mn  Mn2  1  0.342426  0.173661  0.750000  1
  Mn  Mn3  1  0.831235  0.173661  0.750000  1
  Mn  Mn4  1  0.827616  0.655229  0.750000  1
  Si  Si5  1  0.993657  0.987313  0.996624  1
  Si  Si6  1  0.176690  0.353380  0.250000  1
  Si  Si7  1  0.993657  0.987313  0.503377  1
  Mo  Mo8  1  0.665505  0.331009  0.060683  1
  Mo  Mo9  1  0.665505  0.331009  0.439318  1
  Mo  Mo10  1  0.331448  0.662896  0.566361  1
  Mo  Mo11  1  0.331448  0.662896  0.933639  1
