# generated using pymatgen
data_La6NpO11F
_symmetry_space_group_name_H-M   'P 1'
_cell_length_a   6.95241429
_cell_length_b   6.93022118
_cell_length_c   6.92184421
_cell_angle_alpha   98.98297809
_cell_angle_beta   98.86005402
_cell_angle_gamma   98.96848009
_symmetry_Int_Tables_number   1
_chemical_formula_structural   La6NpO11F
_chemical_formula_sum   'La6 Np1 O11 F1'
_cell_volume   319.90529009
_cell_formula_units_Z   1
loop_
 _symmetry_equiv_pos_site_id
 _symmetry_equiv_pos_as_xyz
  1  'x, y, z'
loop_
 _atom_site_type_symbol
 _atom_site_label
 _atom_site_symmetry_multiplicity
 _atom_site_fract_x
 _atom_site_fract_y
 _atom_site_fract_z
 _atom_site_occupancy
  La  La0  1  0.305347  0.605340  0.146110  1
  La  La1  1  0.612227  0.133974  0.283470  1
  La  La2  1  0.395113  0.846493  0.701526  1
  La  La3  1  0.705393  0.403249  0.869199  1
  La  La4  1  0.855064  0.693465  0.396205  1
  La  La5  1  0.127754  0.311176  0.608191  1
  Np  Np6  1  0.003354  0.001410  0.998687  1
  O  O7  1  0.929428  0.697309  0.050657  1
  O  O8  1  0.174368  0.591869  0.442842  1
  O  O9  1  0.817014  0.401792  0.562004  1
  O  O10  1  0.564112  0.829423  0.415230  1
  O  O11  1  0.591215  0.438006  0.179729  1
  O  O12  1  0.409289  0.556050  0.819225  1
  O  O13  1  0.959352  0.071372  0.295880  1
  O  O14  1  0.050522  0.935348  0.702756  1
  O  O15  1  0.695180  0.055343  0.933191  1
  O  O16  1  0.067124  0.306611  0.949724  1
  O  O17  1  0.307068  0.945266  0.064929  1
  F  F18  1  0.431075  0.176503  0.580445  1
