# generated using pymatgen
data_NaMn(SeO4)2
_symmetry_space_group_name_H-M   'P 1'
_cell_length_a   4.95937643
_cell_length_b   4.95907681
_cell_length_c   7.46917545
_cell_angle_alpha   87.40289670
_cell_angle_beta   87.39392782
_cell_angle_gamma   68.81217347
_symmetry_Int_Tables_number   1
_chemical_formula_structural   NaMn(SeO4)2
_chemical_formula_sum   'Na1 Mn1 Se2 O8'
_cell_volume   171.01920385
_cell_formula_units_Z   1
loop_
 _symmetry_equiv_pos_site_id
 _symmetry_equiv_pos_as_xyz
  1  'x, y, z'
loop_
 _atom_site_type_symbol
 _atom_site_label
 _atom_site_symmetry_multiplicity
 _atom_site_fract_x
 _atom_site_fract_y
 _atom_site_fract_z
 _atom_site_occupancy
  Na  Na0  1  0.000185  0.000140  0.499909  1
  Mn  Mn1  1  0.999566  0.000643  0.000211  1
  Se  Se2  1  0.362955  0.363001  0.776247  1
  Se  Se3  1  0.636964  0.637030  0.223659  1
  O  O4  1  0.278001  0.277810  0.583457  1
  O  O5  1  0.722312  0.722102  0.416355  1
  O  O6  1  0.725896  0.236561  0.792202  1
  O  O7  1  0.274057  0.763157  0.207903  1
  O  O8  1  0.763388  0.273932  0.207917  1
  O  O9  1  0.236711  0.725865  0.792263  1
  O  O10  1  0.233779  0.233678  0.963934  1
  O  O11  1  0.766187  0.766080  0.035944  1
