# generated using pymatgen
data_FeSb2F12
_symmetry_space_group_name_H-M   'P 1'
_cell_length_a   5.31285117
_cell_length_b   5.61084852
_cell_length_c   9.19831546
_cell_angle_alpha   74.04000951
_cell_angle_beta   89.03138223
_cell_angle_gamma   62.22353927
_symmetry_Int_Tables_number   1
_chemical_formula_structural   FeSb2F12
_chemical_formula_sum   'Fe1 Sb2 F12'
_cell_volume   231.24880751
_cell_formula_units_Z   1
loop_
 _symmetry_equiv_pos_site_id
 _symmetry_equiv_pos_as_xyz
  1  'x, y, z'
loop_
 _atom_site_type_symbol
 _atom_site_label
 _atom_site_symmetry_multiplicity
 _atom_site_fract_x
 _atom_site_fract_y
 _atom_site_fract_z
 _atom_site_occupancy
  Fe  Fe0  1  0.500000  0.500000  0.500000  1
  Sb  Sb1  1  0.775188  0.003724  0.241654  1
  Sb  Sb2  1  0.224812  0.996276  0.758346  1
  F  F3  1  0.950645  0.235650  0.207685  1
  F  F4  1  0.049355  0.764350  0.792315  1
  F  F5  1  0.023272  0.753324  0.139649  1
  F  F6  1  0.458429  0.778107  0.624507  1
  F  F7  1  0.541571  0.221893  0.375493  1
  F  F8  1  0.941364  0.242623  0.571542  1
  F  F9  1  0.058636  0.757377  0.428458  1
  F  F10  1  0.401758  0.237486  0.681465  1
  F  F11  1  0.598242  0.762514  0.318535  1
  F  F12  1  0.520382  0.773890  0.922516  1
  F  F13  1  0.479618  0.226110  0.077484  1
  F  F14  1  0.976728  0.246676  0.860351  1
