# generated using pymatgen
data_Y4Al17CuPt6
_symmetry_space_group_name_H-M   'P 1'
_cell_length_a   7.58402806
_cell_length_b   7.58402804
_cell_length_c   9.44159300
_cell_angle_alpha   90.00000000
_cell_angle_beta   90.00000000
_cell_angle_gamma   119.20565508
_symmetry_Int_Tables_number   1
_chemical_formula_structural   Y4Al17CuPt6
_chemical_formula_sum   'Y4 Al17 Cu1 Pt6'
_cell_volume   474.01998788
_cell_formula_units_Z   1
loop_
 _symmetry_equiv_pos_site_id
 _symmetry_equiv_pos_as_xyz
  1  'x, y, z'
loop_
 _atom_site_type_symbol
 _atom_site_label
 _atom_site_symmetry_multiplicity
 _atom_site_fract_x
 _atom_site_fract_y
 _atom_site_fract_z
 _atom_site_occupancy
  Y  Y0  1  0.991789  0.671464  0.250000  1
  Y  Y1  1  0.006445  0.328387  0.750000  1
  Y  Y2  1  0.671464  0.991789  0.250000  1
  Y  Y3  1  0.328387  0.006445  0.750000  1
  Al  Al4  1  0.866182  0.866182  0.750000  1
  Al  Al5  1  0.003221  0.327703  0.083880  1
  Al  Al6  1  0.000041  0.663620  0.923118  1
  Al  Al7  1  0.000041  0.663620  0.576882  1
  Al  Al8  1  0.327703  0.003221  0.416120  1
  Al  Al9  1  0.003221  0.327703  0.416120  1
  Al  Al10  1  0.663620  0.000041  0.576882  1
  Al  Al11  1  0.663620  0.000041  0.923118  1
  Al  Al12  1  0.327703  0.003221  0.083880  1
  Al  Al13  1  0.332237  0.332237  0.551189  1
  Al  Al14  1  0.667430  0.667430  0.441848  1
  Al  Al15  1  0.667430  0.667430  0.058152  1
  Al  Al16  1  0.332237  0.332237  0.948811  1
  Al  Al17  1  0.338026  0.543050  0.250000  1
  Al  Al18  1  0.659313  0.451082  0.750000  1
  Al  Al19  1  0.543050  0.338026  0.250000  1
  Al  Al20  1  0.451082  0.659313  0.750000  1
  Cu  Cu21  1  0.156535  0.156535  0.250000  1
  Pt  Pt22  1  0.674521  0.328316  0.000481  1
  Pt  Pt23  1  0.328316  0.674521  0.000481  1
  Pt  Pt24  1  0.328316  0.674521  0.499519  1
  Pt  Pt25  1  0.674521  0.328316  0.499519  1
  Pt  Pt26  1  0.996775  0.996775  0.993588  1
  Pt  Pt27  1  0.996775  0.996775  0.506412  1
