# generated using pymatgen
data_LiTb8CdCo2
_symmetry_space_group_name_H-M   'P 1'
_cell_length_a   9.53360754
_cell_length_b   9.53360842
_cell_length_c   9.55232500
_cell_angle_alpha   59.93503243
_cell_angle_beta   59.93502936
_cell_angle_gamma   59.88117647
_symmetry_Int_Tables_number   1
_chemical_formula_structural   LiTb8CdCo2
_chemical_formula_sum   'Li2 Tb16 Cd2 Co4'
_cell_volume   612.76047014
_cell_formula_units_Z   2
loop_
 _symmetry_equiv_pos_site_id
 _symmetry_equiv_pos_as_xyz
  1  'x, y, z'
loop_
 _atom_site_type_symbol
 _atom_site_label
 _atom_site_symmetry_multiplicity
 _atom_site_fract_x
 _atom_site_fract_y
 _atom_site_fract_z
 _atom_site_occupancy
  Li  Li0  1  0.822463  0.822463  0.529103  1
  Li  Li1  1  0.822463  0.822463  0.825969  1
  Tb  Tb2  1  0.439243  0.439243  0.060757  1
  Tb  Tb3  1  0.594445  0.594445  0.597282  1
  Tb  Tb4  1  0.187589  0.813433  0.812533  1
  Tb  Tb5  1  0.066333  0.066333  0.433667  1
  Tb  Tb6  1  0.435878  0.064224  0.063082  1
  Tb  Tb7  1  0.813433  0.187589  0.812533  1
  Tb  Tb8  1  0.435878  0.064224  0.436816  1
  Tb  Tb9  1  0.593642  0.218209  0.594075  1
  Tb  Tb10  1  0.810734  0.810734  0.189266  1
  Tb  Tb11  1  0.218209  0.593642  0.594075  1
  Tb  Tb12  1  0.813433  0.187589  0.186445  1
  Tb  Tb13  1  0.064224  0.435878  0.436816  1
  Tb  Tb14  1  0.187589  0.813433  0.186445  1
  Tb  Tb15  1  0.594445  0.594445  0.213828  1
  Tb  Tb16  1  0.186596  0.186596  0.813404  1
  Tb  Tb17  1  0.064224  0.435878  0.063082  1
  Cd  Cd18  1  0.508813  0.833245  0.828970  1
  Cd  Cd19  1  0.833245  0.508813  0.828970  1
  Co  Co20  1  0.392368  0.392368  0.388852  1
  Co  Co21  1  0.828557  0.393829  0.388807  1
  Co  Co22  1  0.393829  0.828557  0.388807  1
  Co  Co23  1  0.392368  0.392368  0.826414  1
