# generated using pymatgen
data_Er7NbGaPd24
_symmetry_space_group_name_H-M   'P 1'
_cell_length_a   8.27832555
_cell_length_b   8.27832549
_cell_length_c   8.27832600
_cell_angle_alpha   89.66612039
_cell_angle_beta   90.33387960
_cell_angle_gamma   90.33388163
_symmetry_Int_Tables_number   1
_chemical_formula_structural   Er7NbGaPd24
_chemical_formula_sum   'Er7 Nb1 Ga1 Pd24'
_cell_volume   567.29047023
_cell_formula_units_Z   1
loop_
 _symmetry_equiv_pos_site_id
 _symmetry_equiv_pos_as_xyz
  1  'x, y, z'
loop_
 _atom_site_type_symbol
 _atom_site_label
 _atom_site_symmetry_multiplicity
 _atom_site_fract_x
 _atom_site_fract_y
 _atom_site_fract_z
 _atom_site_occupancy
  Er  Er0  1  0.250592  0.252663  0.252663  1
  Er  Er1  1  0.748009  0.748193  0.748193  1
  Er  Er2  1  0.747337  0.749408  0.252663  1
  Er  Er3  1  0.747337  0.252663  0.749408  1
  Er  Er4  1  0.251807  0.251991  0.748193  1
  Er  Er5  1  0.251807  0.748193  0.251991  1
  Er  Er6  1  0.253687  0.746313  0.746313  1
  Nb  Nb7  1  0.742040  0.257960  0.257960  1
  Ga  Ga8  1  0.005126  0.994874  0.994874  1
  Pd  Pd9  1  0.258637  0.497095  0.000856  1
  Pd  Pd10  1  0.740922  0.494783  0.009012  1
  Pd  Pd11  1  0.990988  0.259078  0.494783  1
  Pd  Pd12  1  0.505217  0.259078  0.009012  1
  Pd  Pd13  1  0.999144  0.741363  0.497095  1
  Pd  Pd14  1  0.502905  0.741363  0.000856  1
  Pd  Pd15  1  0.505217  0.009012  0.259078  1
  Pd  Pd16  1  0.258637  0.000856  0.497095  1
  Pd  Pd17  1  0.502905  0.000856  0.741363  1
  Pd  Pd18  1  0.740922  0.009012  0.494783  1
  Pd  Pd19  1  0.990988  0.494783  0.259078  1
  Pd  Pd20  1  0.999144  0.497095  0.741363  1
  Pd  Pd21  1  0.251777  0.498387  0.498387  1
  Pd  Pd22  1  0.746770  0.494738  0.494738  1
  Pd  Pd23  1  0.505262  0.253230  0.494738  1
  Pd  Pd24  1  0.501613  0.748223  0.498387  1
  Pd  Pd25  1  0.505262  0.494738  0.253230  1
  Pd  Pd26  1  0.501613  0.498387  0.748223  1
  Pd  Pd27  1  0.293560  0.999856  0.999856  1
  Pd  Pd28  1  0.715977  0.007747  0.007747  1
  Pd  Pd29  1  0.992253  0.284023  0.007747  1
  Pd  Pd30  1  0.000144  0.706440  0.999856  1
  Pd  Pd31  1  0.992253  0.007747  0.284023  1
  Pd  Pd32  1  0.000144  0.999856  0.706440  1
