# generated using pymatgen
data_Tb2Pr4CoCl10
_symmetry_space_group_name_H-M   'P 1'
_cell_length_a   7.33158394
_cell_length_b   9.10374927
_cell_length_c   9.16680372
_cell_angle_alpha   108.92777753
_cell_angle_beta   107.21941453
_cell_angle_gamma   95.91183191
_symmetry_Int_Tables_number   1
_chemical_formula_structural   Tb2Pr4CoCl10
_chemical_formula_sum   'Tb2 Pr4 Co1 Cl10'
_cell_volume   539.23530976
_cell_formula_units_Z   1
loop_
 _symmetry_equiv_pos_site_id
 _symmetry_equiv_pos_as_xyz
  1  'x, y, z'
loop_
 _atom_site_type_symbol
 _atom_site_label
 _atom_site_symmetry_multiplicity
 _atom_site_fract_x
 _atom_site_fract_y
 _atom_site_fract_z
 _atom_site_occupancy
  Tb  Tb0  1  0.363662  0.183788  0.136743  1
  Tb  Tb1  1  0.029232  0.901725  0.698985  1
  Pr  Pr2  1  0.135219  0.759777  0.055157  1
  Pr  Pr3  1  0.626804  0.805596  0.849489  1
  Pr  Pr4  1  0.867371  0.240963  0.950007  1
  Pr  Pr5  1  0.977917  0.106923  0.314051  1
  Co  Co6  1  0.999281  0.998851  0.001141  1
  Cl  Cl7  1  0.440523  0.077315  0.829968  1
  Cl  Cl8  1  0.756887  0.548717  0.923131  1
  Cl  Cl9  1  0.251191  0.443356  0.081904  1
  Cl  Cl10  1  0.918499  0.160313  0.637101  1
  Cl  Cl11  1  0.661318  0.733013  0.540767  1
  Cl  Cl12  1  0.547636  0.928866  0.169693  1
  Cl  Cl13  1  0.089494  0.836719  0.378259  1
  Cl  Cl14  1  0.773464  0.341909  0.248586  1
  Cl  Cl15  1  0.193542  0.655151  0.739621  1
  Cl  Cl16  1  0.367958  0.277018  0.445397  1
