# generated using pymatgen
data_EuY3CoSi12Ni19
_symmetry_space_group_name_H-M   'P 1'
_cell_length_a   3.78827700
_cell_length_b   6.65202613
_cell_length_c   18.75310515
_cell_angle_alpha   89.96105163
_cell_angle_beta   90.00000000
_cell_angle_gamma   90.00000000
_symmetry_Int_Tables_number   1
_chemical_formula_structural   EuY3CoSi12Ni19
_chemical_formula_sum   'Eu1 Y3 Co1 Si12 Ni19'
_cell_volume   472.57284493
_cell_formula_units_Z   1
loop_
 _symmetry_equiv_pos_site_id
 _symmetry_equiv_pos_as_xyz
  1  'x, y, z'
loop_
 _atom_site_type_symbol
 _atom_site_label
 _atom_site_symmetry_multiplicity
 _atom_site_fract_x
 _atom_site_fract_y
 _atom_site_fract_z
 _atom_site_occupancy
  Eu  Eu0  1  0.250000  0.623121  0.643030  1
  Y  Y1  1  0.750000  0.377097  0.355838  1
  Y  Y2  1  0.750000  0.121492  0.858353  1
  Y  Y3  1  0.250000  0.878705  0.142647  1
  Co  Co4  1  0.250000  0.134794  0.995062  1
  Si  Si5  1  0.250000  0.847764  0.927857  1
  Si  Si6  1  0.750000  0.154131  0.071766  1
  Si  Si7  1  0.750000  0.340689  0.573269  1
  Si  Si8  1  0.250000  0.655896  0.425599  1
  Si  Si9  1  0.750000  0.619797  0.764481  1
  Si  Si10  1  0.250000  0.382217  0.236652  1
  Si  Si11  1  0.250000  0.414321  0.915956  1
  Si  Si12  1  0.750000  0.579320  0.086622  1
  Si  Si13  1  0.750000  0.923205  0.585507  1
  Si  Si14  1  0.250000  0.078724  0.412029  1
  Si  Si15  1  0.250000  0.120015  0.738505  1
  Si  Si16  1  0.750000  0.882331  0.261894  1
  Ni  Ni17  1  0.750000  0.388014  0.985208  1
  Ni  Ni18  1  0.750000  0.114241  0.483137  1
  Ni  Ni19  1  0.250000  0.613843  0.015599  1
  Ni  Ni20  1  0.250000  0.355917  0.114845  1
  Ni  Ni21  1  0.750000  0.644630  0.886182  1
  Ni  Ni22  1  0.750000  0.855164  0.383934  1
  Ni  Ni23  1  0.250000  0.141346  0.615779  1
  Ni  Ni24  1  0.250000  0.072310  0.291374  1
  Ni  Ni25  1  0.750000  0.930916  0.708041  1
  Ni  Ni26  1  0.750000  0.572729  0.207324  1
  Ni  Ni27  1  0.250000  0.429070  0.794993  1
  Ni  Ni28  1  0.750000  0.633574  0.503842  1
  Ni  Ni29  1  0.250000  0.363655  0.493511  1
  Ni  Ni30  1  0.250000  0.813292  0.801941  1
  Ni  Ni31  1  0.750000  0.188606  0.198296  1
  Ni  Ni32  1  0.750000  0.310650  0.701065  1
  Ni  Ni33  1  0.250000  0.688209  0.300276  1
  Ni  Ni34  1  0.250000  0.887564  0.513819  1
  Ni  Ni35  1  0.750000  0.862651  0.005769  1
