# generated using pymatgen
data_Li2Sc3AgSnPb2
_symmetry_space_group_name_H-M   'P 1'
_cell_length_a   4.47918500
_cell_length_b   7.08990737
_cell_length_c   7.04693791
_cell_angle_alpha   119.91900641
_cell_angle_beta   90.00000000
_cell_angle_gamma   90.00000000
_symmetry_Int_Tables_number   1
_chemical_formula_structural   Li2Sc3AgSnPb2
_chemical_formula_sum   'Li2 Sc3 Ag1 Sn1 Pb2'
_cell_volume   193.96550760
_cell_formula_units_Z   1
loop_
 _symmetry_equiv_pos_site_id
 _symmetry_equiv_pos_as_xyz
  1  'x, y, z'
loop_
 _atom_site_type_symbol
 _atom_site_label
 _atom_site_symmetry_multiplicity
 _atom_site_fract_x
 _atom_site_fract_y
 _atom_site_fract_z
 _atom_site_occupancy
  Li  Li0  1  0.500000  0.768337  0.767276  1
  Li  Li1  1  0.500000  0.005560  0.234925  1
  Sc  Sc2  1  0.000000  0.439724  0.439894  1
  Sc  Sc3  1  0.000000  0.007110  0.563228  1
  Sc  Sc4  1  0.000000  0.545414  0.996841  1
  Ag  Ag5  1  0.500000  0.235604  0.995583  1
  Sn  Sn6  1  0.500000  0.335733  0.658624  1
  Pb  Pb7  1  0.500000  0.679729  0.343083  1
  Pb  Pb8  1  0.000000  0.982790  0.000546  1
