# generated using pymatgen
data_Dy2Tm3Ta3(Co4P3)4
_symmetry_space_group_name_H-M   'P 1'
_cell_length_a   12.15070600
_cell_length_b   12.15070581
_cell_length_c   3.68659200
_cell_angle_alpha   90.00000000
_cell_angle_beta   90.00000000
_cell_angle_gamma   119.99998964
_symmetry_Int_Tables_number   1
_chemical_formula_structural   Dy2Tm3Ta3(Co4P3)4
_chemical_formula_sum   'Dy2 Tm3 Ta3 Co16 P12'
_cell_volume   471.36656285
_cell_formula_units_Z   1
loop_
 _symmetry_equiv_pos_site_id
 _symmetry_equiv_pos_as_xyz
  1  'x, y, z'
loop_
 _atom_site_type_symbol
 _atom_site_label
 _atom_site_symmetry_multiplicity
 _atom_site_fract_x
 _atom_site_fract_y
 _atom_site_fract_z
 _atom_site_occupancy
  Dy  Dy0  1  0.666667  0.333333  0.000000  1
  Dy  Dy1  1  0.333333  0.666667  0.000000  1
  Tm  Tm2  1  0.183370  0.183370  0.500000  1
  Tm  Tm3  1  0.816630  0.000000  0.500000  1
  Tm  Tm4  1  0.000000  0.816630  0.500000  1
  Ta  Ta5  1  0.556178  0.556178  0.000000  1
  Ta  Ta6  1  0.443822  0.000000  0.000000  1
  Ta  Ta7  1  0.000000  0.443822  0.000000  1
  Co  Co8  1  0.823497  0.196706  0.000000  1
  Co  Co9  1  0.803294  0.626790  0.000000  1
  Co  Co10  1  0.373210  0.176503  0.000000  1
  Co  Co11  1  0.196706  0.823497  0.000000  1
  Co  Co12  1  0.626790  0.803294  0.000000  1
  Co  Co13  1  0.176503  0.373210  0.000000  1
  Co  Co14  1  0.645255  0.126070  0.500000  1
  Co  Co15  1  0.873930  0.519184  0.500000  1
  Co  Co16  1  0.480816  0.354745  0.500000  1
  Co  Co17  1  0.126070  0.645255  0.500000  1
  Co  Co18  1  0.519184  0.873930  0.500000  1
  Co  Co19  1  0.354745  0.480816  0.500000  1
  Co  Co20  1  0.720820  0.720820  0.500000  1
  Co  Co21  1  0.279180  0.000000  0.500000  1
  Co  Co22  1  0.000000  0.279180  0.500000  1
  Co  Co23  1  0.000000  0.000000  0.000000  1
  P  P24  1  0.354652  0.354652  0.000000  1
  P  P25  1  0.645348  0.000000  0.000000  1
  P  P26  1  0.000000  0.645348  0.000000  1
  P  P27  1  0.832101  0.311356  0.500000  1
  P  P28  1  0.688644  0.520745  0.500000  1
  P  P29  1  0.479255  0.167899  0.500000  1
  P  P30  1  0.311356  0.832101  0.500000  1
  P  P31  1  0.520745  0.688644  0.500000  1
  P  P32  1  0.167899  0.479255  0.500000  1
  P  P33  1  0.823322  0.823322  0.000000  1
  P  P34  1  0.176678  0.000000  0.000000  1
  P  P35  1  0.000000  0.176678  0.000000  1
