# generated using pymatgen
data_Pr16Cd4Os3Au
_symmetry_space_group_name_H-M   'P 1'
_cell_length_a   10.02115338
_cell_length_b   10.10834934
_cell_length_c   10.10834800
_cell_angle_alpha   59.99999783
_cell_angle_beta   59.71174493
_cell_angle_gamma   59.71174797
_symmetry_Int_Tables_number   1
_chemical_formula_structural   Pr16Cd4Os3Au
_chemical_formula_sum   'Pr16 Cd4 Os3 Au1'
_cell_volume   720.87029096
_cell_formula_units_Z   1
loop_
 _symmetry_equiv_pos_site_id
 _symmetry_equiv_pos_as_xyz
  1  'x, y, z'
loop_
 _atom_site_type_symbol
 _atom_site_label
 _atom_site_symmetry_multiplicity
 _atom_site_fract_x
 _atom_site_fract_y
 _atom_site_fract_z
 _atom_site_occupancy
  Pr  Pr0  1  0.341601  0.353885  0.353885  1
  Pr  Pr1  1  0.341601  0.353885  0.950630  1
  Pr  Pr2  1  0.341601  0.950630  0.353885  1
  Pr  Pr3  1  0.969189  0.343603  0.343603  1
  Pr  Pr4  1  0.819256  0.191659  0.191659  1
  Pr  Pr5  1  0.189377  0.810906  0.810906  1
  Pr  Pr6  1  0.189377  0.810906  0.188811  1
  Pr  Pr7  1  0.819256  0.191659  0.797427  1
  Pr  Pr8  1  0.189377  0.188811  0.810906  1
  Pr  Pr9  1  0.819256  0.797427  0.191659  1
  Pr  Pr10  1  0.934774  0.562970  0.562970  1
  Pr  Pr11  1  0.552583  0.940437  0.940437  1
  Pr  Pr12  1  0.552583  0.940437  0.566543  1
  Pr  Pr13  1  0.934774  0.562970  0.939285  1
  Pr  Pr14  1  0.552583  0.566543  0.940437  1
  Pr  Pr15  1  0.934774  0.939285  0.562970  1
  Cd  Cd16  1  0.580882  0.578800  0.578800  1
  Cd  Cd17  1  0.580882  0.578800  0.261516  1
  Cd  Cd18  1  0.580882  0.261516  0.578800  1
  Cd  Cd19  1  0.260837  0.579721  0.579721  1
  Os  Os20  1  0.146437  0.137351  0.137351  1
  Os  Os21  1  0.146437  0.137351  0.578861  1
  Os  Os22  1  0.146437  0.578861  0.137351  1
  Au  Au23  1  0.575244  0.141585  0.141585  1
