# generated using pymatgen
data_Pr16NdY3Si16
_symmetry_space_group_name_H-M   'P 1'
_cell_length_a   7.85623814
_cell_length_b   7.85623814
_cell_length_c   15.37689556
_cell_angle_alpha   89.97812072
_cell_angle_beta   90.02187928
_cell_angle_gamma   89.99744953
_symmetry_Int_Tables_number   1
_chemical_formula_structural   Pr16NdY3Si16
_chemical_formula_sum   'Pr16 Nd1 Y3 Si16'
_cell_volume   949.06920164
_cell_formula_units_Z   1
loop_
 _symmetry_equiv_pos_site_id
 _symmetry_equiv_pos_as_xyz
  1  'x, y, z'
loop_
 _atom_site_type_symbol
 _atom_site_label
 _atom_site_symmetry_multiplicity
 _atom_site_fract_x
 _atom_site_fract_y
 _atom_site_fract_z
 _atom_site_occupancy
  Pr  Pr0  1  0.378688  0.013227  0.444997  1
  Pr  Pr1  1  0.486677  0.878845  0.695029  1
  Pr  Pr2  1  0.513786  0.121129  0.195494  1
  Pr  Pr3  1  0.878845  0.486677  0.304971  1
  Pr  Pr4  1  0.121129  0.513786  0.804506  1
  Pr  Pr5  1  0.620965  0.987092  0.944977  1
  Pr  Pr6  1  0.013227  0.378688  0.555003  1
  Pr  Pr7  1  0.987092  0.620965  0.055023  1
  Pr  Pr8  1  0.124920  0.976242  0.878432  1
  Pr  Pr9  1  0.524551  0.624441  0.128798  1
  Pr  Pr10  1  0.476160  0.374755  0.628329  1
  Pr  Pr11  1  0.624441  0.524551  0.871202  1
  Pr  Pr12  1  0.374755  0.476160  0.371671  1
  Pr  Pr13  1  0.874947  0.024182  0.378579  1
  Pr  Pr14  1  0.976242  0.124920  0.121568  1
  Pr  Pr15  1  0.024182  0.874947  0.621421  1
  Nd  Nd16  1  0.307238  0.307238  0.000000  1
  Y  Y17  1  0.190283  0.809012  0.250100  1
  Y  Y18  1  0.809012  0.190283  0.749900  1
  Y  Y19  1  0.690368  0.690368  0.500000  1
  Si  Si20  1  0.187895  0.171791  0.708290  1
  Si  Si21  1  0.328923  0.690901  0.958423  1
  Si  Si22  1  0.672162  0.312025  0.458914  1
  Si  Si23  1  0.690901  0.328923  0.041577  1
  Si  Si24  1  0.312025  0.672162  0.541086  1
  Si  Si25  1  0.812136  0.828320  0.208709  1
  Si  Si26  1  0.171791  0.187895  0.291710  1
  Si  Si27  1  0.828320  0.812136  0.791291  1
  Si  Si28  1  0.286314  0.918530  0.064145  1
  Si  Si29  1  0.579257  0.786875  0.313546  1
  Si  Si30  1  0.422645  0.212212  0.811029  1
  Si  Si31  1  0.786875  0.579257  0.686454  1
  Si  Si32  1  0.212212  0.422645  0.188971  1
  Si  Si33  1  0.713401  0.079105  0.563373  1
  Si  Si34  1  0.918530  0.286314  0.935855  1
  Si  Si35  1  0.079105  0.713401  0.436627  1
