# generated using pymatgen
data_Dy16In3Ag(IrRh)2
_symmetry_space_group_name_H-M   'P 1'
_cell_length_a   9.65631025
_cell_length_b   9.63621308
_cell_length_c   9.62169129
_cell_angle_alpha   59.78604834
_cell_angle_beta   59.85761915
_cell_angle_gamma   59.80942575
_symmetry_Int_Tables_number   1
_chemical_formula_structural   Dy16In3Ag(IrRh)2
_chemical_formula_sum   'Dy16 In3 Ag1 Ir2 Rh2'
_cell_volume   630.45319414
_cell_formula_units_Z   1
loop_
 _symmetry_equiv_pos_site_id
 _symmetry_equiv_pos_as_xyz
  1  'x, y, z'
loop_
 _atom_site_type_symbol
 _atom_site_label
 _atom_site_symmetry_multiplicity
 _atom_site_fract_x
 _atom_site_fract_y
 _atom_site_fract_z
 _atom_site_occupancy
  Dy  Dy0  1  0.689996  0.310874  0.309935  1
  Dy  Dy1  1  0.689517  0.688863  0.312891  1
  Dy  Dy2  1  0.310626  0.689733  0.310489  1
  Dy  Dy3  1  0.936246  0.938437  0.557447  1
  Dy  Dy4  1  0.149067  0.149255  0.550616  1
  Dy  Dy5  1  0.565507  0.940233  0.556172  1
  Dy  Dy6  1  0.151846  0.152082  0.150364  1
  Dy  Dy7  1  0.309162  0.309644  0.690806  1
  Dy  Dy8  1  0.940637  0.564147  0.555319  1
  Dy  Dy9  1  0.562675  0.562648  0.937601  1
  Dy  Dy10  1  0.564012  0.936341  0.934226  1
  Dy  Dy11  1  0.936618  0.563228  0.935928  1
  Dy  Dy12  1  0.149338  0.549611  0.148380  1
  Dy  Dy13  1  0.310314  0.690933  0.691712  1
  Dy  Dy14  1  0.691424  0.310494  0.691400  1
  Dy  Dy15  1  0.549802  0.149537  0.148383  1
  In  In16  1  0.244932  0.917279  0.922925  1
  In  In17  1  0.916814  0.244906  0.923049  1
  In  In18  1  0.917149  0.917174  0.920780  1
  Ag  Ag19  1  0.915790  0.915867  0.251742  1
  Ir  Ir20  1  0.357060  0.357392  0.358627  1
  Ir  Ir21  1  0.925692  0.357690  0.358129  1
  Rh  Rh22  1  0.357950  0.357993  0.925057  1
  Rh  Rh23  1  0.357825  0.925639  0.358027  1
