# generated using pymatgen
data_TbY3GaS3
_symmetry_space_group_name_H-M   'P 1'
_cell_length_a   6.92192265
_cell_length_b   6.92192247
_cell_length_c   6.92192149
_cell_angle_alpha   131.85752765
_cell_angle_beta   131.85753241
_cell_angle_gamma   70.45413911
_symmetry_Int_Tables_number   1
_chemical_formula_structural   TbY3GaS3
_chemical_formula_sum   'Tb1 Y3 Ga1 S3'
_cell_volume   180.27788126
_cell_formula_units_Z   1
loop_
 _symmetry_equiv_pos_site_id
 _symmetry_equiv_pos_as_xyz
  1  'x, y, z'
loop_
 _atom_site_type_symbol
 _atom_site_label
 _atom_site_symmetry_multiplicity
 _atom_site_fract_x
 _atom_site_fract_y
 _atom_site_fract_z
 _atom_site_occupancy
  Tb  Tb0  1  0.747735  0.747735  0.000000  1
  Y  Y1  1  0.252274  0.252274  0.000000  1
  Y  Y2  1  0.000018  0.500018  0.500000  1
  Y  Y3  1  0.500018  0.000018  0.500000  1
  Ga  Ga4  1  0.000026  0.000026  0.000000  1
  S  S5  1  0.499933  0.499933  0.000000  1
  S  S6  1  0.249999  0.749999  0.500000  1
  S  S7  1  0.749999  0.249999  0.500000  1
