# generated using pymatgen
data_Ho3Sc3Co2(Sn3Pt2)2
_symmetry_space_group_name_H-M   'P 1'
_cell_length_a   7.52919200
_cell_length_b   7.52919290
_cell_length_c   7.28933500
_cell_angle_alpha   90.00000000
_cell_angle_beta   90.00000000
_cell_angle_gamma   120.00000485
_symmetry_Int_Tables_number   1
_chemical_formula_structural   Ho3Sc3Co2(Sn3Pt2)2
_chemical_formula_sum   'Ho3 Sc3 Co2 Sn6 Pt4'
_cell_volume   357.86177873
_cell_formula_units_Z   1
loop_
 _symmetry_equiv_pos_site_id
 _symmetry_equiv_pos_as_xyz
  1  'x, y, z'
loop_
 _atom_site_type_symbol
 _atom_site_label
 _atom_site_symmetry_multiplicity
 _atom_site_fract_x
 _atom_site_fract_y
 _atom_site_fract_z
 _atom_site_occupancy
  Ho  Ho0  1  0.402790  0.999900  0.750000  1
  Ho  Ho1  1  0.597110  0.597210  0.750000  1
  Ho  Ho2  1  0.000100  0.402890  0.750000  1
  Sc  Sc3  1  0.392559  0.000149  0.250000  1
  Sc  Sc4  1  0.607590  0.607441  0.250000  1
  Sc  Sc5  1  0.999851  0.392410  0.250000  1
  Co  Co6  1  0.000000  0.000000  0.750000  1
  Co  Co7  1  0.000000  0.000000  0.250000  1
  Sn  Sn8  1  0.255345  0.255388  0.008734  1
  Sn  Sn9  1  0.000043  0.744655  0.008734  1
  Sn  Sn10  1  0.000043  0.744655  0.491266  1
  Sn  Sn11  1  0.744612  0.999957  0.491266  1
  Sn  Sn12  1  0.255345  0.255388  0.491266  1
  Sn  Sn13  1  0.744612  0.999957  0.008734  1
  Pt  Pt14  1  0.666667  0.333333  0.021497  1
  Pt  Pt15  1  0.333333  0.666667  0.477145  1
  Pt  Pt16  1  0.333333  0.666667  0.022855  1
  Pt  Pt17  1  0.666667  0.333333  0.478503  1
