# generated using pymatgen
data_YbHo4InPd4
_symmetry_space_group_name_H-M   'P 1'
_cell_length_a   7.92131300
_cell_length_b   7.92131300
_cell_length_c   3.65256200
_cell_angle_alpha   90.00000000
_cell_angle_beta   90.00000000
_cell_angle_gamma   90.00000000
_symmetry_Int_Tables_number   1
_chemical_formula_structural   YbHo4InPd4
_chemical_formula_sum   'Yb1 Ho4 In1 Pd4'
_cell_volume   229.18803703
_cell_formula_units_Z   1
loop_
 _symmetry_equiv_pos_site_id
 _symmetry_equiv_pos_as_xyz
  1  'x, y, z'
loop_
 _atom_site_type_symbol
 _atom_site_label
 _atom_site_symmetry_multiplicity
 _atom_site_fract_x
 _atom_site_fract_y
 _atom_site_fract_z
 _atom_site_occupancy
  Yb  Yb0  1  0.000000  0.000000  0.000000  1
  Ho  Ho1  1  0.360592  0.816431  0.500000  1
  Ho  Ho2  1  0.816431  0.639408  0.500000  1
  Ho  Ho3  1  0.183569  0.360592  0.500000  1
  Ho  Ho4  1  0.639408  0.183569  0.500000  1
  In  In5  1  0.500000  0.500000  0.000000  1
  Pd  Pd6  1  0.355872  0.121869  0.000000  1
  Pd  Pd7  1  0.878131  0.355872  0.000000  1
  Pd  Pd8  1  0.121869  0.644128  0.000000  1
  Pd  Pd9  1  0.644128  0.878131  0.000000  1
