# generated using pymatgen
data_Na3Sc2Si12Ir19
_symmetry_space_group_name_H-M   'P 1'
_cell_length_a   12.73212600
_cell_length_b   12.76491774
_cell_length_c   3.96312300
_cell_angle_alpha   90.00000000
_cell_angle_beta   90.00000000
_cell_angle_gamma   119.91505795
_symmetry_Int_Tables_number   1
_chemical_formula_structural   Na3Sc2Si12Ir19
_chemical_formula_sum   'Na3 Sc2 Si12 Ir19'
_cell_volume   558.28790868
_cell_formula_units_Z   1
loop_
 _symmetry_equiv_pos_site_id
 _symmetry_equiv_pos_as_xyz
  1  'x, y, z'
loop_
 _atom_site_type_symbol
 _atom_site_label
 _atom_site_symmetry_multiplicity
 _atom_site_fract_x
 _atom_site_fract_y
 _atom_site_fract_z
 _atom_site_occupancy
  Na  Na0  1  0.333233  0.666439  0.000000  1
  Na  Na1  1  0.666795  0.333561  0.000000  1
  Na  Na2  1  0.815965  0.000000  0.500000  1
  Sc  Sc3  1  0.999892  0.820667  0.500000  1
  Sc  Sc4  1  0.179225  0.179333  0.500000  1
  Si  Si5  1  0.179900  0.000000  0.000000  1
  Si  Si6  1  0.000707  0.181469  0.000000  1
  Si  Si7  1  0.819238  0.818531  0.000000  1
  Si  Si8  1  0.168366  0.482498  0.500000  1
  Si  Si9  1  0.519423  0.687230  0.500000  1
  Si  Si10  1  0.313873  0.832190  0.500000  1
  Si  Si11  1  0.685867  0.517502  0.500000  1
  Si  Si12  1  0.832192  0.312770  0.500000  1
  Si  Si13  1  0.481682  0.167810  0.500000  1
  Si  Si14  1  0.630682  0.000000  0.000000  1
  Si  Si15  1  0.000214  0.631627  0.000000  1
  Si  Si16  1  0.368587  0.368373  0.000000  1
  Ir  Ir17  1  0.444438  0.000000  0.000000  1
  Ir  Ir18  1  0.002955  0.447684  0.000000  1
  Ir  Ir19  1  0.555271  0.552316  0.000000  1
  Ir  Ir20  1  0.360379  0.485903  0.500000  1
  Ir  Ir21  1  0.514800  0.874943  0.500000  1
  Ir  Ir22  1  0.126155  0.641621  0.500000  1
  Ir  Ir23  1  0.874476  0.514097  0.500000  1
  Ir  Ir24  1  0.639857  0.125057  0.500000  1
  Ir  Ir25  1  0.484534  0.358379  0.500000  1
  Ir  Ir26  1  0.184116  0.374409  0.000000  1
  Ir  Ir27  1  0.621750  0.804868  0.000000  1
  Ir  Ir28  1  0.189948  0.817350  0.000000  1
  Ir  Ir29  1  0.809707  0.625591  0.000000  1
  Ir  Ir30  1  0.816883  0.195132  0.000000  1
  Ir  Ir31  1  0.372599  0.182650  0.000000  1
  Ir  Ir32  1  0.280667  0.000000  0.500000  1
  Ir  Ir33  1  0.003084  0.282494  0.500000  1
  Ir  Ir34  1  0.720590  0.717506  0.500000  1
  Ir  Ir35  1  0.001950  0.000000  0.000000  1
