# generated using pymatgen
data_Ho2Th2Pd11Pt
_symmetry_space_group_name_H-M   'P 1'
_cell_length_a   5.89425300
_cell_length_b   5.88626356
_cell_length_c   9.64619976
_cell_angle_alpha   90.14775978
_cell_angle_beta   90.00000000
_cell_angle_gamma   120.04490375
_symmetry_Int_Tables_number   1
_chemical_formula_structural   Ho2Th2Pd11Pt
_chemical_formula_sum   'Ho2 Th2 Pd11 Pt1'
_cell_volume   289.70550329
_cell_formula_units_Z   1
loop_
 _symmetry_equiv_pos_site_id
 _symmetry_equiv_pos_as_xyz
  1  'x, y, z'
loop_
 _atom_site_type_symbol
 _atom_site_label
 _atom_site_symmetry_multiplicity
 _atom_site_fract_x
 _atom_site_fract_y
 _atom_site_fract_z
 _atom_site_occupancy
  Ho  Ho0  1  0.333723  0.667447  0.250493  1
  Ho  Ho1  1  0.666277  0.332553  0.749507  1
  Th  Th2  1  0.000000  0.000000  0.500000  1
  Th  Th3  1  0.000000  0.000000  0.000000  1
  Pd  Pd4  1  0.500000  0.500000  0.500000  1
  Pd  Pd5  1  0.000000  0.500000  0.500000  1
  Pd  Pd6  1  0.500000  0.500000  0.000000  1
  Pd  Pd7  1  0.500000  0.000000  0.000000  1
  Pd  Pd8  1  0.000000  0.500000  0.000000  1
  Pd  Pd9  1  0.826222  0.652444  0.249388  1
  Pd  Pd10  1  0.348029  0.174099  0.249727  1
  Pd  Pd11  1  0.826069  0.174099  0.249727  1
  Pd  Pd12  1  0.173778  0.347556  0.750612  1
  Pd  Pd13  1  0.651971  0.825901  0.750273  1
  Pd  Pd14  1  0.173931  0.825901  0.750273  1
  Pt  Pt15  1  0.500000  0.000000  0.500000  1
