# generated using pymatgen
data_Ta12Cr4Ga8C3N
_symmetry_space_group_name_H-M   'P 1'
_cell_length_a   8.26156907
_cell_length_b   8.24699009
_cell_length_c   8.26156900
_cell_angle_alpha   59.94150890
_cell_angle_beta   60.00000429
_cell_angle_gamma   59.94151210
_symmetry_Int_Tables_number   1
_chemical_formula_structural   Ta12Cr4Ga8C3N
_chemical_formula_sum   'Ta12 Cr4 Ga8 C3 N1'
_cell_volume   397.66837005
_cell_formula_units_Z   1
loop_
 _symmetry_equiv_pos_site_id
 _symmetry_equiv_pos_as_xyz
  1  'x, y, z'
loop_
 _atom_site_type_symbol
 _atom_site_label
 _atom_site_symmetry_multiplicity
 _atom_site_fract_x
 _atom_site_fract_y
 _atom_site_fract_z
 _atom_site_occupancy
  Ta  Ta0  1  0.553850  0.946128  0.553850  1
  Ta  Ta1  1  0.303671  0.696867  0.695792  1
  Ta  Ta2  1  0.696150  0.303872  0.303829  1
  Ta  Ta3  1  0.303671  0.696867  0.303671  1
  Ta  Ta4  1  0.695792  0.696867  0.303671  1
  Ta  Ta5  1  0.303829  0.303872  0.696150  1
  Ta  Ta6  1  0.554208  0.553133  0.946329  1
  Ta  Ta7  1  0.946329  0.553133  0.554208  1
  Ta  Ta8  1  0.553850  0.946128  0.946171  1
  Ta  Ta9  1  0.946171  0.946128  0.553850  1
  Ta  Ta10  1  0.696150  0.303872  0.696150  1
  Ta  Ta11  1  0.946329  0.553133  0.946329  1
  Cr  Cr12  1  0.125000  0.125000  0.125000  1
  Cr  Cr13  1  0.625000  0.125000  0.125000  1
  Cr  Cr14  1  0.125000  0.625000  0.125000  1
  Cr  Cr15  1  0.125000  0.125000  0.625000  1
  Ga  Ga16  1  0.913671  0.912976  0.913671  1
  Ga  Ga17  1  0.990317  0.337024  0.336329  1
  Ga  Ga18  1  0.336657  0.990028  0.336657  1
  Ga  Ga19  1  0.336329  0.337024  0.990317  1
  Ga  Ga20  1  0.913343  0.259972  0.913343  1
  Ga  Ga21  1  0.913671  0.912976  0.259683  1
  Ga  Ga22  1  0.259683  0.912976  0.913671  1
  Ga  Ga23  1  0.336329  0.337024  0.336329  1
  C  C24  1  0.625000  0.625000  0.625000  1
  C  C25  1  0.125000  0.625000  0.625000  1
  C  C26  1  0.625000  0.625000  0.125000  1
  N  N27  1  0.625000  0.125000  0.625000  1
