# generated using pymatgen
data_Y6HfCo17P12
_symmetry_space_group_name_H-M   'P 1'
_cell_length_a   3.70740100
_cell_length_b   10.58862100
_cell_length_c   12.29381300
_cell_angle_alpha   90.00000000
_cell_angle_beta   90.00000000
_cell_angle_gamma   90.00000000
_symmetry_Int_Tables_number   1
_chemical_formula_structural   Y6HfCo17P12
_chemical_formula_sum   'Y6 Hf1 Co17 P12'
_cell_volume   482.60916973
_cell_formula_units_Z   1
loop_
 _symmetry_equiv_pos_site_id
 _symmetry_equiv_pos_as_xyz
  1  'x, y, z'
loop_
 _atom_site_type_symbol
 _atom_site_label
 _atom_site_symmetry_multiplicity
 _atom_site_fract_x
 _atom_site_fract_y
 _atom_site_fract_z
 _atom_site_occupancy
  Y  Y0  1  0.000000  0.500000  0.528030  1
  Y  Y1  1  0.500000  0.000000  0.477748  1
  Y  Y2  1  0.500000  0.821198  0.207256  1
  Y  Y3  1  0.500000  0.178802  0.207256  1
  Y  Y4  1  0.000000  0.682780  0.796022  1
  Y  Y5  1  0.000000  0.317220  0.796022  1
  Hf  Hf6  1  0.500000  0.500000  0.153382  1
  Co  Co7  1  0.000000  0.000000  0.837453  1
  Co  Co8  1  0.500000  0.500000  0.703079  1
  Co  Co9  1  0.000000  0.000000  0.296398  1
  Co  Co10  1  0.000000  0.500000  0.984561  1
  Co  Co11  1  0.500000  0.000000  0.013343  1
  Co  Co12  1  0.500000  0.327599  0.989347  1
  Co  Co13  1  0.500000  0.672401  0.989347  1
  Co  Co14  1  0.000000  0.161902  0.001934  1
  Co  Co15  1  0.000000  0.838098  0.001934  1
  Co  Co16  1  0.500000  0.294769  0.434046  1
  Co  Co17  1  0.500000  0.705231  0.434046  1
  Co  Co18  1  0.000000  0.202124  0.570384  1
  Co  Co19  1  0.000000  0.797876  0.570384  1
  Co  Co20  1  0.500000  0.880383  0.707853  1
  Co  Co21  1  0.500000  0.119617  0.707853  1
  Co  Co22  1  0.000000  0.622202  0.295582  1
  Co  Co23  1  0.000000  0.377798  0.295582  1
  P  P24  1  0.500000  0.500000  0.881852  1
  P  P25  1  0.000000  0.000000  0.116310  1
  P  P26  1  0.500000  0.500000  0.360060  1
  P  P27  1  0.000000  0.000000  0.655401  1
  P  P28  1  0.500000  0.309155  0.617669  1
  P  P29  1  0.500000  0.690845  0.617669  1
  P  P30  1  0.000000  0.188884  0.386333  1
  P  P31  1  0.000000  0.811116  0.386333  1
  P  P32  1  0.500000  0.852240  0.888975  1
  P  P33  1  0.500000  0.147760  0.888975  1
  P  P34  1  0.000000  0.664133  0.100789  1
  P  P35  1  0.000000  0.335867  0.100789  1
