# generated using pymatgen
data_YbDy2(Ga2Co3)3
_symmetry_space_group_name_H-M   'P 1'
_cell_length_a   3.80799700
_cell_length_b   9.02262424
_cell_length_c   9.01889442
_cell_angle_alpha   120.04360913
_cell_angle_beta   90.00000000
_cell_angle_gamma   90.00000000
_symmetry_Int_Tables_number   1
_chemical_formula_structural   YbDy2(Ga2Co3)3
_chemical_formula_sum   'Yb1 Dy2 Ga6 Co9'
_cell_volume   268.23929031
_cell_formula_units_Z   1
loop_
 _symmetry_equiv_pos_site_id
 _symmetry_equiv_pos_as_xyz
  1  'x, y, z'
loop_
 _atom_site_type_symbol
 _atom_site_label
 _atom_site_symmetry_multiplicity
 _atom_site_fract_x
 _atom_site_fract_y
 _atom_site_fract_z
 _atom_site_occupancy
  Yb  Yb0  1  0.000000  0.999949  0.999915  1
  Dy  Dy1  1  0.500000  0.333284  0.666719  1
  Dy  Dy2  1  0.500000  0.666766  0.333357  1
  Ga  Ga3  1  0.500000  0.317240  0.999855  1
  Ga  Ga4  1  0.500000  0.682697  0.682785  1
  Ga  Ga5  1  0.500000  0.999959  0.317266  1
  Ga  Ga6  1  0.500000  0.682645  0.999963  1
  Ga  Ga7  1  0.500000  0.317261  0.317287  1
  Ga  Ga8  1  0.500000  0.000133  0.682785  1
  Co  Co9  1  0.000000  0.499982  0.999987  1
  Co  Co10  1  0.000000  0.500005  0.500021  1
  Co  Co11  1  0.000000  0.000002  0.500008  1
  Co  Co12  1  0.000000  0.183186  0.366469  1
  Co  Co13  1  0.000000  0.183174  0.816780  1
  Co  Co14  1  0.000000  0.633560  0.816805  1
  Co  Co15  1  0.000000  0.816812  0.633568  1
  Co  Co16  1  0.000000  0.366488  0.183204  1
  Co  Co17  1  0.000000  0.816753  0.183227  1
