# generated using pymatgen
data_Ho2Th2Pd7Pt5
_symmetry_space_group_name_H-M   'P 1'
_cell_length_a   5.87883300
_cell_length_b   5.89573699
_cell_length_c   9.66395541
_cell_angle_alpha   90.05354404
_cell_angle_beta   90.00000000
_cell_angle_gamma   119.90519492
_symmetry_Int_Tables_number   1
_chemical_formula_structural   Ho2Th2Pd7Pt5
_chemical_formula_sum   'Ho2 Th2 Pd7 Pt5'
_cell_volume   290.35453865
_cell_formula_units_Z   1
loop_
 _symmetry_equiv_pos_site_id
 _symmetry_equiv_pos_as_xyz
  1  'x, y, z'
loop_
 _atom_site_type_symbol
 _atom_site_label
 _atom_site_symmetry_multiplicity
 _atom_site_fract_x
 _atom_site_fract_y
 _atom_site_fract_z
 _atom_site_occupancy
  Ho  Ho0  1  0.333010  0.666021  0.250196  1
  Ho  Ho1  1  0.666990  0.333979  0.749804  1
  Th  Th2  1  0.000000  0.000000  0.500000  1
  Th  Th3  1  0.000000  0.000000  0.000000  1
  Pd  Pd4  1  0.500000  0.000000  0.000000  1
  Pd  Pd5  1  0.825671  0.651342  0.249470  1
  Pd  Pd6  1  0.347930  0.173971  0.249757  1
  Pd  Pd7  1  0.826041  0.173971  0.249757  1
  Pd  Pd8  1  0.174329  0.348658  0.750530  1
  Pd  Pd9  1  0.652070  0.826029  0.750243  1
  Pd  Pd10  1  0.173959  0.826029  0.750243  1
  Pt  Pt11  1  0.500000  0.500000  0.500000  1
  Pt  Pt12  1  0.500000  0.000000  0.500000  1
  Pt  Pt13  1  0.000000  0.500000  0.500000  1
  Pt  Pt14  1  0.500000  0.500000  0.000000  1
  Pt  Pt15  1  0.000000  0.500000  0.000000  1
