# generated using pymatgen
data_YTm7Cd2(SiB4)4
_symmetry_space_group_name_H-M   'P 1'
_cell_length_a   7.11831508
_cell_length_b   7.11831510
_cell_length_c   7.73355900
_cell_angle_alpha   89.99151629
_cell_angle_beta   90.00848371
_cell_angle_gamma   90.00475020
_symmetry_Int_Tables_number   1
_chemical_formula_structural   YTm7Cd2(SiB4)4
_chemical_formula_sum   'Y1 Tm7 Cd2 Si4 B16'
_cell_volume   391.86259322
_cell_formula_units_Z   1
loop_
 _symmetry_equiv_pos_site_id
 _symmetry_equiv_pos_as_xyz
  1  'x, y, z'
loop_
 _atom_site_type_symbol
 _atom_site_label
 _atom_site_symmetry_multiplicity
 _atom_site_fract_x
 _atom_site_fract_y
 _atom_site_fract_z
 _atom_site_occupancy
  Y  Y0  1  0.182723  0.317277  0.234216  1
  Tm  Tm1  1  0.682871  0.182692  0.230925  1
  Tm  Tm2  1  0.317257  0.817169  0.769316  1
  Tm  Tm3  1  0.317308  0.817129  0.230925  1
  Tm  Tm4  1  0.817032  0.682968  0.230833  1
  Tm  Tm5  1  0.817129  0.682871  0.768999  1
  Tm  Tm6  1  0.682831  0.182743  0.769316  1
  Tm  Tm7  1  0.182751  0.317249  0.768936  1
  Cd  Cd8  1  0.999574  0.999371  0.500672  1
  Cd  Cd9  1  0.500629  0.500426  0.500672  1
  Si  Si10  1  0.113561  0.615792  0.501405  1
  Si  Si11  1  0.884208  0.386439  0.501405  1
  Si  Si12  1  0.386614  0.113386  0.501861  1
  Si  Si13  1  0.615142  0.884858  0.500104  1
  B  B14  1  0.174588  0.039694  0.999499  1
  B  B15  1  0.824957  0.959553  0.999626  1
  B  B16  1  0.959174  0.174375  0.999400  1
  B  B17  1  0.325625  0.540826  0.999400  1
  B  B18  1  0.040099  0.825003  0.999350  1
  B  B19  1  0.674997  0.459901  0.999350  1
  B  B20  1  0.540447  0.675043  0.999626  1
  B  B21  1  0.460306  0.325412  0.999499  1
  B  B22  1  0.088981  0.589231  0.998729  1
  B  B23  1  0.910769  0.411019  0.998729  1
  B  B24  1  0.411238  0.088762  0.999610  1
  B  B25  1  0.588847  0.911153  0.999613  1
  B  B26  1  0.999535  0.999008  0.162676  1
  B  B27  1  0.999843  0.000032  0.836317  1
  B  B28  1  0.499968  0.500157  0.836317  1
  B  B29  1  0.500992  0.500465  0.162676  1
