# generated using pymatgen
data_Er12AlZnCo4
_symmetry_space_group_name_H-M   'P 1'
_cell_length_a   8.20641371
_cell_length_b   8.20641321
_cell_length_c   8.20641279
_cell_angle_alpha   112.07314191
_cell_angle_beta   109.87899017
_cell_angle_gamma   106.50956076
_symmetry_Int_Tables_number   1
_chemical_formula_structural   Er12AlZnCo4
_chemical_formula_sum   'Er12 Al1 Zn1 Co4'
_cell_volume   424.42837383
_cell_formula_units_Z   1
loop_
 _symmetry_equiv_pos_site_id
 _symmetry_equiv_pos_as_xyz
  1  'x, y, z'
loop_
 _atom_site_type_symbol
 _atom_site_label
 _atom_site_symmetry_multiplicity
 _atom_site_fract_x
 _atom_site_fract_y
 _atom_site_fract_z
 _atom_site_occupancy
  Er  Er0  1  0.959313  0.263177  0.696136  1
  Er  Er1  1  0.040687  0.736823  0.303864  1
  Er  Er2  1  0.673639  0.862230  0.188591  1
  Er  Er3  1  0.326361  0.514954  0.188591  1
  Er  Er4  1  0.326361  0.137770  0.811409  1
  Er  Er5  1  0.673639  0.485046  0.811409  1
  Er  Er6  1  0.567041  0.263177  0.303864  1
  Er  Er7  1  0.432959  0.736823  0.696136  1
  Er  Er8  1  0.180219  0.780371  0.960590  1
  Er  Er9  1  0.819781  0.780371  0.600153  1
  Er  Er10  1  0.180219  0.219629  0.399847  1
  Er  Er11  1  0.819781  0.219629  0.039410  1
  Al  Al12  1  0.500000  0.000000  0.500000  1
  Zn  Zn13  1  0.000000  0.500000  0.500000  1
  Co  Co14  1  0.115434  0.115434  0.000000  1
  Co  Co15  1  0.884566  0.884566  0.000000  1
  Co  Co16  1  0.663479  0.500000  0.163479  1
  Co  Co17  1  0.336521  0.500000  0.836521  1
