# generated using pymatgen
data_Pr5FeTeO12
_symmetry_space_group_name_H-M   'P 1'
_cell_length_a   7.15313407
_cell_length_b   7.15313466
_cell_length_c   7.66800565
_cell_angle_alpha   74.51639451
_cell_angle_beta   74.51639034
_cell_angle_gamma   50.83341796
_symmetry_Int_Tables_number   1
_chemical_formula_structural   Pr5FeTeO12
_chemical_formula_sum   'Pr5 Fe1 Te1 O12'
_cell_volume   290.60392968
_cell_formula_units_Z   1
loop_
 _symmetry_equiv_pos_site_id
 _symmetry_equiv_pos_as_xyz
  1  'x, y, z'
loop_
 _atom_site_type_symbol
 _atom_site_label
 _atom_site_symmetry_multiplicity
 _atom_site_fract_x
 _atom_site_fract_y
 _atom_site_fract_z
 _atom_site_occupancy
  Pr  Pr0  1  0.314570  0.292310  0.359860  1
  Pr  Pr1  1  0.707690  0.685430  0.640140  1
  Pr  Pr2  1  0.695359  0.698126  0.164628  1
  Pr  Pr3  1  0.301874  0.304641  0.835372  1
  Pr  Pr4  1  0.012456  0.987544  0.500000  1
  Fe  Fe5  1  0.750866  0.249134  0.000000  1
  Te  Te6  1  0.237660  0.762340  0.000000  1
  O  O7  1  0.102268  0.590998  0.574990  1
  O  O8  1  0.009718  0.988917  0.176467  1
  O  O9  1  0.409002  0.897732  0.425010  1
  O  O10  1  0.476187  0.525826  0.175369  1
  O  O11  1  0.101239  0.586007  0.078864  1
  O  O12  1  0.912337  0.397959  0.419694  1
  O  O13  1  0.011083  0.990282  0.823533  1
  O  O14  1  0.602041  0.087662  0.580306  1
  O  O15  1  0.474174  0.523813  0.824631  1
  O  O16  1  0.573434  0.105947  0.078162  1
  O  O17  1  0.413993  0.898761  0.921136  1
  O  O18  1  0.894053  0.426566  0.921838  1
