# generated using pymatgen
data_Nd5HoAl24Pd3Ru5
_symmetry_space_group_name_H-M   'P 1'
_cell_length_a   8.93076834
_cell_length_b   8.93073552
_cell_length_c   9.65379173
_cell_angle_alpha   90.13316851
_cell_angle_beta   89.89395914
_cell_angle_gamma   120.01017924
_symmetry_Int_Tables_number   1
_chemical_formula_structural   Nd5HoAl24Pd3Ru5
_chemical_formula_sum   'Nd5 Ho1 Al24 Pd3 Ru5'
_cell_volume   666.74342771
_cell_formula_units_Z   1
loop_
 _symmetry_equiv_pos_site_id
 _symmetry_equiv_pos_as_xyz
  1  'x, y, z'
loop_
 _atom_site_type_symbol
 _atom_site_label
 _atom_site_symmetry_multiplicity
 _atom_site_fract_x
 _atom_site_fract_y
 _atom_site_fract_z
 _atom_site_occupancy
  Nd  Nd0  1  0.807097  0.615815  0.750867  1
  Nd  Nd1  1  0.618469  0.807527  0.251866  1
  Nd  Nd2  1  0.381249  0.191825  0.748182  1
  Nd  Nd3  1  0.188708  0.809032  0.249147  1
  Nd  Nd4  1  0.811000  0.190132  0.750610  1
  Ho  Ho5  1  0.195717  0.389064  0.249759  1
  Al  Al6  1  0.335336  0.662993  0.024213  1
  Al  Al7  1  0.663093  0.335021  0.980007  1
  Al  Al8  1  0.669281  0.338368  0.519610  1
  Al  Al9  1  0.329996  0.659877  0.476678  1
  Al  Al10  1  0.164119  0.327825  0.572319  1
  Al  Al11  1  0.836120  0.671906  0.424762  1
  Al  Al12  1  0.674145  0.830839  0.575918  1
  Al  Al13  1  0.830880  0.674255  0.078728  1
  Al  Al14  1  0.324347  0.169711  0.422287  1
  Al  Al15  1  0.168694  0.325528  0.924177  1
  Al  Al16  1  0.156379  0.831841  0.575656  1
  Al  Al17  1  0.323697  0.169320  0.077812  1
  Al  Al18  1  0.846229  0.169077  0.422178  1
  Al  Al19  1  0.674433  0.831248  0.924276  1
  Al  Al20  1  0.840015  0.162077  0.080708  1
  Al  Al21  1  0.162372  0.839098  0.921096  1
  Al  Al22  1  0.563858  0.128498  0.249818  1
  Al  Al23  1  0.436074  0.871231  0.750181  1
  Al  Al24  1  0.875427  0.437002  0.253200  1
  Al  Al25  1  0.126612  0.562090  0.746031  1
  Al  Al26  1  0.559619  0.438153  0.249802  1
  Al  Al27  1  0.437179  0.560951  0.750419  1
  Al  Al28  1  0.001661  0.003988  0.250350  1
  Al  Al29  1  0.000896  0.000762  0.749725  1
  Pd  Pd30  1  0.499669  0.999062  0.000248  1
  Pd  Pd31  1  0.000463  0.499305  0.000765  1
  Pd  Pd32  1  0.499560  0.999067  0.499751  1
  Ru  Ru33  1  0.498265  0.499189  0.001431  1
  Ru  Ru34  1  0.000848  0.499245  0.498534  1
  Ru  Ru35  1  0.498653  0.499249  0.498803  1
  Ru  Ru36  1  0.999874  0.999937  0.000397  1
  Ru  Ru37  1  0.999965  0.999891  0.499692  1
