# generated using pymatgen
data_Ho6CdSn5Pd6
_symmetry_space_group_name_H-M   'P 1'
_cell_length_a   7.66700900
_cell_length_b   7.67939780
_cell_length_c   7.69840224
_cell_angle_alpha   90.00406209
_cell_angle_beta   90.00000000
_cell_angle_gamma   119.94664409
_symmetry_Int_Tables_number   1
_chemical_formula_structural   Ho6CdSn5Pd6
_chemical_formula_sum   'Ho6 Cd1 Sn5 Pd6'
_cell_volume   392.75128514
_cell_formula_units_Z   1
loop_
 _symmetry_equiv_pos_site_id
 _symmetry_equiv_pos_as_xyz
  1  'x, y, z'
loop_
 _atom_site_type_symbol
 _atom_site_label
 _atom_site_symmetry_multiplicity
 _atom_site_fract_x
 _atom_site_fract_y
 _atom_site_fract_z
 _atom_site_occupancy
  Ho  Ho0  1  0.406992  0.002781  0.246856  1
  Ho  Ho1  1  0.599054  0.598263  0.247402  1
  Ho  Ho2  1  0.994676  0.398744  0.247628  1
  Ho  Ho3  1  0.404211  0.997219  0.753144  1
  Ho  Ho4  1  0.595932  0.601256  0.752372  1
  Ho  Ho5  1  0.000791  0.401737  0.752598  1
  Cd  Cd6  1  0.735981  0.000000  0.000000  1
  Sn  Sn7  1  0.269431  0.268651  0.499687  1
  Sn  Sn8  1  0.000780  0.731349  0.500313  1
  Sn  Sn9  1  0.996527  0.742602  0.999861  1
  Sn  Sn10  1  0.253924  0.257398  0.000139  1
  Sn  Sn11  1  0.734971  0.000000  0.500000  1
  Pd  Pd12  1  0.326489  0.661724  0.005488  1
  Pd  Pd13  1  0.334014  0.665669  0.493817  1
  Pd  Pd14  1  0.664766  0.338276  0.994512  1
  Pd  Pd15  1  0.668346  0.334331  0.506183  1
  Pd  Pd16  1  0.006411  0.999706  0.258859  1
  Pd  Pd17  1  0.006706  0.000294  0.741141  1
