# generated using pymatgen
data_Er3Lu9Tc3Pt
_symmetry_space_group_name_H-M   'P 1'
_cell_length_a   6.18547419
_cell_length_b   7.32245143
_cell_length_c   8.93661600
_cell_angle_alpha   90.00000000
_cell_angle_beta   90.00000000
_cell_angle_gamma   90.11077847
_symmetry_Int_Tables_number   1
_chemical_formula_structural   Er3Lu9Tc3Pt
_chemical_formula_sum   'Er3 Lu9 Tc3 Pt1'
_cell_volume   404.76391100
_cell_formula_units_Z   1
loop_
 _symmetry_equiv_pos_site_id
 _symmetry_equiv_pos_as_xyz
  1  'x, y, z'
loop_
 _atom_site_type_symbol
 _atom_site_label
 _atom_site_symmetry_multiplicity
 _atom_site_fract_x
 _atom_site_fract_y
 _atom_site_fract_z
 _atom_site_occupancy
  Er  Er0  1  0.621964  0.037772  0.250000  1
  Er  Er1  1  0.127254  0.456636  0.750000  1
  Er  Er2  1  0.373932  0.964337  0.750000  1
  Lu  Lu3  1  0.330053  0.676162  0.066643  1
  Lu  Lu4  1  0.162006  0.177513  0.436894  1
  Lu  Lu5  1  0.664818  0.319756  0.557470  1
  Lu  Lu6  1  0.839432  0.826845  0.941531  1
  Lu  Lu7  1  0.664818  0.319756  0.942530  1
  Lu  Lu8  1  0.839432  0.826845  0.558469  1
  Lu  Lu9  1  0.330053  0.676162  0.433357  1
  Lu  Lu10  1  0.162006  0.177513  0.063106  1
  Lu  Lu11  1  0.875414  0.541314  0.250000  1
  Tc  Tc12  1  0.039869  0.884473  0.250000  1
  Tc  Tc13  1  0.463986  0.386888  0.250000  1
  Tc  Tc14  1  0.956533  0.115019  0.750000  1
  Pt  Pt15  1  0.548430  0.613010  0.750000  1
