# generated using pymatgen
data_Dy8Ho4Tc3Ir
_symmetry_space_group_name_H-M   'P 1'
_cell_length_a   6.28826000
_cell_length_b   7.40018405
_cell_length_c   9.13786104
_cell_angle_alpha   89.98941211
_cell_angle_beta   89.99940458
_cell_angle_gamma   89.99546911
_symmetry_Int_Tables_number   1
_chemical_formula_structural   Dy8Ho4Tc3Ir
_chemical_formula_sum   'Dy8 Ho4 Tc3 Ir1'
_cell_volume   425.22378799
_cell_formula_units_Z   1
loop_
 _symmetry_equiv_pos_site_id
 _symmetry_equiv_pos_as_xyz
  1  'x, y, z'
loop_
 _atom_site_type_symbol
 _atom_site_label
 _atom_site_symmetry_multiplicity
 _atom_site_fract_x
 _atom_site_fract_y
 _atom_site_fract_z
 _atom_site_occupancy
  Dy  Dy0  1  0.333098  0.675887  0.064408  1
  Dy  Dy1  1  0.163296  0.175713  0.436700  1
  Dy  Dy2  1  0.665116  0.322886  0.561642  1
  Dy  Dy3  1  0.835390  0.825192  0.937944  1
  Dy  Dy4  1  0.873933  0.540830  0.250037  1
  Dy  Dy5  1  0.625532  0.038622  0.249972  1
  Dy  Dy6  1  0.131333  0.458348  0.750007  1
  Dy  Dy7  1  0.370721  0.960060  0.750007  1
  Ho  Ho8  1  0.665120  0.322874  0.938385  1
  Ho  Ho9  1  0.835295  0.825062  0.562004  1
  Ho  Ho10  1  0.333131  0.676026  0.435697  1
  Ho  Ho11  1  0.163286  0.175925  0.063141  1
  Tc  Tc12  1  0.040009  0.883589  0.250226  1
  Tc  Tc13  1  0.461994  0.386240  0.249795  1
  Tc  Tc14  1  0.959977  0.116477  0.750225  1
  Ir  Ir15  1  0.542771  0.616268  0.749810  1
