# generated using pymatgen
data_Cs6CeYI12
_symmetry_space_group_name_H-M   'P 1'
_cell_length_a   10.71414928
_cell_length_b   10.71590015
_cell_length_c   8.89991100
_cell_angle_alpha   90.00000000
_cell_angle_beta   90.00000000
_cell_angle_gamma   90.07190835
_symmetry_Int_Tables_number   1
_chemical_formula_structural   Cs6CeYI12
_chemical_formula_sum   'Cs6 Ce1 Y1 I12'
_cell_volume   1021.81358616
_cell_formula_units_Z   1
loop_
 _symmetry_equiv_pos_site_id
 _symmetry_equiv_pos_as_xyz
  1  'x, y, z'
loop_
 _atom_site_type_symbol
 _atom_site_label
 _atom_site_symmetry_multiplicity
 _atom_site_fract_x
 _atom_site_fract_y
 _atom_site_fract_z
 _atom_site_occupancy
  Cs  Cs0  1  0.000000  0.000000  0.500000  1
  Cs  Cs1  1  0.000000  0.000000  0.000000  1
  Cs  Cs2  1  0.234587  0.587421  0.500000  1
  Cs  Cs3  1  0.765413  0.412579  0.500000  1
  Cs  Cs4  1  0.412583  0.231735  0.000000  1
  Cs  Cs5  1  0.587417  0.768265  0.000000  1
  Ce  Ce6  1  0.000000  0.500000  0.000000  1
  Y  Y7  1  0.500000  0.000000  0.500000  1
  I  I8  1  0.693767  0.058914  0.742675  1
  I  I9  1  0.306233  0.941086  0.742675  1
  I  I10  1  0.939047  0.700412  0.250261  1
  I  I11  1  0.060953  0.299588  0.250261  1
  I  I12  1  0.306233  0.941086  0.257325  1
  I  I13  1  0.693767  0.058914  0.257325  1
  I  I14  1  0.060953  0.299588  0.749739  1
  I  I15  1  0.939047  0.700412  0.749739  1
  I  I16  1  0.569324  0.725542  0.500000  1
  I  I17  1  0.430676  0.274458  0.500000  1
  I  I18  1  0.283835  0.570984  0.000000  1
  I  I19  1  0.716165  0.429016  0.000000  1
