# generated using pymatgen
data_Ba2ThCu2S5
_symmetry_space_group_name_H-M   'P 1'
_cell_length_a   4.14805943
_cell_length_b   7.17276359
_cell_length_c   9.21404454
_cell_angle_alpha   102.91146677
_cell_angle_beta   103.00842927
_cell_angle_gamma   106.80728126
_symmetry_Int_Tables_number   1
_chemical_formula_structural   Ba2ThCu2S5
_chemical_formula_sum   'Ba2 Th1 Cu2 S5'
_cell_volume   243.15806418
_cell_formula_units_Z   1
loop_
 _symmetry_equiv_pos_site_id
 _symmetry_equiv_pos_as_xyz
  1  'x, y, z'
loop_
 _atom_site_type_symbol
 _atom_site_label
 _atom_site_symmetry_multiplicity
 _atom_site_fract_x
 _atom_site_fract_y
 _atom_site_fract_z
 _atom_site_occupancy
  Ba  Ba0  1  0.482604  0.657907  0.307302  1
  Ba  Ba1  1  0.517396  0.342093  0.692698  1
  Th  Th2  1  0.000000  0.000000  0.000000  1
  Cu  Cu3  1  0.744059  0.190270  0.297848  1
  Cu  Cu4  1  0.255941  0.809730  0.702152  1
  S  S5  1  0.680704  0.293346  0.068063  1
  S  S6  1  0.165423  0.019282  0.311564  1
  S  S7  1  0.000001  0.500001  0.500000  1
  S  S8  1  0.834577  0.980718  0.688437  1
  S  S9  1  0.319297  0.706656  0.931937  1
