# generated using pymatgen
data_Lu3Zr(Co5P3)4
_symmetry_space_group_name_H-M   'P 1'
_cell_length_a   3.61712400
_cell_length_b   10.19746802
_cell_length_c   11.66304002
_cell_angle_alpha   90.00671736
_cell_angle_beta   90.00000000
_cell_angle_gamma   90.00000000
_symmetry_Int_Tables_number   1
_chemical_formula_structural   Lu3Zr(Co5P3)4
_chemical_formula_sum   'Lu3 Zr1 Co20 P12'
_cell_volume   430.19713324
_cell_formula_units_Z   1
loop_
 _symmetry_equiv_pos_site_id
 _symmetry_equiv_pos_as_xyz
  1  'x, y, z'
loop_
 _atom_site_type_symbol
 _atom_site_label
 _atom_site_symmetry_multiplicity
 _atom_site_fract_x
 _atom_site_fract_y
 _atom_site_fract_z
 _atom_site_occupancy
  Lu  Lu0  1  0.250000  0.917312  0.202825  1
  Lu  Lu1  1  0.750000  0.417565  0.297147  1
  Lu  Lu2  1  0.750000  0.082371  0.796838  1
  Zr  Zr3  1  0.250000  0.581916  0.702094  1
  Co  Co4  1  0.250000  0.717814  0.992236  1
  Co  Co5  1  0.250000  0.781703  0.492064  1
  Co  Co6  1  0.750000  0.282664  0.007802  1
  Co  Co7  1  0.750000  0.218258  0.508933  1
  Co  Co8  1  0.250000  0.409257  0.488315  1
  Co  Co9  1  0.250000  0.092522  0.986820  1
  Co  Co10  1  0.750000  0.592838  0.515102  1
  Co  Co11  1  0.750000  0.907267  0.012768  1
  Co  Co12  1  0.250000  0.221627  0.177321  1
  Co  Co13  1  0.250000  0.278927  0.677539  1
  Co  Co14  1  0.750000  0.776394  0.822146  1
  Co  Co15  1  0.750000  0.721053  0.323197  1
  Co  Co16  1  0.250000  0.881888  0.699469  1
  Co  Co17  1  0.250000  0.616793  0.199113  1
  Co  Co18  1  0.750000  0.116985  0.300975  1
  Co  Co19  1  0.750000  0.385210  0.799599  1
  Co  Co20  1  0.250000  0.468543  0.929678  1
  Co  Co21  1  0.250000  0.032322  0.431403  1
  Co  Co22  1  0.750000  0.532646  0.067896  1
  Co  Co23  1  0.750000  0.966520  0.569009  1
  P  P24  1  0.250000  0.418464  0.112379  1
  P  P25  1  0.250000  0.081351  0.613103  1
  P  P26  1  0.750000  0.581337  0.885569  1
  P  P27  1  0.750000  0.918294  0.387029  1
  P  P28  1  0.250000  0.268694  0.870111  1
  P  P29  1  0.250000  0.231706  0.370643  1
  P  P30  1  0.750000  0.731249  0.129883  1
  P  P31  1  0.750000  0.767434  0.630784  1
  P  P32  1  0.250000  0.600341  0.390123  1
  P  P33  1  0.250000  0.899617  0.890269  1
  P  P34  1  0.750000  0.400775  0.610201  1
  P  P35  1  0.750000  0.100345  0.109617  1
