# generated using pymatgen
data_Ho2Tm3In4PtRh
_symmetry_space_group_name_H-M   'P 1'
_cell_length_a   3.60484300
_cell_length_b   8.07078692
_cell_length_c   18.06880175
_cell_angle_alpha   89.93908036
_cell_angle_beta   90.00000000
_cell_angle_gamma   90.00000000
_symmetry_Int_Tables_number   1
_chemical_formula_structural   Ho2Tm3In4PtRh
_chemical_formula_sum   'Ho4 Tm6 In8 Pt2 Rh2'
_cell_volume   525.69197039
_cell_formula_units_Z   2
loop_
 _symmetry_equiv_pos_site_id
 _symmetry_equiv_pos_as_xyz
  1  'x, y, z'
loop_
 _atom_site_type_symbol
 _atom_site_label
 _atom_site_symmetry_multiplicity
 _atom_site_fract_x
 _atom_site_fract_y
 _atom_site_fract_z
 _atom_site_occupancy
  Ho  Ho0  1  0.000000  0.251943  0.720369  1
  Ho  Ho1  1  0.000000  0.748057  0.279631  1
  Ho  Ho2  1  0.000000  0.000000  0.000000  1
  Ho  Ho3  1  0.000000  0.500000  0.500000  1
  Tm  Tm4  1  0.000000  0.115762  0.412256  1
  Tm  Tm5  1  0.000000  0.884238  0.587744  1
  Tm  Tm6  1  0.000000  0.383213  0.913363  1
  Tm  Tm7  1  0.000000  0.616787  0.086637  1
  Tm  Tm8  1  0.000000  0.239568  0.221400  1
  Tm  Tm9  1  0.000000  0.760432  0.778600  1
  In  In10  1  0.500000  0.422134  0.351048  1
  In  In11  1  0.500000  0.577866  0.648952  1
  In  In12  1  0.500000  0.073930  0.850142  1
  In  In13  1  0.500000  0.926070  0.149858  1
  In  In14  1  0.500000  0.292965  0.066401  1
  In  In15  1  0.500000  0.707035  0.933599  1
  In  In16  1  0.500000  0.205191  0.567338  1
  In  In17  1  0.500000  0.794809  0.432662  1
  Pt  Pt18  1  0.500000  0.478513  0.804158  1
  Pt  Pt19  1  0.500000  0.521487  0.195842  1
  Rh  Rh20  1  0.500000  0.024074  0.304536  1
  Rh  Rh21  1  0.500000  0.975926  0.695464  1
