# generated using pymatgen
data_Zr3In3TcPd2
_symmetry_space_group_name_H-M   'P 1'
_cell_length_a   7.77913501
_cell_length_b   7.77919821
_cell_length_c   3.41043300
_cell_angle_alpha   90.00000000
_cell_angle_beta   90.00000000
_cell_angle_gamma   119.99953236
_symmetry_Int_Tables_number   1
_chemical_formula_structural   Zr3In3TcPd2
_chemical_formula_sum   'Zr3 In3 Tc1 Pd2'
_cell_volume   178.73448211
_cell_formula_units_Z   1
loop_
 _symmetry_equiv_pos_site_id
 _symmetry_equiv_pos_as_xyz
  1  'x, y, z'
loop_
 _atom_site_type_symbol
 _atom_site_label
 _atom_site_symmetry_multiplicity
 _atom_site_fract_x
 _atom_site_fract_y
 _atom_site_fract_z
 _atom_site_occupancy
  Zr  Zr0  1  0.026178  0.615601  0.500000  1
  Zr  Zr1  1  0.384407  0.410575  0.500000  1
  Zr  Zr2  1  0.589430  0.973848  0.500000  1
  In  In3  1  0.730105  0.720549  0.000000  1
  In  In4  1  0.990457  0.269884  0.000000  1
  In  In5  1  0.279435  0.009561  0.000000  1
  Tc  Tc6  1  0.333335  0.666676  0.000000  1
  Pd  Pd7  1  0.999978  0.999979  0.500000  1
  Pd  Pd8  1  0.666676  0.333327  0.000000  1
