# generated using pymatgen
data_DyNb8FeS16
_symmetry_space_group_name_H-M   'P 1'
_cell_length_a   6.69445100
_cell_length_b   6.69445107
_cell_length_c   12.76588800
_cell_angle_alpha   90.00000000
_cell_angle_beta   90.00000000
_cell_angle_gamma   119.99999471
_symmetry_Int_Tables_number   1
_chemical_formula_structural   DyNb8FeS16
_chemical_formula_sum   'Dy1 Nb8 Fe1 S16'
_cell_volume   495.46345120
_cell_formula_units_Z   1
loop_
 _symmetry_equiv_pos_site_id
 _symmetry_equiv_pos_as_xyz
  1  'x, y, z'
loop_
 _atom_site_type_symbol
 _atom_site_label
 _atom_site_symmetry_multiplicity
 _atom_site_fract_x
 _atom_site_fract_y
 _atom_site_fract_z
 _atom_site_occupancy
  Dy  Dy0  1  0.000000  0.000000  0.500000  1
  Nb  Nb1  1  0.000000  0.000000  0.229784  1
  Nb  Nb2  1  0.000000  0.000000  0.770216  1
  Nb  Nb3  1  0.504983  0.009967  0.226055  1
  Nb  Nb4  1  0.990033  0.495017  0.226055  1
  Nb  Nb5  1  0.504983  0.495017  0.226055  1
  Nb  Nb6  1  0.495017  0.990033  0.773945  1
  Nb  Nb7  1  0.009967  0.504983  0.773945  1
  Nb  Nb8  1  0.495017  0.504983  0.773945  1
  Fe  Fe9  1  0.000000  0.000000  0.000000  1
  S  S10  1  0.333333  0.666667  0.898641  1
  S  S11  1  0.666667  0.333333  0.101359  1
  S  S12  1  0.666667  0.333333  0.353289  1
  S  S13  1  0.333333  0.666667  0.646711  1
  S  S14  1  0.169259  0.830741  0.351741  1
  S  S15  1  0.169259  0.338517  0.351741  1
  S  S16  1  0.661483  0.830741  0.351741  1
  S  S17  1  0.830741  0.169259  0.648259  1
  S  S18  1  0.830741  0.661483  0.648259  1
  S  S19  1  0.338517  0.169259  0.648259  1
  S  S20  1  0.836434  0.163566  0.894537  1
  S  S21  1  0.836434  0.672869  0.894537  1
  S  S22  1  0.327131  0.163566  0.894537  1
  S  S23  1  0.163566  0.836434  0.105463  1
  S  S24  1  0.163566  0.327131  0.105463  1
  S  S25  1  0.672869  0.836434  0.105463  1
