# generated using pymatgen
data_TbHo8Th3Co4
_symmetry_space_group_name_H-M   'P 1'
_cell_length_a   6.28735922
_cell_length_b   6.87102119
_cell_length_c   9.53194300
_cell_angle_alpha   90.00000000
_cell_angle_beta   90.00000000
_cell_angle_gamma   88.90888733
_symmetry_Int_Tables_number   1
_chemical_formula_structural   TbHo8Th3Co4
_chemical_formula_sum   'Tb1 Ho8 Th3 Co4'
_cell_volume   411.71078581
_cell_formula_units_Z   1
loop_
 _symmetry_equiv_pos_site_id
 _symmetry_equiv_pos_as_xyz
  1  'x, y, z'
loop_
 _atom_site_type_symbol
 _atom_site_label
 _atom_site_symmetry_multiplicity
 _atom_site_fract_x
 _atom_site_fract_y
 _atom_site_fract_z
 _atom_site_occupancy
  Tb  Tb0  1  0.643105  0.456899  0.750000  1
  Ho  Ho1  1  0.671545  0.172757  0.068445  1
  Ho  Ho2  1  0.829538  0.671967  0.431206  1
  Ho  Ho3  1  0.324700  0.828357  0.930761  1
  Ho  Ho4  1  0.175386  0.327480  0.571242  1
  Ho  Ho5  1  0.671545  0.172757  0.431555  1
  Ho  Ho6  1  0.175386  0.327480  0.928758  1
  Ho  Ho7  1  0.324700  0.828357  0.569239  1
  Ho  Ho8  1  0.829538  0.671967  0.068794  1
  Th  Th9  1  0.348573  0.552875  0.250000  1
  Th  Th10  1  0.154089  0.052058  0.250000  1
  Th  Th11  1  0.844619  0.949126  0.750000  1
  Co  Co12  1  0.965816  0.371863  0.250000  1
  Co  Co13  1  0.465998  0.111132  0.750000  1
  Co  Co14  1  0.535582  0.871820  0.250000  1
  Co  Co15  1  0.039880  0.633105  0.750000  1
