# generated using pymatgen
data_Na2UNbS12
_symmetry_space_group_name_H-M   'P 1'
_cell_length_a   7.53356823
_cell_length_b   7.71057666
_cell_length_c   7.49998481
_cell_angle_alpha   85.80061716
_cell_angle_beta   86.16012632
_cell_angle_gamma   119.61284228
_symmetry_Int_Tables_number   1
_chemical_formula_structural   Na2UNbS12
_chemical_formula_sum   'Na2 U1 Nb1 S12'
_cell_volume   375.05655869
_cell_formula_units_Z   1
loop_
 _symmetry_equiv_pos_site_id
 _symmetry_equiv_pos_as_xyz
  1  'x, y, z'
loop_
 _atom_site_type_symbol
 _atom_site_label
 _atom_site_symmetry_multiplicity
 _atom_site_fract_x
 _atom_site_fract_y
 _atom_site_fract_z
 _atom_site_occupancy
  Na  Na0  1  0.670279  0.331096  0.997965  1
  Na  Na1  1  0.322363  0.659399  0.492730  1
  U  U2  1  0.992206  0.010082  0.744574  1
  Nb  Nb3  1  0.016794  0.992724  0.244035  1
  S  S4  1  0.971918  0.234448  0.461041  1
  S  S5  1  0.235345  0.950161  0.992924  1
  S  S6  1  0.300756  0.369284  0.810685  1
  S  S7  1  0.357723  0.307827  0.273638  1
  S  S8  1  0.043399  0.264353  0.997502  1
  S  S9  1  0.285940  0.070768  0.463994  1
  S  S10  1  0.707988  0.095001  0.645247  1
  S  S11  1  0.081720  0.703565  0.185011  1
  S  S12  1  0.946132  0.649027  0.689557  1
  S  S13  1  0.666978  0.949917  0.228843  1
  S  S14  1  0.781789  0.724043  0.518908  1
  S  S15  1  0.716151  0.785787  0.048105  1
