# generated using pymatgen
data_Dy5Mg3Ge2(P5Ir8)2
_symmetry_space_group_name_H-M   'P 1'
_cell_length_a   12.87747100
_cell_length_b   12.89811015
_cell_length_c   3.98946800
_cell_angle_alpha   90.00000000
_cell_angle_beta   90.00000000
_cell_angle_gamma   119.94707838
_symmetry_Int_Tables_number   1
_chemical_formula_structural   Dy5Mg3Ge2(P5Ir8)2
_chemical_formula_sum   'Dy5 Mg3 Ge2 P10 Ir16'
_cell_volume   574.16092181
_cell_formula_units_Z   1
loop_
 _symmetry_equiv_pos_site_id
 _symmetry_equiv_pos_as_xyz
  1  'x, y, z'
loop_
 _atom_site_type_symbol
 _atom_site_label
 _atom_site_symmetry_multiplicity
 _atom_site_fract_x
 _atom_site_fract_y
 _atom_site_fract_z
 _atom_site_occupancy
  Dy  Dy0  1  0.333419  0.666823  0.500000  1
  Dy  Dy1  1  0.666597  0.333177  0.500000  1
  Dy  Dy2  1  0.000117  0.813556  0.000000  1
  Dy  Dy3  1  0.186560  0.186444  0.000000  1
  Dy  Dy4  1  0.809187  0.000000  0.000000  1
  Mg  Mg5  1  0.998507  0.440517  0.500000  1
  Mg  Mg6  1  0.557990  0.559483  0.500000  1
  Mg  Mg7  1  0.445602  0.000000  0.500000  1
  Ge  Ge8  1  0.000519  0.639379  0.500000  1
  Ge  Ge9  1  0.361140  0.360621  0.500000  1
  P  P10  1  0.640000  0.000000  0.500000  1
  P  P11  1  0.516880  0.691507  0.000000  1
  P  P12  1  0.309798  0.825322  0.000000  1
  P  P13  1  0.174431  0.483139  0.000000  1
  P  P14  1  0.484476  0.174678  0.000000  1
  P  P15  1  0.691292  0.516861  0.000000  1
  P  P16  1  0.825373  0.308493  0.000000  1
  P  P17  1  0.999250  0.176941  0.500000  1
  P  P18  1  0.822309  0.823059  0.500000  1
  P  P19  1  0.178803  0.000000  0.500000  1
  Ir  Ir20  1  0.508088  0.868910  0.000000  1
  Ir  Ir21  1  0.134503  0.638766  0.000000  1
  Ir  Ir22  1  0.362013  0.496085  0.000000  1
  Ir  Ir23  1  0.495738  0.361234  0.000000  1
  Ir  Ir24  1  0.865929  0.503915  0.000000  1
  Ir  Ir25  1  0.639178  0.131090  0.000000  1
  Ir  Ir26  1  0.996200  0.274402  0.000000  1
  Ir  Ir27  1  0.721798  0.725598  0.000000  1
  Ir  Ir28  1  0.275931  0.000000  0.000000  1
  Ir  Ir29  1  0.628852  0.808982  0.500000  1
  Ir  Ir30  1  0.203180  0.827169  0.500000  1
  Ir  Ir31  1  0.171658  0.373859  0.500000  1
  Ir  Ir32  1  0.376011  0.172831  0.500000  1
  Ir  Ir33  1  0.797799  0.626141  0.500000  1
  Ir  Ir34  1  0.819870  0.191018  0.500000  1
  Ir  Ir35  1  0.001004  0.000000  0.500000  1
