# generated using pymatgen
data_Mg5(Bi2Rh)2
_symmetry_space_group_name_H-M   'P 1'
_cell_length_a   9.00841814
_cell_length_b   9.00841809
_cell_length_c   9.00841800
_cell_angle_alpha   90.00000000
_cell_angle_beta   60.00000052
_cell_angle_gamma   119.99999630
_symmetry_Int_Tables_number   1
_chemical_formula_structural   Mg5(Bi2Rh)2
_chemical_formula_sum   'Mg10 Bi8 Rh4'
_cell_volume   516.92868231
_cell_formula_units_Z   2
loop_
 _symmetry_equiv_pos_site_id
 _symmetry_equiv_pos_as_xyz
  1  'x, y, z'
loop_
 _atom_site_type_symbol
 _atom_site_label
 _atom_site_symmetry_multiplicity
 _atom_site_fract_x
 _atom_site_fract_y
 _atom_site_fract_z
 _atom_site_occupancy
  Mg  Mg0  1  0.996184  0.998092  0.501908  1
  Mg  Mg1  1  0.500000  0.501908  0.501908  1
  Mg  Mg2  1  0.500000  0.998092  0.501908  1
  Mg  Mg3  1  0.003816  0.501908  0.998092  1
  Mg  Mg4  1  0.500000  0.998092  0.998092  1
  Mg  Mg5  1  0.500000  0.501908  0.998092  1
  Mg  Mg6  1  0.177650  0.088825  0.733526  1
  Mg  Mg7  1  0.822350  0.088825  0.088825  1
  Mg  Mg8  1  0.822350  0.733526  0.088825  1
  Mg  Mg9  1  0.177650  0.088825  0.088825  1
  Bi  Bi10  1  0.500000  0.250000  0.250000  1
  Bi  Bi11  1  0.500000  0.750000  0.750000  1
  Bi  Bi12  1  0.581066  0.290533  0.709467  1
  Bi  Bi13  1  0.000000  0.709467  0.709467  1
  Bi  Bi14  1  0.000000  0.290533  0.709467  1
  Bi  Bi15  1  0.418934  0.709467  0.290533  1
  Bi  Bi16  1  0.000000  0.290533  0.290533  1
  Bi  Bi17  1  0.000000  0.709467  0.290533  1
  Rh  Rh18  1  0.760076  0.880038  0.359886  1
  Rh  Rh19  1  0.239924  0.880038  0.880038  1
  Rh  Rh20  1  0.239924  0.359886  0.880038  1
  Rh  Rh21  1  0.760076  0.880038  0.880038  1
