# generated using pymatgen
data_Dy2PaIn3NiRh2
_symmetry_space_group_name_H-M   'P 1'
_cell_length_a   7.54974686
_cell_length_b   7.75332336
_cell_length_c   3.75979500
_cell_angle_alpha   90.00000000
_cell_angle_beta   90.00000000
_cell_angle_gamma   120.89606895
_symmetry_Int_Tables_number   1
_chemical_formula_structural   Dy2PaIn3NiRh2
_chemical_formula_sum   'Dy2 Pa1 In3 Ni1 Rh2'
_cell_volume   188.85236381
_cell_formula_units_Z   1
loop_
 _symmetry_equiv_pos_site_id
 _symmetry_equiv_pos_as_xyz
  1  'x, y, z'
loop_
 _atom_site_type_symbol
 _atom_site_label
 _atom_site_symmetry_multiplicity
 _atom_site_fract_x
 _atom_site_fract_y
 _atom_site_fract_z
 _atom_site_occupancy
  Dy  Dy0  1  0.592162  0.003331  0.500000  1
  Dy  Dy1  1  0.407838  0.411170  0.500000  1
  Pa  Pa2  1  0.000000  0.580249  0.500000  1
  In  In3  1  0.000000  0.233966  0.000000  1
  In  In4  1  0.263582  0.012741  0.000000  1
  In  In5  1  0.736418  0.749159  0.000000  1
  Ni  Ni6  1  0.000000  0.981916  0.500000  1
  Rh  Rh7  1  0.704474  0.365970  0.000000  1
  Rh  Rh8  1  0.295526  0.661497  0.000000  1
