# generated using pymatgen
data_Ta3Ti(PC)2
_symmetry_space_group_name_H-M   'P 1'
_cell_length_a   3.27202300
_cell_length_b   3.27202235
_cell_length_c   11.54163700
_cell_angle_alpha   90.00000000
_cell_angle_beta   90.00000000
_cell_angle_gamma   120.00001669
_symmetry_Int_Tables_number   1
_chemical_formula_structural   Ta3Ti(PC)2
_chemical_formula_sum   'Ta3 Ti1 P2 C2'
_cell_volume   107.01153136
_cell_formula_units_Z   1
loop_
 _symmetry_equiv_pos_site_id
 _symmetry_equiv_pos_as_xyz
  1  'x, y, z'
loop_
 _atom_site_type_symbol
 _atom_site_label
 _atom_site_symmetry_multiplicity
 _atom_site_fract_x
 _atom_site_fract_y
 _atom_site_fract_z
 _atom_site_occupancy
  Ta  Ta0  1  0.666667  0.333333  0.899483  1
  Ta  Ta1  1  0.666667  0.333333  0.598065  1
  Ta  Ta2  1  0.333333  0.666667  0.102956  1
  Ti  Ti3  1  0.333333  0.666667  0.400403  1
  P  P4  1  0.333333  0.666667  0.748587  1
  P  P5  1  0.666667  0.333333  0.253256  1
  C  C6  1  0.000000  0.000000  0.001235  1
  C  C7  1  0.000000  0.000000  0.496015  1
