# generated using pymatgen
data_Pr3Er2Tm3(CdIr)2
_symmetry_space_group_name_H-M   'P 1'
_cell_length_a   9.70211023
_cell_length_b   9.70210950
_cell_length_c   9.70210900
_cell_angle_alpha   59.99999830
_cell_angle_beta   60.00000080
_cell_angle_gamma   59.99999803
_symmetry_Int_Tables_number   1
_chemical_formula_structural   Pr3Er2Tm3(CdIr)2
_chemical_formula_sum   'Pr6 Er4 Tm6 Cd4 Ir4'
_cell_volume   645.77840621
_cell_formula_units_Z   2
loop_
 _symmetry_equiv_pos_site_id
 _symmetry_equiv_pos_as_xyz
  1  'x, y, z'
loop_
 _atom_site_type_symbol
 _atom_site_label
 _atom_site_symmetry_multiplicity
 _atom_site_fract_x
 _atom_site_fract_y
 _atom_site_fract_z
 _atom_site_occupancy
  Pr  Pr0  1  0.941448  0.558552  0.558552  1
  Pr  Pr1  1  0.558552  0.941448  0.941448  1
  Pr  Pr2  1  0.558552  0.941448  0.558552  1
  Pr  Pr3  1  0.941448  0.558552  0.941448  1
  Pr  Pr4  1  0.558552  0.558552  0.941448  1
  Pr  Pr5  1  0.941448  0.941448  0.558552  1
  Er  Er6  1  0.346504  0.346504  0.346504  1
  Er  Er7  1  0.346504  0.346504  0.960489  1
  Er  Er8  1  0.346504  0.960489  0.346504  1
  Er  Er9  1  0.960489  0.346504  0.346504  1
  Tm  Tm10  1  0.813804  0.186196  0.186196  1
  Tm  Tm11  1  0.186196  0.813804  0.813804  1
  Tm  Tm12  1  0.186196  0.813804  0.186196  1
  Tm  Tm13  1  0.813804  0.186196  0.813804  1
  Tm  Tm14  1  0.186196  0.186196  0.813804  1
  Tm  Tm15  1  0.813804  0.813804  0.186196  1
  Cd  Cd16  1  0.579093  0.579093  0.579093  1
  Cd  Cd17  1  0.579093  0.579093  0.262720  1
  Cd  Cd18  1  0.579093  0.262720  0.579093  1
  Cd  Cd19  1  0.262720  0.579093  0.579093  1
  Ir  Ir20  1  0.140928  0.140928  0.140928  1
  Ir  Ir21  1  0.140928  0.140928  0.577216  1
  Ir  Ir22  1  0.140928  0.577216  0.140928  1
  Ir  Ir23  1  0.577216  0.140928  0.140928  1
