# generated using pymatgen
data_Lu4Pd3PtO14
_symmetry_space_group_name_H-M   'P 1'
_cell_length_a   7.15232326
_cell_length_b   7.15232258
_cell_length_c   7.14928232
_cell_angle_alpha   59.98593539
_cell_angle_beta   59.98593338
_cell_angle_gamma   60.00000075
_symmetry_Int_Tables_number   1
_chemical_formula_structural   Lu4Pd3PtO14
_chemical_formula_sum   'Lu4 Pd3 Pt1 O14'
_cell_volume   258.55284210
_cell_formula_units_Z   1
loop_
 _symmetry_equiv_pos_site_id
 _symmetry_equiv_pos_as_xyz
  1  'x, y, z'
loop_
 _atom_site_type_symbol
 _atom_site_label
 _atom_site_symmetry_multiplicity
 _atom_site_fract_x
 _atom_site_fract_y
 _atom_site_fract_z
 _atom_site_occupancy
  Lu  Lu0  1  0.625000  0.625000  0.125000  1
  Lu  Lu1  1  0.625000  0.625000  0.625000  1
  Lu  Lu2  1  0.625000  0.125000  0.625000  1
  Lu  Lu3  1  0.125000  0.625000  0.625000  1
  Pd  Pd4  1  0.125000  0.125000  0.125000  1
  Pd  Pd5  1  0.625000  0.125000  0.125000  1
  Pd  Pd6  1  0.125000  0.625000  0.125000  1
  Pt  Pt7  1  0.125000  0.125000  0.625000  1
  O  O8  1  0.030194  0.468982  0.470630  1
  O  O9  1  0.780564  0.780564  0.219439  1
  O  O10  1  0.780564  0.219434  0.219439  1
  O  O11  1  0.468982  0.030194  0.470630  1
  O  O12  1  0.750059  0.750059  0.749824  1
  O  O13  1  0.030566  0.469436  0.030561  1
  O  O14  1  0.030194  0.030194  0.470630  1
  O  O15  1  0.219434  0.780564  0.219439  1
  O  O16  1  0.219806  0.219806  0.779370  1
  O  O17  1  0.781018  0.219806  0.779370  1
  O  O18  1  0.499941  0.499941  0.500176  1
  O  O19  1  0.469436  0.030566  0.030561  1
  O  O20  1  0.469436  0.469436  0.030561  1
  O  O21  1  0.219806  0.781018  0.779370  1
