# generated using pymatgen
data_Er3Lu5(CdPt)2
_symmetry_space_group_name_H-M   'P 1'
_cell_length_a   9.52060680
_cell_length_b   9.52060705
_cell_length_c   9.52060700
_cell_angle_alpha   59.99999670
_cell_angle_beta   59.99999583
_cell_angle_gamma   60.00000010
_symmetry_Int_Tables_number   1
_chemical_formula_structural   Er3Lu5(CdPt)2
_chemical_formula_sum   'Er6 Lu10 Cd4 Pt4'
_cell_volume   610.20938971
_cell_formula_units_Z   2
loop_
 _symmetry_equiv_pos_site_id
 _symmetry_equiv_pos_as_xyz
  1  'x, y, z'
loop_
 _atom_site_type_symbol
 _atom_site_label
 _atom_site_symmetry_multiplicity
 _atom_site_fract_x
 _atom_site_fract_y
 _atom_site_fract_z
 _atom_site_occupancy
  Er  Er0  1  0.186461  0.813539  0.813539  1
  Er  Er1  1  0.813539  0.186461  0.186461  1
  Er  Er2  1  0.813539  0.186461  0.813539  1
  Er  Er3  1  0.186461  0.813539  0.186461  1
  Er  Er4  1  0.813539  0.813539  0.186461  1
  Er  Er5  1  0.186461  0.186461  0.813539  1
  Lu  Lu6  1  0.602726  0.602726  0.602726  1
  Lu  Lu7  1  0.602726  0.602726  0.191821  1
  Lu  Lu8  1  0.602726  0.191821  0.602726  1
  Lu  Lu9  1  0.191821  0.602726  0.602726  1
  Lu  Lu10  1  0.061088  0.438912  0.438912  1
  Lu  Lu11  1  0.438912  0.061088  0.061088  1
  Lu  Lu12  1  0.438912  0.061088  0.438912  1
  Lu  Lu13  1  0.061088  0.438912  0.061088  1
  Lu  Lu14  1  0.438912  0.438912  0.061088  1
  Lu  Lu15  1  0.061088  0.061088  0.438912  1
  Cd  Cd16  1  0.831919  0.831919  0.831919  1
  Cd  Cd17  1  0.831919  0.831919  0.504243  1
  Cd  Cd18  1  0.831919  0.504243  0.831919  1
  Cd  Cd19  1  0.504243  0.831919  0.831919  1
  Pt  Pt20  1  0.393448  0.393448  0.393448  1
  Pt  Pt21  1  0.393448  0.393448  0.819655  1
  Pt  Pt22  1  0.393448  0.819655  0.393448  1
  Pt  Pt23  1  0.819655  0.393448  0.393448  1
