# generated using pymatgen
data_HoErTcC2
_symmetry_space_group_name_H-M   'P 1'
_cell_length_a   5.05453800
_cell_length_b   6.54769500
_cell_length_c   9.82412200
_cell_angle_alpha   90.00000000
_cell_angle_beta   90.00000000
_cell_angle_gamma   90.00000000
_symmetry_Int_Tables_number   1
_chemical_formula_structural   HoErTcC2
_chemical_formula_sum   'Ho4 Er4 Tc4 C8'
_cell_volume   325.13494868
_cell_formula_units_Z   4
loop_
 _symmetry_equiv_pos_site_id
 _symmetry_equiv_pos_as_xyz
  1  'x, y, z'
loop_
 _atom_site_type_symbol
 _atom_site_label
 _atom_site_symmetry_multiplicity
 _atom_site_fract_x
 _atom_site_fract_y
 _atom_site_fract_z
 _atom_site_occupancy
  Ho  Ho0  1  0.250000  0.532041  0.216494  1
  Ho  Ho1  1  0.750000  0.467959  0.783506  1
  Ho  Ho2  1  0.750000  0.967959  0.716494  1
  Ho  Ho3  1  0.250000  0.032041  0.283506  1
  Er  Er4  1  0.250000  0.677553  0.558124  1
  Er  Er5  1  0.750000  0.322447  0.441876  1
  Er  Er6  1  0.750000  0.822447  0.058124  1
  Er  Er7  1  0.250000  0.177553  0.941876  1
  Tc  Tc8  1  0.250000  0.720151  0.866838  1
  Tc  Tc9  1  0.750000  0.279849  0.133162  1
  Tc  Tc10  1  0.750000  0.779849  0.366838  1
  Tc  Tc11  1  0.250000  0.220151  0.633162  1
  C  C12  1  0.250000  0.452972  0.758842  1
  C  C13  1  0.750000  0.547028  0.241158  1
  C  C14  1  0.750000  0.047028  0.258842  1
  C  C15  1  0.250000  0.952972  0.741158  1
  C  C16  1  0.250000  0.823592  0.050344  1
  C  C17  1  0.750000  0.176408  0.949656  1
  C  C18  1  0.750000  0.676408  0.550344  1
  C  C19  1  0.250000  0.323592  0.449656  1
