# generated using pymatgen
data_Y12InCo4Pd
_symmetry_space_group_name_H-M   'P 1'
_cell_length_a   8.36787920
_cell_length_b   8.36787790
_cell_length_c   8.36787972
_cell_angle_alpha   110.90057661
_cell_angle_beta   110.53794084
_cell_angle_gamma   107.00320153
_symmetry_Int_Tables_number   1
_chemical_formula_structural   Y12InCo4Pd
_chemical_formula_sum   'Y12 In1 Co4 Pd1'
_cell_volume   450.42052403
_cell_formula_units_Z   1
loop_
 _symmetry_equiv_pos_site_id
 _symmetry_equiv_pos_as_xyz
  1  'x, y, z'
loop_
 _atom_site_type_symbol
 _atom_site_label
 _atom_site_symmetry_multiplicity
 _atom_site_fract_x
 _atom_site_fract_y
 _atom_site_fract_z
 _atom_site_occupancy
  Y  Y0  1  0.414152  0.214563  0.199588  1
  Y  Y1  1  0.585848  0.785437  0.800412  1
  Y  Y2  1  0.014976  0.214563  0.800412  1
  Y  Y3  1  0.985024  0.785437  0.199588  1
  Y  Y4  1  0.187728  0.293453  0.481183  1
  Y  Y5  1  0.812272  0.706547  0.518817  1
  Y  Y6  1  0.187728  0.706547  0.894275  1
  Y  Y7  1  0.812272  0.293453  0.105725  1
  Y  Y8  1  0.314500  0.617713  0.303213  1
  Y  Y9  1  0.685500  0.382287  0.696787  1
  Y  Y10  1  0.314500  0.011286  0.696787  1
  Y  Y11  1  0.685500  0.988714  0.303213  1
  In  In12  1  0.500000  0.500000  0.000000  1
  Co  Co13  1  0.382216  0.000000  0.382216  1
  Co  Co14  1  0.617784  0.000000  0.617784  1
  Co  Co15  1  0.110660  0.610660  0.500000  1
  Co  Co16  1  0.889340  0.389340  0.500000  1
  Pd  Pd17  1  0.000000  0.000000  0.000000  1
