# generated using pymatgen
data_CrCu7Se8
_symmetry_space_group_name_H-M   'P 1'
_cell_length_a   7.82080900
_cell_length_b   7.82081025
_cell_length_c   12.90936600
_cell_angle_alpha   90.00000000
_cell_angle_beta   90.00000000
_cell_angle_gamma   119.99999050
_symmetry_Int_Tables_number   1
_chemical_formula_structural   CrCu7Se8
_chemical_formula_sum   'Cr2 Cu14 Se16'
_cell_volume   683.81561810
_cell_formula_units_Z   2
loop_
 _symmetry_equiv_pos_site_id
 _symmetry_equiv_pos_as_xyz
  1  'x, y, z'
loop_
 _atom_site_type_symbol
 _atom_site_label
 _atom_site_symmetry_multiplicity
 _atom_site_fract_x
 _atom_site_fract_y
 _atom_site_fract_z
 _atom_site_occupancy
  Cr  Cr0  1  0.333333  0.666667  0.479671  1
  Cr  Cr1  1  0.666667  0.333333  0.979671  1
  Cu  Cu2  1  0.836256  0.672512  0.104932  1
  Cu  Cu3  1  0.502276  0.497724  0.353652  1
  Cu  Cu4  1  0.004554  0.502276  0.853652  1
  Cu  Cu5  1  0.836256  0.163744  0.104932  1
  Cu  Cu6  1  0.497724  0.502276  0.853652  1
  Cu  Cu7  1  0.163744  0.327488  0.604932  1
  Cu  Cu8  1  0.502276  0.004554  0.353652  1
  Cu  Cu9  1  0.995446  0.497724  0.353652  1
  Cu  Cu10  1  0.163744  0.836256  0.604932  1
  Cu  Cu11  1  0.497724  0.995446  0.853652  1
  Cu  Cu12  1  0.672512  0.836256  0.604932  1
  Cu  Cu13  1  0.327488  0.163744  0.104932  1
  Cu  Cu14  1  0.000000  0.000000  0.852983  1
  Cu  Cu15  1  0.000000  0.000000  0.352983  1
  Se  Se16  1  0.000000  0.000000  0.038245  1
  Se  Se17  1  0.331864  0.165932  0.290897  1
  Se  Se18  1  0.834068  0.165932  0.290897  1
  Se  Se19  1  0.010414  0.505207  0.539021  1
  Se  Se20  1  0.834068  0.668136  0.290897  1
  Se  Se21  1  0.666667  0.333333  0.799600  1
  Se  Se22  1  0.165932  0.331864  0.790897  1
  Se  Se23  1  0.494793  0.505207  0.539021  1
  Se  Se24  1  0.000000  0.000000  0.538245  1
  Se  Se25  1  0.333333  0.666667  0.299600  1
  Se  Se26  1  0.989586  0.494793  0.039021  1
  Se  Se27  1  0.494793  0.989586  0.539021  1
  Se  Se28  1  0.165932  0.834068  0.790897  1
  Se  Se29  1  0.668136  0.834068  0.790897  1
  Se  Se30  1  0.505207  0.010414  0.039021  1
  Se  Se31  1  0.505207  0.494793  0.039021  1
