# generated using pymatgen
data_Ru3O7
_symmetry_space_group_name_H-M   'P 1'
_cell_length_a   7.54071400
_cell_length_b   7.54071460
_cell_length_c   4.57342700
_cell_angle_alpha   90.00000000
_cell_angle_beta   90.00000000
_cell_angle_gamma   120.00000615
_symmetry_Int_Tables_number   1
_chemical_formula_structural   Ru3O7
_chemical_formula_sum   'Ru6 O14'
_cell_volume   225.21500880
_cell_formula_units_Z   2
loop_
 _symmetry_equiv_pos_site_id
 _symmetry_equiv_pos_as_xyz
  1  'x, y, z'
loop_
 _atom_site_type_symbol
 _atom_site_label
 _atom_site_symmetry_multiplicity
 _atom_site_fract_x
 _atom_site_fract_y
 _atom_site_fract_z
 _atom_site_occupancy
  Ru  Ru0  1  0.385478  0.454353  0.450131  1
  Ru  Ru1  1  0.068873  0.614522  0.450131  1
  Ru  Ru2  1  0.545647  0.931127  0.450131  1
  Ru  Ru3  1  0.264448  0.052249  0.950303  1
  Ru  Ru4  1  0.947749  0.212198  0.950303  1
  Ru  Ru5  1  0.787803  0.735552  0.950303  1
  O  O6  1  0.000000  0.000000  0.135621  1
  O  O7  1  0.729746  0.141250  0.207155  1
  O  O8  1  0.411504  0.270254  0.207155  1
  O  O9  1  0.858751  0.588496  0.207155  1
  O  O10  1  0.141081  0.429452  0.220010  1
  O  O11  1  0.570548  0.711630  0.220010  1
  O  O12  1  0.288370  0.858919  0.220010  1
  O  O13  1  0.333333  0.666666  0.635190  1
  O  O14  1  0.474950  0.078433  0.707334  1
  O  O15  1  0.921568  0.396517  0.707334  1
  O  O16  1  0.603484  0.525050  0.707334  1
  O  O17  1  0.191997  0.237074  0.719797  1
  O  O18  1  0.045076  0.808003  0.719797  1
  O  O19  1  0.762926  0.954924  0.719797  1
