# generated using pymatgen
data_MnFe2(MoO4)3
_symmetry_space_group_name_H-M   'P 1'
_cell_length_a   7.16781775
_cell_length_b   8.68012191
_cell_length_c   9.99883602
_cell_angle_alpha   97.30823940
_cell_angle_beta   106.41136266
_cell_angle_gamma   101.91777887
_symmetry_Int_Tables_number   1
_chemical_formula_structural   MnFe2(MoO4)3
_chemical_formula_sum   'Mn2 Fe4 Mo6 O24'
_cell_volume   572.37012139
_cell_formula_units_Z   2
loop_
 _symmetry_equiv_pos_site_id
 _symmetry_equiv_pos_as_xyz
  1  'x, y, z'
loop_
 _atom_site_type_symbol
 _atom_site_label
 _atom_site_symmetry_multiplicity
 _atom_site_fract_x
 _atom_site_fract_y
 _atom_site_fract_z
 _atom_site_occupancy
  Mn  Mn0  1  0.253353  0.693490  0.910440  1
  Mn  Mn1  1  0.746647  0.306510  0.089560  1
  Fe  Fe2  1  0.533825  0.698025  0.485389  1
  Fe  Fe3  1  0.466175  0.301975  0.514611  1
  Fe  Fe4  1  0.966393  0.890545  0.715067  1
  Fe  Fe5  1  0.033607  0.109455  0.284933  1
  Mo  Mo6  1  0.503646  0.988304  0.753662  1
  Mo  Mo7  1  0.496354  0.011696  0.246338  1
  Mo  Mo8  1  0.699368  0.601703  0.836129  1
  Mo  Mo9  1  0.300632  0.398297  0.163871  1
  Mo  Mo10  1  0.979629  0.707595  0.376738  1
  Mo  Mo11  1  0.020371  0.292405  0.623262  1
  O  O12  1  0.267823  0.871027  0.765125  1
  O  O13  1  0.732177  0.128973  0.234875  1
  O  O14  1  0.560210  0.707085  0.918837  1
  O  O15  1  0.439790  0.292915  0.081163  1
  O  O16  1  0.555244  0.519714  0.649357  1
  O  O17  1  0.444756  0.480286  0.350643  1
  O  O18  1  0.550819  0.870960  0.355013  1
  O  O19  1  0.449181  0.129040  0.644987  1
  O  O20  1  0.659098  0.095992  0.923781  1
  O  O21  1  0.340902  0.904008  0.076219  1
  O  O22  1  0.644253  0.862701  0.678446  1
  O  O23  1  0.355747  0.137299  0.321554  1
  O  O24  1  0.020579  0.123165  0.711235  1
  O  O25  1  0.979421  0.876835  0.288765  1
  O  O26  1  0.053683  0.269245  0.148831  1
  O  O27  1  0.946317  0.730755  0.851169  1
  O  O28  1  0.146330  0.474170  0.750150  1
  O  O29  1  0.853670  0.525830  0.249850  1
  O  O30  1  0.141974  0.267913  0.485557  1
  O  O31  1  0.858026  0.732087  0.514443  1
  O  O32  1  0.255228  0.557094  0.075881  1
  O  O33  1  0.744772  0.442906  0.924119  1
  O  O34  1  0.232870  0.706275  0.460647  1
  O  O35  1  0.767130  0.293725  0.539353  1
