# generated using pymatgen
data_LaDy7(Sc3Sn4)4
_symmetry_space_group_name_H-M   'P 1'
_cell_length_a   7.70760616
_cell_length_b   7.97382560
_cell_length_c   14.86697500
_cell_angle_alpha   90.02792278
_cell_angle_beta   89.96854072
_cell_angle_gamma   90.03695589
_symmetry_Int_Tables_number   1
_chemical_formula_structural   LaDy7(Sc3Sn4)4
_chemical_formula_sum   'La1 Dy7 Sc12 Sn16'
_cell_volume   913.71057650
_cell_formula_units_Z   1
loop_
 _symmetry_equiv_pos_site_id
 _symmetry_equiv_pos_as_xyz
  1  'x, y, z'
loop_
 _atom_site_type_symbol
 _atom_site_label
 _atom_site_symmetry_multiplicity
 _atom_site_fract_x
 _atom_site_fract_y
 _atom_site_fract_z
 _atom_site_occupancy
  La  La0  1  0.996175  0.174700  0.092864  1
  Dy  Dy1  1  0.005392  0.822411  0.904320  1
  Dy  Dy2  1  0.507396  0.676748  0.904089  1
  Dy  Dy3  1  0.006031  0.823005  0.594349  1
  Dy  Dy4  1  0.494095  0.324290  0.094082  1
  Dy  Dy5  1  0.993267  0.177024  0.405315  1
  Dy  Dy6  1  0.494264  0.323516  0.408005  1
  Dy  Dy7  1  0.505632  0.677218  0.594261  1
  Sc  Sc8  1  0.166176  0.496416  0.749622  1
  Sc  Sc9  1  0.833525  0.503844  0.250754  1
  Sc  Sc10  1  0.333680  0.995107  0.250817  1
  Sc  Sc11  1  0.665606  0.003810  0.749509  1
  Sc  Sc12  1  0.337054  0.160874  0.627596  1
  Sc  Sc13  1  0.662420  0.838791  0.373338  1
  Sc  Sc14  1  0.163115  0.661500  0.374086  1
  Sc  Sc15  1  0.662589  0.837981  0.128195  1
  Sc  Sc16  1  0.837322  0.338298  0.627481  1
  Sc  Sc17  1  0.336872  0.161566  0.871557  1
  Sc  Sc18  1  0.835873  0.340099  0.872145  1
  Sc  Sc19  1  0.163310  0.661074  0.127325  1
  Sn  Sn20  1  0.028047  0.124747  0.750100  1
  Sn  Sn21  1  0.971140  0.872051  0.251269  1
  Sn  Sn22  1  0.471510  0.624750  0.250554  1
  Sn  Sn23  1  0.528468  0.375670  0.749301  1
  Sn  Sn24  1  0.308113  0.849865  0.749535  1
  Sn  Sn25  1  0.687780  0.150218  0.252188  1
  Sn  Sn26  1  0.195120  0.352878  0.252939  1
  Sn  Sn27  1  0.808730  0.650163  0.749543  1
  Sn  Sn28  1  0.180976  0.456993  0.542919  1
  Sn  Sn29  1  0.819217  0.542412  0.457796  1
  Sn  Sn30  1  0.318100  0.958139  0.457806  1
  Sn  Sn31  1  0.817011  0.546678  0.041401  1
  Sn  Sn32  1  0.681245  0.042248  0.542749  1
  Sn  Sn33  1  0.183187  0.460736  0.955974  1
  Sn  Sn34  1  0.675597  0.040710  0.955273  1
  Sn  Sn35  1  0.325966  0.953473  0.040944  1
