# generated using pymatgen
data_Dy3AlHg2Au3
_symmetry_space_group_name_H-M   'P 1'
_cell_length_a   7.81226176
_cell_length_b   7.62548303
_cell_length_c   3.88302700
_cell_angle_alpha   90.00000000
_cell_angle_beta   90.00000000
_cell_angle_gamma   119.21221098
_symmetry_Int_Tables_number   1
_chemical_formula_structural   Dy3AlHg2Au3
_chemical_formula_sum   'Dy3 Al1 Hg2 Au3'
_cell_volume   201.90091705
_cell_formula_units_Z   1
loop_
 _symmetry_equiv_pos_site_id
 _symmetry_equiv_pos_as_xyz
  1  'x, y, z'
loop_
 _atom_site_type_symbol
 _atom_site_label
 _atom_site_symmetry_multiplicity
 _atom_site_fract_x
 _atom_site_fract_y
 _atom_site_fract_z
 _atom_site_occupancy
  Dy  Dy0  1  0.410395  0.400860  0.500000  1
  Dy  Dy1  1  0.589605  0.990465  0.500000  1
  Dy  Dy2  1  0.000000  0.606744  0.500000  1
  Al  Al3  1  0.000000  0.262207  0.000000  1
  Hg  Hg4  1  0.730724  0.734246  0.000000  1
  Hg  Hg5  1  0.269276  0.003522  0.000000  1
  Au  Au6  1  0.688526  0.327001  0.000000  1
  Au  Au7  1  0.311474  0.638475  0.000000  1
  Au  Au8  1  0.000000  0.036478  0.500000  1
