# generated using pymatgen
data_Dy6Al24IrPd2Ru5
_symmetry_space_group_name_H-M   'P 1'
_cell_length_a   8.82696349
_cell_length_b   8.81319977
_cell_length_c   9.48932200
_cell_angle_alpha   89.84014995
_cell_angle_beta   89.94902621
_cell_angle_gamma   119.39157234
_symmetry_Int_Tables_number   1
_chemical_formula_structural   Dy6Al24IrPd2Ru5
_chemical_formula_sum   'Dy6 Al24 Ir1 Pd2 Ru5'
_cell_volume   643.18768283
_cell_formula_units_Z   1
loop_
 _symmetry_equiv_pos_site_id
 _symmetry_equiv_pos_as_xyz
  1  'x, y, z'
loop_
 _atom_site_type_symbol
 _atom_site_label
 _atom_site_symmetry_multiplicity
 _atom_site_fract_x
 _atom_site_fract_y
 _atom_site_fract_z
 _atom_site_occupancy
  Dy  Dy0  1  0.192955  0.806555  0.249934  1
  Dy  Dy1  1  0.187223  0.385457  0.249813  1
  Dy  Dy2  1  0.614940  0.812330  0.249803  1
  Dy  Dy3  1  0.807045  0.193445  0.750066  1
  Dy  Dy4  1  0.812777  0.614543  0.750187  1
  Dy  Dy5  1  0.385060  0.187670  0.750197  1
  Al  Al6  1  0.563042  0.437350  0.250277  1
  Al  Al7  1  0.560963  0.124638  0.248622  1
  Al  Al8  1  0.876612  0.439897  0.250241  1
  Al  Al9  1  0.436958  0.562650  0.749723  1
  Al  Al10  1  0.439037  0.875362  0.751378  1
  Al  Al11  1  0.123388  0.560103  0.749759  1
  Al  Al12  1  0.324158  0.160085  0.422248  1
  Al  Al13  1  0.837401  0.165573  0.421899  1
  Al  Al14  1  0.841862  0.675949  0.421913  1
  Al  Al15  1  0.675842  0.839915  0.577752  1
  Al  Al16  1  0.162599  0.834427  0.578101  1
  Al  Al17  1  0.158138  0.324051  0.578087  1
  Al  Al18  1  0.675677  0.841963  0.922581  1
  Al  Al19  1  0.164242  0.836077  0.921839  1
  Al  Al20  1  0.158279  0.324868  0.922514  1
  Al  Al21  1  0.324323  0.158037  0.077419  1
  Al  Al22  1  0.835758  0.163923  0.078161  1
  Al  Al23  1  0.841721  0.675132  0.077486  1
  Al  Al24  1  0.671018  0.332464  0.525578  1
  Al  Al25  1  0.328982  0.667536  0.474422  1
  Al  Al26  1  0.330013  0.669953  0.025365  1
  Al  Al27  1  0.669987  0.330047  0.974635  1
  Al  Al28  1  0.996551  0.002215  0.250035  1
  Al  Al29  1  0.003449  0.997785  0.749965  1
  Ir  Ir30  1  0.500000  0.000000  0.500000  1
  Pd  Pd31  1  0.500000  0.500000  0.500000  1
  Pd  Pd32  1  0.500000  0.500000  0.000000  1
  Ru  Ru33  1  0.000000  0.000000  0.500000  1
  Ru  Ru34  1  0.000000  0.000000  0.000000  1
  Ru  Ru35  1  0.000000  0.500000  0.500000  1
  Ru  Ru36  1  0.500000  0.000000  0.000000  1
  Ru  Ru37  1  0.000000  0.500000  0.000000  1
