# generated using pymatgen
data_Li2Y2ErAgPb3
_symmetry_space_group_name_H-M   'P 1'
_cell_length_a   7.40451508
_cell_length_b   7.41023536
_cell_length_c   4.63832500
_cell_angle_alpha   90.00000000
_cell_angle_beta   90.00000000
_cell_angle_gamma   120.14359680
_symmetry_Int_Tables_number   1
_chemical_formula_structural   Li2Y2ErAgPb3
_chemical_formula_sum   'Li2 Y2 Er1 Ag1 Pb3'
_cell_volume   220.08487492
_cell_formula_units_Z   1
loop_
 _symmetry_equiv_pos_site_id
 _symmetry_equiv_pos_as_xyz
  1  'x, y, z'
loop_
 _atom_site_type_symbol
 _atom_site_label
 _atom_site_symmetry_multiplicity
 _atom_site_fract_x
 _atom_site_fract_y
 _atom_site_fract_z
 _atom_site_occupancy
  Li  Li0  1  0.770275  0.766588  0.000000  1
  Li  Li1  1  0.003657  0.233447  0.000000  1
  Y  Y2  1  0.553300  0.999911  0.500000  1
  Y  Y3  1  0.432120  0.428778  0.500000  1
  Er  Er4  1  0.003392  0.571800  0.500000  1
  Ag  Ag5  1  0.237461  0.999852  0.000000  1
  Pb  Pb6  1  0.987287  0.999087  0.500000  1
  Pb  Pb7  1  0.334442  0.658388  0.000000  1
  Pb  Pb8  1  0.678067  0.342148  0.000000  1
