# generated using pymatgen
data_Tm3Si2Ni
_symmetry_space_group_name_H-M   'P 1'
_cell_length_a   4.09290300
_cell_length_b   11.03119100
_cell_length_c   11.10431400
_cell_angle_alpha   90.00000000
_cell_angle_beta   90.00000000
_cell_angle_gamma   90.00000000
_symmetry_Int_Tables_number   1
_chemical_formula_structural   Tm3Si2Ni
_chemical_formula_sum   'Tm12 Si8 Ni4'
_cell_volume   501.35527694
_cell_formula_units_Z   4
loop_
 _symmetry_equiv_pos_site_id
 _symmetry_equiv_pos_as_xyz
  1  'x, y, z'
loop_
 _atom_site_type_symbol
 _atom_site_label
 _atom_site_symmetry_multiplicity
 _atom_site_fract_x
 _atom_site_fract_y
 _atom_site_fract_z
 _atom_site_occupancy
  Tm  Tm0  1  0.250000  0.375267  0.056839  1
  Tm  Tm1  1  0.750000  0.624733  0.943161  1
  Tm  Tm2  1  0.750000  0.875267  0.443161  1
  Tm  Tm3  1  0.250000  0.124733  0.556839  1
  Tm  Tm4  1  0.250000  0.696468  0.215109  1
  Tm  Tm5  1  0.750000  0.303532  0.784891  1
  Tm  Tm6  1  0.750000  0.196468  0.284891  1
  Tm  Tm7  1  0.250000  0.803532  0.715109  1
  Tm  Tm8  1  0.250000  0.440444  0.381315  1
  Tm  Tm9  1  0.750000  0.559556  0.618685  1
  Tm  Tm10  1  0.750000  0.940444  0.118685  1
  Tm  Tm11  1  0.250000  0.059556  0.881315  1
  Si  Si12  1  0.250000  0.686392  0.476748  1
  Si  Si13  1  0.750000  0.313608  0.523252  1
  Si  Si14  1  0.750000  0.186392  0.023252  1
  Si  Si15  1  0.250000  0.813608  0.976748  1
  Si  Si16  1  0.250000  0.003312  0.304493  1
  Si  Si17  1  0.750000  0.996688  0.695507  1
  Si  Si18  1  0.750000  0.503312  0.195507  1
  Si  Si19  1  0.250000  0.496688  0.804493  1
  Ni  Ni20  1  0.250000  0.133821  0.129814  1
  Ni  Ni21  1  0.750000  0.866179  0.870186  1
  Ni  Ni22  1  0.750000  0.633821  0.370186  1
  Ni  Ni23  1  0.250000  0.366179  0.629814  1
