# generated using pymatgen
data_La13Yb3(PrSn4)4
_symmetry_space_group_name_H-M   'P 1'
_cell_length_a   8.30750117
_cell_length_b   8.58910484
_cell_length_c   16.36161218
_cell_angle_alpha   90.01430414
_cell_angle_beta   90.00919680
_cell_angle_gamma   89.89411745
_symmetry_Int_Tables_number   1
_chemical_formula_structural   La13Yb3(PrSn4)4
_chemical_formula_sum   'La13 Yb3 Pr4 Sn16'
_cell_volume   1167.46440603
_cell_formula_units_Z   1
loop_
 _symmetry_equiv_pos_site_id
 _symmetry_equiv_pos_as_xyz
  1  'x, y, z'
loop_
 _atom_site_type_symbol
 _atom_site_label
 _atom_site_symmetry_multiplicity
 _atom_site_fract_x
 _atom_site_fract_y
 _atom_site_fract_z
 _atom_site_occupancy
  La  La0  1  0.852346  0.665733  0.378101  1
  La  La1  1  0.351655  0.830285  0.376170  1
  La  La2  1  0.852187  0.666113  0.122004  1
  La  La3  1  0.648251  0.167838  0.877387  1
  La  La4  1  0.148809  0.331022  0.621950  1
  La  La5  1  0.494114  0.684583  0.597595  1
  La  La6  1  0.999424  0.818097  0.903573  1
  La  La7  1  0.503870  0.316443  0.097099  1
  La  La8  1  0.001371  0.185479  0.403561  1
  La  La9  1  0.503995  0.316543  0.402933  1
  La  La10  1  0.001646  0.185399  0.096371  1
  La  La11  1  0.493912  0.684421  0.902506  1
  La  La12  1  0.999048  0.818204  0.596474  1
  Yb  Yb13  1  0.319009  0.000432  0.750011  1
  Yb  Yb14  1  0.182852  0.496542  0.249956  1
  Yb  Yb15  1  0.680233  0.001643  0.249960  1
  Pr  Pr16  1  0.648326  0.167508  0.622474  1
  Pr  Pr17  1  0.149182  0.331190  0.878221  1
  Pr  Pr18  1  0.351455  0.830414  0.123662  1
  Pr  Pr19  1  0.818843  0.502650  0.749972  1
  Sn  Sn20  1  0.688619  0.962874  0.459780  1
  Sn  Sn21  1  0.194468  0.536052  0.040384  1
  Sn  Sn22  1  0.310455  0.037226  0.961639  1
  Sn  Sn23  1  0.807030  0.464505  0.541956  1
  Sn  Sn24  1  0.311880  0.037225  0.538709  1
  Sn  Sn25  1  0.808402  0.464898  0.958100  1
  Sn  Sn26  1  0.687741  0.962356  0.040711  1
  Sn  Sn27  1  0.194051  0.535857  0.459345  1
  Sn  Sn28  1  0.447439  0.390754  0.750188  1
  Sn  Sn29  1  0.951874  0.106274  0.749816  1
  Sn  Sn30  1  0.550487  0.603978  0.249973  1
  Sn  Sn31  1  0.048366  0.897168  0.249672  1
  Sn  Sn32  1  0.695802  0.860122  0.749843  1
  Sn  Sn33  1  0.194790  0.642550  0.750101  1
  Sn  Sn34  1  0.303418  0.139572  0.249850  1
  Sn  Sn35  1  0.804651  0.358048  0.249955  1
