# generated using pymatgen
data_ErTm15(CdNi)4
_symmetry_space_group_name_H-M   'P 1'
_cell_length_a   9.40812837
_cell_length_b   9.40812957
_cell_length_c   9.40812903
_cell_angle_alpha   60.00687296
_cell_angle_beta   60.00686764
_cell_angle_gamma   60.00687764
_symmetry_Int_Tables_number   1
_chemical_formula_structural   ErTm15(CdNi)4
_chemical_formula_sum   'Er1 Tm15 Cd4 Ni4'
_cell_volume   588.92834373
_cell_formula_units_Z   1
loop_
 _symmetry_equiv_pos_site_id
 _symmetry_equiv_pos_as_xyz
  1  'x, y, z'
loop_
 _atom_site_type_symbol
 _atom_site_label
 _atom_site_symmetry_multiplicity
 _atom_site_fract_x
 _atom_site_fract_y
 _atom_site_fract_z
 _atom_site_occupancy
  Er  Er0  1  0.348267  0.348267  0.348267  1
  Tm  Tm1  1  0.348155  0.348155  0.955339  1
  Tm  Tm2  1  0.348155  0.955339  0.348155  1
  Tm  Tm3  1  0.955339  0.348155  0.348155  1
  Tm  Tm4  1  0.812115  0.187974  0.187974  1
  Tm  Tm5  1  0.188107  0.811938  0.811938  1
  Tm  Tm6  1  0.187974  0.812115  0.187974  1
  Tm  Tm7  1  0.811938  0.188107  0.811938  1
  Tm  Tm8  1  0.187974  0.187974  0.812115  1
  Tm  Tm9  1  0.811938  0.811938  0.188107  1
  Tm  Tm10  1  0.935828  0.564164  0.564164  1
  Tm  Tm11  1  0.564126  0.935853  0.935853  1
  Tm  Tm12  1  0.564164  0.935828  0.564164  1
  Tm  Tm13  1  0.935853  0.564126  0.935853  1
  Tm  Tm14  1  0.564164  0.564164  0.935828  1
  Tm  Tm15  1  0.935853  0.935853  0.564126  1
  Cd  Cd16  1  0.581543  0.581543  0.581543  1
  Cd  Cd17  1  0.581675  0.581675  0.255293  1
  Cd  Cd18  1  0.581675  0.255293  0.581675  1
  Cd  Cd19  1  0.255293  0.581675  0.581675  1
  Ni  Ni20  1  0.142307  0.142307  0.142307  1
  Ni  Ni21  1  0.142124  0.142124  0.573310  1
  Ni  Ni22  1  0.142124  0.573310  0.142124  1
  Ni  Ni23  1  0.573310  0.142124  0.142124  1
