# generated using pymatgen
data_ThPaSbN2
_symmetry_space_group_name_H-M   'P 1'
_cell_length_a   6.97982314
_cell_length_b   6.97982332
_cell_length_c   6.97982300
_cell_angle_alpha   147.14286424
_cell_angle_beta   147.14286659
_cell_angle_gamma   47.15230267
_symmetry_Int_Tables_number   1
_chemical_formula_structural   ThPaSbN2
_chemical_formula_sum   'Th1 Pa1 Sb1 N2'
_cell_volume   99.71465753
_cell_formula_units_Z   1
loop_
 _symmetry_equiv_pos_site_id
 _symmetry_equiv_pos_as_xyz
  1  'x, y, z'
loop_
 _atom_site_type_symbol
 _atom_site_label
 _atom_site_symmetry_multiplicity
 _atom_site_fract_x
 _atom_site_fract_y
 _atom_site_fract_z
 _atom_site_occupancy
  Th  Th0  1  0.345856  0.345856  0.000000  1
  Pa  Pa1  1  0.659728  0.659728  0.000000  1
  Sb  Sb2  1  0.006988  0.006988  0.000000  1
  N  N3  1  0.743714  0.243714  0.500000  1
  N  N4  1  0.243714  0.743714  0.500000  1
