# generated using pymatgen
data_Tb4YSc(Si3Ru)8
_symmetry_space_group_name_H-M   'P 1'
_cell_length_a   10.10883955
_cell_length_b   10.10884031
_cell_length_c   8.14390109
_cell_angle_alpha   90.01309717
_cell_angle_beta   90.01309901
_cell_angle_gamma   132.52713207
_symmetry_Int_Tables_number   1
_chemical_formula_structural   Tb4YSc(Si3Ru)8
_chemical_formula_sum   'Tb4 Y1 Sc1 Si24 Ru8'
_cell_volume   613.30626861
_cell_formula_units_Z   1
loop_
 _symmetry_equiv_pos_site_id
 _symmetry_equiv_pos_as_xyz
  1  'x, y, z'
loop_
 _atom_site_type_symbol
 _atom_site_label
 _atom_site_symmetry_multiplicity
 _atom_site_fract_x
 _atom_site_fract_y
 _atom_site_fract_z
 _atom_site_occupancy
  Tb  Tb0  1  0.002681  0.502363  0.249455  1
  Tb  Tb1  1  0.497637  0.997319  0.750545  1
  Tb  Tb2  1  0.997319  0.497637  0.750545  1
  Tb  Tb3  1  0.502363  0.002681  0.249455  1
  Y  Y4  1  0.500000  0.500000  0.500000  1
  Sc  Sc5  1  0.000000  0.000000  0.000000  1
  Si  Si6  1  0.294336  0.705664  0.000000  1
  Si  Si7  1  0.795153  0.204847  0.500000  1
  Si  Si8  1  0.705664  0.294336  0.000000  1
  Si  Si9  1  0.204847  0.795153  0.500000  1
  Si  Si10  1  0.833594  0.833594  0.330778  1
  Si  Si11  1  0.166406  0.166406  0.669222  1
  Si  Si12  1  0.669777  0.669777  0.834539  1
  Si  Si13  1  0.330223  0.330223  0.165461  1
  Si  Si14  1  0.620990  0.386308  0.227583  1
  Si  Si15  1  0.613692  0.379010  0.772417  1
  Si  Si16  1  0.110729  0.878832  0.730485  1
  Si  Si17  1  0.121168  0.889271  0.269515  1
  Si  Si18  1  0.379010  0.613692  0.772417  1
  Si  Si19  1  0.386308  0.620990  0.227583  1
  Si  Si20  1  0.889271  0.121168  0.269515  1
  Si  Si21  1  0.878832  0.110729  0.730485  1
  Si  Si22  1  0.845675  0.614096  0.004249  1
  Si  Si23  1  0.385904  0.154325  0.995751  1
  Si  Si24  1  0.888456  0.655093  0.504965  1
  Si  Si25  1  0.344907  0.111544  0.495035  1
  Si  Si26  1  0.154325  0.385904  0.995751  1
  Si  Si27  1  0.614096  0.845675  0.004249  1
  Si  Si28  1  0.111544  0.344907  0.495035  1
  Si  Si29  1  0.655093  0.888456  0.504965  1
  Ru  Ru30  1  0.167441  0.832559  0.000000  1
  Ru  Ru31  1  0.668994  0.331006  0.500000  1
  Ru  Ru32  1  0.832559  0.167441  0.000000  1
  Ru  Ru33  1  0.331006  0.668994  0.500000  1
  Ru  Ru34  1  0.625982  0.625982  0.126690  1
  Ru  Ru35  1  0.374018  0.374018  0.873310  1
  Ru  Ru36  1  0.873697  0.873697  0.627785  1
  Ru  Ru37  1  0.126303  0.126303  0.372215  1
