# generated using pymatgen
data_SnRuBr6
_symmetry_space_group_name_H-M   'P 1'
_cell_length_a   6.81683400
_cell_length_b   6.81683450
_cell_length_c   20.76907400
_cell_angle_alpha   90.00000000
_cell_angle_beta   90.00000000
_cell_angle_gamma   119.99999755
_symmetry_Int_Tables_number   1
_chemical_formula_structural   SnRuBr6
_chemical_formula_sum   'Sn3 Ru3 Br18'
_cell_volume   835.82093555
_cell_formula_units_Z   3
loop_
 _symmetry_equiv_pos_site_id
 _symmetry_equiv_pos_as_xyz
  1  'x, y, z'
loop_
 _atom_site_type_symbol
 _atom_site_label
 _atom_site_symmetry_multiplicity
 _atom_site_fract_x
 _atom_site_fract_y
 _atom_site_fract_z
 _atom_site_occupancy
  Sn  Sn0  1  0.555559  0.111118  0.166667  1
  Sn  Sn1  1  0.888882  0.444441  0.500000  1
  Sn  Sn2  1  0.555559  0.444441  0.833333  1
  Ru  Ru3  1  0.222278  0.444557  0.166667  1
  Ru  Ru4  1  0.555443  0.777722  0.500000  1
  Ru  Ru5  1  0.222278  0.777722  0.833333  1
  Br  Br6  1  0.521826  0.770393  0.763991  1
  Br  Br7  1  0.915418  0.770230  0.902769  1
  Br  Br8  1  0.521757  0.084661  0.902769  1
  Br  Br9  1  0.854813  0.770230  0.430564  1
  Br  Br10  1  0.248566  0.478174  0.430657  1
  Br  Br11  1  0.915418  0.145187  0.097231  1
  Br  Br12  1  0.521826  0.751434  0.236009  1
  Br  Br13  1  0.915339  0.478243  0.763897  1
  Br  Br14  1  0.229607  0.478174  0.902676  1
  Br  Br15  1  0.562903  0.478243  0.569436  1
  Br  Br16  1  0.854813  0.084582  0.569436  1
  Br  Br17  1  0.248566  0.770393  0.569343  1
  Br  Br18  1  0.229770  0.145187  0.236102  1
  Br  Br19  1  0.562903  0.084661  0.430564  1
  Br  Br20  1  0.915339  0.437097  0.236103  1
  Br  Br21  1  0.521757  0.437097  0.097231  1
  Br  Br22  1  0.229770  0.084582  0.763898  1
  Br  Br23  1  0.229607  0.751434  0.097324  1
