# generated using pymatgen
data_TbY5Mg2(Co4P3)4
_symmetry_space_group_name_H-M   'P 1'
_cell_length_a   3.73575700
_cell_length_b   10.64441000
_cell_length_c   12.28490900
_cell_angle_alpha   90.00000000
_cell_angle_beta   90.00000000
_cell_angle_gamma   90.00000000
_symmetry_Int_Tables_number   1
_chemical_formula_structural   TbY5Mg2(Co4P3)4
_chemical_formula_sum   'Tb1 Y5 Mg2 Co16 P12'
_cell_volume   488.50853622
_cell_formula_units_Z   1
loop_
 _symmetry_equiv_pos_site_id
 _symmetry_equiv_pos_as_xyz
  1  'x, y, z'
loop_
 _atom_site_type_symbol
 _atom_site_label
 _atom_site_symmetry_multiplicity
 _atom_site_fract_x
 _atom_site_fract_y
 _atom_site_fract_z
 _atom_site_occupancy
  Tb  Tb0  1  0.500000  0.000000  0.473935  1
  Y  Y1  1  0.000000  0.500000  0.525888  1
  Y  Y2  1  0.500000  0.821773  0.205999  1
  Y  Y3  1  0.500000  0.178227  0.205999  1
  Y  Y4  1  0.000000  0.678113  0.793969  1
  Y  Y5  1  0.000000  0.321887  0.793969  1
  Mg  Mg6  1  0.500000  0.500000  0.156253  1
  Mg  Mg7  1  0.000000  0.000000  0.843728  1
  Co  Co8  1  0.500000  0.500000  0.705223  1
  Co  Co9  1  0.000000  0.000000  0.294770  1
  Co  Co10  1  0.000000  0.500000  0.988977  1
  Co  Co11  1  0.500000  0.000000  0.011020  1
  Co  Co12  1  0.500000  0.332571  0.996682  1
  Co  Co13  1  0.500000  0.667429  0.996682  1
  Co  Co14  1  0.000000  0.167558  0.003275  1
  Co  Co15  1  0.000000  0.832442  0.003275  1
  Co  Co16  1  0.500000  0.296336  0.432021  1
  Co  Co17  1  0.500000  0.703664  0.432021  1
  Co  Co18  1  0.000000  0.203834  0.568007  1
  Co  Co19  1  0.000000  0.796166  0.568007  1
  Co  Co20  1  0.500000  0.877905  0.705541  1
  Co  Co21  1  0.500000  0.122095  0.705541  1
  Co  Co22  1  0.000000  0.622034  0.294522  1
  Co  Co23  1  0.000000  0.377966  0.294522  1
  P  P24  1  0.500000  0.500000  0.885300  1
  P  P25  1  0.000000  0.000000  0.114667  1
  P  P26  1  0.500000  0.500000  0.354905  1
  P  P27  1  0.000000  0.000000  0.645254  1
  P  P28  1  0.500000  0.309388  0.615415  1
  P  P29  1  0.500000  0.690612  0.615415  1
  P  P30  1  0.000000  0.190776  0.384631  1
  P  P31  1  0.000000  0.809224  0.384631  1
  P  P32  1  0.500000  0.839085  0.893174  1
  P  P33  1  0.500000  0.160915  0.893174  1
  P  P34  1  0.000000  0.660863  0.106806  1
  P  P35  1  0.000000  0.339137  0.106806  1
