# generated using pymatgen
data_Tb3NbB4(Ru5W)2
_symmetry_space_group_name_H-M   'P 1'
_cell_length_a   9.60312255
_cell_length_b   9.60312351
_cell_length_c   3.08846900
_cell_angle_alpha   90.00000000
_cell_angle_beta   90.00000000
_cell_angle_gamma   90.27401399
_symmetry_Int_Tables_number   1
_chemical_formula_structural   Tb3NbB4(Ru5W)2
_chemical_formula_sum   'Tb3 Nb1 B4 Ru10 W2'
_cell_volume   284.81526738
_cell_formula_units_Z   1
loop_
 _symmetry_equiv_pos_site_id
 _symmetry_equiv_pos_as_xyz
  1  'x, y, z'
loop_
 _atom_site_type_symbol
 _atom_site_label
 _atom_site_symmetry_multiplicity
 _atom_site_fract_x
 _atom_site_fract_y
 _atom_site_fract_z
 _atom_site_occupancy
  Tb  Tb0  1  0.823928  0.675071  0.000000  1
  Tb  Tb1  1  0.175071  0.323928  0.000000  1
  Tb  Tb2  1  0.325412  0.825412  0.000000  1
  Nb  Nb3  1  0.676223  0.176223  0.000000  1
  B  B4  1  0.622851  0.882340  0.000000  1
  B  B5  1  0.382340  0.122851  0.000000  1
  B  B6  1  0.117971  0.617971  0.000000  1
  B  B7  1  0.876158  0.376158  0.000000  1
  Ru  Ru8  1  0.570112  0.719514  0.500000  1
  Ru  Ru9  1  0.440567  0.282693  0.500000  1
  Ru  Ru10  1  0.068168  0.782820  0.500000  1
  Ru  Ru11  1  0.918049  0.211594  0.500000  1
  Ru  Ru12  1  0.282820  0.568168  0.500000  1
  Ru  Ru13  1  0.711594  0.418049  0.500000  1
  Ru  Ru14  1  0.219514  0.070112  0.500000  1
  Ru  Ru15  1  0.782693  0.940567  0.500000  1
  Ru  Ru16  1  0.509424  0.009424  0.500000  1
  Ru  Ru17  1  0.996108  0.496108  0.500000  1
  W  W18  1  0.498146  0.502851  0.000000  1
  W  W19  1  0.002851  0.998146  0.000000  1
