# generated using pymatgen
data_Eu4AlCu5Au12
_symmetry_space_group_name_H-M   'P 1'
_cell_length_a   8.73275852
_cell_length_b   8.71588303
_cell_length_c   8.71588494
_cell_angle_alpha   57.60170082
_cell_angle_beta   57.64450821
_cell_angle_gamma   57.64450509
_symmetry_Int_Tables_number   1
_chemical_formula_structural   Eu4AlCu5Au12
_chemical_formula_sum   'Eu4 Al1 Cu5 Au12'
_cell_volume   443.54340709
_cell_formula_units_Z   1
loop_
 _symmetry_equiv_pos_site_id
 _symmetry_equiv_pos_as_xyz
  1  'x, y, z'
loop_
 _atom_site_type_symbol
 _atom_site_label
 _atom_site_symmetry_multiplicity
 _atom_site_fract_x
 _atom_site_fract_y
 _atom_site_fract_z
 _atom_site_occupancy
  Eu  Eu0  1  0.904326  0.906464  0.912521  1
  Eu  Eu1  1  0.408452  0.410016  0.408122  1
  Eu  Eu2  1  0.091548  0.091878  0.089984  1
  Eu  Eu3  1  0.595674  0.587479  0.593536  1
  Al  Al4  1  0.250000  0.071982  0.428018  1
  Cu  Cu5  1  0.572960  0.750286  0.926010  1
  Cu  Cu6  1  0.927040  0.573990  0.749714  1
  Cu  Cu7  1  0.750000  0.926539  0.573461  1
  Cu  Cu8  1  0.426527  0.251550  0.071703  1
  Cu  Cu9  1  0.073473  0.428297  0.248450  1
  Au  Au10  1  0.479400  0.862493  0.203837  1
  Au  Au11  1  0.203863  0.478983  0.861879  1
  Au  Au12  1  0.862838  0.203566  0.478789  1
  Au  Au13  1  0.704278  0.362688  0.979279  1
  Au  Au14  1  0.979519  0.704708  0.363205  1
  Au  Au15  1  0.364162  0.976287  0.700215  1
  Au  Au16  1  0.520481  0.136795  0.795292  1
  Au  Au17  1  0.795722  0.520721  0.137312  1
  Au  Au18  1  0.135838  0.799785  0.523713  1
  Au  Au19  1  0.296137  0.638121  0.021017  1
  Au  Au20  1  0.020600  0.296163  0.637507  1
  Au  Au21  1  0.637162  0.021211  0.296434  1
