# generated using pymatgen
data_Zr6Al4FeNiC2
_symmetry_space_group_name_H-M   'P 1'
_cell_length_a   8.61555792
_cell_length_b   8.59522257
_cell_length_c   8.59522210
_cell_angle_alpha   59.89374783
_cell_angle_beta   59.92170492
_cell_angle_gamma   59.92170589
_symmetry_Int_Tables_number   1
_chemical_formula_structural   Zr6Al4FeNiC2
_chemical_formula_sum   'Zr12 Al8 Fe2 Ni2 C4'
_cell_volume   449.17806889
_cell_formula_units_Z   2
loop_
 _symmetry_equiv_pos_site_id
 _symmetry_equiv_pos_as_xyz
  1  'x, y, z'
loop_
 _atom_site_type_symbol
 _atom_site_label
 _atom_site_symmetry_multiplicity
 _atom_site_fract_x
 _atom_site_fract_y
 _atom_site_fract_z
 _atom_site_occupancy
  Zr  Zr0  1  0.947875  0.947606  0.549632  1
  Zr  Zr1  1  0.698968  0.301032  0.301032  1
  Zr  Zr2  1  0.303857  0.696143  0.696143  1
  Zr  Zr3  1  0.695112  0.700368  0.302394  1
  Zr  Zr4  1  0.695112  0.302394  0.700368  1
  Zr  Zr5  1  0.302125  0.700368  0.302394  1
  Zr  Zr6  1  0.554888  0.947606  0.549632  1
  Zr  Zr7  1  0.551032  0.948968  0.948968  1
  Zr  Zr8  1  0.946143  0.553857  0.553857  1
  Zr  Zr9  1  0.947875  0.549632  0.947606  1
  Zr  Zr10  1  0.302125  0.302394  0.700368  1
  Zr  Zr11  1  0.554888  0.549632  0.947606  1
  Al  Al12  1  0.919985  0.236457  0.923572  1
  Al  Al13  1  0.330015  0.326428  0.013543  1
  Al  Al14  1  0.012262  0.328104  0.328104  1
  Al  Al15  1  0.331531  0.328104  0.328104  1
  Al  Al16  1  0.237738  0.921896  0.921896  1
  Al  Al17  1  0.918469  0.921896  0.921896  1
  Al  Al18  1  0.919985  0.923572  0.236457  1
  Al  Al19  1  0.330015  0.013543  0.326428  1
  Fe  Fe20  1  0.625000  0.125000  0.125000  1
  Fe  Fe21  1  0.125000  0.125000  0.125000  1
  Ni  Ni22  1  0.125000  0.625000  0.125000  1
  Ni  Ni23  1  0.125000  0.125000  0.625000  1
  C  C24  1  0.625000  0.125000  0.625000  1
  C  C25  1  0.625000  0.625000  0.125000  1
  C  C26  1  0.125000  0.625000  0.625000  1
  C  C27  1  0.625000  0.625000  0.625000  1
