# generated using pymatgen
data_Dy2Lu6Ta11Si16W
_symmetry_space_group_name_H-M   'P 1'
_cell_length_a   6.98539878
_cell_length_b   6.98452347
_cell_length_c   12.90368581
_cell_angle_alpha   89.89282095
_cell_angle_beta   89.88495128
_cell_angle_gamma   90.00743418
_symmetry_Int_Tables_number   1
_chemical_formula_structural   Dy2Lu6Ta11Si16W
_chemical_formula_sum   'Dy2 Lu6 Ta11 Si16 W1'
_cell_volume   629.56434695
_cell_formula_units_Z   1
loop_
 _symmetry_equiv_pos_site_id
 _symmetry_equiv_pos_as_xyz
  1  'x, y, z'
loop_
 _atom_site_type_symbol
 _atom_site_label
 _atom_site_symmetry_multiplicity
 _atom_site_fract_x
 _atom_site_fract_y
 _atom_site_fract_z
 _atom_site_occupancy
  Dy  Dy0  1  0.497311  0.840908  0.719935  1
  Dy  Dy1  1  0.341093  0.003377  0.468270  1
  Lu  Lu2  1  0.997441  0.657978  0.030560  1
  Lu  Lu3  1  0.000829  0.341945  0.531721  1
  Lu  Lu4  1  0.658915  0.999012  0.968952  1
  Lu  Lu5  1  0.158280  0.502120  0.782033  1
  Lu  Lu6  1  0.841457  0.498725  0.280326  1
  Lu  Lu7  1  0.502019  0.158704  0.217841  1
  Ta  Ta8  1  0.347305  0.505618  0.375250  1
  Ta  Ta9  1  0.847087  0.993320  0.372658  1
  Ta  Ta10  1  0.004812  0.153286  0.124855  1
  Ta  Ta11  1  0.992696  0.845071  0.627276  1
  Ta  Ta12  1  0.506966  0.348057  0.624084  1
  Ta  Ta13  1  0.151780  0.006964  0.874746  1
  Ta  Ta14  1  0.672317  0.670785  0.500241  1
  Ta  Ta15  1  0.827771  0.171926  0.751083  1
  Ta  Ta16  1  0.171105  0.828074  0.249592  1
  Ta  Ta17  1  0.329150  0.329854  0.999870  1
  Ta  Ta18  1  0.494530  0.651775  0.123505  1
  Si  Si19  1  0.043465  0.702167  0.435905  1
  Si  Si20  1  0.953108  0.297421  0.935728  1
  Si  Si21  1  0.707174  0.046049  0.563691  1
  Si  Si22  1  0.203355  0.455220  0.185650  1
  Si  Si23  1  0.796333  0.543090  0.688027  1
  Si  Si24  1  0.456507  0.208787  0.814951  1
  Si  Si25  1  0.545551  0.795404  0.313042  1
  Si  Si26  1  0.296208  0.954663  0.063900  1
  Si  Si27  1  0.796615  0.863522  0.179800  1
  Si  Si28  1  0.294602  0.632888  0.568619  1
  Si  Si29  1  0.703356  0.364414  0.068103  1
  Si  Si30  1  0.637591  0.297659  0.430893  1
  Si  Si31  1  0.367110  0.701610  0.931092  1
  Si  Si32  1  0.134161  0.205536  0.317754  1
  Si  Si33  1  0.202815  0.136889  0.682237  1
  Si  Si34  1  0.864780  0.793564  0.820992  1
  W  W35  1  0.654405  0.493619  0.876818  1
