# generated using pymatgen
data_Ir(SCl6)2
_symmetry_space_group_name_H-M   'P 1'
_cell_length_a   8.34613156
_cell_length_b   8.34613220
_cell_length_c   8.34613202
_cell_angle_alpha   78.58471829
_cell_angle_beta   78.58471978
_cell_angle_gamma   78.58471506
_symmetry_Int_Tables_number   1
_chemical_formula_structural   Ir(SCl6)2
_chemical_formula_sum   'Ir1 S2 Cl12'
_cell_volume   550.92378136
_cell_formula_units_Z   1
loop_
 _symmetry_equiv_pos_site_id
 _symmetry_equiv_pos_as_xyz
  1  'x, y, z'
loop_
 _atom_site_type_symbol
 _atom_site_label
 _atom_site_symmetry_multiplicity
 _atom_site_fract_x
 _atom_site_fract_y
 _atom_site_fract_z
 _atom_site_occupancy
  Ir  Ir0  1  0.000000  0.000000  0.000000  1
  S  S1  1  0.207868  0.207868  0.207868  1
  S  S2  1  0.792132  0.792132  0.792132  1
  Cl  Cl3  1  0.835814  0.835814  0.538545  1
  Cl  Cl4  1  0.872845  0.183721  0.183721  1
  Cl  Cl5  1  0.183721  0.183721  0.872845  1
  Cl  Cl6  1  0.183721  0.872845  0.183721  1
  Cl  Cl7  1  0.816279  0.127155  0.816279  1
  Cl  Cl8  1  0.127155  0.816279  0.816279  1
  Cl  Cl9  1  0.816279  0.816279  0.127155  1
  Cl  Cl10  1  0.461455  0.164186  0.164186  1
  Cl  Cl11  1  0.164186  0.164186  0.461455  1
  Cl  Cl12  1  0.164186  0.461455  0.164186  1
  Cl  Cl13  1  0.835814  0.538545  0.835814  1
  Cl  Cl14  1  0.538545  0.835814  0.835814  1
