# generated using pymatgen
data_Ca5Ce(PaH12)2
_symmetry_space_group_name_H-M   'P 1'
_cell_length_a   6.71428000
_cell_length_b   6.81096400
_cell_length_c   6.71428000
_cell_angle_alpha   90.00000000
_cell_angle_beta   90.00000000
_cell_angle_gamma   90.00000000
_symmetry_Int_Tables_number   1
_chemical_formula_structural   Ca5Ce(PaH12)2
_chemical_formula_sum   'Ca5 Ce1 Pa2 H24'
_cell_volume   307.04885442
_cell_formula_units_Z   1
loop_
 _symmetry_equiv_pos_site_id
 _symmetry_equiv_pos_as_xyz
  1  'x, y, z'
loop_
 _atom_site_type_symbol
 _atom_site_label
 _atom_site_symmetry_multiplicity
 _atom_site_fract_x
 _atom_site_fract_y
 _atom_site_fract_z
 _atom_site_occupancy
  Ca  Ca0  1  0.246659  0.996521  0.500000  1
  Ca  Ca1  1  0.753341  0.996521  0.500000  1
  Ca  Ca2  1  0.000000  0.503479  0.253341  1
  Ca  Ca3  1  0.000000  0.503479  0.746659  1
  Ca  Ca4  1  0.500000  0.750000  0.000000  1
  Ce  Ce5  1  0.500000  0.250000  0.000000  1
  Pa  Pa6  1  0.000000  0.000547  0.000000  1
  Pa  Pa7  1  0.500000  0.499453  0.500000  1
  H  H8  1  0.000000  0.151845  0.285051  1
  H  H9  1  0.500000  0.213709  0.660937  1
  H  H10  1  0.500000  0.781293  0.347770  1
  H  H11  1  0.787266  0.650183  0.500000  1
  H  H12  1  0.212734  0.650183  0.500000  1
  H  H13  1  0.352245  0.485212  0.801485  1
  H  H14  1  0.647755  0.485212  0.801485  1
  H  H15  1  0.301485  0.014788  0.147755  1
  H  H16  1  0.160937  0.286291  0.000000  1
  H  H17  1  0.847770  0.718707  0.000000  1
  H  H18  1  0.301485  0.014788  0.852245  1
  H  H19  1  0.839063  0.286291  0.000000  1
  H  H20  1  0.698515  0.014788  0.147755  1
  H  H21  1  0.698515  0.014788  0.852245  1
  H  H22  1  0.152230  0.718707  0.000000  1
  H  H23  1  0.000000  0.849817  0.712734  1
  H  H24  1  0.000000  0.151845  0.714949  1
  H  H25  1  0.000000  0.849817  0.287266  1
  H  H26  1  0.647755  0.485212  0.198515  1
  H  H27  1  0.352245  0.485212  0.198515  1
  H  H28  1  0.785051  0.348155  0.500000  1
  H  H29  1  0.214949  0.348155  0.500000  1
  H  H30  1  0.500000  0.781293  0.652230  1
  H  H31  1  0.500000  0.213709  0.339063  1
