# generated using pymatgen
data_Yb6Ag2Os
_symmetry_space_group_name_H-M   'P 1'
_cell_length_a   8.00341500
_cell_length_b   8.00341464
_cell_length_c   4.31284700
_cell_angle_alpha   90.00000000
_cell_angle_beta   90.00000000
_cell_angle_gamma   120.00000563
_symmetry_Int_Tables_number   1
_chemical_formula_structural   Yb6Ag2Os
_chemical_formula_sum   'Yb6 Ag2 Os1'
_cell_volume   239.24634561
_cell_formula_units_Z   1
loop_
 _symmetry_equiv_pos_site_id
 _symmetry_equiv_pos_as_xyz
  1  'x, y, z'
loop_
 _atom_site_type_symbol
 _atom_site_label
 _atom_site_symmetry_multiplicity
 _atom_site_fract_x
 _atom_site_fract_y
 _atom_site_fract_z
 _atom_site_occupancy
  Yb  Yb0  1  0.759733  0.000000  0.000000  1
  Yb  Yb1  1  0.240268  0.240267  0.000000  1
  Yb  Yb2  1  0.000000  0.759733  0.000000  1
  Yb  Yb3  1  0.393454  0.000000  0.500001  1
  Yb  Yb4  1  0.000000  0.393454  0.500001  1
  Yb  Yb5  1  0.606546  0.606546  0.500001  1
  Ag  Ag6  1  0.666667  0.333333  0.000000  1
  Ag  Ag7  1  0.333333  0.666666  0.000000  1
  Os  Os8  1  0.000000  0.000000  0.500001  1
