# generated using pymatgen
data_FeTeBr5Cl2
_symmetry_space_group_name_H-M   'P 1'
_cell_length_a   6.97175289
_cell_length_b   9.03935166
_cell_length_c   10.83007108
_cell_angle_alpha   85.09028605
_cell_angle_beta   76.61289374
_cell_angle_gamma   83.30544122
_symmetry_Int_Tables_number   1
_chemical_formula_structural   FeTeBr5Cl2
_chemical_formula_sum   'Fe2 Te2 Br10 Cl4'
_cell_volume   658.22633779
_cell_formula_units_Z   2
loop_
 _symmetry_equiv_pos_site_id
 _symmetry_equiv_pos_as_xyz
  1  'x, y, z'
loop_
 _atom_site_type_symbol
 _atom_site_label
 _atom_site_symmetry_multiplicity
 _atom_site_fract_x
 _atom_site_fract_y
 _atom_site_fract_z
 _atom_site_occupancy
  Fe  Fe0  1  0.496992  0.126309  0.126120  1
  Fe  Fe1  1  0.759713  0.556990  0.552690  1
  Te  Te2  1  0.957131  0.492735  0.088772  1
  Te  Te3  1  0.201600  0.933986  0.535004  1
  Br  Br4  1  0.081341  0.731494  0.126932  1
  Br  Br5  1  0.186407  0.458801  0.874350  1
  Br  Br6  1  0.665698  0.616162  0.006472  1
  Br  Br7  1  0.094652  0.611903  0.507076  1
  Br  Br8  1  0.547526  0.762305  0.646094  1
  Br  Br9  1  0.673638  0.499858  0.363146  1
  Br  Br10  1  0.718430  0.352889  0.695122  1
  Br  Br11  1  0.336879  0.173575  0.561233  1
  Br  Br12  1  0.991198  0.922007  0.757484  1
  Br  Br13  1  0.929156  0.046204  0.427534  1
  Cl  Cl14  1  0.807508  0.188757  0.078445  1
  Cl  Cl15  1  0.290593  0.321031  0.201315  1
  Cl  Cl16  1  0.478147  0.937141  0.274613  1
  Cl  Cl17  1  0.423793  0.051154  0.960096  1
