# generated using pymatgen
data_NpU3(BeB4)4
_symmetry_space_group_name_H-M   'P 1'
_cell_length_a   6.65629243
_cell_length_b   6.65629654
_cell_length_c   6.65629539
_cell_angle_alpha   113.68741641
_cell_angle_beta   113.69086645
_cell_angle_gamma   101.32948679
_symmetry_Int_Tables_number   1
_chemical_formula_structural   NpU3(BeB4)4
_chemical_formula_sum   'Np1 U3 Be4 B16'
_cell_volume   223.65777187
_cell_formula_units_Z   1
loop_
 _symmetry_equiv_pos_site_id
 _symmetry_equiv_pos_as_xyz
  1  'x, y, z'
loop_
 _atom_site_type_symbol
 _atom_site_label
 _atom_site_symmetry_multiplicity
 _atom_site_fract_x
 _atom_site_fract_y
 _atom_site_fract_z
 _atom_site_occupancy
  Np  Np0  1  0.196351  0.196350  0.999999  1
  U  U1  1  0.805712  0.805713  0.000000  1
  U  U2  1  0.749451  0.249451  0.499999  1
  U  U3  1  0.249459  0.749457  0.499999  1
  Be  Be4  1  0.500258  0.280768  0.780511  1
  Be  Be5  1  0.500258  0.719749  0.219490  1
  Be  Be6  1  0.719798  0.500303  0.219495  1
  Be  Be7  1  0.280808  0.500303  0.780505  1
  B  B8  1  0.113345  0.283267  0.396755  1
  B  B9  1  0.886512  0.716589  0.603245  1
  B  B10  1  0.886512  0.283267  0.169923  1
  B  B11  1  0.113344  0.716589  0.830077  1
  B  B12  1  0.716563  0.886461  0.603242  1
  B  B13  1  0.283218  0.113322  0.396758  1
  B  B14  1  0.716563  0.113322  0.830104  1
  B  B15  1  0.283219  0.886461  0.169897  1
  B  B16  1  0.426192  0.426239  0.542823  1
  B  B17  1  0.883416  0.883369  0.457177  1
  B  B18  1  0.574455  0.115193  0.999941  1
  B  B19  1  0.115251  0.574514  0.000059  1
  B  B20  1  0.574455  0.574514  0.459263  1
  B  B21  1  0.115253  0.115193  0.540739  1
  B  B22  1  0.883416  0.426239  0.000047  1
  B  B23  1  0.426192  0.883369  0.999953  1
