# generated using pymatgen
data_Y8TmThOs4
_symmetry_space_group_name_H-M   'P 1'
_cell_length_a   6.51286075
_cell_length_b   7.23201631
_cell_length_c   8.64874800
_cell_angle_alpha   96.89458477
_cell_angle_beta   112.11832416
_cell_angle_gamma   89.99999377
_symmetry_Int_Tables_number   1
_chemical_formula_structural   Y8TmThOs4
_chemical_formula_sum   'Y8 Tm1 Th1 Os4'
_cell_volume   374.20522062
_cell_formula_units_Z   1
loop_
 _symmetry_equiv_pos_site_id
 _symmetry_equiv_pos_as_xyz
  1  'x, y, z'
loop_
 _atom_site_type_symbol
 _atom_site_label
 _atom_site_symmetry_multiplicity
 _atom_site_fract_x
 _atom_site_fract_y
 _atom_site_fract_z
 _atom_site_occupancy
  Y  Y0  1  0.972739  0.921101  0.182484  1
  Y  Y1  1  0.790254  0.578899  0.817516  1
  Y  Y2  1  0.020802  0.087196  0.816014  1
  Y  Y3  1  0.204790  0.412804  0.183986  1
  Y  Y4  1  0.654359  0.816558  0.441018  1
  Y  Y5  1  0.213340  0.683442  0.558982  1
  Y  Y6  1  0.354449  0.183272  0.563854  1
  Y  Y7  1  0.790594  0.316728  0.436146  1
  Tm  Tm8  1  0.568743  0.250000  0.000000  1
  Th  Th9  1  0.425440  0.750000  0.000000  1
  Os  Os10  1  0.817469  0.572173  0.214609  1
  Os  Os11  1  0.602860  0.927827  0.785391  1
  Os  Os12  1  0.183424  0.432645  0.782689  1
  Os  Os13  1  0.400736  0.067355  0.217311  1
