# generated using pymatgen
data_Sc4Al3Ga3Os2
_symmetry_space_group_name_H-M   'P 1'
_cell_length_a   5.27008100
_cell_length_b   5.24184698
_cell_length_c   8.58574900
_cell_angle_alpha   90.00000000
_cell_angle_beta   90.00000000
_cell_angle_gamma   120.17835595
_symmetry_Int_Tables_number   1
_chemical_formula_structural   Sc4Al3Ga3Os2
_chemical_formula_sum   'Sc4 Al3 Ga3 Os2'
_cell_volume   205.03457947
_cell_formula_units_Z   1
loop_
 _symmetry_equiv_pos_site_id
 _symmetry_equiv_pos_as_xyz
  1  'x, y, z'
loop_
 _atom_site_type_symbol
 _atom_site_label
 _atom_site_symmetry_multiplicity
 _atom_site_fract_x
 _atom_site_fract_y
 _atom_site_fract_z
 _atom_site_occupancy
  Sc  Sc0  1  0.333469  0.666938  0.053374  1
  Sc  Sc1  1  0.668222  0.336445  0.554964  1
  Sc  Sc2  1  0.333469  0.666938  0.446626  1
  Sc  Sc3  1  0.668222  0.336445  0.945036  1
  Al  Al4  1  0.328336  0.159568  0.250000  1
  Al  Al5  1  0.831233  0.159568  0.250000  1
  Al  Al6  1  0.163853  0.327706  0.750000  1
  Ga  Ga7  1  0.830577  0.661154  0.250000  1
  Ga  Ga8  1  0.164254  0.827777  0.750000  1
  Ga  Ga9  1  0.663523  0.827777  0.750000  1
  Os  Os10  1  0.007421  0.014842  0.499471  1
  Os  Os11  1  0.007421  0.014842  0.000529  1
