# generated using pymatgen
data_Ca2YbRuC4
_symmetry_space_group_name_H-M   'P 1'
_cell_length_a   7.95300747
_cell_length_b   7.95300846
_cell_length_c   4.75345092
_cell_angle_alpha   103.92618055
_cell_angle_beta   103.92618473
_cell_angle_gamma   25.59903245
_symmetry_Int_Tables_number   1
_chemical_formula_structural   Ca2YbRuC4
_chemical_formula_sum   'Ca2 Yb1 Ru1 C4'
_cell_volume   125.88660907
_cell_formula_units_Z   1
loop_
 _symmetry_equiv_pos_site_id
 _symmetry_equiv_pos_as_xyz
  1  'x, y, z'
loop_
 _atom_site_type_symbol
 _atom_site_label
 _atom_site_symmetry_multiplicity
 _atom_site_fract_x
 _atom_site_fract_y
 _atom_site_fract_z
 _atom_site_occupancy
  Ca  Ca0  1  0.169253  0.169253  0.217826  1
  Ca  Ca1  1  0.830747  0.830747  0.782175  1
  Yb  Yb2  1  0.000000  0.000000  0.499999  1
  Ru  Ru3  1  0.500000  0.500000  0.000000  1
  C  C4  1  0.396919  0.396919  0.183919  1
  C  C5  1  0.339602  0.339602  0.341514  1
  C  C6  1  0.660398  0.660398  0.658487  1
  C  C7  1  0.603081  0.603081  0.816081  1
