# generated using pymatgen
data_ReSi12(P4Rh)3
_symmetry_space_group_name_H-M   'P 1'
_cell_length_a   5.87061714
_cell_length_b   6.12319408
_cell_length_c   13.12776548
_cell_angle_alpha   90.47167688
_cell_angle_beta   90.57517721
_cell_angle_gamma   92.13606613
_symmetry_Int_Tables_number   1
_chemical_formula_structural   ReSi12(P4Rh)3
_chemical_formula_sum   'Re1 Si12 P12 Rh3'
_cell_volume   471.53367896
_cell_formula_units_Z   1
loop_
 _symmetry_equiv_pos_site_id
 _symmetry_equiv_pos_as_xyz
  1  'x, y, z'
loop_
 _atom_site_type_symbol
 _atom_site_label
 _atom_site_symmetry_multiplicity
 _atom_site_fract_x
 _atom_site_fract_y
 _atom_site_fract_z
 _atom_site_occupancy
  Re  Re0  1  0.997431  0.491438  0.378098  1
  Si  Si1  1  0.014222  0.131863  0.312237  1
  Si  Si2  1  0.463733  0.841615  0.682921  1
  Si  Si3  1  0.921748  0.618406  0.210681  1
  Si  Si4  1  0.432036  0.375083  0.787614  1
  Si  Si5  1  0.345105  0.915635  0.951451  1
  Si  Si6  1  0.841709  0.084618  0.046031  1
  Si  Si7  1  0.914578  0.523222  0.673809  1
  Si  Si8  1  0.403519  0.486829  0.330199  1
  Si  Si9  1  0.993234  0.057738  0.567835  1
  Si  Si10  1  0.504340  0.949718  0.431274  1
  Si  Si11  1  0.914878  0.624115  0.926618  1
  Si  Si12  1  0.404431  0.378604  0.074634  1
  P  P13  1  0.580533  0.033837  0.826395  1
  P  P14  1  0.081461  0.957378  0.166560  1
  P  P15  1  0.519453  0.564571  0.932981  1
  P  P16  1  0.014492  0.435212  0.067226  1
  P  P17  1  0.606658  0.120219  0.577538  1
  P  P18  1  0.115902  0.864668  0.424739  1
  P  P19  1  0.535972  0.654048  0.181371  1
  P  P20  1  0.043672  0.355532  0.818299  1
  P  P21  1  0.604031  0.159419  0.294832  1
  P  P22  1  0.076427  0.866712  0.708330  1
  P  P23  1  0.143253  0.400632  0.551668  1
  P  P24  1  0.648641  0.614971  0.454179  1
  Rh  Rh25  1  0.968520  0.984793  0.877965  1
  Rh  Rh26  1  0.472447  0.021444  0.122414  1
  Rh  Rh27  1  0.531375  0.487678  0.622098  1
