# generated using pymatgen
data_Tm2Ta2Ni10P7
_symmetry_space_group_name_H-M   'P 1'
_cell_length_a   9.24209448
_cell_length_b   9.14932727
_cell_length_c   3.68162400
_cell_angle_alpha   90.00000000
_cell_angle_beta   90.00000000
_cell_angle_gamma   120.02067387
_symmetry_Int_Tables_number   1
_chemical_formula_structural   Tm2Ta2Ni10P7
_chemical_formula_sum   'Tm2 Ta2 Ni10 P7'
_cell_volume   269.54986519
_cell_formula_units_Z   1
loop_
 _symmetry_equiv_pos_site_id
 _symmetry_equiv_pos_as_xyz
  1  'x, y, z'
loop_
 _atom_site_type_symbol
 _atom_site_label
 _atom_site_symmetry_multiplicity
 _atom_site_fract_x
 _atom_site_fract_y
 _atom_site_fract_z
 _atom_site_occupancy
  Tm  Tm0  1  0.340782  0.667323  0.000000  1
  Tm  Tm1  1  0.665747  0.336354  0.500001  1
  Ta  Ta2  1  0.218892  0.099323  0.500001  1
  Ta  Ta3  1  0.897870  0.118559  0.500001  1
  Ni  Ni4  1  0.431859  0.061020  0.000000  1
  Ni  Ni5  1  0.158173  0.288918  0.000000  1
  Ni  Ni6  1  0.936371  0.373868  0.000000  1
  Ni  Ni7  1  0.632376  0.565289  0.000000  1
  Ni  Ni8  1  0.122625  0.836840  0.000000  1
  Ni  Ni9  1  0.717868  0.872636  0.000000  1
  Ni  Ni10  1  0.388763  0.443899  0.500001  1
  Ni  Ni11  1  0.048562  0.614361  0.500001  1
  Ni  Ni12  1  0.874239  0.774763  0.500001  1
  Ni  Ni13  1  0.558727  0.942391  0.500001  1
  P  P14  1  0.995951  0.991145  0.000000  1
  P  P15  1  0.696515  0.114928  0.000000  1
  P  P16  1  0.414307  0.302850  0.000000  1
  P  P17  1  0.884853  0.590793  0.000000  1
  P  P18  1  0.123476  0.416079  0.500001  1
  P  P19  1  0.599411  0.711696  0.500001  1
  P  P20  1  0.292633  0.876966  0.500001  1
