# generated using pymatgen
data_Y12ZnCo4Hg
_symmetry_space_group_name_H-M   'P 1'
_cell_length_a   8.33946054
_cell_length_b   8.33946006
_cell_length_c   8.33946013
_cell_angle_alpha   112.05433227
_cell_angle_beta   109.55143233
_cell_angle_gamma   106.84966864
_symmetry_Int_Tables_number   1
_chemical_formula_structural   Y12ZnCo4Hg
_chemical_formula_sum   'Y12 Zn1 Co4 Hg1'
_cell_volume   445.54920977
_cell_formula_units_Z   1
loop_
 _symmetry_equiv_pos_site_id
 _symmetry_equiv_pos_as_xyz
  1  'x, y, z'
loop_
 _atom_site_type_symbol
 _atom_site_label
 _atom_site_symmetry_multiplicity
 _atom_site_fract_x
 _atom_site_fract_y
 _atom_site_fract_z
 _atom_site_occupancy
  Y  Y0  1  0.430106  0.234496  0.195610  1
  Y  Y1  1  0.569894  0.765504  0.804390  1
  Y  Y2  1  0.038888  0.234496  0.804390  1
  Y  Y3  1  0.961112  0.765504  0.195610  1
  Y  Y4  1  0.180127  0.281249  0.461376  1
  Y  Y5  1  0.819873  0.718751  0.538624  1
  Y  Y6  1  0.180127  0.718751  0.898878  1
  Y  Y7  1  0.819873  0.281249  0.101122  1
  Y  Y8  1  0.325381  0.638001  0.312620  1
  Y  Y9  1  0.674619  0.361999  0.687380  1
  Y  Y10  1  0.325381  0.012761  0.687380  1
  Y  Y11  1  0.674619  0.987239  0.312620  1
  Zn  Zn12  1  0.000000  0.000000  0.000000  1
  Co  Co13  1  0.340894  0.000000  0.340894  1
  Co  Co14  1  0.659106  0.000000  0.659106  1
  Co  Co15  1  0.112962  0.612962  0.500000  1
  Co  Co16  1  0.887038  0.387038  0.500000  1
  Hg  Hg17  1  0.500000  0.500000  0.000000  1
