# generated using pymatgen
data_HoLu4(In2Co)2
_symmetry_space_group_name_H-M   'P 1'
_cell_length_a   3.50962800
_cell_length_b   7.86257800
_cell_length_c   17.82342200
_cell_angle_alpha   90.00000000
_cell_angle_beta   90.00000000
_cell_angle_gamma   90.00000000
_symmetry_Int_Tables_number   1
_chemical_formula_structural   HoLu4(In2Co)2
_chemical_formula_sum   'Ho2 Lu8 In8 Co4'
_cell_volume   491.83240906
_cell_formula_units_Z   2
loop_
 _symmetry_equiv_pos_site_id
 _symmetry_equiv_pos_as_xyz
  1  'x, y, z'
loop_
 _atom_site_type_symbol
 _atom_site_label
 _atom_site_symmetry_multiplicity
 _atom_site_fract_x
 _atom_site_fract_y
 _atom_site_fract_z
 _atom_site_occupancy
  Ho  Ho0  1  0.000000  0.000000  0.000000  1
  Ho  Ho1  1  0.000000  0.500000  0.500000  1
  Lu  Lu2  1  0.000000  0.115066  0.409947  1
  Lu  Lu3  1  0.000000  0.884934  0.590053  1
  Lu  Lu4  1  0.000000  0.384934  0.909947  1
  Lu  Lu5  1  0.000000  0.615066  0.090053  1
  Lu  Lu6  1  0.000000  0.245847  0.221709  1
  Lu  Lu7  1  0.000000  0.754153  0.778291  1
  Lu  Lu8  1  0.000000  0.254153  0.721709  1
  Lu  Lu9  1  0.000000  0.745847  0.278291  1
  In  In10  1  0.500000  0.426215  0.347951  1
  In  In11  1  0.500000  0.573785  0.652049  1
  In  In12  1  0.500000  0.073785  0.847951  1
  In  In13  1  0.500000  0.926215  0.152049  1
  In  In14  1  0.500000  0.296408  0.068554  1
  In  In15  1  0.500000  0.703592  0.931446  1
  In  In16  1  0.500000  0.203592  0.568554  1
  In  In17  1  0.500000  0.796408  0.431446  1
  Co  Co18  1  0.500000  0.023988  0.303884  1
  Co  Co19  1  0.500000  0.976012  0.696116  1
  Co  Co20  1  0.500000  0.476012  0.803884  1
  Co  Co21  1  0.500000  0.523988  0.196116  1
