# generated using pymatgen
data_Be6FeSi6Rh11
_symmetry_space_group_name_H-M   'P 1'
_cell_length_a   4.03451800
_cell_length_b   5.72882400
_cell_length_c   12.11873700
_cell_angle_alpha   89.99980070
_cell_angle_beta   90.00022708
_cell_angle_gamma   90.00009261
_symmetry_Int_Tables_number   1
_chemical_formula_structural   Be6FeSi6Rh11
_chemical_formula_sum   'Be6 Fe1 Si6 Rh11'
_cell_volume   280.10089601
_cell_formula_units_Z   1
loop_
 _symmetry_equiv_pos_site_id
 _symmetry_equiv_pos_as_xyz
  1  'x, y, z'
loop_
 _atom_site_type_symbol
 _atom_site_label
 _atom_site_symmetry_multiplicity
 _atom_site_fract_x
 _atom_site_fract_y
 _atom_site_fract_z
 _atom_site_occupancy
  Be  Be0  1  0.000013  0.993553  0.994210  1
  Be  Be1  1  0.499673  0.499154  0.165455  1
  Be  Be2  1  0.999729  0.001105  0.333334  1
  Be  Be3  1  0.499987  0.499151  0.501208  1
  Be  Be4  1  0.000298  0.993562  0.672452  1
  Be  Be5  1  0.500292  0.511451  0.833333  1
  Fe  Fe6  1  0.000172  0.749548  0.833334  1
  Si  Si7  1  0.000002  0.507236  0.992328  1
  Si  Si8  1  0.499798  0.001407  0.165757  1
  Si  Si9  1  0.999828  0.499554  0.333334  1
  Si  Si10  1  0.499999  0.001409  0.500911  1
  Si  Si11  1  0.000202  0.507242  0.674341  1
  Si  Si12  1  0.500173  0.985516  0.833333  1
  Rh  Rh13  1  0.499989  0.250248  0.999558  1
  Rh  Rh14  1  0.499999  0.749850  0.999527  1
  Rh  Rh15  1  0.999834  0.251727  0.165057  1
  Rh  Rh16  1  0.999842  0.750480  0.165940  1
  Rh  Rh17  1  0.499855  0.250089  0.333333  1
  Rh  Rh18  1  0.499852  0.749966  0.333334  1
  Rh  Rh19  1  0.999990  0.251728  0.501610  1
  Rh  Rh20  1  0.000016  0.750484  0.500727  1
  Rh  Rh21  1  0.500127  0.250253  0.667108  1
  Rh  Rh22  1  0.500178  0.749851  0.667142  1
  Rh  Rh23  1  0.000147  0.245442  0.833331  1
