# generated using pymatgen
data_Yb2NbFeO6
_symmetry_space_group_name_H-M   'P 1'
_cell_length_a   5.57284481
_cell_length_b   5.57284501
_cell_length_c   5.57284449
_cell_angle_alpha   59.20254078
_cell_angle_beta   59.20254459
_cell_angle_gamma   59.20254171
_symmetry_Int_Tables_number   1
_chemical_formula_structural   Yb2NbFeO6
_chemical_formula_sum   'Yb2 Nb1 Fe1 O6'
_cell_volume   120.15800415
_cell_formula_units_Z   1
loop_
 _symmetry_equiv_pos_site_id
 _symmetry_equiv_pos_as_xyz
  1  'x, y, z'
loop_
 _atom_site_type_symbol
 _atom_site_label
 _atom_site_symmetry_multiplicity
 _atom_site_fract_x
 _atom_site_fract_y
 _atom_site_fract_z
 _atom_site_occupancy
  Yb  Yb0  1  0.511089  0.511089  0.511089  1
  Yb  Yb1  1  0.009728  0.009728  0.009728  1
  Nb  Nb2  1  0.781344  0.781344  0.781344  1
  Fe  Fe3  1  0.280123  0.280123  0.280123  1
  O  O4  1  0.051247  0.452751  0.625820  1
  O  O5  1  0.452751  0.625820  0.051247  1
  O  O6  1  0.625820  0.051247  0.452751  1
  O  O7  1  0.946445  0.557217  0.126197  1
  O  O8  1  0.557217  0.126197  0.946445  1
  O  O9  1  0.126197  0.946445  0.557217  1
