# generated using pymatgen
data_Tm5Zr2ScCo13(NiP4)3
_symmetry_space_group_name_H-M   'P 1'
_cell_length_a   12.27624800
_cell_length_b   12.28327465
_cell_length_c   3.72297800
_cell_angle_alpha   90.00000000
_cell_angle_beta   90.00000000
_cell_angle_gamma   120.05485511
_symmetry_Int_Tables_number   1
_chemical_formula_structural   Tm5Zr2ScCo13(NiP4)3
_chemical_formula_sum   'Tm5 Zr2 Sc1 Co13 Ni3 P12'
_cell_volume   485.91532146
_cell_formula_units_Z   1
loop_
 _symmetry_equiv_pos_site_id
 _symmetry_equiv_pos_as_xyz
  1  'x, y, z'
loop_
 _atom_site_type_symbol
 _atom_site_label
 _atom_site_symmetry_multiplicity
 _atom_site_fract_x
 _atom_site_fract_y
 _atom_site_fract_z
 _atom_site_occupancy
  Tm  Tm0  1  0.181620  0.182690  0.500000  1
  Tm  Tm1  1  0.818197  0.999077  0.500000  1
  Tm  Tm2  1  0.000852  0.817541  0.500000  1
  Tm  Tm3  1  0.334081  0.666872  0.000000  1
  Tm  Tm4  1  0.667635  0.335411  0.000000  1
  Zr  Zr5  1  0.442589  0.000041  0.000000  1
  Zr  Zr6  1  0.000150  0.442196  0.000000  1
  Sc  Sc7  1  0.558604  0.558069  0.000000  1
  Co  Co8  1  0.720935  0.720368  0.500000  1
  Co  Co9  1  0.277271  0.999499  0.500000  1
  Co  Co10  1  0.998380  0.277118  0.500000  1
  Co  Co11  1  0.176580  0.372460  0.000000  1
  Co  Co12  1  0.626461  0.802289  0.000000  1
  Co  Co13  1  0.194779  0.822456  0.000000  1
  Co  Co14  1  0.806046  0.627463  0.000000  1
  Co  Co15  1  0.818335  0.192259  0.000000  1
  Co  Co16  1  0.372638  0.181167  0.000000  1
  Co  Co17  1  0.354605  0.478097  0.500000  1
  Co  Co18  1  0.523281  0.875484  0.500000  1
  Co  Co19  1  0.126374  0.645454  0.500000  1
  Co  Co20  1  0.876072  0.521302  0.500000  1
  Ni  Ni21  1  0.645029  0.126811  0.500000  1
  Ni  Ni22  1  0.482036  0.356953  0.500000  1
  Ni  Ni23  1  0.999408  0.999813  0.000000  1
  P  P24  1  0.822118  0.821639  0.000000  1
  P  P25  1  0.177526  0.000216  0.000000  1
  P  P26  1  0.999195  0.177525  0.000000  1
  P  P27  1  0.172460  0.479394  0.500000  1
  P  P28  1  0.520392  0.690008  0.500000  1
  P  P29  1  0.307779  0.827671  0.500000  1
  P  P30  1  0.696428  0.524704  0.500000  1
  P  P31  1  0.829587  0.308984  0.500000  1
  P  P32  1  0.475129  0.171459  0.500000  1
  P  P33  1  0.347425  0.352515  0.000000  1
  P  P34  1  0.649305  0.994122  0.000000  1
  P  P35  1  0.000700  0.650872  0.000000  1
