# generated using pymatgen
data_Nd3Dy3IrI10
_symmetry_space_group_name_H-M   'P 1'
_cell_length_a   7.85193112
_cell_length_b   9.89097284
_cell_length_c   9.93100738
_cell_angle_alpha   107.18212981
_cell_angle_beta   104.91751079
_cell_angle_gamma   96.29819870
_symmetry_Int_Tables_number   1
_chemical_formula_structural   Nd3Dy3IrI10
_chemical_formula_sum   'Nd3 Dy3 Ir1 I10'
_cell_volume   697.45694905
_cell_formula_units_Z   1
loop_
 _symmetry_equiv_pos_site_id
 _symmetry_equiv_pos_as_xyz
  1  'x, y, z'
loop_
 _atom_site_type_symbol
 _atom_site_label
 _atom_site_symmetry_multiplicity
 _atom_site_fract_x
 _atom_site_fract_y
 _atom_site_fract_z
 _atom_site_occupancy
  Nd  Nd0  1  0.969882  0.088993  0.292639  1
  Nd  Nd1  1  0.116201  0.760475  0.042196  1
  Nd  Nd2  1  0.882302  0.238481  0.956938  1
  Dy  Dy3  1  0.653590  0.834701  0.873964  1
  Dy  Dy4  1  0.346545  0.164702  0.122495  1
  Dy  Dy5  1  0.029577  0.913157  0.715940  1
  Ir  Ir6  1  0.999849  0.999468  0.998982  1
  I  I7  1  0.652132  0.731186  0.553291  1
  I  I8  1  0.360335  0.272607  0.446635  1
  I  I9  1  0.225740  0.658075  0.740280  1
  I  I10  1  0.768291  0.347370  0.255048  1
  I  I11  1  0.449144  0.086961  0.818016  1
  I  I12  1  0.545653  0.909583  0.178312  1
  I  I13  1  0.262510  0.456531  0.087793  1
  I  I14  1  0.735783  0.543357  0.910748  1
  I  I15  1  0.086799  0.818473  0.377533  1
  I  I16  1  0.915667  0.175879  0.629191  1
