# generated using pymatgen
data_Sr9Tb6Lu5Pb16
_symmetry_space_group_name_H-M   'P 1'
_cell_length_a   8.17917638
_cell_length_b   8.70030449
_cell_length_c   16.33767024
_cell_angle_alpha   90.01185607
_cell_angle_beta   90.04306451
_cell_angle_gamma   90.04106044
_symmetry_Int_Tables_number   1
_chemical_formula_structural   Sr9Tb6Lu5Pb16
_chemical_formula_sum   'Sr9 Tb6 Lu5 Pb16'
_cell_volume   1162.60960926
_cell_formula_units_Z   1
loop_
 _symmetry_equiv_pos_site_id
 _symmetry_equiv_pos_as_xyz
  1  'x, y, z'
loop_
 _atom_site_type_symbol
 _atom_site_label
 _atom_site_symmetry_multiplicity
 _atom_site_fract_x
 _atom_site_fract_y
 _atom_site_fract_z
 _atom_site_occupancy
  Sr  Sr0  1  0.495770  0.678612  0.594597  1
  Sr  Sr1  1  0.996341  0.820213  0.905481  1
  Sr  Sr2  1  0.499793  0.318394  0.090211  1
  Sr  Sr3  1  0.000947  0.182743  0.412430  1
  Sr  Sr4  1  0.499873  0.318259  0.410423  1
  Sr  Sr5  1  0.001371  0.183111  0.086935  1
  Sr  Sr6  1  0.496685  0.678754  0.905316  1
  Sr  Sr7  1  0.996715  0.820215  0.594659  1
  Sr  Sr8  1  0.670855  0.012114  0.250486  1
  Tb  Tb9  1  0.327159  0.839752  0.119726  1
  Tb  Tb10  1  0.829028  0.661188  0.380308  1
  Tb  Tb11  1  0.328205  0.839156  0.380104  1
  Tb  Tb12  1  0.829962  0.661672  0.119949  1
  Tb  Tb13  1  0.675074  0.156908  0.872744  1
  Tb  Tb14  1  0.173305  0.344653  0.626223  1
  Lu  Lu15  1  0.674171  0.155021  0.628652  1
  Lu  Lu16  1  0.173301  0.345743  0.872412  1
  Lu  Lu17  1  0.836586  0.501819  0.749870  1
  Lu  Lu18  1  0.338351  0.998794  0.749987  1
  Lu  Lu19  1  0.168362  0.495135  0.249598  1
  Pb  Pb20  1  0.671401  0.956541  0.463252  1
  Pb  Pb21  1  0.172778  0.540083  0.041935  1
  Pb  Pb22  1  0.324683  0.044820  0.951804  1
  Pb  Pb23  1  0.823649  0.455853  0.547700  1
  Pb  Pb24  1  0.329478  0.041862  0.548036  1
  Pb  Pb25  1  0.829899  0.458582  0.952332  1
  Pb  Pb26  1  0.669091  0.955787  0.038548  1
  Pb  Pb27  1  0.171535  0.540572  0.456402  1
  Pb  Pb28  1  0.479062  0.364228  0.749723  1
  Pb  Pb29  1  0.981722  0.132334  0.750105  1
  Pb  Pb30  1  0.521803  0.625944  0.249782  1
  Pb  Pb31  1  0.035413  0.853197  0.249933  1
  Pb  Pb32  1  0.697522  0.853624  0.749742  1
  Pb  Pb33  1  0.196700  0.645916  0.750511  1
  Pb  Pb34  1  0.277668  0.139688  0.249935  1
  Pb  Pb35  1  0.805739  0.378714  0.250150  1
