# generated using pymatgen
data_Y9HoSi5Pb
_symmetry_space_group_name_H-M   'P 1'
_cell_length_a   8.53563400
_cell_length_b   8.57172870
_cell_length_c   6.42343200
_cell_angle_alpha   90.00120311
_cell_angle_beta   89.99872901
_cell_angle_gamma   119.85722065
_symmetry_Int_Tables_number   1
_chemical_formula_structural   Y9HoSi5Pb
_chemical_formula_sum   'Y9 Ho1 Si5 Pb1'
_cell_volume   407.59139297
_cell_formula_units_Z   1
loop_
 _symmetry_equiv_pos_site_id
 _symmetry_equiv_pos_as_xyz
  1  'x, y, z'
loop_
 _atom_site_type_symbol
 _atom_site_label
 _atom_site_symmetry_multiplicity
 _atom_site_fract_x
 _atom_site_fract_y
 _atom_site_fract_z
 _atom_site_occupancy
  Y  Y0  1  0.988084  0.746910  0.749908  1
  Y  Y1  1  0.998076  0.242883  0.250154  1
  Y  Y2  1  0.755140  0.757199  0.250113  1
  Y  Y3  1  0.766498  0.999992  0.749915  1
  Y  Y4  1  0.241187  0.253203  0.749826  1
  Y  Y5  1  0.241172  0.999971  0.250076  1
  Y  Y6  1  0.675018  0.343965  0.003752  1
  Y  Y7  1  0.674990  0.343920  0.496257  1
  Y  Y8  1  0.331075  0.656075  0.003778  1
  Ho  Ho9  1  0.330991  0.655781  0.496226  1
  Si  Si10  1  0.393223  0.391872  0.250447  1
  Si  Si11  1  0.002070  0.608507  0.250372  1
  Si  Si12  1  0.998472  0.394415  0.749605  1
  Si  Si13  1  0.603720  0.605932  0.749594  1
  Si  Si14  1  0.605548  0.999691  0.250306  1
  Pb  Pb15  1  0.394736  0.999684  0.749671  1
