# generated using pymatgen
data_K4OsO6
_symmetry_space_group_name_H-M   'P 1'
_cell_length_a   7.11770153
_cell_length_b   7.11770282
_cell_length_c   7.11770200
_cell_angle_alpha   89.00718986
_cell_angle_beta   89.00718968
_cell_angle_gamma   89.00718422
_symmetry_Int_Tables_number   1
_chemical_formula_structural   K4OsO6
_chemical_formula_sum   'K8 Os2 O12'
_cell_volume   360.43422270
_cell_formula_units_Z   2
loop_
 _symmetry_equiv_pos_site_id
 _symmetry_equiv_pos_as_xyz
  1  'x, y, z'
loop_
 _atom_site_type_symbol
 _atom_site_label
 _atom_site_symmetry_multiplicity
 _atom_site_fract_x
 _atom_site_fract_y
 _atom_site_fract_z
 _atom_site_occupancy
  K  K0  1  0.750000  0.398629  0.101371  1
  K  K1  1  0.101371  0.750000  0.398629  1
  K  K2  1  0.398629  0.101371  0.750000  1
  K  K3  1  0.250000  0.601371  0.898629  1
  K  K4  1  0.898629  0.250000  0.601371  1
  K  K5  1  0.601371  0.898629  0.250000  1
  K  K6  1  0.250000  0.250000  0.250000  1
  K  K7  1  0.750000  0.750000  0.750000  1
  Os  Os8  1  0.000000  0.000000  0.000000  1
  Os  Os9  1  0.500000  0.500000  0.500000  1
  O  O10  1  0.442423  0.749001  0.568483  1
  O  O11  1  0.568483  0.442423  0.749001  1
  O  O12  1  0.749001  0.568483  0.442423  1
  O  O13  1  0.057577  0.931517  0.750999  1
  O  O14  1  0.750999  0.057577  0.931517  1
  O  O15  1  0.931517  0.750999  0.057577  1
  O  O16  1  0.557577  0.250999  0.431517  1
  O  O17  1  0.431517  0.557577  0.250999  1
  O  O18  1  0.250999  0.431517  0.557577  1
  O  O19  1  0.942423  0.068483  0.249001  1
  O  O20  1  0.068483  0.249001  0.942423  1
  O  O21  1  0.249001  0.942423  0.068483  1
