# generated using pymatgen
data_La3IrAu3
_symmetry_space_group_name_H-M   'P 1'
_cell_length_a   8.45812294
_cell_length_b   8.45812275
_cell_length_c   8.45812256
_cell_angle_alpha   114.47808974
_cell_angle_beta   114.47808670
_cell_angle_gamma   114.47808040
_symmetry_Int_Tables_number   1
_chemical_formula_structural   La3IrAu3
_chemical_formula_sum   'La6 Ir2 Au6'
_cell_volume   354.21608978
_cell_formula_units_Z   2
loop_
 _symmetry_equiv_pos_site_id
 _symmetry_equiv_pos_as_xyz
  1  'x, y, z'
loop_
 _atom_site_type_symbol
 _atom_site_label
 _atom_site_symmetry_multiplicity
 _atom_site_fract_x
 _atom_site_fract_y
 _atom_site_fract_z
 _atom_site_occupancy
  La  La0  1  0.044936  0.392813  0.281831  1
  La  La1  1  0.392813  0.281831  0.044936  1
  La  La2  1  0.718169  0.955064  0.607187  1
  La  La3  1  0.281831  0.044936  0.392813  1
  La  La4  1  0.607187  0.718169  0.955064  1
  La  La5  1  0.955064  0.607187  0.718169  1
  Ir  Ir6  1  0.000000  0.000000  0.000000  1
  Ir  Ir7  1  0.500000  0.500000  0.500000  1
  Au  Au8  1  0.434307  0.942786  0.775765  1
  Au  Au9  1  0.942786  0.775765  0.434307  1
  Au  Au10  1  0.224235  0.565693  0.057214  1
  Au  Au11  1  0.775765  0.434307  0.942786  1
  Au  Au12  1  0.057214  0.224235  0.565693  1
  Au  Au13  1  0.565693  0.057214  0.224235  1
