# generated using pymatgen
data_LuSc3(MoOs3)2
_symmetry_space_group_name_H-M   'P 1'
_cell_length_a   5.34367000
_cell_length_b   5.34366829
_cell_length_c   8.45450100
_cell_angle_alpha   90.00000000
_cell_angle_beta   90.00000000
_cell_angle_gamma   120.00001056
_symmetry_Int_Tables_number   1
_chemical_formula_structural   LuSc3(MoOs3)2
_chemical_formula_sum   'Lu1 Sc3 Mo2 Os6'
_cell_volume   209.07287306
_cell_formula_units_Z   1
loop_
 _symmetry_equiv_pos_site_id
 _symmetry_equiv_pos_as_xyz
  1  'x, y, z'
loop_
 _atom_site_type_symbol
 _atom_site_label
 _atom_site_symmetry_multiplicity
 _atom_site_fract_x
 _atom_site_fract_y
 _atom_site_fract_z
 _atom_site_occupancy
  Lu  Lu0  1  0.333333  0.666667  0.434865  1
  Sc  Sc1  1  0.666667  0.333333  0.567337  1
  Sc  Sc2  1  0.666667  0.333333  0.933993  1
  Sc  Sc3  1  0.333333  0.666667  0.064274  1
  Mo  Mo4  1  0.000000  0.000000  0.999790  1
  Mo  Mo5  1  0.000000  0.000000  0.500336  1
  Os  Os6  1  0.173712  0.347425  0.751332  1
  Os  Os7  1  0.173712  0.826288  0.751332  1
  Os  Os8  1  0.347913  0.173957  0.248470  1
  Os  Os9  1  0.826043  0.652087  0.248470  1
  Os  Os10  1  0.652575  0.826288  0.751332  1
  Os  Os11  1  0.826043  0.173957  0.248470  1
