# generated using pymatgen
data_Dy3ZrAs6Ru7
_symmetry_space_group_name_H-M   'P 1'
_cell_length_a   7.20444637
_cell_length_b   7.19773463
_cell_length_c   7.20444522
_cell_angle_alpha   109.45234789
_cell_angle_beta   109.49008749
_cell_angle_gamma   109.45234535
_symmetry_Int_Tables_number   1
_chemical_formula_structural   Dy3ZrAs6Ru7
_chemical_formula_sum   'Dy3 Zr1 As6 Ru7'
_cell_volume   287.65783476
_cell_formula_units_Z   1
loop_
 _symmetry_equiv_pos_site_id
 _symmetry_equiv_pos_as_xyz
  1  'x, y, z'
loop_
 _atom_site_type_symbol
 _atom_site_label
 _atom_site_symmetry_multiplicity
 _atom_site_fract_x
 _atom_site_fract_y
 _atom_site_fract_z
 _atom_site_occupancy
  Dy  Dy0  1  0.000000  0.000000  0.500000  1
  Dy  Dy1  1  0.500000  0.000000  0.000000  1
  Dy  Dy2  1  0.500000  0.500000  0.500000  1
  Zr  Zr3  1  0.000000  0.500000  0.000000  1
  As  As4  1  0.314087  0.997729  0.314087  1
  As  As5  1  0.000000  0.316358  0.314087  1
  As  As6  1  0.000000  0.683642  0.685913  1
  As  As7  1  0.314087  0.316358  0.000000  1
  As  As8  1  0.685913  0.683642  0.000000  1
  As  As9  1  0.685913  0.002271  0.685913  1
  Ru  Ru10  1  0.755371  0.500000  0.244629  1
  Ru  Ru11  1  0.489259  0.744629  0.244629  1
  Ru  Ru12  1  0.510741  0.255371  0.755371  1
  Ru  Ru13  1  0.755371  0.255371  0.510741  1
  Ru  Ru14  1  0.244629  0.744629  0.489259  1
  Ru  Ru15  1  0.244629  0.500000  0.755371  1
  Ru  Ru16  1  0.000000  0.000000  0.000000  1
