# generated using pymatgen
data_UV5(O5F)2
_symmetry_space_group_name_H-M   'P 1'
_cell_length_a   5.67644989
_cell_length_b   5.67644946
_cell_length_c   7.47913880
_cell_angle_alpha   71.68946870
_cell_angle_beta   71.68946989
_cell_angle_gamma   71.08476489
_symmetry_Int_Tables_number   1
_chemical_formula_structural   UV5(O5F)2
_chemical_formula_sum   'U1 V5 O10 F2'
_cell_volume   210.30100277
_cell_formula_units_Z   1
loop_
 _symmetry_equiv_pos_site_id
 _symmetry_equiv_pos_as_xyz
  1  'x, y, z'
loop_
 _atom_site_type_symbol
 _atom_site_label
 _atom_site_symmetry_multiplicity
 _atom_site_fract_x
 _atom_site_fract_y
 _atom_site_fract_z
 _atom_site_occupancy
  U  U0  1  0.500000  0.500000  0.000000  1
  V  V1  1  0.165462  0.165462  0.832740  1
  V  V2  1  0.500000  0.500000  0.500000  1
  V  V3  1  0.143610  0.143610  0.322956  1
  V  V4  1  0.856390  0.856390  0.677044  1
  V  V5  1  0.834538  0.834538  0.167260  1
  O  O6  1  0.480281  0.872014  0.825643  1
  O  O7  1  0.805436  0.194564  0.500000  1
  O  O8  1  0.059931  0.059931  0.131448  1
  O  O9  1  0.397716  0.397716  0.790613  1
  O  O10  1  0.940069  0.940069  0.868552  1
  O  O11  1  0.602284  0.602284  0.209387  1
  O  O12  1  0.519719  0.127986  0.174357  1
  O  O13  1  0.872014  0.480281  0.825643  1
  O  O14  1  0.194564  0.805436  0.500000  1
  O  O15  1  0.127986  0.519719  0.174357  1
  F  F16  1  0.734590  0.734590  0.472541  1
  F  F17  1  0.265410  0.265410  0.527459  1
