# generated using pymatgen
data_La3CeAl17SiIr6
_symmetry_space_group_name_H-M   'P 1'
_cell_length_a   7.65905704
_cell_length_b   7.64576291
_cell_length_c   9.54326800
_cell_angle_alpha   90.00000000
_cell_angle_beta   90.00000000
_cell_angle_gamma   119.51507552
_symmetry_Int_Tables_number   1
_chemical_formula_structural   La3CeAl17SiIr6
_chemical_formula_sum   'La3 Ce1 Al17 Si1 Ir6'
_cell_volume   486.32361175
_cell_formula_units_Z   1
loop_
 _symmetry_equiv_pos_site_id
 _symmetry_equiv_pos_as_xyz
  1  'x, y, z'
loop_
 _atom_site_type_symbol
 _atom_site_label
 _atom_site_symmetry_multiplicity
 _atom_site_fract_x
 _atom_site_fract_y
 _atom_site_fract_z
 _atom_site_occupancy
  La  La0  1  0.003754  0.329935  0.250000  1
  La  La1  1  0.675953  0.994691  0.750000  1
  La  La2  1  0.329942  0.003218  0.250000  1
  Ce  Ce3  1  0.995013  0.676423  0.750000  1
  Al  Al4  1  0.870402  0.869997  0.250000  1
  Al  Al5  1  0.003810  0.338814  0.576770  1
  Al  Al6  1  0.995969  0.665113  0.428181  1
  Al  Al7  1  0.995969  0.665113  0.071819  1
  Al  Al8  1  0.336955  0.003247  0.923135  1
  Al  Al9  1  0.003810  0.338814  0.923230  1
  Al  Al10  1  0.665325  0.996038  0.073544  1
  Al  Al11  1  0.665325  0.996038  0.426456  1
  Al  Al12  1  0.336955  0.003247  0.576865  1
  Al  Al13  1  0.333986  0.334014  0.051437  1
  Al  Al14  1  0.662269  0.661616  0.952837  1
  Al  Al15  1  0.662269  0.661616  0.547163  1
  Al  Al16  1  0.333986  0.334014  0.448563  1
  Al  Al17  1  0.334365  0.545656  0.750000  1
  Al  Al18  1  0.660438  0.454822  0.250000  1
  Al  Al19  1  0.548108  0.340190  0.750000  1
  Al  Al20  1  0.454941  0.659963  0.250000  1
  Si  Si21  1  0.134301  0.131902  0.750000  1
  Ir  Ir22  1  0.670225  0.328831  0.501753  1
  Ir  Ir23  1  0.327360  0.669694  0.501785  1
  Ir  Ir24  1  0.327360  0.669694  0.998215  1
  Ir  Ir25  1  0.670225  0.328831  0.998247  1
  Ir  Ir26  1  0.000494  0.999234  0.508370  1
  Ir  Ir27  1  0.000494  0.999234  0.991630  1
