# generated using pymatgen
data_U8Ta11Si16Os
_symmetry_space_group_name_H-M   'P 1'
_cell_length_a   6.98929646
_cell_length_b   7.00279616
_cell_length_c   12.94770645
_cell_angle_alpha   89.87271622
_cell_angle_beta   90.10525026
_cell_angle_gamma   90.10748011
_symmetry_Int_Tables_number   1
_chemical_formula_structural   U8Ta11Si16Os
_chemical_formula_sum   'U8 Ta11 Si16 Os1'
_cell_volume   633.71680902
_cell_formula_units_Z   1
loop_
 _symmetry_equiv_pos_site_id
 _symmetry_equiv_pos_as_xyz
  1  'x, y, z'
loop_
 _atom_site_type_symbol
 _atom_site_label
 _atom_site_symmetry_multiplicity
 _atom_site_fract_x
 _atom_site_fract_y
 _atom_site_fract_z
 _atom_site_occupancy
  U  U0  1  0.996978  0.333511  0.221866  1
  U  U1  1  0.007799  0.671659  0.717229  1
  U  U2  1  0.166586  0.497773  0.469125  1
  U  U3  1  0.503608  0.831292  0.033707  1
  U  U4  1  0.830090  0.506221  0.969671  1
  U  U5  1  0.494783  0.165678  0.528443  1
  U  U6  1  0.328790  0.993204  0.779543  1
  U  U7  1  0.670436  0.003892  0.279311  1
  Ta  Ta8  1  0.167705  0.166425  0.001149  1
  Ta  Ta9  1  0.830904  0.833381  0.499710  1
  Ta  Ta10  1  0.329226  0.665761  0.249707  1
  Ta  Ta11  1  0.668082  0.331323  0.749288  1
  Ta  Ta12  1  0.843400  0.001724  0.873952  1
  Ta  Ta13  1  0.495797  0.658671  0.623535  1
  Ta  Ta14  1  0.344043  0.499453  0.876122  1
  Ta  Ta15  1  0.495739  0.337874  0.125494  1
  Ta  Ta16  1  0.659256  0.498641  0.375578  1
  Ta  Ta17  1  0.998219  0.157826  0.627441  1
  Ta  Ta18  1  0.996124  0.839458  0.122528  1
  Si  Si19  1  0.292491  0.034920  0.188458  1
  Si  Si20  1  0.701303  0.960452  0.683793  1
  Si  Si21  1  0.460127  0.796452  0.432629  1
  Si  Si22  1  0.202491  0.537433  0.065264  1
  Si  Si23  1  0.538300  0.200728  0.934513  1
  Si  Si24  1  0.794786  0.460951  0.565307  1
  Si  Si25  1  0.040379  0.299067  0.816088  1
  Si  Si26  1  0.965194  0.716144  0.315729  1
  Si  Si27  1  0.371355  0.291878  0.317321  1
  Si  Si28  1  0.629197  0.707119  0.815448  1
  Si  Si29  1  0.203388  0.872609  0.562649  1
  Si  Si30  1  0.129439  0.793658  0.933572  1
  Si  Si31  1  0.793485  0.130244  0.067368  1
  Si  Si32  1  0.879527  0.200569  0.433717  1
  Si  Si33  1  0.294005  0.369697  0.683114  1
  Si  Si34  1  0.705752  0.624416  0.184660  1
  Os  Os35  1  0.171210  0.009895  0.376969  1
