# generated using pymatgen
data_Nd16Mg3CdTcNi3
_symmetry_space_group_name_H-M   'P 1'
_cell_length_a   9.98956807
_cell_length_b   10.00027527
_cell_length_c   10.00027429
_cell_angle_alpha   59.40912364
_cell_angle_beta   59.26145287
_cell_angle_gamma   59.26145424
_symmetry_Int_Tables_number   1
_chemical_formula_structural   Nd16Mg3CdTcNi3
_chemical_formula_sum   'Nd16 Mg3 Cd1 Tc1 Ni3'
_cell_volume   695.31777121
_cell_formula_units_Z   1
loop_
 _symmetry_equiv_pos_site_id
 _symmetry_equiv_pos_as_xyz
  1  'x, y, z'
loop_
 _atom_site_type_symbol
 _atom_site_label
 _atom_site_symmetry_multiplicity
 _atom_site_fract_x
 _atom_site_fract_y
 _atom_site_fract_z
 _atom_site_occupancy
  Nd  Nd0  1  0.597280  0.597245  0.597245  1
  Nd  Nd1  1  0.597191  0.597947  0.212077  1
  Nd  Nd2  1  0.597191  0.212077  0.597947  1
  Nd  Nd3  1  0.213644  0.597323  0.597323  1
  Nd  Nd4  1  0.062694  0.436387  0.436387  1
  Nd  Nd5  1  0.438427  0.058678  0.058678  1
  Nd  Nd6  1  0.437788  0.061549  0.437441  1
  Nd  Nd7  1  0.060341  0.436686  0.060461  1
  Nd  Nd8  1  0.437788  0.437441  0.061549  1
  Nd  Nd9  1  0.060341  0.060461  0.436686  1
  Nd  Nd10  1  0.187369  0.814770  0.814770  1
  Nd  Nd11  1  0.803385  0.190061  0.190061  1
  Nd  Nd12  1  0.815229  0.185257  0.815076  1
  Nd  Nd13  1  0.191752  0.802938  0.188783  1
  Nd  Nd14  1  0.815229  0.815076  0.185257  1
  Nd  Nd15  1  0.191752  0.188783  0.802938  1
  Mg  Mg16  1  0.826414  0.828783  0.828783  1
  Mg  Mg17  1  0.825381  0.828353  0.514680  1
  Mg  Mg18  1  0.825381  0.514680  0.828353  1
  Cd  Cd19  1  0.509071  0.829258  0.829258  1
  Tc  Tc20  1  0.392037  0.391924  0.391924  1
  Ni  Ni21  1  0.394190  0.394273  0.825980  1
  Ni  Ni22  1  0.394190  0.825980  0.394273  1
  Ni  Ni23  1  0.825933  0.394068  0.394068  1
