# generated using pymatgen
data_Ca2InPdPt
_symmetry_space_group_name_H-M   'P 1'
_cell_length_a   5.85313819
_cell_length_b   5.85313920
_cell_length_c   8.22355158
_cell_angle_alpha   77.25403866
_cell_angle_beta   77.25403680
_cell_angle_gamma   58.88272577
_symmetry_Int_Tables_number   1
_chemical_formula_structural   Ca2InPdPt
_chemical_formula_sum   'Ca4 In2 Pd2 Pt2'
_cell_volume   233.32564475
_cell_formula_units_Z   2
loop_
 _symmetry_equiv_pos_site_id
 _symmetry_equiv_pos_as_xyz
  1  'x, y, z'
loop_
 _atom_site_type_symbol
 _atom_site_label
 _atom_site_symmetry_multiplicity
 _atom_site_fract_x
 _atom_site_fract_y
 _atom_site_fract_z
 _atom_site_occupancy
  Ca  Ca0  1  0.505339  0.795580  0.350375  1
  Ca  Ca1  1  0.204420  0.494661  0.149625  1
  Ca  Ca2  1  0.497335  0.205737  0.650201  1
  Ca  Ca3  1  0.794263  0.502665  0.849799  1
  In  In4  1  0.846823  0.153177  0.250000  1
  In  In5  1  0.151744  0.848256  0.750000  1
  Pd  Pd6  1  0.272706  0.996334  0.997621  1
  Pd  Pd7  1  0.003666  0.727294  0.502379  1
  Pt  Pt8  1  0.726741  0.003038  0.003898  1
  Pt  Pt9  1  0.996962  0.273259  0.496102  1
