# generated using pymatgen
data_Y3Fe2Co7P6
_symmetry_space_group_name_H-M   'P 1'
_cell_length_a   3.70021500
_cell_length_b   10.55174400
_cell_length_c   12.10344700
_cell_angle_alpha   90.00000000
_cell_angle_beta   90.00000000
_cell_angle_gamma   90.00000000
_symmetry_Int_Tables_number   1
_chemical_formula_structural   Y3Fe2Co7P6
_chemical_formula_sum   'Y6 Fe4 Co14 P12'
_cell_volume   472.56361295
_cell_formula_units_Z   2
loop_
 _symmetry_equiv_pos_site_id
 _symmetry_equiv_pos_as_xyz
  1  'x, y, z'
loop_
 _atom_site_type_symbol
 _atom_site_label
 _atom_site_symmetry_multiplicity
 _atom_site_fract_x
 _atom_site_fract_y
 _atom_site_fract_z
 _atom_site_occupancy
  Y  Y0  1  0.000000  0.500000  0.522344  1
  Y  Y1  1  0.500000  0.000000  0.477656  1
  Y  Y2  1  0.500000  0.818951  0.204134  1
  Y  Y3  1  0.500000  0.181049  0.204134  1
  Y  Y4  1  0.000000  0.681049  0.795866  1
  Y  Y5  1  0.000000  0.318951  0.795866  1
  Fe  Fe6  1  0.500000  0.500000  0.155406  1
  Fe  Fe7  1  0.000000  0.000000  0.844594  1
  Fe  Fe8  1  0.000000  0.500000  0.988447  1
  Fe  Fe9  1  0.500000  0.000000  0.011553  1
  Co  Co10  1  0.500000  0.500000  0.701012  1
  Co  Co11  1  0.000000  0.000000  0.298988  1
  Co  Co12  1  0.500000  0.331792  0.994431  1
  Co  Co13  1  0.500000  0.668208  0.994431  1
  Co  Co14  1  0.000000  0.168208  0.005569  1
  Co  Co15  1  0.000000  0.831792  0.005569  1
  Co  Co16  1  0.500000  0.296626  0.430367  1
  Co  Co17  1  0.500000  0.703374  0.430367  1
  Co  Co18  1  0.000000  0.203374  0.569633  1
  Co  Co19  1  0.000000  0.796626  0.569633  1
  Co  Co20  1  0.500000  0.879232  0.709272  1
  Co  Co21  1  0.500000  0.120768  0.709272  1
  Co  Co22  1  0.000000  0.620768  0.290728  1
  Co  Co23  1  0.000000  0.379232  0.290728  1
  P  P24  1  0.500000  0.500000  0.884530  1
  P  P25  1  0.000000  0.000000  0.115470  1
  P  P26  1  0.500000  0.500000  0.341445  1
  P  P27  1  0.000000  0.000000  0.658555  1
  P  P28  1  0.500000  0.309807  0.616545  1
  P  P29  1  0.500000  0.690193  0.616545  1
  P  P30  1  0.000000  0.190193  0.383455  1
  P  P31  1  0.000000  0.809807  0.383455  1
  P  P32  1  0.500000  0.847700  0.893561  1
  P  P33  1  0.500000  0.152300  0.893561  1
  P  P34  1  0.000000  0.652300  0.106439  1
  P  P35  1  0.000000  0.347700  0.106439  1
