# generated using pymatgen
data_La4Nd3SmSe12
_symmetry_space_group_name_H-M   'P 1'
_cell_length_a   4.26064900
_cell_length_b   11.20703420
_cell_length_c   11.58509700
_cell_angle_alpha   90.00981783
_cell_angle_beta   90.00000000
_cell_angle_gamma   90.00000000
_symmetry_Int_Tables_number   1
_chemical_formula_structural   La4Nd3SmSe12
_chemical_formula_sum   'La4 Nd3 Sm1 Se12'
_cell_volume   553.17955803
_cell_formula_units_Z   1
loop_
 _symmetry_equiv_pos_site_id
 _symmetry_equiv_pos_as_xyz
  1  'x, y, z'
loop_
 _atom_site_type_symbol
 _atom_site_label
 _atom_site_symmetry_multiplicity
 _atom_site_fract_x
 _atom_site_fract_y
 _atom_site_fract_z
 _atom_site_occupancy
  La  La0  1  0.250000  0.998221  0.694250  1
  La  La1  1  0.750000  0.002937  0.306144  1
  La  La2  1  0.750000  0.496750  0.807182  1
  La  La3  1  0.250000  0.501484  0.192659  1
  Nd  Nd4  1  0.250000  0.313944  0.510348  1
  Nd  Nd5  1  0.750000  0.685978  0.489477  1
  Nd  Nd6  1  0.750000  0.814395  0.989660  1
  Sm  Sm7  1  0.250000  0.185992  0.010120  1
  Se  Se8  1  0.750000  0.058240  0.883753  1
  Se  Se9  1  0.250000  0.944942  0.116893  1
  Se  Se10  1  0.250000  0.556467  0.618130  1
  Se  Se11  1  0.750000  0.443056  0.381917  1
  Se  Se12  1  0.250000  0.872216  0.454858  1
  Se  Se13  1  0.750000  0.128070  0.545148  1
  Se  Se14  1  0.750000  0.369247  0.044754  1
  Se  Se15  1  0.250000  0.627732  0.954960  1
  Se  Se16  1  0.250000  0.298633  0.772072  1
  Se  Se17  1  0.750000  0.700696  0.228948  1
  Se  Se18  1  0.750000  0.799698  0.729438  1
  Se  Se19  1  0.250000  0.201302  0.269293  1
