# generated using pymatgen
data_DyEr3Co16(P3Ru)4
_symmetry_space_group_name_H-M   'P 1'
_cell_length_a   3.68688400
_cell_length_b   10.38270343
_cell_length_c   11.76846048
_cell_angle_alpha   89.96713411
_cell_angle_beta   90.00000000
_cell_angle_gamma   90.00000000
_symmetry_Int_Tables_number   1
_chemical_formula_structural   DyEr3Co16(P3Ru)4
_chemical_formula_sum   'Dy1 Er3 Co16 P12 Ru4'
_cell_volume   450.49451187
_cell_formula_units_Z   1
loop_
 _symmetry_equiv_pos_site_id
 _symmetry_equiv_pos_as_xyz
  1  'x, y, z'
loop_
 _atom_site_type_symbol
 _atom_site_label
 _atom_site_symmetry_multiplicity
 _atom_site_fract_x
 _atom_site_fract_y
 _atom_site_fract_z
 _atom_site_occupancy
  Dy  Dy0  1  0.750000  0.086342  0.795756  1
  Er  Er1  1  0.250000  0.586131  0.703710  1
  Er  Er2  1  0.250000  0.913730  0.204009  1
  Er  Er3  1  0.750000  0.413892  0.296310  1
  Co  Co4  1  0.250000  0.408928  0.488930  1
  Co  Co5  1  0.250000  0.090924  0.989909  1
  Co  Co6  1  0.750000  0.591054  0.511048  1
  Co  Co7  1  0.750000  0.908562  0.011309  1
  Co  Co8  1  0.250000  0.221288  0.177014  1
  Co  Co9  1  0.250000  0.279571  0.676571  1
  Co  Co10  1  0.750000  0.778796  0.823233  1
  Co  Co11  1  0.750000  0.720948  0.323188  1
  Co  Co12  1  0.250000  0.887084  0.702355  1
  Co  Co13  1  0.250000  0.612140  0.203022  1
  Co  Co14  1  0.750000  0.112239  0.297070  1
  Co  Co15  1  0.750000  0.388270  0.797263  1
  Co  Co16  1  0.250000  0.465835  0.930585  1
  Co  Co17  1  0.250000  0.034594  0.429764  1
  Co  Co18  1  0.750000  0.534737  0.069871  1
  Co  Co19  1  0.750000  0.964902  0.568924  1
  P  P20  1  0.250000  0.419559  0.112395  1
  P  P21  1  0.250000  0.080471  0.611278  1
  P  P22  1  0.750000  0.580698  0.887907  1
  P  P23  1  0.750000  0.919362  0.387423  1
  P  P24  1  0.250000  0.272000  0.867201  1
  P  P25  1  0.250000  0.228989  0.366917  1
  P  P26  1  0.750000  0.728928  0.133228  1
  P  P27  1  0.750000  0.771000  0.633063  1
  P  P28  1  0.250000  0.595037  0.390058  1
  P  P29  1  0.250000  0.904238  0.890171  1
  P  P30  1  0.750000  0.404823  0.610031  1
  P  P31  1  0.750000  0.095082  0.110021  1
  Ru  Ru32  1  0.250000  0.717264  0.993200  1
  Ru  Ru33  1  0.250000  0.782471  0.492696  1
  Ru  Ru34  1  0.750000  0.282770  0.007444  1
  Ru  Ru35  1  0.750000  0.217341  0.507123  1
