# generated using pymatgen
data_Nd6MnP12Rh17
_symmetry_space_group_name_H-M   'P 1'
_cell_length_a   3.97286100
_cell_length_b   11.33954400
_cell_length_c   12.87179000
_cell_angle_alpha   90.00000000
_cell_angle_beta   90.00000000
_cell_angle_gamma   90.00000000
_symmetry_Int_Tables_number   1
_chemical_formula_structural   Nd6MnP12Rh17
_chemical_formula_sum   'Nd6 Mn1 P12 Rh17'
_cell_volume   579.87970160
_cell_formula_units_Z   1
loop_
 _symmetry_equiv_pos_site_id
 _symmetry_equiv_pos_as_xyz
  1  'x, y, z'
loop_
 _atom_site_type_symbol
 _atom_site_label
 _atom_site_symmetry_multiplicity
 _atom_site_fract_x
 _atom_site_fract_y
 _atom_site_fract_z
 _atom_site_occupancy
  Nd  Nd0  1  0.000000  0.500000  0.519469  1
  Nd  Nd1  1  0.500000  0.000000  0.480741  1
  Nd  Nd2  1  0.500000  0.821668  0.201761  1
  Nd  Nd3  1  0.500000  0.178332  0.201761  1
  Nd  Nd4  1  0.000000  0.684612  0.796465  1
  Nd  Nd5  1  0.000000  0.315388  0.796465  1
  Mn  Mn6  1  0.500000  0.000000  0.006426  1
  P  P7  1  0.500000  0.500000  0.882554  1
  P  P8  1  0.000000  0.000000  0.111471  1
  P  P9  1  0.500000  0.500000  0.347042  1
  P  P10  1  0.000000  0.000000  0.656253  1
  P  P11  1  0.500000  0.311442  0.617773  1
  P  P12  1  0.500000  0.688558  0.617773  1
  P  P13  1  0.000000  0.187390  0.381299  1
  P  P14  1  0.000000  0.812610  0.381299  1
  P  P15  1  0.500000  0.850012  0.897832  1
  P  P16  1  0.500000  0.149988  0.897832  1
  P  P17  1  0.000000  0.654106  0.106309  1
  P  P18  1  0.000000  0.345894  0.106309  1
  Rh  Rh19  1  0.500000  0.500000  0.168035  1
  Rh  Rh20  1  0.000000  0.000000  0.840106  1
  Rh  Rh21  1  0.500000  0.500000  0.702392  1
  Rh  Rh22  1  0.000000  0.000000  0.297042  1
  Rh  Rh23  1  0.000000  0.500000  0.983738  1
  Rh  Rh24  1  0.500000  0.334574  0.996380  1
  Rh  Rh25  1  0.500000  0.665426  0.996380  1
  Rh  Rh26  1  0.000000  0.165246  0.005044  1
  Rh  Rh27  1  0.000000  0.834754  0.005044  1
  Rh  Rh28  1  0.500000  0.292811  0.429523  1
  Rh  Rh29  1  0.500000  0.707189  0.429523  1
  Rh  Rh30  1  0.000000  0.206220  0.569935  1
  Rh  Rh31  1  0.000000  0.793780  0.569935  1
  Rh  Rh32  1  0.500000  0.875511  0.712820  1
  Rh  Rh33  1  0.500000  0.124489  0.712820  1
  Rh  Rh34  1  0.000000  0.626103  0.287226  1
  Rh  Rh35  1  0.000000  0.373897  0.287226  1
