# generated using pymatgen
data_Pr2DyHo7(In2Pt)4
_symmetry_space_group_name_H-M   'P 1'
_cell_length_a   3.63637800
_cell_length_b   8.20108700
_cell_length_c   18.40123500
_cell_angle_alpha   90.00215324
_cell_angle_beta   90.00000000
_cell_angle_gamma   90.00000000
_symmetry_Int_Tables_number   1
_chemical_formula_structural   Pr2DyHo7(In2Pt)4
_chemical_formula_sum   'Pr2 Dy1 Ho7 In8 Pt4'
_cell_volume   548.76627340
_cell_formula_units_Z   1
loop_
 _symmetry_equiv_pos_site_id
 _symmetry_equiv_pos_as_xyz
  1  'x, y, z'
loop_
 _atom_site_type_symbol
 _atom_site_label
 _atom_site_symmetry_multiplicity
 _atom_site_fract_x
 _atom_site_fract_y
 _atom_site_fract_z
 _atom_site_occupancy
  Pr  Pr0  1  0.000000  0.000012  0.999991  1
  Pr  Pr1  1  0.000000  0.500007  0.500002  1
  Dy  Dy2  1  0.000000  0.118478  0.413994  1
  Ho  Ho3  1  0.000000  0.881826  0.586302  1
  Ho  Ho4  1  0.000000  0.381767  0.913744  1
  Ho  Ho5  1  0.000000  0.618242  0.086256  1
  Ho  Ho6  1  0.000000  0.242745  0.220012  1
  Ho  Ho7  1  0.000000  0.757276  0.779949  1
  Ho  Ho8  1  0.000000  0.257297  0.720034  1
  Ho  Ho9  1  0.000000  0.742639  0.279924  1
  In  In10  1  0.500000  0.422135  0.348142  1
  In  In11  1  0.500000  0.578089  0.651781  1
  In  In12  1  0.500000  0.078109  0.848217  1
  In  In13  1  0.500000  0.921868  0.151750  1
  In  In14  1  0.500000  0.299074  0.068004  1
  In  In15  1  0.500000  0.700932  0.931999  1
  In  In16  1  0.500000  0.200995  0.568119  1
  In  In17  1  0.500000  0.798728  0.432004  1
  Pt  Pt18  1  0.500000  0.024202  0.303285  1
  Pt  Pt19  1  0.500000  0.975568  0.696490  1
  Pt  Pt20  1  0.500000  0.475590  0.803545  1
  Pt  Pt21  1  0.500000  0.524423  0.196455  1
