# generated using pymatgen
data_Ho2GaSiRu2
_symmetry_space_group_name_H-M   'P 1'
_cell_length_a   4.39795000
_cell_length_b   7.03476993
_cell_length_c   7.18382862
_cell_angle_alpha   90.63828814
_cell_angle_beta   90.00000000
_cell_angle_gamma   90.00000000
_symmetry_Int_Tables_number   1
_chemical_formula_structural   Ho2GaSiRu2
_chemical_formula_sum   'Ho4 Ga2 Si2 Ru4'
_cell_volume   222.24356744
_cell_formula_units_Z   2
loop_
 _symmetry_equiv_pos_site_id
 _symmetry_equiv_pos_as_xyz
  1  'x, y, z'
loop_
 _atom_site_type_symbol
 _atom_site_label
 _atom_site_symmetry_multiplicity
 _atom_site_fract_x
 _atom_site_fract_y
 _atom_site_fract_z
 _atom_site_occupancy
  Ho  Ho0  1  0.250000  0.985889  0.806995  1
  Ho  Ho1  1  0.750000  0.014111  0.193005  1
  Ho  Ho2  1  0.250000  0.483319  0.689642  1
  Ho  Ho3  1  0.750000  0.516681  0.310358  1
  Ga  Ga4  1  0.250000  0.306529  0.107865  1
  Ga  Ga5  1  0.750000  0.693471  0.892135  1
  Si  Si6  1  0.250000  0.802827  0.400149  1
  Si  Si7  1  0.750000  0.197173  0.599851  1
  Ru  Ru8  1  0.750000  0.850780  0.554422  1
  Ru  Ru9  1  0.250000  0.149220  0.445578  1
  Ru  Ru10  1  0.750000  0.327826  0.918654  1
  Ru  Ru11  1  0.250000  0.672174  0.081346  1
