# generated using pymatgen
data_Ce3Th2GeSb3
_symmetry_space_group_name_H-M   'P 1'
_cell_length_a   9.50187855
_cell_length_b   9.50187865
_cell_length_c   6.39347600
_cell_angle_alpha   90.00000000
_cell_angle_beta   90.00000000
_cell_angle_gamma   120.03895125
_symmetry_Int_Tables_number   1
_chemical_formula_structural   Ce3Th2GeSb3
_chemical_formula_sum   'Ce6 Th4 Ge2 Sb6'
_cell_volume   499.70768885
_cell_formula_units_Z   2
loop_
 _symmetry_equiv_pos_site_id
 _symmetry_equiv_pos_as_xyz
  1  'x, y, z'
loop_
 _atom_site_type_symbol
 _atom_site_label
 _atom_site_symmetry_multiplicity
 _atom_site_fract_x
 _atom_site_fract_y
 _atom_site_fract_z
 _atom_site_occupancy
  Ce  Ce0  1  0.666992  0.333409  0.000571  1
  Ce  Ce1  1  0.333409  0.666992  0.000571  1
  Ce  Ce2  1  0.333409  0.666992  0.499429  1
  Ce  Ce3  1  0.666992  0.333409  0.499429  1
  Ce  Ce4  1  0.735418  0.000129  0.250000  1
  Ce  Ce5  1  0.000129  0.735418  0.250000  1
  Th  Th6  1  0.735228  0.735228  0.750000  1
  Th  Th7  1  0.264534  0.000329  0.750000  1
  Th  Th8  1  0.000329  0.264534  0.750000  1
  Th  Th9  1  0.265158  0.265158  0.250000  1
  Ge  Ge10  1  0.998487  0.998487  0.003519  1
  Ge  Ge11  1  0.998487  0.998487  0.496481  1
  Sb  Sb12  1  0.387630  0.387630  0.750000  1
  Sb  Sb13  1  0.613171  0.000075  0.750000  1
  Sb  Sb14  1  0.000075  0.613171  0.750000  1
  Sb  Sb15  1  0.615422  0.615422  0.250000  1
  Sb  Sb16  1  0.386180  0.998950  0.250000  1
  Sb  Sb17  1  0.998950  0.386180  0.250000  1
