# generated using pymatgen
data_NdEu(Ni9P5)2
_symmetry_space_group_name_H-M   'P 1'
_cell_length_a   6.46931600
_cell_length_b   6.46931650
_cell_length_c   10.75192100
_cell_angle_alpha   90.00000000
_cell_angle_beta   90.00000000
_cell_angle_gamma   120.00000767
_symmetry_Int_Tables_number   1
_chemical_formula_structural   NdEu(Ni9P5)2
_chemical_formula_sum   'Nd1 Eu1 Ni18 P10'
_cell_volume   389.70271075
_cell_formula_units_Z   1
loop_
 _symmetry_equiv_pos_site_id
 _symmetry_equiv_pos_as_xyz
  1  'x, y, z'
loop_
 _atom_site_type_symbol
 _atom_site_label
 _atom_site_symmetry_multiplicity
 _atom_site_fract_x
 _atom_site_fract_y
 _atom_site_fract_z
 _atom_site_occupancy
  Nd  Nd0  1  0.000000  0.000000  0.000000  1
  Eu  Eu1  1  0.000000  0.000000  0.500000  1
  Ni  Ni2  1  0.464306  0.928612  0.893965  1
  Ni  Ni3  1  0.928612  0.464306  0.106035  1
  Ni  Ni4  1  0.535694  0.071388  0.106035  1
  Ni  Ni5  1  0.070927  0.535464  0.607022  1
  Ni  Ni6  1  0.202144  0.404288  0.248926  1
  Ni  Ni7  1  0.797856  0.202144  0.751074  1
  Ni  Ni8  1  0.404288  0.202144  0.751074  1
  Ni  Ni9  1  0.595712  0.797856  0.248926  1
  Ni  Ni10  1  0.202144  0.797856  0.248926  1
  Ni  Ni11  1  0.797856  0.595712  0.751074  1
  Ni  Ni12  1  0.464536  0.929073  0.607022  1
  Ni  Ni13  1  0.535464  0.464536  0.392978  1
  Ni  Ni14  1  0.929073  0.464536  0.392978  1
  Ni  Ni15  1  0.071388  0.535694  0.893965  1
  Ni  Ni16  1  0.464306  0.535694  0.893965  1
  Ni  Ni17  1  0.535464  0.070927  0.392978  1
  Ni  Ni18  1  0.535694  0.464306  0.106035  1
  Ni  Ni19  1  0.464536  0.535464  0.607022  1
  P  P20  1  0.174081  0.348162  0.750600  1
  P  P21  1  0.825919  0.174081  0.249400  1
  P  P22  1  0.174081  0.825919  0.750600  1
  P  P23  1  0.825919  0.651838  0.249400  1
  P  P24  1  0.333333  0.666667  0.438464  1
  P  P25  1  0.666667  0.333333  0.937866  1
  P  P26  1  0.666667  0.333333  0.561536  1
  P  P27  1  0.333333  0.666667  0.062134  1
  P  P28  1  0.348162  0.174081  0.249400  1
  P  P29  1  0.651838  0.825919  0.750600  1
