# generated using pymatgen
data_LiTmLu2In4Co
_symmetry_space_group_name_H-M   'P 1'
_cell_length_a   7.98304101
_cell_length_b   7.98602720
_cell_length_c   3.55053100
_cell_angle_alpha   90.00000000
_cell_angle_beta   90.00000000
_cell_angle_gamma   119.98289799
_symmetry_Int_Tables_number   1
_chemical_formula_structural   LiTmLu2In4Co
_chemical_formula_sum   'Li1 Tm1 Lu2 In4 Co1'
_cell_volume   196.06401976
_cell_formula_units_Z   1
loop_
 _symmetry_equiv_pos_site_id
 _symmetry_equiv_pos_as_xyz
  1  'x, y, z'
loop_
 _atom_site_type_symbol
 _atom_site_label
 _atom_site_symmetry_multiplicity
 _atom_site_fract_x
 _atom_site_fract_y
 _atom_site_fract_z
 _atom_site_occupancy
  Li  Li0  1  0.333415  0.666675  0.500000  1
  Tm  Tm1  1  0.955047  0.715754  0.500000  1
  Lu  Lu2  1  0.283609  0.238901  0.500000  1
  Lu  Lu3  1  0.761276  0.044985  0.500000  1
  In  In4  1  0.066800  0.401698  0.000000  1
  In  In5  1  0.597733  0.664822  0.000000  1
  In  In6  1  0.335707  0.933718  0.000000  1
  In  In7  1  0.666301  0.332827  0.000000  1
  Co  Co8  1  0.000114  0.000620  0.000000  1
