# generated using pymatgen
data_K4Li2ZrMnAs4
_symmetry_space_group_name_H-M   'P 1'
_cell_length_a   8.93614176
_cell_length_b   8.93614216
_cell_length_c   8.93614267
_cell_angle_alpha   137.44232535
_cell_angle_beta   137.23628654
_cell_angle_gamma   61.91655839
_symmetry_Int_Tables_number   1
_chemical_formula_structural   K4Li2ZrMnAs4
_chemical_formula_sum   'K4 Li2 Zr1 Mn1 As4'
_cell_volume   323.85920477
_cell_formula_units_Z   1
loop_
 _symmetry_equiv_pos_site_id
 _symmetry_equiv_pos_as_xyz
  1  'x, y, z'
loop_
 _atom_site_type_symbol
 _atom_site_label
 _atom_site_symmetry_multiplicity
 _atom_site_fract_x
 _atom_site_fract_y
 _atom_site_fract_z
 _atom_site_occupancy
  K  K0  1  0.097047  0.314127  0.763007  1
  K  K1  1  0.448879  0.185873  0.282919  1
  K  K2  1  0.902953  0.665960  0.217081  1
  K  K3  1  0.551121  0.834040  0.736993  1
  Li  Li4  1  0.500000  0.750000  0.250000  1
  Li  Li5  1  0.500000  0.250000  0.750000  1
  Zr  Zr6  1  0.000000  0.750000  0.750000  1
  Mn  Mn7  1  0.000000  0.250000  0.250000  1
  As  As8  1  0.141560  0.907841  0.234320  1
  As  As9  1  0.858440  0.092761  0.766282  1
  As  As10  1  0.326480  0.592159  0.733718  1
  As  As11  1  0.673520  0.407239  0.265680  1
