# generated using pymatgen
data_AcSm4(PtO6)2
_symmetry_space_group_name_H-M   'P 1'
_cell_length_a   7.08631012
_cell_length_b   7.08630968
_cell_length_c   7.47034400
_cell_angle_alpha   74.64967495
_cell_angle_beta   74.64967592
_cell_angle_gamma   50.91539024
_symmetry_Int_Tables_number   1
_chemical_formula_structural   AcSm4(PtO6)2
_chemical_formula_sum   'Ac1 Sm4 Pt2 O12'
_cell_volume   278.38521547
_cell_formula_units_Z   1
loop_
 _symmetry_equiv_pos_site_id
 _symmetry_equiv_pos_as_xyz
  1  'x, y, z'
loop_
 _atom_site_type_symbol
 _atom_site_label
 _atom_site_symmetry_multiplicity
 _atom_site_fract_x
 _atom_site_fract_y
 _atom_site_fract_z
 _atom_site_occupancy
  Ac  Ac0  1  0.000000  0.000000  0.500000  1
  Sm  Sm1  1  0.302685  0.302685  0.358912  1
  Sm  Sm2  1  0.697315  0.697315  0.641088  1
  Sm  Sm3  1  0.699054  0.699054  0.161691  1
  Sm  Sm4  1  0.300946  0.300946  0.838309  1
  Pt  Pt5  1  0.750993  0.249007  0.000000  1
  Pt  Pt6  1  0.249007  0.750993  0.000000  1
  O  O7  1  0.095626  0.584484  0.580958  1
  O  O8  1  0.999544  0.999544  0.171739  1
  O  O9  1  0.415516  0.904374  0.419042  1
  O  O10  1  0.500914  0.500914  0.182224  1
  O  O11  1  0.101137  0.570942  0.080441  1
  O  O12  1  0.904374  0.415516  0.419042  1
  O  O13  1  0.000456  0.000456  0.828261  1
  O  O14  1  0.584484  0.095625  0.580958  1
  O  O15  1  0.499086  0.499086  0.817776  1
  O  O16  1  0.570942  0.101137  0.080441  1
  O  O17  1  0.429058  0.898863  0.919559  1
  O  O18  1  0.898863  0.429058  0.919559  1
