# generated using pymatgen
data_HoEr3Sc4(CrB6)4
_symmetry_space_group_name_H-M   'P 1'
_cell_length_a   3.45159300
_cell_length_b   8.98086400
_cell_length_c   11.32509300
_cell_angle_alpha   90.00082954
_cell_angle_beta   90.00000000
_cell_angle_gamma   90.00000000
_symmetry_Int_Tables_number   1
_chemical_formula_structural   HoEr3Sc4(CrB6)4
_chemical_formula_sum   'Ho1 Er3 Sc4 Cr4 B24'
_cell_volume   351.05848668
_cell_formula_units_Z   1
loop_
 _symmetry_equiv_pos_site_id
 _symmetry_equiv_pos_as_xyz
  1  'x, y, z'
loop_
 _atom_site_type_symbol
 _atom_site_label
 _atom_site_symmetry_multiplicity
 _atom_site_fract_x
 _atom_site_fract_y
 _atom_site_fract_z
 _atom_site_occupancy
  Ho  Ho0  1  0.000000  0.822885  0.085337  1
  Er  Er1  1  0.000000  0.177093  0.914662  1
  Er  Er2  1  0.000000  0.322925  0.414645  1
  Er  Er3  1  0.000000  0.677149  0.585320  1
  Sc  Sc4  1  0.000000  0.443111  0.130757  1
  Sc  Sc5  1  0.000000  0.556748  0.869228  1
  Sc  Sc6  1  0.000000  0.943249  0.369321  1
  Sc  Sc7  1  0.000000  0.056763  0.630686  1
  Cr  Cr8  1  0.000000  0.141609  0.181957  1
  Cr  Cr9  1  0.000000  0.858527  0.817942  1
  Cr  Cr10  1  0.000000  0.641400  0.318204  1
  Cr  Cr11  1  0.000000  0.358538  0.681919  1
  B  B12  1  0.500000  0.054842  0.067383  1
  B  B13  1  0.500000  0.945530  0.932409  1
  B  B14  1  0.500000  0.554580  0.432652  1
  B  B15  1  0.500000  0.445411  0.567383  1
  B  B16  1  0.500000  0.253005  0.082252  1
  B  B17  1  0.500000  0.746973  0.917463  1
  B  B18  1  0.500000  0.752961  0.417801  1
  B  B19  1  0.500000  0.247021  0.582277  1
  B  B20  1  0.500000  0.294665  0.235906  1
  B  B21  1  0.500000  0.705329  0.764043  1
  B  B22  1  0.500000  0.794588  0.264327  1
  B  B23  1  0.500000  0.205350  0.735881  1
  B  B24  1  0.500000  0.129971  0.316862  1
  B  B25  1  0.500000  0.870107  0.683148  1
  B  B26  1  0.500000  0.629724  0.183339  1
  B  B27  1  0.500000  0.370074  0.816823  1
  B  B28  1  0.500000  0.482313  0.286796  1
  B  B29  1  0.500000  0.517596  0.713237  1
  B  B30  1  0.500000  0.982570  0.213398  1
  B  B31  1  0.500000  0.017656  0.786699  1
  B  B32  1  0.500000  0.096630  0.473813  1
  B  B33  1  0.500000  0.903382  0.526234  1
  B  B34  1  0.500000  0.596362  0.026132  1
  B  B35  1  0.500000  0.403362  0.973766  1
