# generated using pymatgen
data_Ti2Si12TcMo17
_symmetry_space_group_name_H-M   'P 1'
_cell_length_a   4.92911434
_cell_length_b   7.27204341
_cell_length_c   13.71136900
_cell_angle_alpha   90.00000000
_cell_angle_beta   90.00000000
_cell_angle_gamma   109.79941468
_symmetry_Int_Tables_number   1
_chemical_formula_structural   Ti2Si12TcMo17
_chemical_formula_sum   'Ti2 Si12 Tc1 Mo17'
_cell_volume   462.42612664
_cell_formula_units_Z   1
loop_
 _symmetry_equiv_pos_site_id
 _symmetry_equiv_pos_as_xyz
  1  'x, y, z'
loop_
 _atom_site_type_symbol
 _atom_site_label
 _atom_site_symmetry_multiplicity
 _atom_site_fract_x
 _atom_site_fract_y
 _atom_site_fract_z
 _atom_site_occupancy
  Ti  Ti0  1  0.000938  0.500374  0.250000  1
  Ti  Ti1  1  0.499868  0.500151  0.750000  1
  Si  Si2  1  0.250434  0.999683  0.999410  1
  Si  Si3  1  0.750690  0.000189  0.500674  1
  Si  Si4  1  0.750690  0.000189  0.999326  1
  Si  Si5  1  0.250434  0.999683  0.500590  1
  Si  Si6  1  0.747581  0.500040  0.084754  1
  Si  Si7  1  0.240408  0.499981  0.585985  1
  Si  Si8  1  0.747581  0.500040  0.415246  1
  Si  Si9  1  0.240408  0.499981  0.914015  1
  Si  Si10  1  0.417825  0.833210  0.250000  1
  Si  Si11  1  0.922642  0.829316  0.750000  1
  Si  Si12  1  0.084047  0.166970  0.250000  1
  Si  Si13  1  0.593123  0.170764  0.750000  1
  Tc  Tc14  1  0.997305  0.499838  0.750000  1
  Mo  Mo15  1  0.927503  0.851363  0.349496  1
  Mo  Mo16  1  0.428353  0.853721  0.847863  1
  Mo  Mo17  1  0.576208  0.148730  0.150422  1
  Mo  Mo18  1  0.074682  0.146270  0.652068  1
  Mo  Mo19  1  0.151867  0.303459  0.073259  1
  Mo  Mo20  1  0.650020  0.305067  0.572799  1
  Mo  Mo21  1  0.348563  0.696475  0.426740  1
  Mo  Mo22  1  0.845117  0.694853  0.927200  1
  Mo  Mo23  1  0.348563  0.696475  0.073260  1
  Mo  Mo24  1  0.845117  0.694853  0.572800  1
  Mo  Mo25  1  0.151867  0.303459  0.426741  1
  Mo  Mo26  1  0.650020  0.305067  0.927201  1
  Mo  Mo27  1  0.576208  0.148730  0.349578  1
  Mo  Mo28  1  0.074682  0.146270  0.847932  1
  Mo  Mo29  1  0.927503  0.851363  0.150504  1
  Mo  Mo30  1  0.428353  0.853721  0.652137  1
  Mo  Mo31  1  0.501391  0.499715  0.250000  1
