# generated using pymatgen
data_Sr4Mg(Si2Pt)5
_symmetry_space_group_name_H-M   'P 1'
_cell_length_a   8.50270463
_cell_length_b   8.50270452
_cell_length_c   8.50270523
_cell_angle_alpha   138.53128213
_cell_angle_beta   105.21997345
_cell_angle_gamma   89.32143665
_symmetry_Int_Tables_number   1
_chemical_formula_structural   Sr4Mg(Si2Pt)5
_chemical_formula_sum   'Sr4 Mg1 Si10 Pt5'
_cell_volume   375.99185348
_cell_formula_units_Z   1
loop_
 _symmetry_equiv_pos_site_id
 _symmetry_equiv_pos_as_xyz
  1  'x, y, z'
loop_
 _atom_site_type_symbol
 _atom_site_label
 _atom_site_symmetry_multiplicity
 _atom_site_fract_x
 _atom_site_fract_y
 _atom_site_fract_z
 _atom_site_occupancy
  Sr  Sr0  1  0.110953  0.869772  0.231859  1
  Sr  Sr1  1  0.889047  0.120906  0.758819  1
  Sr  Sr2  1  0.637913  0.379094  0.268141  1
  Sr  Sr3  1  0.362087  0.630228  0.741181  1
  Mg  Mg4  1  0.500000  0.750000  0.250000  1
  Si  Si5  1  0.000000  0.750000  0.750000  1
  Si  Si6  1  0.000000  0.250000  0.250000  1
  Si  Si7  1  0.267806  0.017806  0.750000  1
  Si  Si8  1  0.732194  0.482194  0.750000  1
  Si  Si9  1  0.736064  0.986064  0.250000  1
  Si  Si10  1  0.263936  0.513936  0.250000  1
  Si  Si11  1  0.771045  0.607367  0.135708  1
  Si  Si12  1  0.228955  0.364662  0.836321  1
  Si  Si13  1  0.471660  0.135338  0.364292  1
  Si  Si14  1  0.528340  0.892633  0.663679  1
  Pt  Pt15  1  0.500000  0.250000  0.750000  1
  Pt  Pt16  1  0.023824  0.633237  0.387814  1
  Pt  Pt17  1  0.976176  0.363989  0.609413  1
  Pt  Pt18  1  0.245424  0.136011  0.112186  1
  Pt  Pt19  1  0.754576  0.866763  0.890587  1
