# generated using pymatgen
data_Ba5(Eu2Pt3)2
_symmetry_space_group_name_H-M   'P 1'
_cell_length_a   8.27783190
_cell_length_b   8.27783201
_cell_length_c   8.27783197
_cell_angle_alpha   71.02528592
_cell_angle_beta   71.02529251
_cell_angle_gamma   71.02529425
_symmetry_Int_Tables_number   1
_chemical_formula_structural   Ba5(Eu2Pt3)2
_chemical_formula_sum   'Ba5 Eu4 Pt6'
_cell_volume   491.74304911
_cell_formula_units_Z   1
loop_
 _symmetry_equiv_pos_site_id
 _symmetry_equiv_pos_as_xyz
  1  'x, y, z'
loop_
 _atom_site_type_symbol
 _atom_site_label
 _atom_site_symmetry_multiplicity
 _atom_site_fract_x
 _atom_site_fract_y
 _atom_site_fract_z
 _atom_site_occupancy
  Ba  Ba0  1  0.799505  0.799505  0.799505  1
  Ba  Ba1  1  0.203340  0.203340  0.203340  1
  Ba  Ba2  1  0.323886  0.598342  0.850060  1
  Ba  Ba3  1  0.850060  0.323886  0.598342  1
  Ba  Ba4  1  0.598342  0.850060  0.323886  1
  Eu  Eu5  1  0.000870  0.000870  0.000870  1
  Eu  Eu6  1  0.694900  0.382910  0.145593  1
  Eu  Eu7  1  0.145593  0.694900  0.382910  1
  Eu  Eu8  1  0.382910  0.145593  0.694900  1
  Pt  Pt9  1  0.165318  0.956385  0.603237  1
  Pt  Pt10  1  0.603237  0.165318  0.956385  1
  Pt  Pt11  1  0.956385  0.603237  0.165318  1
  Pt  Pt12  1  0.842377  0.046511  0.386767  1
  Pt  Pt13  1  0.386767  0.842377  0.046511  1
  Pt  Pt14  1  0.046511  0.386767  0.842377  1
