# generated using pymatgen
data_TbHo3Tm4(ReC2)4
_symmetry_space_group_name_H-M   'P 1'
_cell_length_a   5.06717900
_cell_length_b   6.56340397
_cell_length_c   9.78670494
_cell_angle_alpha   90.08885439
_cell_angle_beta   90.00000000
_cell_angle_gamma   90.00000000
_symmetry_Int_Tables_number   1
_chemical_formula_structural   TbHo3Tm4(ReC2)4
_chemical_formula_sum   'Tb1 Ho3 Tm4 Re4 C8'
_cell_volume   325.48528159
_cell_formula_units_Z   1
loop_
 _symmetry_equiv_pos_site_id
 _symmetry_equiv_pos_as_xyz
  1  'x, y, z'
loop_
 _atom_site_type_symbol
 _atom_site_label
 _atom_site_symmetry_multiplicity
 _atom_site_fract_x
 _atom_site_fract_y
 _atom_site_fract_z
 _atom_site_occupancy
  Tb  Tb0  1  0.250000  0.533447  0.214910  1
  Ho  Ho1  1  0.750000  0.466239  0.784588  1
  Ho  Ho2  1  0.250000  0.033588  0.284608  1
  Ho  Ho3  1  0.750000  0.966273  0.715575  1
  Tm  Tm4  1  0.750000  0.823694  0.057310  1
  Tm  Tm5  1  0.250000  0.676441  0.557645  1
  Tm  Tm6  1  0.750000  0.323286  0.442681  1
  Tm  Tm7  1  0.250000  0.176699  0.942308  1
  Re  Re8  1  0.750000  0.278404  0.133002  1
  Re  Re9  1  0.250000  0.220887  0.633202  1
  Re  Re10  1  0.750000  0.779048  0.367199  1
  Re  Re11  1  0.250000  0.721440  0.866819  1
  C  C12  1  0.750000  0.173123  0.948986  1
  C  C13  1  0.250000  0.828493  0.050268  1
  C  C14  1  0.750000  0.673308  0.550943  1
  C  C15  1  0.250000  0.326034  0.449590  1
  C  C16  1  0.750000  0.046602  0.259978  1
  C  C17  1  0.250000  0.453191  0.759998  1
  C  C18  1  0.750000  0.546647  0.240409  1
  C  C19  1  0.250000  0.953156  0.739981  1
