# generated using pymatgen
data_Lu3Th11Fe6
_symmetry_space_group_name_H-M   'P 1'
_cell_length_a   9.56764541
_cell_length_b   9.51005766
_cell_length_c   6.24046435
_cell_angle_alpha   90.19755067
_cell_angle_beta   90.02502625
_cell_angle_gamma   120.17642566
_symmetry_Int_Tables_number   1
_chemical_formula_structural   Lu3Th11Fe6
_chemical_formula_sum   'Lu3 Th11 Fe6'
_cell_volume   490.85925077
_cell_formula_units_Z   1
loop_
 _symmetry_equiv_pos_site_id
 _symmetry_equiv_pos_as_xyz
  1  'x, y, z'
loop_
 _atom_site_type_symbol
 _atom_site_label
 _atom_site_symmetry_multiplicity
 _atom_site_fract_x
 _atom_site_fract_y
 _atom_site_fract_z
 _atom_site_occupancy
  Lu  Lu0  1  0.333740  0.667126  0.034884  1
  Lu  Lu1  1  0.537271  0.078483  0.061957  1
  Lu  Lu2  1  0.537105  0.458130  0.065355  1
  Th  Th3  1  0.913018  0.457632  0.067679  1
  Th  Th4  1  0.129313  0.251118  0.258107  1
  Th  Th5  1  0.130899  0.878177  0.256945  1
  Th  Th6  1  0.749006  0.875046  0.252776  1
  Th  Th7  1  0.664540  0.330083  0.522021  1
  Th  Th8  1  0.459064  0.920424  0.568071  1
  Th  Th9  1  0.081543  0.542152  0.573051  1
  Th  Th10  1  0.463153  0.539205  0.572346  1
  Th  Th11  1  0.872035  0.747114  0.758962  1
  Th  Th12  1  0.250473  0.125615  0.765563  1
  Th  Th13  1  0.873835  0.126458  0.757643  1
  Fe  Fe14  1  0.817058  0.629801  0.299738  1
  Fe  Fe15  1  0.360059  0.180939  0.304470  1
  Fe  Fe16  1  0.823307  0.191187  0.295564  1
  Fe  Fe17  1  0.186122  0.360273  0.788534  1
  Fe  Fe18  1  0.179936  0.821269  0.790700  1
  Fe  Fe19  1  0.638523  0.819762  0.785627  1
