# generated using pymatgen
data_Er3SiPt5
_symmetry_space_group_name_H-M   'P 1'
_cell_length_a   8.18082704
_cell_length_b   8.18082719
_cell_length_c   8.18082625
_cell_angle_alpha   127.67958176
_cell_angle_beta   125.92362955
_cell_angle_gamma   78.58280963
_symmetry_Int_Tables_number   1
_chemical_formula_structural   Er3SiPt5
_chemical_formula_sum   'Er6 Si2 Pt10'
_cell_volume   339.69842100
_cell_formula_units_Z   2
loop_
 _symmetry_equiv_pos_site_id
 _symmetry_equiv_pos_as_xyz
  1  'x, y, z'
loop_
 _atom_site_type_symbol
 _atom_site_label
 _atom_site_symmetry_multiplicity
 _atom_site_fract_x
 _atom_site_fract_y
 _atom_site_fract_z
 _atom_site_occupancy
  Er  Er0  1  0.828174  0.548700  0.279475  1
  Er  Er1  1  0.612484  0.250000  0.362484  1
  Er  Er2  1  0.171826  0.451300  0.720525  1
  Er  Er3  1  0.387516  0.750000  0.637516  1
  Er  Er4  1  0.230775  0.951300  0.279475  1
  Er  Er5  1  0.769225  0.048700  0.720525  1
  Si  Si6  1  0.222033  0.250000  0.972033  1
  Si  Si7  1  0.777967  0.750000  0.027967  1
  Pt  Pt8  1  0.169040  0.898298  0.854896  1
  Pt  Pt9  1  0.830960  0.101702  0.145104  1
  Pt  Pt10  1  0.456598  0.185856  0.854896  1
  Pt  Pt11  1  0.543402  0.398298  0.729257  1
  Pt  Pt12  1  0.830960  0.685856  0.729257  1
  Pt  Pt13  1  0.456598  0.601702  0.270743  1
  Pt  Pt14  1  0.543402  0.814144  0.145104  1
  Pt  Pt15  1  0.169040  0.314144  0.270743  1
  Pt  Pt16  1  0.000000  0.000000  0.500000  1
  Pt  Pt17  1  0.000000  0.500000  0.000000  1
