# generated using pymatgen
data_Ac3Zn2Cu7Ni6
_symmetry_space_group_name_H-M   'P 1'
_cell_length_a   9.00437229
_cell_length_b   9.07096377
_cell_length_c   4.11565300
_cell_angle_alpha   90.00000000
_cell_angle_beta   90.00000000
_cell_angle_gamma   120.24494935
_symmetry_Int_Tables_number   1
_chemical_formula_structural   Ac3Zn2Cu7Ni6
_chemical_formula_sum   'Ac3 Zn2 Cu7 Ni6'
_cell_volume   290.40159723
_cell_formula_units_Z   1
loop_
 _symmetry_equiv_pos_site_id
 _symmetry_equiv_pos_as_xyz
  1  'x, y, z'
loop_
 _atom_site_type_symbol
 _atom_site_label
 _atom_site_symmetry_multiplicity
 _atom_site_fract_x
 _atom_site_fract_y
 _atom_site_fract_z
 _atom_site_occupancy
  Ac  Ac0  1  0.000000  0.000000  0.500000  1
  Ac  Ac1  1  0.325479  0.662740  0.000000  1
  Ac  Ac2  1  0.674521  0.337260  0.000000  1
  Zn  Zn3  1  0.500000  0.000000  0.500000  1
  Zn  Zn4  1  0.500000  0.500000  0.500000  1
  Cu  Cu5  1  0.000000  0.500000  0.500000  1
  Cu  Cu6  1  0.293034  0.000583  0.000000  1
  Cu  Cu7  1  0.293034  0.292451  0.000000  1
  Cu  Cu8  1  0.000000  0.706015  0.000000  1
  Cu  Cu9  1  0.000000  0.293985  0.000000  1
  Cu  Cu10  1  0.706966  0.707549  0.000000  1
  Cu  Cu11  1  0.706966  0.999417  0.000000  1
  Ni  Ni12  1  0.181168  0.363131  0.500000  1
  Ni  Ni13  1  0.818832  0.181965  0.500000  1
  Ni  Ni14  1  0.365999  0.183000  0.500000  1
  Ni  Ni15  1  0.634001  0.817000  0.500000  1
  Ni  Ni16  1  0.181168  0.818035  0.500000  1
  Ni  Ni17  1  0.818832  0.636869  0.500000  1
