# generated using pymatgen
data_Er8Al3Si8Ge
_symmetry_space_group_name_H-M   'P 1'
_cell_length_a   5.54878857
_cell_length_b   5.54878914
_cell_length_c   19.36461879
_cell_angle_alpha   82.08124076
_cell_angle_beta   82.08124084
_cell_angle_gamma   42.56785242
_symmetry_Int_Tables_number   1
_chemical_formula_structural   Er8Al3Si8Ge
_chemical_formula_sum   'Er8 Al3 Si8 Ge1'
_cell_volume   398.88680398
_cell_formula_units_Z   1
loop_
 _symmetry_equiv_pos_site_id
 _symmetry_equiv_pos_as_xyz
  1  'x, y, z'
loop_
 _atom_site_type_symbol
 _atom_site_label
 _atom_site_symmetry_multiplicity
 _atom_site_fract_x
 _atom_site_fract_y
 _atom_site_fract_z
 _atom_site_occupancy
  Er  Er0  1  0.462605  0.462605  0.676547  1
  Er  Er1  1  0.703345  0.703345  0.928636  1
  Er  Er2  1  0.973903  0.973903  0.179216  1
  Er  Er3  1  0.216931  0.216931  0.428038  1
  Er  Er4  1  0.783069  0.783069  0.571962  1
  Er  Er5  1  0.026097  0.026097  0.820784  1
  Er  Er6  1  0.296655  0.296655  0.071364  1
  Er  Er7  1  0.537395  0.537395  0.323453  1
  Al  Al8  1  0.254815  0.254815  0.252370  1
  Al  Al9  1  0.500000  0.500000  0.500000  1
  Al  Al10  1  0.745185  0.745185  0.747630  1
  Si  Si11  1  0.172663  0.172663  0.676402  1
  Si  Si12  1  0.415841  0.415841  0.923300  1
  Si  Si13  1  0.687240  0.687240  0.180120  1
  Si  Si14  1  0.928236  0.928236  0.428000  1
  Si  Si15  1  0.071764  0.071764  0.572000  1
  Si  Si16  1  0.312760  0.312760  0.819880  1
  Si  Si17  1  0.584159  0.584159  0.076700  1
  Si  Si18  1  0.827337  0.827337  0.323598  1
  Ge  Ge19  1  0.000000  0.000000  0.000000  1
