# generated using pymatgen
data_TmTh(SiRh2)2
_symmetry_space_group_name_H-M   'P 1'
_cell_length_a   9.16721614
_cell_length_b   9.16721651
_cell_length_c   4.08740400
_cell_angle_alpha   90.00000000
_cell_angle_beta   90.00000000
_cell_angle_gamma   154.88236292
_symmetry_Int_Tables_number   1
_chemical_formula_structural   TmTh(SiRh2)2
_chemical_formula_sum   'Tm1 Th1 Si2 Rh4'
_cell_volume   145.80683217
_cell_formula_units_Z   1
loop_
 _symmetry_equiv_pos_site_id
 _symmetry_equiv_pos_as_xyz
  1  'x, y, z'
loop_
 _atom_site_type_symbol
 _atom_site_label
 _atom_site_symmetry_multiplicity
 _atom_site_fract_x
 _atom_site_fract_y
 _atom_site_fract_z
 _atom_site_occupancy
  Tm  Tm0  1  0.102103  0.897897  0.750000  1
  Th  Th1  1  0.904326  0.095674  0.250000  1
  Si  Si2  1  0.320290  0.679710  0.750000  1
  Si  Si3  1  0.676265  0.323735  0.250000  1
  Rh  Rh4  1  0.547726  0.452274  0.250000  1
  Rh  Rh5  1  0.452703  0.547297  0.750000  1
  Rh  Rh6  1  0.248835  0.751165  0.250000  1
  Rh  Rh7  1  0.747753  0.252247  0.750000  1
