# generated using pymatgen
data_Pr7S8
_symmetry_space_group_name_H-M   'P 1'
_cell_length_a   8.19364300
_cell_length_b   8.19364213
_cell_length_c   8.19364300
_cell_angle_alpha   119.99999949
_cell_angle_beta   90.00000000
_cell_angle_gamma   119.99999949
_symmetry_Int_Tables_number   1
_chemical_formula_structural   Pr7S8
_chemical_formula_sum   'Pr7 S8'
_cell_volume   388.96997196
_cell_formula_units_Z   1
loop_
 _symmetry_equiv_pos_site_id
 _symmetry_equiv_pos_as_xyz
  1  'x, y, z'
loop_
 _atom_site_type_symbol
 _atom_site_label
 _atom_site_symmetry_multiplicity
 _atom_site_fract_x
 _atom_site_fract_y
 _atom_site_fract_z
 _atom_site_occupancy
  Pr  Pr0  1  0.250073  0.000000  0.250073  1
  Pr  Pr1  1  0.250073  0.500146  0.250073  1
  Pr  Pr2  1  0.749927  0.000000  0.250074  1
  Pr  Pr3  1  0.250001  0.500001  0.750002  1
  Pr  Pr4  1  0.250074  0.000000  0.749927  1
  Pr  Pr5  1  0.749927  0.000000  0.749927  1
  Pr  Pr6  1  0.749927  0.499853  0.749927  1
  S  S7  1  0.000000  0.000000  0.000000  1
  S  S8  1  0.500000  0.000000  0.500000  1
  S  S9  1  0.000336  0.000674  0.500338  1
  S  S10  1  0.000336  0.500001  0.500338  1
  S  S11  1  0.499665  0.500001  0.500338  1
  S  S12  1  0.000338  0.500001  0.999664  1
  S  S13  1  0.499663  0.500001  0.999664  1
  S  S14  1  0.499663  0.999325  0.999664  1
