# generated using pymatgen
data_La4NdYTa2O14
_symmetry_space_group_name_H-M   'P 1'
_cell_length_a   6.71595200
_cell_length_b   6.71221236
_cell_length_c   7.77059400
_cell_angle_alpha   90.00000000
_cell_angle_beta   90.00000000
_cell_angle_gamma   108.83945232
_symmetry_Int_Tables_number   1
_chemical_formula_structural   La4NdYTa2O14
_chemical_formula_sum   'La4 Nd1 Y1 Ta2 O14'
_cell_volume   331.52377034
_cell_formula_units_Z   1
loop_
 _symmetry_equiv_pos_site_id
 _symmetry_equiv_pos_as_xyz
  1  'x, y, z'
loop_
 _atom_site_type_symbol
 _atom_site_label
 _atom_site_symmetry_multiplicity
 _atom_site_fract_x
 _atom_site_fract_y
 _atom_site_fract_z
 _atom_site_occupancy
  La  La0  1  0.530334  0.524882  0.498980  1
  La  La1  1  0.530334  0.524882  0.001020  1
  La  La2  1  0.007739  0.466748  0.750000  1
  La  La3  1  0.465969  0.004876  0.250000  1
  Nd  Nd4  1  0.533732  0.003676  0.750000  1
  Y  Y5  1  0.003290  0.530103  0.250000  1
  Ta  Ta6  1  0.000646  0.000829  0.497934  1
  Ta  Ta7  1  0.000646  0.000829  0.002066  1
  O  O8  1  0.945155  0.051870  0.750000  1
  O  O9  1  0.054444  0.939981  0.250000  1
  O  O10  1  0.354735  0.637162  0.250000  1
  O  O11  1  0.644186  0.368984  0.750000  1
  O  O12  1  0.376152  0.634480  0.750000  1
  O  O13  1  0.645522  0.380641  0.250000  1
  O  O14  1  0.305155  0.066172  0.966037  1
  O  O15  1  0.679159  0.920080  0.476920  1
  O  O16  1  0.305155  0.066172  0.533963  1
  O  O17  1  0.679159  0.920080  0.023080  1
  O  O18  1  0.037519  0.297734  0.456659  1
  O  O19  1  0.931724  0.681043  0.980831  1
  O  O20  1  0.931724  0.681043  0.519169  1
  O  O21  1  0.037519  0.297734  0.043341  1
