# generated using pymatgen
data_NdEuNi2(Sb2Pd)2
_symmetry_space_group_name_H-M   'P 1'
_cell_length_a   4.56181600
_cell_length_b   4.56181600
_cell_length_c   10.30054600
_cell_angle_alpha   90.00000000
_cell_angle_beta   90.00000000
_cell_angle_gamma   90.00000000
_symmetry_Int_Tables_number   1
_chemical_formula_structural   NdEuNi2(Sb2Pd)2
_chemical_formula_sum   'Nd1 Eu1 Ni2 Sb4 Pd2'
_cell_volume   214.35606409
_cell_formula_units_Z   1
loop_
 _symmetry_equiv_pos_site_id
 _symmetry_equiv_pos_as_xyz
  1  'x, y, z'
loop_
 _atom_site_type_symbol
 _atom_site_label
 _atom_site_symmetry_multiplicity
 _atom_site_fract_x
 _atom_site_fract_y
 _atom_site_fract_z
 _atom_site_occupancy
  Nd  Nd0  1  0.500000  0.000000  0.250583  1
  Eu  Eu1  1  0.000000  0.500000  0.750728  1
  Ni  Ni2  1  0.500000  0.000000  0.613119  1
  Ni  Ni3  1  0.000000  0.500000  0.383224  1
  Sb  Sb4  1  0.000000  0.000000  0.499759  1
  Sb  Sb5  1  0.500000  0.500000  0.499759  1
  Sb  Sb6  1  0.500000  0.000000  0.857922  1
  Sb  Sb7  1  0.000000  0.500000  0.140949  1
  Pd  Pd8  1  0.000000  0.000000  0.001978  1
  Pd  Pd9  1  0.500000  0.500000  0.001978  1
