# generated using pymatgen
data_Yb(TaS2)5
_symmetry_space_group_name_H-M   'P 1'
_cell_length_a   5.81013834
_cell_length_b   8.06642651
_cell_length_c   8.76517849
_cell_angle_alpha   116.42807786
_cell_angle_beta   96.51117113
_cell_angle_gamma   103.87079989
_symmetry_Int_Tables_number   1
_chemical_formula_structural   Yb(TaS2)5
_chemical_formula_sum   'Yb1 Ta5 S10'
_cell_volume   345.50524245
_cell_formula_units_Z   1
loop_
 _symmetry_equiv_pos_site_id
 _symmetry_equiv_pos_as_xyz
  1  'x, y, z'
loop_
 _atom_site_type_symbol
 _atom_site_label
 _atom_site_symmetry_multiplicity
 _atom_site_fract_x
 _atom_site_fract_y
 _atom_site_fract_z
 _atom_site_occupancy
  Yb  Yb0  1  0.667184  0.504784  0.997138  1
  Ta  Ta1  1  0.000661  0.997974  0.999293  1
  Ta  Ta2  1  0.598970  0.200555  0.202713  1
  Ta  Ta3  1  0.198622  0.399451  0.399865  1
  Ta  Ta4  1  0.801440  0.601215  0.601447  1
  Ta  Ta5  1  0.400889  0.797219  0.796714  1
  S  S6  1  0.235737  0.068278  0.287065  1
  S  S7  1  0.043562  0.665626  0.888549  1
  S  S8  1  0.836619  0.268620  0.487331  1
  S  S9  1  0.636527  0.870656  0.091173  1
  S  S10  1  0.433925  0.462035  0.684354  1
  S  S11  1  0.896050  0.534904  0.313644  1
  S  S12  1  0.696104  0.131577  0.913232  1
  S  S13  1  0.495632  0.730917  0.513119  1
  S  S14  1  0.293329  0.332506  0.111545  1
  S  S15  1  0.097549  0.931281  0.714419  1
