# generated using pymatgen
data_Cs8Bi4Pb
_symmetry_space_group_name_H-M   'P 1'
_cell_length_a   12.92637960
_cell_length_b   12.92637980
_cell_length_c   12.92637900
_cell_angle_alpha   59.99999949
_cell_angle_beta   59.99999898
_cell_angle_gamma   60.00000130
_symmetry_Int_Tables_number   1
_chemical_formula_structural   Cs8Bi4Pb
_chemical_formula_sum   'Cs16 Bi8 Pb2'
_cell_volume   1527.26958925
_cell_formula_units_Z   2
loop_
 _symmetry_equiv_pos_site_id
 _symmetry_equiv_pos_as_xyz
  1  'x, y, z'
loop_
 _atom_site_type_symbol
 _atom_site_label
 _atom_site_symmetry_multiplicity
 _atom_site_fract_x
 _atom_site_fract_y
 _atom_site_fract_z
 _atom_site_occupancy
  Cs  Cs0  1  0.625000  0.125000  0.625000  1
  Cs  Cs1  1  0.625000  0.625000  0.125000  1
  Cs  Cs2  1  0.125000  0.625000  0.625000  1
  Cs  Cs3  1  0.625000  0.625000  0.625000  1
  Cs  Cs4  1  0.022882  0.022882  0.477118  1
  Cs  Cs5  1  0.772882  0.227118  0.227118  1
  Cs  Cs6  1  0.227118  0.772882  0.772882  1
  Cs  Cs7  1  0.772882  0.772882  0.227118  1
  Cs  Cs8  1  0.772882  0.227118  0.772882  1
  Cs  Cs9  1  0.227118  0.772882  0.227118  1
  Cs  Cs10  1  0.477118  0.022882  0.477118  1
  Cs  Cs11  1  0.477118  0.022882  0.022882  1
  Cs  Cs12  1  0.022882  0.477118  0.477118  1
  Cs  Cs13  1  0.022882  0.477118  0.022882  1
  Cs  Cs14  1  0.227118  0.227118  0.772882  1
  Cs  Cs15  1  0.477118  0.477118  0.022882  1
  Bi  Bi16  1  0.399737  0.800790  0.399737  1
  Bi  Bi17  1  0.850263  0.850263  0.449210  1
  Bi  Bi18  1  0.449210  0.850263  0.850263  1
  Bi  Bi19  1  0.850263  0.850263  0.850263  1
  Bi  Bi20  1  0.800790  0.399737  0.399737  1
  Bi  Bi21  1  0.399737  0.399737  0.399737  1
  Bi  Bi22  1  0.399737  0.399737  0.800790  1
  Bi  Bi23  1  0.850263  0.449210  0.850263  1
  Pb  Pb24  1  0.750000  0.750000  0.750000  1
  Pb  Pb25  1  0.500000  0.500000  0.500000  1
