# generated using pymatgen
data_Sr4Tc(BrN2)2
_symmetry_space_group_name_H-M   'P 1'
_cell_length_a   6.01216000
_cell_length_b   8.08469378
_cell_length_c   10.65989551
_cell_angle_alpha   81.40501851
_cell_angle_beta   90.00000000
_cell_angle_gamma   90.00000000
_symmetry_Int_Tables_number   1
_chemical_formula_structural   Sr4Tc(BrN2)2
_chemical_formula_sum   'Sr8 Tc2 Br4 N8'
_cell_volume   512.32093488
_cell_formula_units_Z   2
loop_
 _symmetry_equiv_pos_site_id
 _symmetry_equiv_pos_as_xyz
  1  'x, y, z'
loop_
 _atom_site_type_symbol
 _atom_site_label
 _atom_site_symmetry_multiplicity
 _atom_site_fract_x
 _atom_site_fract_y
 _atom_site_fract_z
 _atom_site_occupancy
  Sr  Sr0  1  0.750000  0.285642  0.301470  1
  Sr  Sr1  1  0.750000  0.002559  0.619228  1
  Sr  Sr2  1  0.750000  0.447557  0.612566  1
  Sr  Sr3  1  0.750000  0.812272  0.100431  1
  Sr  Sr4  1  0.250000  0.997441  0.380772  1
  Sr  Sr5  1  0.250000  0.552443  0.387434  1
  Sr  Sr6  1  0.250000  0.187728  0.899569  1
  Sr  Sr7  1  0.250000  0.714358  0.698530  1
  Tc  Tc8  1  0.750000  0.772648  0.397203  1
  Tc  Tc9  1  0.250000  0.227352  0.602797  1
  Br  Br10  1  0.250000  0.327873  0.161365  1
  Br  Br11  1  0.750000  0.672127  0.838635  1
  Br  Br12  1  0.250000  0.839319  0.097734  1
  Br  Br13  1  0.750000  0.160681  0.902266  1
  N  N14  1  0.250000  0.027600  0.712149  1
  N  N15  1  0.001629  0.245397  0.495603  1
  N  N16  1  0.501629  0.754603  0.504397  1
  N  N17  1  0.998371  0.754603  0.504397  1
  N  N18  1  0.750000  0.601170  0.298690  1
  N  N19  1  0.750000  0.972400  0.287851  1
  N  N20  1  0.498371  0.245397  0.495603  1
  N  N21  1  0.250000  0.398830  0.701310  1
