# generated using pymatgen
data_Ho3Al3SnAu2
_symmetry_space_group_name_H-M   'P 1'
_cell_length_a   7.15394100
_cell_length_b   7.15394019
_cell_length_c   4.37196500
_cell_angle_alpha   90.00000000
_cell_angle_beta   90.00000000
_cell_angle_gamma   119.99999911
_symmetry_Int_Tables_number   1
_chemical_formula_structural   Ho3Al3SnAu2
_chemical_formula_sum   'Ho3 Al3 Sn1 Au2'
_cell_volume   193.77510075
_cell_formula_units_Z   1
loop_
 _symmetry_equiv_pos_site_id
 _symmetry_equiv_pos_as_xyz
  1  'x, y, z'
loop_
 _atom_site_type_symbol
 _atom_site_label
 _atom_site_symmetry_multiplicity
 _atom_site_fract_x
 _atom_site_fract_y
 _atom_site_fract_z
 _atom_site_occupancy
  Ho  Ho0  1  0.411714  0.422441  0.500000  1
  Ho  Ho1  1  0.577559  0.989272  0.500000  1
  Ho  Ho2  1  0.010728  0.588286  0.500000  1
  Al  Al3  1  0.752636  0.771723  0.000000  1
  Al  Al4  1  0.228277  0.980913  0.000000  1
  Al  Al5  1  0.019087  0.247364  0.000000  1
  Sn  Sn6  1  0.666667  0.333333  0.000000  1
  Au  Au7  1  0.333333  0.666667  0.000000  1
  Au  Au8  1  0.000000  0.000000  0.500000  1
