# generated using pymatgen
data_Nd2NiOsRu2
_symmetry_space_group_name_H-M   'P 1'
_cell_length_a   5.22824780
_cell_length_b   5.22824706
_cell_length_c   5.46455473
_cell_angle_alpha   88.02017644
_cell_angle_beta   60.36350362
_cell_angle_gamma   116.55426629
_symmetry_Int_Tables_number   1
_chemical_formula_structural   Nd2NiOsRu2
_chemical_formula_sum   'Nd2 Ni1 Os1 Ru2'
_cell_volume   109.67928085
_cell_formula_units_Z   1
loop_
 _symmetry_equiv_pos_site_id
 _symmetry_equiv_pos_as_xyz
  1  'x, y, z'
loop_
 _atom_site_type_symbol
 _atom_site_label
 _atom_site_symmetry_multiplicity
 _atom_site_fract_x
 _atom_site_fract_y
 _atom_site_fract_z
 _atom_site_occupancy
  Nd  Nd0  1  0.505407  0.751119  0.743474  1
  Nd  Nd1  1  0.994593  0.998881  0.006526  1
  Ni  Ni2  1  0.750000  0.375000  0.875000  1
  Os  Os3  1  0.250000  0.375000  0.375000  1
  Ru  Ru4  1  0.250000  0.875000  0.375000  1
  Ru  Ru5  1  0.750000  0.375000  0.375000  1
