# generated using pymatgen
data_Er5Hf5(Co2Si5)4
_symmetry_space_group_name_H-M   'P 1'
_cell_length_a   12.14366000
_cell_length_b   12.14366000
_cell_length_c   3.98218400
_cell_angle_alpha   90.00000000
_cell_angle_beta   90.00000000
_cell_angle_gamma   90.00000000
_symmetry_Int_Tables_number   1
_chemical_formula_structural   Er5Hf5(Co2Si5)4
_chemical_formula_sum   'Er5 Hf5 Co8 Si20'
_cell_volume   587.24661437
_cell_formula_units_Z   1
loop_
 _symmetry_equiv_pos_site_id
 _symmetry_equiv_pos_as_xyz
  1  'x, y, z'
loop_
 _atom_site_type_symbol
 _atom_site_label
 _atom_site_symmetry_multiplicity
 _atom_site_fract_x
 _atom_site_fract_y
 _atom_site_fract_z
 _atom_site_occupancy
  Er  Er0  1  0.000000  0.000000  0.000000  1
  Er  Er1  1  0.885787  0.386844  0.500000  1
  Er  Er2  1  0.114213  0.613156  0.500000  1
  Er  Er3  1  0.386844  0.114213  0.500000  1
  Er  Er4  1  0.613156  0.885787  0.500000  1
  Hf  Hf5  1  0.500000  0.500000  0.000000  1
  Hf  Hf6  1  0.676080  0.177340  0.500000  1
  Hf  Hf7  1  0.323920  0.822660  0.500000  1
  Hf  Hf8  1  0.177340  0.323920  0.500000  1
  Hf  Hf9  1  0.822660  0.676080  0.500000  1
  Co  Co10  1  0.741525  0.525520  0.000000  1
  Co  Co11  1  0.258475  0.474480  0.000000  1
  Co  Co12  1  0.245627  0.974126  0.000000  1
  Co  Co13  1  0.754373  0.025874  0.000000  1
  Co  Co14  1  0.474480  0.741525  0.000000  1
  Co  Co15  1  0.525520  0.258475  0.000000  1
  Co  Co16  1  0.025874  0.245627  0.000000  1
  Co  Co17  1  0.974126  0.754373  0.000000  1
  Si  Si18  1  0.568647  0.070053  0.000000  1
  Si  Si19  1  0.431353  0.929947  0.000000  1
  Si  Si20  1  0.070053  0.431353  0.000000  1
  Si  Si21  1  0.929947  0.568647  0.000000  1
  Si  Si22  1  0.656582  0.696983  0.000000  1
  Si  Si23  1  0.343418  0.303017  0.000000  1
  Si  Si24  1  0.156728  0.802532  0.000000  1
  Si  Si25  1  0.843272  0.197468  0.000000  1
  Si  Si26  1  0.303017  0.656582  0.000000  1
  Si  Si27  1  0.696983  0.343418  0.000000  1
  Si  Si28  1  0.197468  0.156728  0.000000  1
  Si  Si29  1  0.802532  0.843272  0.000000  1
  Si  Si30  1  0.661667  0.506333  0.500000  1
  Si  Si31  1  0.338333  0.493667  0.500000  1
  Si  Si32  1  0.166277  0.994228  0.500000  1
  Si  Si33  1  0.833723  0.005772  0.500000  1
  Si  Si34  1  0.493667  0.661667  0.500000  1
  Si  Si35  1  0.506333  0.338333  0.500000  1
  Si  Si36  1  0.005772  0.166277  0.500000  1
  Si  Si37  1  0.994228  0.833723  0.500000  1
