# generated using pymatgen
data_Dy3Ho17(Ir2Os)4
_symmetry_space_group_name_H-M   'P 1'
_cell_length_a   10.82642403
_cell_length_b   10.82505603
_cell_length_c   6.39600600
_cell_angle_alpha   90.00207665
_cell_angle_beta   90.00284801
_cell_angle_gamma   89.99153189
_symmetry_Int_Tables_number   1
_chemical_formula_structural   Dy3Ho17(Ir2Os)4
_chemical_formula_sum   'Dy3 Ho17 Ir8 Os4'
_cell_volume   749.59044670
_cell_formula_units_Z   1
loop_
 _symmetry_equiv_pos_site_id
 _symmetry_equiv_pos_as_xyz
  1  'x, y, z'
loop_
 _atom_site_type_symbol
 _atom_site_label
 _atom_site_symmetry_multiplicity
 _atom_site_fract_x
 _atom_site_fract_y
 _atom_site_fract_z
 _atom_site_occupancy
  Dy  Dy0  1  0.293558  0.086295  0.376733  1
  Dy  Dy1  1  0.293547  0.913715  0.876732  1
  Dy  Dy2  1  0.706460  0.086226  0.876706  1
  Ho  Ho3  1  0.706281  0.913792  0.376891  1
  Ho  Ho4  1  0.586175  0.793562  0.876897  1
  Ho  Ho5  1  0.586181  0.206363  0.376898  1
  Ho  Ho6  1  0.413969  0.793582  0.376858  1
  Ho  Ho7  1  0.413888  0.206493  0.876875  1
  Ho  Ho8  1  0.206259  0.413904  0.623168  1
  Ho  Ho9  1  0.206256  0.586094  0.123197  1
  Ho  Ho10  1  0.793751  0.413891  0.123183  1
  Ho  Ho11  1  0.793736  0.586123  0.623159  1
  Ho  Ho12  1  0.913850  0.706254  0.123117  1
  Ho  Ho13  1  0.913895  0.293788  0.623063  1
  Ho  Ho14  1  0.086091  0.706185  0.623073  1
  Ho  Ho15  1  0.086079  0.293765  0.123052  1
  Ho  Ho16  1  0.999919  0.999975  0.499888  1
  Ho  Ho17  1  0.999973  0.999993  0.000080  1
  Ho  Ho18  1  0.499995  0.499996  0.999982  1
  Ho  Ho19  1  0.500028  0.500003  0.500027  1
  Ir  Ir20  1  0.847843  0.152313  0.250308  1
  Ir  Ir21  1  0.847833  0.847646  0.749957  1
  Ir  Ir22  1  0.152058  0.152396  0.750258  1
  Ir  Ir23  1  0.152076  0.847574  0.250246  1
  Ir  Ir24  1  0.652203  0.347934  0.749928  1
  Ir  Ir25  1  0.652226  0.652232  0.250007  1
  Ir  Ir26  1  0.347799  0.347956  0.249887  1
  Ir  Ir27  1  0.347806  0.652061  0.749930  1
  Os  Os28  1  0.500093  0.999939  0.122731  1
  Os  Os29  1  0.500143  0.999934  0.622330  1
  Os  Os30  1  0.000009  0.499998  0.877479  1
  Os  Os31  1  0.000018  0.500019  0.377359  1
