# generated using pymatgen
data_Tb5Mg2P12Ir17
_symmetry_space_group_name_H-M   'P 1'
_cell_length_a   12.67616500
_cell_length_b   12.83400979
_cell_length_c   3.98386400
_cell_angle_alpha   90.00000000
_cell_angle_beta   90.00000000
_cell_angle_gamma   119.59398390
_symmetry_Int_Tables_number   1
_chemical_formula_structural   Tb5Mg2P12Ir17
_chemical_formula_sum   'Tb5 Mg2 P12 Ir17'
_cell_volume   563.56979617
_cell_formula_units_Z   1
loop_
 _symmetry_equiv_pos_site_id
 _symmetry_equiv_pos_as_xyz
  1  'x, y, z'
loop_
 _atom_site_type_symbol
 _atom_site_label
 _atom_site_symmetry_multiplicity
 _atom_site_fract_x
 _atom_site_fract_y
 _atom_site_fract_z
 _atom_site_occupancy
  Tb  Tb0  1  0.332983  0.664303  0.500000  1
  Tb  Tb1  1  0.668680  0.335697  0.500000  1
  Tb  Tb2  1  0.002120  0.813174  0.000000  1
  Tb  Tb3  1  0.188946  0.186826  0.000000  1
  Tb  Tb4  1  0.810197  0.000000  0.000000  1
  Mg  Mg5  1  0.997881  0.444405  0.500000  1
  Mg  Mg6  1  0.553477  0.555595  0.500000  1
  P  P7  1  0.002987  0.643334  0.500000  1
  P  P8  1  0.359652  0.356666  0.500000  1
  P  P9  1  0.642523  0.000000  0.500000  1
  P  P10  1  0.514138  0.685929  0.000000  1
  P  P11  1  0.308338  0.824479  0.000000  1
  P  P12  1  0.168759  0.481349  0.000000  1
  P  P13  1  0.483859  0.175521  0.000000  1
  P  P14  1  0.687410  0.518651  0.000000  1
  P  P15  1  0.828207  0.314071  0.000000  1
  P  P16  1  0.998671  0.176019  0.500000  1
  P  P17  1  0.822652  0.823981  0.500000  1
  P  P18  1  0.178890  0.000000  0.500000  1
  Ir  Ir19  1  0.505137  0.866255  0.000000  1
  Ir  Ir20  1  0.128391  0.639972  0.000000  1
  Ir  Ir21  1  0.357720  0.492244  0.000000  1
  Ir  Ir22  1  0.488420  0.360028  0.000000  1
  Ir  Ir23  1  0.865478  0.507756  0.000000  1
  Ir  Ir24  1  0.638883  0.133745  0.000000  1
  Ir  Ir25  1  0.461930  0.000000  0.500000  1
  Ir  Ir26  1  0.996478  0.279491  0.000000  1
  Ir  Ir27  1  0.716987  0.720509  0.000000  1
  Ir  Ir28  1  0.287430  0.000000  0.000000  1
  Ir  Ir29  1  0.622935  0.807125  0.500000  1
  Ir  Ir30  1  0.201142  0.824949  0.500000  1
  Ir  Ir31  1  0.177008  0.367803  0.500000  1
  Ir  Ir32  1  0.376194  0.175051  0.500000  1
  Ir  Ir33  1  0.809205  0.632197  0.500000  1
  Ir  Ir34  1  0.815810  0.192875  0.500000  1
  Ir  Ir35  1  0.000485  0.000000  0.500000  1
