# generated using pymatgen
data_DyY2Ho9Ir4
_symmetry_space_group_name_H-M   'P 1'
_cell_length_a   6.39783804
_cell_length_b   7.24349304
_cell_length_c   9.16356500
_cell_angle_alpha   90.00000000
_cell_angle_beta   90.00000000
_cell_angle_gamma   90.01236488
_symmetry_Int_Tables_number   1
_chemical_formula_structural   DyY2Ho9Ir4
_chemical_formula_sum   'Dy1 Y2 Ho9 Ir4'
_cell_volume   424.66429084
_cell_formula_units_Z   1
loop_
 _symmetry_equiv_pos_site_id
 _symmetry_equiv_pos_as_xyz
  1  'x, y, z'
loop_
 _atom_site_type_symbol
 _atom_site_label
 _atom_site_symmetry_multiplicity
 _atom_site_fract_x
 _atom_site_fract_y
 _atom_site_fract_z
 _atom_site_occupancy
  Dy  Dy0  1  0.128924  0.465745  0.750000  1
  Y  Y1  1  0.874007  0.532760  0.250000  1
  Y  Y2  1  0.626015  0.032764  0.250000  1
  Ho  Ho3  1  0.327744  0.677429  0.061607  1
  Ho  Ho4  1  0.172339  0.177336  0.438427  1
  Ho  Ho5  1  0.671584  0.322639  0.562649  1
  Ho  Ho6  1  0.828266  0.822713  0.937218  1
  Ho  Ho7  1  0.671584  0.322639  0.937351  1
  Ho  Ho8  1  0.828266  0.822713  0.562782  1
  Ho  Ho9  1  0.327744  0.677429  0.438393  1
  Ho  Ho10  1  0.172339  0.177336  0.061573  1
  Ho  Ho11  1  0.370962  0.965545  0.750000  1
  Ir  Ir12  1  0.047784  0.885032  0.250000  1
  Ir  Ir13  1  0.452233  0.385000  0.250000  1
  Ir  Ir14  1  0.956705  0.116213  0.750000  1
  Ir  Ir15  1  0.543506  0.616703  0.750000  1
