# generated using pymatgen
data_YbTmAl8SiIr3
_symmetry_space_group_name_H-M   'P 1'
_cell_length_a   7.53719839
_cell_length_b   7.55172137
_cell_length_c   9.37272400
_cell_angle_alpha   90.00000000
_cell_angle_beta   90.00000000
_cell_angle_gamma   119.74915651
_symmetry_Int_Tables_number   1
_chemical_formula_structural   YbTmAl8SiIr3
_chemical_formula_sum   'Yb2 Tm2 Al16 Si2 Ir6'
_cell_volume   463.17443000
_cell_formula_units_Z   2
loop_
 _symmetry_equiv_pos_site_id
 _symmetry_equiv_pos_as_xyz
  1  'x, y, z'
loop_
 _atom_site_type_symbol
 _atom_site_label
 _atom_site_symmetry_multiplicity
 _atom_site_fract_x
 _atom_site_fract_y
 _atom_site_fract_z
 _atom_site_occupancy
  Yb  Yb0  1  0.995090  0.673935  0.250000  1
  Yb  Yb1  1  0.004910  0.326065  0.750000  1
  Tm  Tm2  1  0.675987  0.997011  0.250000  1
  Tm  Tm3  1  0.324013  0.002989  0.750000  1
  Al  Al4  1  0.001097  0.336690  0.075127  1
  Al  Al5  1  0.998903  0.663310  0.924873  1
  Al  Al6  1  0.998903  0.663310  0.575127  1
  Al  Al7  1  0.335455  0.000165  0.423792  1
  Al  Al8  1  0.001097  0.336690  0.424873  1
  Al  Al9  1  0.664545  0.999835  0.576208  1
  Al  Al10  1  0.664545  0.999835  0.923792  1
  Al  Al11  1  0.335455  0.000165  0.076208  1
  Al  Al12  1  0.335148  0.335517  0.555321  1
  Al  Al13  1  0.664852  0.664483  0.444679  1
  Al  Al14  1  0.664852  0.664483  0.055321  1
  Al  Al15  1  0.335148  0.335517  0.944679  1
  Al  Al16  1  0.336125  0.548327  0.250000  1
  Al  Al17  1  0.663875  0.451673  0.750000  1
  Al  Al18  1  0.546958  0.333199  0.250000  1
  Al  Al19  1  0.453042  0.666801  0.750000  1
  Si  Si20  1  0.128464  0.130561  0.250000  1
  Si  Si21  1  0.871536  0.869439  0.750000  1
  Ir  Ir22  1  0.669556  0.327024  0.999960  1
  Ir  Ir23  1  0.330444  0.672976  0.000040  1
  Ir  Ir24  1  0.330444  0.672976  0.499960  1
  Ir  Ir25  1  0.669556  0.327024  0.500040  1
  Ir  Ir26  1  0.000000  0.000000  0.000000  1
  Ir  Ir27  1  0.000000  0.000000  0.500000  1
