# generated using pymatgen
data_Tm4Lu16(BiSb3)3
_symmetry_space_group_name_H-M   'P 1'
_cell_length_a   8.00047567
_cell_length_b   9.21920700
_cell_length_c   11.66504932
_cell_angle_alpha   90.04392176
_cell_angle_beta   89.91159574
_cell_angle_gamma   89.96971950
_symmetry_Int_Tables_number   1
_chemical_formula_structural   Tm4Lu16(BiSb3)3
_chemical_formula_sum   'Tm4 Lu16 Bi3 Sb9'
_cell_volume   860.38979152
_cell_formula_units_Z   1
loop_
 _symmetry_equiv_pos_site_id
 _symmetry_equiv_pos_as_xyz
  1  'x, y, z'
loop_
 _atom_site_type_symbol
 _atom_site_label
 _atom_site_symmetry_multiplicity
 _atom_site_fract_x
 _atom_site_fract_y
 _atom_site_fract_z
 _atom_site_occupancy
  Tm  Tm0  1  0.183826  0.246630  0.781399  1
  Tm  Tm1  1  0.813957  0.755453  0.217699  1
  Tm  Tm2  1  0.314664  0.755616  0.282228  1
  Tm  Tm3  1  0.688907  0.247956  0.717160  1
  Lu  Lu4  1  0.027012  0.247324  0.512555  1
  Lu  Lu5  1  0.970924  0.752760  0.491056  1
  Lu  Lu6  1  0.472296  0.755063  0.010849  1
  Lu  Lu7  1  0.528391  0.244855  0.988927  1
  Lu  Lu8  1  0.355303  0.244651  0.284502  1
  Lu  Lu9  1  0.647719  0.753026  0.714984  1
  Lu  Lu10  1  0.141903  0.752262  0.783389  1
  Lu  Lu11  1  0.854757  0.244587  0.215495  1
  Lu  Lu12  1  0.192291  0.063021  0.060474  1
  Lu  Lu13  1  0.807625  0.936846  0.939375  1
  Lu  Lu14  1  0.307032  0.936977  0.560777  1
  Lu  Lu15  1  0.810880  0.564956  0.938536  1
  Lu  Lu16  1  0.692736  0.063257  0.439593  1
  Lu  Lu17  1  0.190625  0.434627  0.059058  1
  Lu  Lu18  1  0.691913  0.435054  0.442730  1
  Lu  Lu19  1  0.307026  0.564637  0.559878  1
  Bi  Bi20  1  0.066809  0.495976  0.325515  1
  Bi  Bi21  1  0.566747  0.496073  0.174568  1
  Bi  Bi22  1  0.433180  0.503934  0.825690  1
  Sb  Sb23  1  0.407157  0.250006  0.541147  1
  Sb  Sb24  1  0.592320  0.750018  0.458880  1
  Sb  Sb25  1  0.093082  0.749892  0.040761  1
  Sb  Sb26  1  0.906996  0.249992  0.959048  1
  Sb  Sb27  1  0.066334  0.004491  0.327225  1
  Sb  Sb28  1  0.933636  0.995573  0.673518  1
  Sb  Sb29  1  0.433484  0.995457  0.826345  1
  Sb  Sb30  1  0.934066  0.504529  0.673111  1
  Sb  Sb31  1  0.566402  0.004499  0.173528  1
