# generated using pymatgen
data_PuSb2O7
_symmetry_space_group_name_H-M   'P 1'
_cell_length_a   7.39257598
_cell_length_b   7.39257602
_cell_length_c   7.39257596
_cell_angle_alpha   120.05722077
_cell_angle_beta   120.40043957
_cell_angle_gamma   89.60436683
_symmetry_Int_Tables_number   1
_chemical_formula_structural   PuSb2O7
_chemical_formula_sum   'Pu2 Sb4 O14'
_cell_volume   284.67644890
_cell_formula_units_Z   2
loop_
 _symmetry_equiv_pos_site_id
 _symmetry_equiv_pos_as_xyz
  1  'x, y, z'
loop_
 _atom_site_type_symbol
 _atom_site_label
 _atom_site_symmetry_multiplicity
 _atom_site_fract_x
 _atom_site_fract_y
 _atom_site_fract_z
 _atom_site_occupancy
  Pu  Pu0  1  0.500000  0.500000  0.000000  1
  Pu  Pu1  1  0.000000  0.500000  0.500000  1
  Sb  Sb2  1  0.000000  0.500000  0.000000  1
  Sb  Sb3  1  0.000000  0.000000  0.500000  1
  Sb  Sb4  1  0.000000  0.000000  0.000000  1
  Sb  Sb5  1  0.500000  0.000000  0.500000  1
  O  O6  1  0.062248  0.329727  0.154121  1
  O  O7  1  0.062248  0.908128  0.732521  1
  O  O8  1  0.318198  0.068198  0.250000  1
  O  O9  1  0.675608  0.908128  0.345879  1
  O  O10  1  0.675608  0.329727  0.767479  1
  O  O11  1  0.662377  0.412377  0.250000  1
  O  O12  1  0.937752  0.670273  0.845879  1
  O  O13  1  0.937752  0.091872  0.267479  1
  O  O14  1  0.681802  0.931802  0.750000  1
  O  O15  1  0.324392  0.091872  0.654121  1
  O  O16  1  0.324392  0.670273  0.232521  1
  O  O17  1  0.337623  0.587623  0.750000  1
  O  O18  1  0.925834  0.675834  0.250000  1
  O  O19  1  0.074166  0.324166  0.750000  1
