# generated using pymatgen
data_Tm3Sc3B4Ir9Rh
_symmetry_space_group_name_H-M   'P 1'
_cell_length_a   3.14942200
_cell_length_b   9.68804472
_cell_length_c   9.68804466
_cell_angle_alpha   89.68005166
_cell_angle_beta   90.00000000
_cell_angle_gamma   90.00000000
_symmetry_Int_Tables_number   1
_chemical_formula_structural   Tm3Sc3B4Ir9Rh
_chemical_formula_sum   'Tm3 Sc3 B4 Ir9 Rh1'
_cell_volume   295.59450231
_cell_formula_units_Z   1
loop_
 _symmetry_equiv_pos_site_id
 _symmetry_equiv_pos_as_xyz
  1  'x, y, z'
loop_
 _atom_site_type_symbol
 _atom_site_label
 _atom_site_symmetry_multiplicity
 _atom_site_fract_x
 _atom_site_fract_y
 _atom_site_fract_z
 _atom_site_occupancy
  Tm  Tm0  1  0.000000  0.175637  0.676968  1
  Tm  Tm1  1  0.000000  0.823032  0.324363  1
  Tm  Tm2  1  0.000000  0.324056  0.175944  1
  Sc  Sc3  1  0.000000  0.676798  0.823202  1
  Sc  Sc4  1  0.000000  0.000936  0.000072  1
  Sc  Sc5  1  0.000000  0.499928  0.499064  1
  B  B6  1  0.000000  0.622197  0.117150  1
  B  B7  1  0.000000  0.382850  0.877803  1
  B  B8  1  0.000000  0.876537  0.623463  1
  B  B9  1  0.000000  0.119142  0.380858  1
  Ir  Ir10  1  0.500000  0.068373  0.225570  1
  Ir  Ir11  1  0.500000  0.925361  0.778502  1
  Ir  Ir12  1  0.500000  0.776531  0.065420  1
  Ir  Ir13  1  0.500000  0.434580  0.723469  1
  Ir  Ir14  1  0.500000  0.226464  0.930270  1
  Ir  Ir15  1  0.500000  0.569730  0.273536  1
  Ir  Ir16  1  0.500000  0.721498  0.574639  1
  Ir  Ir17  1  0.500000  0.274430  0.431627  1
  Ir  Ir18  1  0.500000  0.504232  0.995768  1
  Rh  Rh19  1  0.500000  0.997688  0.502312  1
