# generated using pymatgen
data_TbEr5(Si3Ru)8
_symmetry_space_group_name_H-M   'P 1'
_cell_length_a   10.10679190
_cell_length_b   10.10679182
_cell_length_c   8.12142144
_cell_angle_alpha   90.08130969
_cell_angle_beta   89.91869054
_cell_angle_gamma   132.60530851
_symmetry_Int_Tables_number   1
_chemical_formula_structural   TbEr5(Si3Ru)8
_chemical_formula_sum   'Tb1 Er5 Si24 Ru8'
_cell_volume   610.59924756
_cell_formula_units_Z   1
loop_
 _symmetry_equiv_pos_site_id
 _symmetry_equiv_pos_as_xyz
  1  'x, y, z'
loop_
 _atom_site_type_symbol
 _atom_site_label
 _atom_site_symmetry_multiplicity
 _atom_site_fract_x
 _atom_site_fract_y
 _atom_site_fract_z
 _atom_site_occupancy
  Tb  Tb0  1  0.497569  0.997569  0.250000  1
  Er  Er1  1  0.002045  0.502045  0.750000  1
  Er  Er2  1  0.502262  0.002262  0.750000  1
  Er  Er3  1  0.997390  0.497390  0.250000  1
  Er  Er4  1  0.499987  0.499949  0.500092  1
  Er  Er5  1  0.999949  0.999987  0.999908  1
  Si  Si6  1  0.387241  0.152738  0.004340  1
  Si  Si7  1  0.652738  0.887241  0.495660  1
  Si  Si8  1  0.110551  0.343235  0.503563  1
  Si  Si9  1  0.843235  0.610551  0.996437  1
  Si  Si10  1  0.612963  0.847900  0.993365  1
  Si  Si11  1  0.347900  0.112963  0.506635  1
  Si  Si12  1  0.889317  0.656511  0.495267  1
  Si  Si13  1  0.156511  0.389317  0.004733  1
  Si  Si14  1  0.612806  0.378177  0.228585  1
  Si  Si15  1  0.878177  0.112806  0.271415  1
  Si  Si16  1  0.886429  0.120296  0.727959  1
  Si  Si17  1  0.620296  0.386429  0.772041  1
  Si  Si18  1  0.388870  0.623176  0.771914  1
  Si  Si19  1  0.123176  0.888870  0.728086  1
  Si  Si20  1  0.704534  0.294012  0.999572  1
  Si  Si21  1  0.794012  0.204534  0.500428  1
  Si  Si22  1  0.295325  0.705803  0.999716  1
  Si  Si23  1  0.205803  0.795325  0.500284  1
  Si  Si24  1  0.168258  0.166718  0.332954  1
  Si  Si25  1  0.666718  0.668258  0.167046  1
  Si  Si26  1  0.332546  0.332436  0.833098  1
  Si  Si27  1  0.832436  0.832546  0.666902  1
  Si  Si28  1  0.377838  0.612400  0.229165  1
  Si  Si29  1  0.112400  0.877838  0.270835  1
  Ru  Ru30  1  0.626441  0.626753  0.872848  1
  Ru  Ru31  1  0.126753  0.126441  0.627152  1
  Ru  Ru32  1  0.873296  0.873834  0.372459  1
  Ru  Ru33  1  0.373834  0.373296  0.127541  1
  Ru  Ru34  1  0.327230  0.665740  0.501536  1
  Ru  Ru35  1  0.165740  0.827230  0.998464  1
  Ru  Ru36  1  0.672970  0.334453  0.501036  1
  Ru  Ru37  1  0.834453  0.172970  0.998964  1
