# generated using pymatgen
data_Ta12Ga8CoCu3N4
_symmetry_space_group_name_H-M   'P 1'
_cell_length_a   8.21896356
_cell_length_b   8.21896434
_cell_length_c   8.21896519
_cell_angle_alpha   59.78422458
_cell_angle_beta   59.78422146
_cell_angle_gamma   59.78422544
_symmetry_Int_Tables_number   1
_chemical_formula_structural   Ta12Ga8CoCu3N4
_chemical_formula_sum   'Ta12 Ga8 Co1 Cu3 N4'
_cell_volume   390.66414324
_cell_formula_units_Z   1
loop_
 _symmetry_equiv_pos_site_id
 _symmetry_equiv_pos_as_xyz
  1  'x, y, z'
loop_
 _atom_site_type_symbol
 _atom_site_label
 _atom_site_symmetry_multiplicity
 _atom_site_fract_x
 _atom_site_fract_y
 _atom_site_fract_z
 _atom_site_occupancy
  Ta  Ta0  1  0.437104  0.437104  0.063864  1
  Ta  Ta1  1  0.063829  0.437019  0.063829  1
  Ta  Ta2  1  0.437019  0.063829  0.063829  1
  Ta  Ta3  1  0.063829  0.063829  0.437019  1
  Ta  Ta4  1  0.437104  0.063864  0.437104  1
  Ta  Ta5  1  0.063864  0.437104  0.437104  1
  Ta  Ta6  1  0.812896  0.812896  0.186136  1
  Ta  Ta7  1  0.186171  0.812981  0.186171  1
  Ta  Ta8  1  0.812981  0.186171  0.186171  1
  Ta  Ta9  1  0.186171  0.186171  0.812981  1
  Ta  Ta10  1  0.812896  0.186136  0.812896  1
  Ta  Ta11  1  0.186136  0.812896  0.812896  1
  Ga  Ga12  1  0.832444  0.832444  0.495977  1
  Ga  Ga13  1  0.832444  0.495977  0.832444  1
  Ga  Ga14  1  0.495977  0.832444  0.832444  1
  Ga  Ga15  1  0.835729  0.835729  0.835729  1
  Ga  Ga16  1  0.417556  0.417556  0.754023  1
  Ga  Ga17  1  0.417556  0.754023  0.417556  1
  Ga  Ga18  1  0.754023  0.417556  0.417556  1
  Ga  Ga19  1  0.414271  0.414271  0.414271  1
  Co  Co20  1  0.625000  0.625000  0.625000  1
  Cu  Cu21  1  0.625000  0.625000  0.125000  1
  Cu  Cu22  1  0.625000  0.125000  0.625000  1
  Cu  Cu23  1  0.125000  0.625000  0.625000  1
  N  N24  1  0.125000  0.125000  0.625000  1
  N  N25  1  0.125000  0.625000  0.125000  1
  N  N26  1  0.625000  0.125000  0.125000  1
  N  N27  1  0.125000  0.125000  0.125000  1
