# generated using pymatgen
data_YHoSc3(SiGe)2
_symmetry_space_group_name_H-M   'P 1'
_cell_length_a   7.16824222
_cell_length_b   7.41836255
_cell_length_c   14.07396478
_cell_angle_alpha   89.92994849
_cell_angle_beta   89.93659051
_cell_angle_gamma   90.06413142
_symmetry_Int_Tables_number   1
_chemical_formula_structural   YHoSc3(SiGe)2
_chemical_formula_sum   'Y4 Ho4 Sc12 Si8 Ge8'
_cell_volume   748.40438467
_cell_formula_units_Z   4
loop_
 _symmetry_equiv_pos_site_id
 _symmetry_equiv_pos_as_xyz
  1  'x, y, z'
loop_
 _atom_site_type_symbol
 _atom_site_label
 _atom_site_symmetry_multiplicity
 _atom_site_fract_x
 _atom_site_fract_y
 _atom_site_fract_z
 _atom_site_occupancy
  Y  Y0  1  0.005289  0.176890  0.098740  1
  Y  Y1  1  0.994429  0.823050  0.901316  1
  Y  Y2  1  0.494790  0.676404  0.901557  1
  Y  Y3  1  0.994530  0.823050  0.598174  1
  Ho  Ho4  1  0.505469  0.323105  0.099149  1
  Ho  Ho5  1  0.005635  0.177530  0.401077  1
  Ho  Ho6  1  0.505254  0.323076  0.401317  1
  Ho  Ho7  1  0.494484  0.677039  0.598613  1
  Sc  Sc8  1  0.168542  0.500499  0.749728  1
  Sc  Sc9  1  0.831331  0.499052  0.250214  1
  Sc  Sc10  1  0.331685  0.000876  0.250182  1
  Sc  Sc11  1  0.668149  0.999556  0.749778  1
  Sc  Sc12  1  0.339064  0.172761  0.626490  1
  Sc  Sc13  1  0.661288  0.827247  0.373684  1
  Sc  Sc14  1  0.161462  0.672268  0.373802  1
  Sc  Sc15  1  0.661388  0.827338  0.126841  1
  Sc  Sc16  1  0.839077  0.327513  0.626089  1
  Sc  Sc17  1  0.339050  0.172908  0.873319  1
  Sc  Sc18  1  0.838736  0.327596  0.873427  1
  Sc  Sc19  1  0.161566  0.672193  0.126399  1
  Si  Si20  1  0.040183  0.118094  0.749906  1
  Si  Si21  1  0.959983  0.882269  0.250246  1
  Si  Si22  1  0.459591  0.617079  0.250127  1
  Si  Si23  1  0.540584  0.382439  0.749727  1
  Si  Si24  1  0.292692  0.871939  0.749666  1
  Si  Si25  1  0.707347  0.128570  0.250385  1
  Si  Si26  1  0.208099  0.371856  0.250329  1
  Si  Si27  1  0.791881  0.627685  0.749603  1
  Ge  Ge28  1  0.174072  0.460078  0.540485  1
  Ge  Ge29  1  0.825941  0.539166  0.459108  1
  Ge  Ge30  1  0.327021  0.960812  0.459443  1
  Ge  Ge31  1  0.826248  0.539565  0.040966  1
  Ge  Ge32  1  0.672007  0.039709  0.540496  1
  Ge  Ge33  1  0.172803  0.459855  0.959302  1
  Ge  Ge34  1  0.671988  0.040286  0.959497  1
  Ge  Ge35  1  0.328345  0.960649  0.040820  1
