# generated using pymatgen
data_DyY(Al7Cu3)2
_symmetry_space_group_name_H-M   'P 1'
_cell_length_a   8.18490672
_cell_length_b   8.18490671
_cell_length_c   8.18490909
_cell_angle_alpha   56.82033403
_cell_angle_beta   56.82034498
_cell_angle_gamma   56.82034238
_symmetry_Int_Tables_number   1
_chemical_formula_structural   DyY(Al7Cu3)2
_chemical_formula_sum   'Dy1 Y1 Al14 Cu6'
_cell_volume   359.27569661
_cell_formula_units_Z   1
loop_
 _symmetry_equiv_pos_site_id
 _symmetry_equiv_pos_as_xyz
  1  'x, y, z'
loop_
 _atom_site_type_symbol
 _atom_site_label
 _atom_site_symmetry_multiplicity
 _atom_site_fract_x
 _atom_site_fract_y
 _atom_site_fract_z
 _atom_site_occupancy
  Dy  Dy0  1  0.000000  0.000000  0.000000  1
  Y  Y1  1  0.500000  0.500000  0.500000  1
  Al  Al2  1  0.422612  0.648411  0.839432  1
  Al  Al3  1  0.839432  0.422612  0.648411  1
  Al  Al4  1  0.648411  0.839432  0.422612  1
  Al  Al5  1  0.077331  0.660618  0.851646  1
  Al  Al6  1  0.851646  0.077331  0.660618  1
  Al  Al7  1  0.660618  0.851646  0.077331  1
  Al  Al8  1  0.577388  0.351589  0.160568  1
  Al  Al9  1  0.160568  0.577388  0.351589  1
  Al  Al10  1  0.249999  0.249999  0.249999  1
  Al  Al11  1  0.750001  0.750001  0.750001  1
  Al  Al12  1  0.339382  0.148354  0.922669  1
  Al  Al13  1  0.148354  0.922669  0.339382  1
  Al  Al14  1  0.922669  0.339382  0.148354  1
  Al  Al15  1  0.351589  0.160568  0.577388  1
  Cu  Cu16  1  0.750053  0.074583  0.425311  1
  Cu  Cu17  1  0.425311  0.750053  0.074583  1
  Cu  Cu18  1  0.074583  0.425311  0.750053  1
  Cu  Cu19  1  0.249947  0.925417  0.574689  1
  Cu  Cu20  1  0.574689  0.249947  0.925417  1
  Cu  Cu21  1  0.925417  0.574689  0.249947  1
