# generated using pymatgen
data_La6Al24OsRu7
_symmetry_space_group_name_H-M   'P 1'
_cell_length_a   8.95230600
_cell_length_b   8.96406837
_cell_length_c   9.75143811
_cell_angle_alpha   90.01827456
_cell_angle_beta   90.00000000
_cell_angle_gamma   119.95660329
_symmetry_Int_Tables_number   1
_chemical_formula_structural   La6Al24OsRu7
_chemical_formula_sum   'La6 Al24 Os1 Ru7'
_cell_volume   677.99907016
_cell_formula_units_Z   1
loop_
 _symmetry_equiv_pos_site_id
 _symmetry_equiv_pos_as_xyz
  1  'x, y, z'
loop_
 _atom_site_type_symbol
 _atom_site_label
 _atom_site_symmetry_multiplicity
 _atom_site_fract_x
 _atom_site_fract_y
 _atom_site_fract_z
 _atom_site_occupancy
  La  La0  1  0.805714  0.191673  0.750465  1
  La  La1  1  0.194286  0.808327  0.249535  1
  La  La2  1  0.385959  0.191673  0.750465  1
  La  La3  1  0.614041  0.808327  0.249535  1
  La  La4  1  0.807894  0.615790  0.750388  1
  La  La5  1  0.192106  0.384210  0.249612  1
  Al  Al6  1  0.667024  0.334045  0.997380  1
  Al  Al7  1  0.332976  0.665955  0.002620  1
  Al  Al8  1  0.332956  0.665913  0.497482  1
  Al  Al9  1  0.667044  0.334087  0.502518  1
  Al  Al10  1  0.837604  0.162386  0.424258  1
  Al  Al11  1  0.162396  0.837614  0.575742  1
  Al  Al12  1  0.324782  0.162386  0.424258  1
  Al  Al13  1  0.162892  0.837998  0.924619  1
  Al  Al14  1  0.675218  0.837614  0.575742  1
  Al  Al15  1  0.837108  0.162002  0.075381  1
  Al  Al16  1  0.837860  0.675721  0.423777  1
  Al  Al17  1  0.675106  0.837998  0.924619  1
  Al  Al18  1  0.162140  0.324279  0.576223  1
  Al  Al19  1  0.324894  0.162002  0.075381  1
  Al  Al20  1  0.162155  0.324310  0.923684  1
  Al  Al21  1  0.837845  0.675690  0.076316  1
  Al  Al22  1  0.436791  0.562572  0.749872  1
  Al  Al23  1  0.563209  0.437428  0.250128  1
  Al  Al24  1  0.125779  0.562572  0.749872  1
  Al  Al25  1  0.874221  0.437428  0.250128  1
  Al  Al26  1  0.436276  0.872552  0.749684  1
  Al  Al27  1  0.563724  0.127448  0.250316  1
  Al  Al28  1  0.999955  0.999910  0.750002  1
  Al  Al29  1  0.000045  0.000090  0.249998  1
  Os  Os30  1  0.500000  0.000000  0.000000  1
  Ru  Ru31  1  0.500000  0.500000  0.000000  1
  Ru  Ru32  1  0.000000  0.500000  0.000000  1
  Ru  Ru33  1  0.500000  0.500000  0.500000  1
  Ru  Ru34  1  0.000000  0.500000  0.500000  1
  Ru  Ru35  1  0.500000  0.000000  0.500000  1
  Ru  Ru36  1  0.000000  0.000000  0.000000  1
  Ru  Ru37  1  0.000000  0.000000  0.500000  1
