# generated using pymatgen
data_Dy7IrI12
_symmetry_space_group_name_H-M   'P 1'
_cell_length_a   9.80229179
_cell_length_b   9.80229231
_cell_length_c   9.80229200
_cell_angle_alpha   106.90192721
_cell_angle_beta   106.90193094
_cell_angle_gamma   106.90192296
_symmetry_Int_Tables_number   1
_chemical_formula_structural   Dy7IrI12
_chemical_formula_sum   'Dy7 Ir1 I12'
_cell_volume   786.47284746
_cell_formula_units_Z   1
loop_
 _symmetry_equiv_pos_site_id
 _symmetry_equiv_pos_as_xyz
  1  'x, y, z'
loop_
 _atom_site_type_symbol
 _atom_site_label
 _atom_site_symmetry_multiplicity
 _atom_site_fract_x
 _atom_site_fract_y
 _atom_site_fract_z
 _atom_site_occupancy
  Dy  Dy0  1  0.094009  0.022864  0.295908  1
  Dy  Dy1  1  0.295908  0.094009  0.022864  1
  Dy  Dy2  1  0.022864  0.295908  0.094009  1
  Dy  Dy3  1  0.905991  0.977136  0.704092  1
  Dy  Dy4  1  0.704092  0.905991  0.977136  1
  Dy  Dy5  1  0.977136  0.704092  0.905991  1
  Dy  Dy6  1  0.500000  0.500000  0.500000  1
  Ir  Ir7  1  0.000000  0.000000  0.000000  1
  I  I8  1  0.069618  0.675004  0.224473  1
  I  I9  1  0.224473  0.069618  0.675004  1
  I  I10  1  0.675004  0.224473  0.069618  1
  I  I11  1  0.930382  0.324996  0.775527  1
  I  I12  1  0.775527  0.930382  0.324996  1
  I  I13  1  0.324996  0.775527  0.930382  1
  I  I14  1  0.464530  0.162888  0.388009  1
  I  I15  1  0.388009  0.464530  0.162888  1
  I  I16  1  0.162888  0.388009  0.464530  1
  I  I17  1  0.535470  0.837112  0.611991  1
  I  I18  1  0.611991  0.535470  0.837112  1
  I  I19  1  0.837112  0.611991  0.535470  1
