# generated using pymatgen
data_TbDy7Ti5Ge16Mo7
_symmetry_space_group_name_H-M   'P 1'
_cell_length_a   6.92213712
_cell_length_b   7.09281168
_cell_length_c   13.36962340
_cell_angle_alpha   89.95843745
_cell_angle_beta   89.96112157
_cell_angle_gamma   90.01996953
_symmetry_Int_Tables_number   1
_chemical_formula_structural   TbDy7Ti5Ge16Mo7
_chemical_formula_sum   'Tb1 Dy7 Ti5 Ge16 Mo7'
_cell_volume   656.41358471
_cell_formula_units_Z   1
loop_
 _symmetry_equiv_pos_site_id
 _symmetry_equiv_pos_as_xyz
  1  'x, y, z'
loop_
 _atom_site_type_symbol
 _atom_site_label
 _atom_site_symmetry_multiplicity
 _atom_site_fract_x
 _atom_site_fract_y
 _atom_site_fract_z
 _atom_site_occupancy
  Tb  Tb0  1  0.006365  0.169358  0.095910  1
  Dy  Dy1  1  0.004791  0.175307  0.405351  1
  Dy  Dy2  1  0.504605  0.325190  0.094638  1
  Dy  Dy3  1  0.495302  0.675910  0.594924  1
  Dy  Dy4  1  0.994791  0.827632  0.905220  1
  Dy  Dy5  1  0.993723  0.828684  0.594139  1
  Dy  Dy6  1  0.495458  0.673175  0.905261  1
  Dy  Dy7  1  0.506553  0.329977  0.406343  1
  Ti  Ti8  1  0.162464  0.331458  0.872336  1
  Ti  Ti9  1  0.158601  0.332435  0.626749  1
  Ti  Ti10  1  0.663713  0.166418  0.871959  1
  Ti  Ti11  1  0.840465  0.667008  0.127893  1
  Ti  Ti12  1  0.340502  0.833616  0.372301  1
  Ge  Ge13  1  0.328677  0.044306  0.544513  1
  Ge  Ge14  1  0.825727  0.456419  0.956115  1
  Ge  Ge15  1  0.670111  0.954884  0.044890  1
  Ge  Ge16  1  0.171101  0.544886  0.455571  1
  Ge  Ge17  1  0.173305  0.542835  0.043993  1
  Ge  Ge18  1  0.673127  0.955667  0.455634  1
  Ge  Ge19  1  0.825988  0.457077  0.544278  1
  Ge  Ge20  1  0.327550  0.043912  0.956732  1
  Ge  Ge21  1  0.808232  0.365356  0.248976  1
  Ge  Ge22  1  0.309864  0.135957  0.251564  1
  Ge  Ge23  1  0.690944  0.864485  0.750421  1
  Ge  Ge24  1  0.193349  0.636308  0.749806  1
  Ge  Ge25  1  0.035416  0.870951  0.252381  1
  Ge  Ge26  1  0.535880  0.628627  0.248733  1
  Ge  Ge27  1  0.464979  0.370114  0.748654  1
  Ge  Ge28  1  0.962705  0.127186  0.750227  1
  Mo  Mo29  1  0.333215  0.833927  0.126912  1
  Mo  Mo30  1  0.834040  0.663976  0.374500  1
  Mo  Mo31  1  0.666598  0.165417  0.624554  1
  Mo  Mo32  1  0.333171  0.011485  0.748912  1
  Mo  Mo33  1  0.666185  0.987944  0.250143  1
  Mo  Mo34  1  0.166647  0.513325  0.250516  1
  Mo  Mo35  1  0.835856  0.488791  0.748953  1
