# generated using pymatgen
data_Ce2CoH6
_symmetry_space_group_name_H-M   'P 1'
_cell_length_a   7.19746303
_cell_length_b   7.19746296
_cell_length_c   5.07370500
_cell_angle_alpha   90.00000000
_cell_angle_beta   90.00000000
_cell_angle_gamma   138.75023222
_symmetry_Int_Tables_number   1
_chemical_formula_structural   Ce2CoH6
_chemical_formula_sum   'Ce4 Co2 H12'
_cell_volume   173.29871421
_cell_formula_units_Z   2
loop_
 _symmetry_equiv_pos_site_id
 _symmetry_equiv_pos_as_xyz
  1  'x, y, z'
loop_
 _atom_site_type_symbol
 _atom_site_label
 _atom_site_symmetry_multiplicity
 _atom_site_fract_x
 _atom_site_fract_y
 _atom_site_fract_z
 _atom_site_occupancy
  Ce  Ce0  1  0.136718  0.863282  0.500000  1
  Ce  Ce1  1  0.636718  0.363282  0.000000  1
  Ce  Ce2  1  0.863282  0.136718  0.500000  1
  Ce  Ce3  1  0.363282  0.636718  0.000000  1
  Co  Co4  1  0.500000  0.500000  0.500000  1
  Co  Co5  1  0.000000  0.000000  0.000000  1
  H  H6  1  0.999948  0.499948  0.750000  1
  H  H7  1  0.500052  0.000052  0.250000  1
  H  H8  1  0.000052  0.500052  0.250000  1
  H  H9  1  0.499948  0.999948  0.750000  1
  H  H10  1  0.379015  0.620985  0.500000  1
  H  H11  1  0.879015  0.120985  0.000000  1
  H  H12  1  0.620985  0.379015  0.500000  1
  H  H13  1  0.120985  0.879015  0.000000  1
  H  H14  1  0.252611  0.252611  0.747532  1
  H  H15  1  0.747389  0.747389  0.252468  1
  H  H16  1  0.247389  0.247389  0.247532  1
  H  H17  1  0.752611  0.752611  0.752468  1
