# generated using pymatgen
data_La8DyLuCo4
_symmetry_space_group_name_H-M   'P 1'
_cell_length_a   9.10874835
_cell_length_b   9.10874930
_cell_length_c   7.05597100
_cell_angle_alpha   86.29939247
_cell_angle_beta   86.29939208
_cell_angle_gamma   42.49408054
_symmetry_Int_Tables_number   1
_chemical_formula_structural   La8DyLuCo4
_chemical_formula_sum   'La8 Dy1 Lu1 Co4'
_cell_volume   394.51613112
_cell_formula_units_Z   1
loop_
 _symmetry_equiv_pos_site_id
 _symmetry_equiv_pos_as_xyz
  1  'x, y, z'
loop_
 _atom_site_type_symbol
 _atom_site_label
 _atom_site_symmetry_multiplicity
 _atom_site_fract_x
 _atom_site_fract_y
 _atom_site_fract_z
 _atom_site_occupancy
  La  La0  1  0.016978  0.796965  0.899713  1
  La  La1  1  0.203035  0.983022  0.600287  1
  La  La2  1  0.983585  0.201888  0.102500  1
  La  La3  1  0.798112  0.016415  0.397500  1
  La  La4  1  0.363167  0.218872  0.833349  1
  La  La5  1  0.781128  0.636833  0.666651  1
  La  La6  1  0.636779  0.779744  0.166807  1
  La  La7  1  0.220256  0.363221  0.333193  1
  Dy  Dy8  1  0.565763  0.434237  0.750000  1
  Lu  Lu9  1  0.433549  0.566451  0.250000  1
  Co  Co10  1  0.183918  0.602841  0.578419  1
  Co  Co11  1  0.397159  0.816082  0.921581  1
  Co  Co12  1  0.814726  0.398155  0.419562  1
  Co  Co13  1  0.601845  0.185274  0.080438  1
