# generated using pymatgen
data_SrPrNd5CoI12
_symmetry_space_group_name_H-M   'P 1'
_cell_length_a   9.93982251
_cell_length_b   10.04331588
_cell_length_c   10.03284742
_cell_angle_alpha   106.25427468
_cell_angle_beta   106.44385799
_cell_angle_gamma   106.14104377
_symmetry_Int_Tables_number   1
_chemical_formula_structural   SrPrNd5CoI12
_chemical_formula_sum   'Sr1 Pr1 Nd5 Co1 I12'
_cell_volume   849.96637465
_cell_formula_units_Z   1
loop_
 _symmetry_equiv_pos_site_id
 _symmetry_equiv_pos_as_xyz
  1  'x, y, z'
loop_
 _atom_site_type_symbol
 _atom_site_label
 _atom_site_symmetry_multiplicity
 _atom_site_fract_x
 _atom_site_fract_y
 _atom_site_fract_z
 _atom_site_occupancy
  Sr  Sr0  1  0.500046  0.499906  0.499985  1
  Pr  Pr1  1  0.713641  0.979954  0.908634  1
  Nd  Nd2  1  0.979338  0.903897  0.699817  1
  Nd  Nd3  1  0.020705  0.096157  0.300326  1
  Nd  Nd4  1  0.096314  0.299597  0.021009  1
  Nd  Nd5  1  0.284683  0.020118  0.091058  1
  Nd  Nd6  1  0.904515  0.700665  0.979286  1
  Co  Co7  1  0.000078  0.000167  0.000048  1
  I  I8  1  0.547020  0.628114  0.857097  1
  I  I9  1  0.452639  0.369435  0.142673  1
  I  I10  1  0.322008  0.926766  0.775414  1
  I  I11  1  0.371532  0.142021  0.450670  1
  I  I12  1  0.926514  0.774932  0.321348  1
  I  I13  1  0.677489  0.073816  0.226770  1
  I  I14  1  0.073540  0.225110  0.678684  1
  I  I15  1  0.773543  0.322921  0.925934  1
  I  I16  1  0.228024  0.679625  0.074599  1
  I  I17  1  0.859790  0.549102  0.630481  1
  I  I18  1  0.140303  0.451001  0.369517  1
  I  I19  1  0.628277  0.856697  0.546649  1
