# generated using pymatgen
data_Y2B10Ir
_symmetry_space_group_name_H-M   'P 1'
_cell_length_a   4.18040800
_cell_length_b   5.69207500
_cell_length_c   11.36166000
_cell_angle_alpha   90.00000000
_cell_angle_beta   90.00000000
_cell_angle_gamma   90.00000000
_symmetry_Int_Tables_number   1
_chemical_formula_structural   Y2B10Ir
_chemical_formula_sum   'Y4 B20 Ir2'
_cell_volume   270.35292507
_cell_formula_units_Z   2
loop_
 _symmetry_equiv_pos_site_id
 _symmetry_equiv_pos_as_xyz
  1  'x, y, z'
loop_
 _atom_site_type_symbol
 _atom_site_label
 _atom_site_symmetry_multiplicity
 _atom_site_fract_x
 _atom_site_fract_y
 _atom_site_fract_z
 _atom_site_occupancy
  Y  Y0  1  0.500000  0.205182  0.365491  1
  Y  Y1  1  0.500000  0.794818  0.634509  1
  Y  Y2  1  0.500000  0.294818  0.865491  1
  Y  Y3  1  0.500000  0.705182  0.134509  1
  B  B4  1  0.000000  0.381285  0.042481  1
  B  B5  1  0.000000  0.618715  0.957519  1
  B  B6  1  0.000000  0.118715  0.542481  1
  B  B7  1  0.000000  0.881285  0.457519  1
  B  B8  1  0.000000  0.364328  0.197122  1
  B  B9  1  0.000000  0.635672  0.802878  1
  B  B10  1  0.000000  0.135672  0.697122  1
  B  B11  1  0.000000  0.864328  0.302878  1
  B  B12  1  0.000000  0.056579  0.193318  1
  B  B13  1  0.000000  0.943421  0.806682  1
  B  B14  1  0.000000  0.443421  0.693318  1
  B  B15  1  0.000000  0.556579  0.306682  1
  B  B16  1  0.301399  0.220252  0.119265  1
  B  B17  1  0.698601  0.779748  0.880735  1
  B  B18  1  0.301399  0.779748  0.880735  1
  B  B19  1  0.698601  0.279748  0.619265  1
  B  B20  1  0.698601  0.220252  0.119265  1
  B  B21  1  0.301399  0.720252  0.380735  1
  B  B22  1  0.698601  0.720252  0.380735  1
  B  B23  1  0.301399  0.279748  0.619265  1
  Ir  Ir24  1  0.000000  0.000000  0.000000  1
  Ir  Ir25  1  0.000000  0.500000  0.500000  1
