# generated using pymatgen
data_ErTm7Sc12Si15P
_symmetry_space_group_name_H-M   'P 1'
_cell_length_a   7.04300002
_cell_length_b   7.33058028
_cell_length_c   13.88996821
_cell_angle_alpha   90.01844943
_cell_angle_beta   90.00686462
_cell_angle_gamma   90.08800794
_symmetry_Int_Tables_number   1
_chemical_formula_structural   ErTm7Sc12Si15P
_chemical_formula_sum   'Er1 Tm7 Sc12 Si15 P1'
_cell_volume   717.12812810
_cell_formula_units_Z   1
loop_
 _symmetry_equiv_pos_site_id
 _symmetry_equiv_pos_as_xyz
  1  'x, y, z'
loop_
 _atom_site_type_symbol
 _atom_site_label
 _atom_site_symmetry_multiplicity
 _atom_site_fract_x
 _atom_site_fract_y
 _atom_site_fract_z
 _atom_site_occupancy
  Er  Er0  1  0.010373  0.175984  0.095913  1
  Tm  Tm1  1  0.990356  0.825492  0.901026  1
  Tm  Tm2  1  0.489445  0.676523  0.904094  1
  Tm  Tm3  1  0.990399  0.825511  0.598923  1
  Tm  Tm4  1  0.511397  0.323557  0.095725  1
  Tm  Tm5  1  0.010470  0.175972  0.403910  1
  Tm  Tm6  1  0.511437  0.323482  0.404296  1
  Tm  Tm7  1  0.489422  0.676508  0.595872  1
  Sc  Sc8  1  0.159997  0.502781  0.749999  1
  Sc  Sc9  1  0.838579  0.496636  0.250058  1
  Sc  Sc10  1  0.339015  0.003257  0.250050  1
  Sc  Sc11  1  0.662941  0.998452  0.750012  1
  Sc  Sc12  1  0.327683  0.173999  0.627032  1
  Sc  Sc13  1  0.667944  0.823143  0.375583  1
  Sc  Sc14  1  0.168005  0.677431  0.375330  1
  Sc  Sc15  1  0.667866  0.823013  0.124432  1
  Sc  Sc16  1  0.832827  0.322181  0.626216  1
  Sc  Sc17  1  0.327740  0.173973  0.872940  1
  Sc  Sc18  1  0.832726  0.322282  0.873751  1
  Sc  Sc19  1  0.168080  0.677384  0.124706  1
  Si  Si20  1  0.965160  0.885918  0.250094  1
  Si  Si21  1  0.466300  0.612964  0.249997  1
  Si  Si22  1  0.531608  0.385151  0.749993  1
  Si  Si23  1  0.294114  0.862856  0.750005  1
  Si  Si24  1  0.714571  0.128392  0.250148  1
  Si  Si25  1  0.215345  0.371452  0.250140  1
  Si  Si26  1  0.786329  0.630518  0.750007  1
  Si  Si27  1  0.159518  0.464347  0.539804  1
  Si  Si28  1  0.840557  0.534890  0.461344  1
  Si  Si29  1  0.338673  0.965751  0.460810  1
  Si  Si30  1  0.840423  0.535153  0.038591  1
  Si  Si31  1  0.661202  0.035910  0.540101  1
  Si  Si32  1  0.159614  0.464574  0.960115  1
  Si  Si33  1  0.661064  0.035895  0.959865  1
  Si  Si34  1  0.339100  0.965527  0.039130  1
  P  P35  1  0.029718  0.123137  0.749989  1
