# generated using pymatgen
data_DyHo2Mg3Ge2Au
_symmetry_space_group_name_H-M   'P 1'
_cell_length_a   7.24892101
_cell_length_b   7.24892054
_cell_length_c   4.33437200
_cell_angle_alpha   90.00000000
_cell_angle_beta   90.00000000
_cell_angle_gamma   120.00589374
_symmetry_Int_Tables_number   1
_chemical_formula_structural   DyHo2Mg3Ge2Au
_chemical_formula_sum   'Dy1 Ho2 Mg3 Ge2 Au1'
_cell_volume   197.23215730
_cell_formula_units_Z   1
loop_
 _symmetry_equiv_pos_site_id
 _symmetry_equiv_pos_as_xyz
  1  'x, y, z'
loop_
 _atom_site_type_symbol
 _atom_site_label
 _atom_site_symmetry_multiplicity
 _atom_site_fract_x
 _atom_site_fract_y
 _atom_site_fract_z
 _atom_site_occupancy
  Dy  Dy0  1  0.417150  0.417150  0.000000  1
  Ho  Ho1  1  0.582917  0.000036  0.000000  1
  Ho  Ho2  1  0.000036  0.582917  0.000000  1
  Mg  Mg3  1  0.244035  0.999955  0.500000  1
  Mg  Mg4  1  0.999955  0.244035  0.500000  1
  Mg  Mg5  1  0.756014  0.756014  0.500000  1
  Ge  Ge6  1  0.333282  0.666758  0.500000  1
  Ge  Ge7  1  0.666758  0.333282  0.500000  1
  Au  Au8  1  0.999853  0.999853  0.000000  1
