# generated using pymatgen
data_Tb3TmTh6(Bi3C)2
_symmetry_space_group_name_H-M   'P 1'
_cell_length_a   9.34739300
_cell_length_b   9.34739429
_cell_length_c   6.47467800
_cell_angle_alpha   90.00000000
_cell_angle_beta   90.00000000
_cell_angle_gamma   119.99999897
_symmetry_Int_Tables_number   1
_chemical_formula_structural   Tb3TmTh6(Bi3C)2
_chemical_formula_sum   'Tb3 Tm1 Th6 Bi6 C2'
_cell_volume   489.92530993
_cell_formula_units_Z   1
loop_
 _symmetry_equiv_pos_site_id
 _symmetry_equiv_pos_as_xyz
  1  'x, y, z'
loop_
 _atom_site_type_symbol
 _atom_site_label
 _atom_site_symmetry_multiplicity
 _atom_site_fract_x
 _atom_site_fract_y
 _atom_site_fract_z
 _atom_site_occupancy
  Tb  Tb0  1  0.666667  0.333333  0.000000  1
  Tb  Tb1  1  0.333333  0.666667  0.000000  1
  Tb  Tb2  1  0.333333  0.666667  0.500000  1
  Tm  Tm3  1  0.666667  0.333333  0.500000  1
  Th  Th4  1  0.780437  0.780428  0.750064  1
  Th  Th5  1  0.219572  0.000009  0.750064  1
  Th  Th6  1  0.999991  0.219563  0.750064  1
  Th  Th7  1  0.219572  0.219563  0.249936  1
  Th  Th8  1  0.780437  0.000009  0.249936  1
  Th  Th9  1  0.999991  0.780428  0.249936  1
  Bi  Bi10  1  0.406142  0.405582  0.749511  1
  Bi  Bi11  1  0.594418  0.000559  0.749511  1
  Bi  Bi12  1  0.999441  0.593858  0.749511  1
  Bi  Bi13  1  0.594418  0.593858  0.250489  1
  Bi  Bi14  1  0.406142  0.000559  0.250489  1
  Bi  Bi15  1  0.999441  0.405582  0.250489  1
  C  C16  1  0.000000  0.000000  0.000000  1
  C  C17  1  0.000000  0.000000  0.500000  1
