# generated using pymatgen
data_DyHo2Lu2Pb3
_symmetry_space_group_name_H-M   'P 1'
_cell_length_a   6.51952600
_cell_length_b   8.99074593
_cell_length_c   8.99266800
_cell_angle_alpha   120.00774025
_cell_angle_beta   89.99949093
_cell_angle_gamma   90.00237119
_symmetry_Int_Tables_number   1
_chemical_formula_structural   DyHo2Lu2Pb3
_chemical_formula_sum   'Dy2 Ho4 Lu4 Pb6'
_cell_volume   456.45404429
_cell_formula_units_Z   2
loop_
 _symmetry_equiv_pos_site_id
 _symmetry_equiv_pos_as_xyz
  1  'x, y, z'
loop_
 _atom_site_type_symbol
 _atom_site_label
 _atom_site_symmetry_multiplicity
 _atom_site_fract_x
 _atom_site_fract_y
 _atom_site_fract_z
 _atom_site_occupancy
  Dy  Dy0  1  0.750012  0.237605  0.000050  1
  Dy  Dy1  1  0.749999  0.762428  0.762453  1
  Ho  Ho2  1  0.750003  0.000026  0.237613  1
  Ho  Ho3  1  0.249984  0.762505  0.000046  1
  Ho  Ho4  1  0.250010  0.237468  0.237540  1
  Ho  Ho5  1  0.250003  0.999988  0.762412  1
  Lu  Lu6  1  0.499963  0.333313  0.666669  1
  Lu  Lu7  1  0.499965  0.666650  0.333305  1
  Lu  Lu8  1  0.000022  0.666683  0.333305  1
  Lu  Lu9  1  0.000019  0.333341  0.666668  1
  Pb  Pb10  1  0.749985  0.604259  0.000106  1
  Pb  Pb11  1  0.749998  0.395788  0.395900  1
  Pb  Pb12  1  0.750008  0.999987  0.603924  1
  Pb  Pb13  1  0.250022  0.395761  0.999995  1
  Pb  Pb14  1  0.250006  0.604182  0.604181  1
  Pb  Pb15  1  0.250003  0.000017  0.395834  1
