# generated using pymatgen
data_TbHo2(FeCo3)2
_symmetry_space_group_name_H-M   'P 1'
_cell_length_a   7.59493944
_cell_length_b   7.59606646
_cell_length_c   7.59606601
_cell_angle_alpha   109.44019977
_cell_angle_beta   109.48974016
_cell_angle_gamma   109.48973710
_symmetry_Int_Tables_number   1
_chemical_formula_structural   TbHo2(FeCo3)2
_chemical_formula_sum   'Tb2 Ho4 Fe4 Co12'
_cell_volume   337.32426662
_cell_formula_units_Z   2
loop_
 _symmetry_equiv_pos_site_id
 _symmetry_equiv_pos_as_xyz
  1  'x, y, z'
loop_
 _atom_site_type_symbol
 _atom_site_label
 _atom_site_symmetry_multiplicity
 _atom_site_fract_x
 _atom_site_fract_y
 _atom_site_fract_z
 _atom_site_occupancy
  Tb  Tb0  1  0.716799  0.717064  0.999735  1
  Tb  Tb1  1  0.283201  0.000265  0.282936  1
  Ho  Ho2  1  0.000000  0.284959  0.284536  1
  Ho  Ho3  1  0.283984  0.284271  0.999713  1
  Ho  Ho4  1  0.716016  0.000287  0.715729  1
  Ho  Ho5  1  0.000000  0.715464  0.715041  1
  Fe  Fe6  1  0.000000  0.000101  0.501116  1
  Fe  Fe7  1  0.000000  0.498884  0.999899  1
  Fe  Fe8  1  0.500000  0.000174  0.999826  1
  Fe  Fe9  1  0.500000  0.500174  0.499826  1
  Co  Co10  1  0.335226  0.335571  0.671447  1
  Co  Co11  1  0.664774  0.000345  0.336219  1
  Co  Co12  1  0.000000  0.663677  0.336323  1
  Co  Co13  1  0.664326  0.335201  0.999988  1
  Co  Co14  1  0.335674  0.670876  0.335662  1
  Co  Co15  1  0.000000  0.335651  0.664349  1
  Co  Co16  1  0.335226  0.663781  0.999655  1
  Co  Co17  1  0.335674  0.000012  0.664799  1
  Co  Co18  1  0.672199  0.336273  0.335925  1
  Co  Co19  1  0.664326  0.664338  0.329124  1
  Co  Co20  1  0.664774  0.328553  0.664429  1
  Co  Co21  1  0.327801  0.664075  0.663727  1
