# generated using pymatgen
data_Y3Lu7In5Te
_symmetry_space_group_name_H-M   'P 1'
_cell_length_a   6.44431400
_cell_length_b   8.90143819
_cell_length_c   8.90060900
_cell_angle_alpha   120.07952119
_cell_angle_beta   90.00040898
_cell_angle_gamma   90.00008467
_symmetry_Int_Tables_number   1
_chemical_formula_structural   Y3Lu7In5Te
_chemical_formula_sum   'Y3 Lu7 In5 Te1'
_cell_volume   441.81317955
_cell_formula_units_Z   1
loop_
 _symmetry_equiv_pos_site_id
 _symmetry_equiv_pos_as_xyz
  1  'x, y, z'
loop_
 _atom_site_type_symbol
 _atom_site_label
 _atom_site_symmetry_multiplicity
 _atom_site_fract_x
 _atom_site_fract_y
 _atom_site_fract_z
 _atom_site_occupancy
  Y  Y0  1  0.749994  0.231665  0.000023  1
  Y  Y1  1  0.750024  0.764702  0.756925  1
  Y  Y2  1  0.250017  0.763821  0.000551  1
  Lu  Lu3  1  0.495885  0.329800  0.664605  1
  Lu  Lu4  1  0.495666  0.665304  0.335168  1
  Lu  Lu5  1  0.004329  0.665316  0.335187  1
  Lu  Lu6  1  0.004097  0.329789  0.664569  1
  Lu  Lu7  1  0.750031  0.008670  0.243616  1
  Lu  Lu8  1  0.249992  0.235243  0.236293  1
  Lu  Lu9  1  0.250001  0.999441  0.762493  1
  In  In10  1  0.749982  0.404194  0.404069  1
  In  In11  1  0.750006  0.001318  0.594665  1
  In  In12  1  0.249970  0.393402  0.000544  1
  In  In13  1  0.250006  0.598725  0.601520  1
  In  In14  1  0.250003  0.997619  0.398504  1
  Te  Te15  1  0.750000  0.610996  0.001269  1
