# generated using pymatgen
data_Pu3Ga3Ge2Au
_symmetry_space_group_name_H-M   'P 1'
_cell_length_a   7.08815653
_cell_length_b   7.08343389
_cell_length_c   4.35847600
_cell_angle_alpha   90.00000000
_cell_angle_beta   90.00000000
_cell_angle_gamma   119.85237032
_symmetry_Int_Tables_number   1
_chemical_formula_structural   Pu3Ga3Ge2Au
_chemical_formula_sum   'Pu3 Ga3 Ge2 Au1'
_cell_volume   189.79579119
_cell_formula_units_Z   1
loop_
 _symmetry_equiv_pos_site_id
 _symmetry_equiv_pos_as_xyz
  1  'x, y, z'
loop_
 _atom_site_type_symbol
 _atom_site_label
 _atom_site_symmetry_multiplicity
 _atom_site_fract_x
 _atom_site_fract_y
 _atom_site_fract_z
 _atom_site_occupancy
  Pu  Pu0  1  0.000045  0.426980  0.500000  1
  Pu  Pu1  1  0.573122  0.572989  0.500000  1
  Pu  Pu2  1  0.426602  0.999995  0.500000  1
  Ga  Ga3  1  0.000036  0.757771  0.000000  1
  Ga  Ga4  1  0.242421  0.242304  0.000000  1
  Ga  Ga5  1  0.757642  0.999958  0.000000  1
  Ge  Ge6  1  0.333587  0.666647  0.000000  1
  Ge  Ge7  1  0.666641  0.333403  0.000000  1
  Au  Au8  1  0.999905  0.999952  0.500000  1
