# generated using pymatgen
data_Sr3HoCrO6
_symmetry_space_group_name_H-M   'P 1'
_cell_length_a   6.85003521
_cell_length_b   6.85000515
_cell_length_c   6.85000775
_cell_angle_alpha   92.26333124
_cell_angle_beta   92.26264325
_cell_angle_gamma   92.26339420
_symmetry_Int_Tables_number   1
_chemical_formula_structural   Sr3HoCrO6
_chemical_formula_sum   'Sr6 Ho2 Cr2 O12'
_cell_volume   320.64884695
_cell_formula_units_Z   2
loop_
 _symmetry_equiv_pos_site_id
 _symmetry_equiv_pos_as_xyz
  1  'x, y, z'
loop_
 _atom_site_type_symbol
 _atom_site_label
 _atom_site_symmetry_multiplicity
 _atom_site_fract_x
 _atom_site_fract_y
 _atom_site_fract_z
 _atom_site_occupancy
  Sr  Sr0  1  0.615498  0.884507  0.249990  1
  Sr  Sr1  1  0.884505  0.249997  0.615500  1
  Sr  Sr2  1  0.249997  0.615494  0.884498  1
  Sr  Sr3  1  0.115491  0.749998  0.384504  1
  Sr  Sr4  1  0.749999  0.384505  0.115501  1
  Sr  Sr5  1  0.384504  0.115496  0.750001  1
  Ho  Ho6  1  0.249992  0.250015  0.249996  1
  Ho  Ho7  1  0.749998  0.749985  0.749995  1
  Cr  Cr8  1  0.500003  0.500000  0.500005  1
  Cr  Cr9  1  0.000004  0.000003  0.000003  1
  O  O10  1  0.542253  0.214112  0.410682  1
  O  O11  1  0.214110  0.410692  0.542266  1
  O  O12  1  0.410683  0.542268  0.214114  1
  O  O13  1  0.042263  0.910686  0.714109  1
  O  O14  1  0.910691  0.714108  0.042264  1
  O  O15  1  0.714119  0.042259  0.910693  1
  O  O16  1  0.457742  0.785881  0.589316  1
  O  O17  1  0.785885  0.589308  0.457738  1
  O  O18  1  0.589314  0.457732  0.785889  1
  O  O19  1  0.957743  0.089321  0.285889  1
  O  O20  1  0.089315  0.285892  0.957735  1
  O  O21  1  0.285888  0.957741  0.089310  1
