# generated using pymatgen
data_Ce2ErZn4CdPt4
_symmetry_space_group_name_H-M   'P 1'
_cell_length_a   4.16543300
_cell_length_b   6.97153556
_cell_length_c   8.12558804
_cell_angle_alpha   92.57497446
_cell_angle_beta   90.00000000
_cell_angle_gamma   90.00000000
_symmetry_Int_Tables_number   1
_chemical_formula_structural   Ce2ErZn4CdPt4
_chemical_formula_sum   'Ce2 Er1 Zn4 Cd1 Pt4'
_cell_volume   235.72446924
_cell_formula_units_Z   1
loop_
 _symmetry_equiv_pos_site_id
 _symmetry_equiv_pos_as_xyz
  1  'x, y, z'
loop_
 _atom_site_type_symbol
 _atom_site_label
 _atom_site_symmetry_multiplicity
 _atom_site_fract_x
 _atom_site_fract_y
 _atom_site_fract_z
 _atom_site_occupancy
  Ce  Ce0  1  0.750000  0.962226  0.688673  1
  Ce  Ce1  1  0.250000  0.532477  0.170700  1
  Er  Er2  1  0.250000  0.044422  0.316659  1
  Zn  Zn3  1  0.250000  0.627466  0.558720  1
  Zn  Zn4  1  0.250000  0.143978  0.939100  1
  Zn  Zn5  1  0.750000  0.366369  0.446271  1
  Zn  Zn6  1  0.750000  0.860061  0.061445  1
  Cd  Cd7  1  0.750000  0.463151  0.820206  1
  Pt  Pt8  1  0.250000  0.758787  0.873427  1
  Pt  Pt9  1  0.250000  0.254642  0.626139  1
  Pt  Pt10  1  0.750000  0.746923  0.370119  1
  Pt  Pt11  1  0.750000  0.239498  0.128541  1
