# generated using pymatgen
data_Er4FeCo2Ru5
_symmetry_space_group_name_H-M   'P 1'
_cell_length_a   5.20135757
_cell_length_b   5.08429937
_cell_length_c   8.82722500
_cell_angle_alpha   90.00000000
_cell_angle_beta   90.00000000
_cell_angle_gamma   120.31054387
_symmetry_Int_Tables_number   1
_chemical_formula_structural   Er4FeCo2Ru5
_chemical_formula_sum   'Er4 Fe1 Co2 Ru5'
_cell_volume   201.52787049
_cell_formula_units_Z   1
loop_
 _symmetry_equiv_pos_site_id
 _symmetry_equiv_pos_as_xyz
  1  'x, y, z'
loop_
 _atom_site_type_symbol
 _atom_site_label
 _atom_site_symmetry_multiplicity
 _atom_site_fract_x
 _atom_site_fract_y
 _atom_site_fract_z
 _atom_site_occupancy
  Er  Er0  1  0.330439  0.665461  0.433651  1
  Er  Er1  1  0.664875  0.333818  0.567314  1
  Er  Er2  1  0.664875  0.333818  0.932686  1
  Er  Er3  1  0.330439  0.665461  0.066349  1
  Fe  Fe4  1  0.170809  0.335703  0.750000  1
  Co  Co5  1  0.172609  0.826968  0.750000  1
  Co  Co6  1  0.339473  0.169371  0.250000  1
  Ru  Ru7  1  0.832042  0.661373  0.250000  1
  Ru  Ru8  1  0.658592  0.826976  0.750000  1
  Ru  Ru9  1  0.001995  0.004402  0.997254  1
  Ru  Ru10  1  0.831855  0.172249  0.250000  1
  Ru  Ru11  1  0.001995  0.004402  0.502746  1
