# generated using pymatgen
data_Na3LiFeH6
_symmetry_space_group_name_H-M   'P 1'
_cell_length_a   6.12037417
_cell_length_b   6.12037448
_cell_length_c   6.12037419
_cell_angle_alpha   93.67529301
_cell_angle_beta   93.67528250
_cell_angle_gamma   93.67527941
_symmetry_Int_Tables_number   1
_chemical_formula_structural   Na3LiFeH6
_chemical_formula_sum   'Na6 Li2 Fe2 H12'
_cell_volume   227.78475452
_cell_formula_units_Z   2
loop_
 _symmetry_equiv_pos_site_id
 _symmetry_equiv_pos_as_xyz
  1  'x, y, z'
loop_
 _atom_site_type_symbol
 _atom_site_label
 _atom_site_symmetry_multiplicity
 _atom_site_fract_x
 _atom_site_fract_y
 _atom_site_fract_z
 _atom_site_occupancy
  Na  Na0  1  0.881281  0.618719  0.250000  1
  Na  Na1  1  0.250000  0.881281  0.618719  1
  Na  Na2  1  0.618719  0.250000  0.881281  1
  Na  Na3  1  0.750000  0.118719  0.381281  1
  Na  Na4  1  0.381281  0.750000  0.118719  1
  Na  Na5  1  0.118719  0.381281  0.750000  1
  Li  Li6  1  0.250000  0.250000  0.250000  1
  Li  Li7  1  0.750000  0.750000  0.750000  1
  Fe  Fe8  1  0.500000  0.500000  0.500000  1
  Fe  Fe9  1  0.000000  0.000000  0.000000  1
  H  H10  1  0.243276  0.533273  0.428330  1
  H  H11  1  0.428330  0.243276  0.533273  1
  H  H12  1  0.533273  0.428330  0.243276  1
  H  H13  1  0.928330  0.033273  0.743276  1
  H  H14  1  0.743276  0.928330  0.033273  1
  H  H15  1  0.033273  0.743276  0.928330  1
  H  H16  1  0.756724  0.466727  0.571670  1
  H  H17  1  0.571670  0.756724  0.466727  1
  H  H18  1  0.466727  0.571670  0.756724  1
  H  H19  1  0.071670  0.966727  0.256724  1
  H  H20  1  0.256724  0.071670  0.966727  1
  H  H21  1  0.966727  0.256724  0.071670  1
