# generated using pymatgen
data_Tm4Al10Ga8Ir5Pt
_symmetry_space_group_name_H-M   'P 1'
_cell_length_a   7.54110278
_cell_length_b   7.53576879
_cell_length_c   9.49874546
_cell_angle_alpha   90.15344086
_cell_angle_beta   89.88423734
_cell_angle_gamma   119.88235526
_symmetry_Int_Tables_number   1
_chemical_formula_structural   Tm4Al10Ga8Ir5Pt
_chemical_formula_sum   'Tm4 Al10 Ga8 Ir5 Pt1'
_cell_volume   468.02735346
_cell_formula_units_Z   1
loop_
 _symmetry_equiv_pos_site_id
 _symmetry_equiv_pos_as_xyz
  1  'x, y, z'
loop_
 _atom_site_type_symbol
 _atom_site_label
 _atom_site_symmetry_multiplicity
 _atom_site_fract_x
 _atom_site_fract_y
 _atom_site_fract_z
 _atom_site_occupancy
  Tm  Tm0  1  0.997059  0.667425  0.246616  1
  Tm  Tm1  1  0.002941  0.332575  0.753384  1
  Tm  Tm2  1  0.671743  0.998873  0.249776  1
  Tm  Tm3  1  0.328257  0.001127  0.750224  1
  Al  Al4  1  0.998935  0.665819  0.571545  1
  Al  Al5  1  0.334217  0.999539  0.426266  1
  Al  Al6  1  0.001065  0.334181  0.428455  1
  Al  Al7  1  0.665783  0.000461  0.573734  1
  Al  Al8  1  0.661626  0.998085  0.923579  1
  Al  Al9  1  0.338374  0.001915  0.076421  1
  Al  Al10  1  0.333209  0.333156  0.558054  1
  Al  Al11  1  0.666791  0.666844  0.441946  1
  Al  Al12  1  0.663963  0.663536  0.058156  1
  Al  Al13  1  0.336037  0.336464  0.941844  1
  Ga  Ga14  1  0.130383  0.126841  0.252433  1
  Ga  Ga15  1  0.869617  0.873159  0.747567  1
  Ga  Ga16  1  0.998288  0.335951  0.082521  1
  Ga  Ga17  1  0.001712  0.664049  0.917479  1
  Ga  Ga18  1  0.341663  0.550248  0.250966  1
  Ga  Ga19  1  0.658337  0.449752  0.749034  1
  Ga  Ga20  1  0.547807  0.339969  0.250092  1
  Ga  Ga21  1  0.452193  0.660031  0.749908  1
  Ir  Ir22  1  0.667476  0.326037  0.999004  1
  Ir  Ir23  1  0.332524  0.673963  0.000996  1
  Ir  Ir24  1  0.327659  0.671705  0.500700  1
  Ir  Ir25  1  0.672341  0.328295  0.499300  1
  Ir  Ir26  1  0.000000  0.000000  0.500000  1
  Pt  Pt27  1  0.000000  0.000000  0.000000  1
