# generated using pymatgen
data_LaPr5PaO12
_symmetry_space_group_name_H-M   'P 1'
_cell_length_a   6.90577609
_cell_length_b   6.91063159
_cell_length_c   6.90963672
_cell_angle_alpha   99.11534173
_cell_angle_beta   99.13417882
_cell_angle_gamma   98.94584440
_symmetry_Int_Tables_number   1
_chemical_formula_structural   LaPr5PaO12
_chemical_formula_sum   'La1 Pr5 Pa1 O12'
_cell_volume   315.88991459
_cell_formula_units_Z   1
loop_
 _symmetry_equiv_pos_site_id
 _symmetry_equiv_pos_as_xyz
  1  'x, y, z'
loop_
 _atom_site_type_symbol
 _atom_site_label
 _atom_site_symmetry_multiplicity
 _atom_site_fract_x
 _atom_site_fract_y
 _atom_site_fract_z
 _atom_site_occupancy
  La  La0  1  0.141040  0.304131  0.605987  1
  Pr  Pr1  1  0.302854  0.609815  0.140914  1
  Pr  Pr2  1  0.608504  0.139295  0.302726  1
  Pr  Pr3  1  0.391175  0.859129  0.696043  1
  Pr  Pr4  1  0.696868  0.390891  0.859468  1
  Pr  Pr5  1  0.860355  0.696686  0.391176  1
  Pa  Pa6  1  0.999405  0.999499  0.999550  1
  O  O7  1  0.437756  0.177121  0.587621  1
  O  O8  1  0.931966  0.692913  0.053276  1
  O  O9  1  0.178051  0.589661  0.437445  1
  O  O10  1  0.822558  0.412681  0.561910  1
  O  O11  1  0.562720  0.823358  0.412734  1
  O  O12  1  0.586789  0.437643  0.177626  1
  O  O13  1  0.414846  0.563552  0.824505  1
  O  O14  1  0.944685  0.066374  0.305841  1
  O  O15  1  0.053037  0.930455  0.693549  1
  O  O16  1  0.692814  0.053685  0.931703  1
  O  O17  1  0.067682  0.306310  0.949431  1
  O  O18  1  0.306894  0.946801  0.068495  1
