# generated using pymatgen
data_Hf3ZrIn4Co2Hg
_symmetry_space_group_name_H-M   'P 1'
_cell_length_a   3.30179700
_cell_length_b   7.50154433
_cell_length_c   9.13684866
_cell_angle_alpha   85.22148278
_cell_angle_beta   90.00000000
_cell_angle_gamma   90.00000000
_symmetry_Int_Tables_number   1
_chemical_formula_structural   Hf3ZrIn4Co2Hg
_chemical_formula_sum   'Hf3 Zr1 In4 Co2 Hg1'
_cell_volume   225.52013033
_cell_formula_units_Z   1
loop_
 _symmetry_equiv_pos_site_id
 _symmetry_equiv_pos_as_xyz
  1  'x, y, z'
loop_
 _atom_site_type_symbol
 _atom_site_label
 _atom_site_symmetry_multiplicity
 _atom_site_fract_x
 _atom_site_fract_y
 _atom_site_fract_z
 _atom_site_occupancy
  Hf  Hf0  1  0.500000  0.806942  0.439015  1
  Hf  Hf1  1  0.500000  0.180133  0.161091  1
  Hf  Hf2  1  0.500000  0.193838  0.560333  1
  Zr  Zr3  1  0.500000  0.818715  0.840847  1
  In  In4  1  0.000000  0.540173  0.667533  1
  In  In5  1  0.000000  0.160458  0.861013  1
  In  In6  1  0.000000  0.839484  0.139291  1
  In  In7  1  0.000000  0.459889  0.332903  1
  Co  Co8  1  0.000000  0.075488  0.364638  1
  Co  Co9  1  0.000000  0.926296  0.632567  1
  Hg  Hg10  1  0.000000  0.498585  0.000768  1
