# generated using pymatgen
data_Tb12TcOs2Rh
_symmetry_space_group_name_H-M   'P 1'
_cell_length_a   6.37227213
_cell_length_b   7.37804006
_cell_length_c   9.22559300
_cell_angle_alpha   90.00000000
_cell_angle_beta   90.00000000
_cell_angle_gamma   90.19532070
_symmetry_Int_Tables_number   1
_chemical_formula_structural   Tb12TcOs2Rh
_chemical_formula_sum   'Tb12 Tc1 Os2 Rh1'
_cell_volume   433.73761832
_cell_formula_units_Z   1
loop_
 _symmetry_equiv_pos_site_id
 _symmetry_equiv_pos_as_xyz
  1  'x, y, z'
loop_
 _atom_site_type_symbol
 _atom_site_label
 _atom_site_symmetry_multiplicity
 _atom_site_fract_x
 _atom_site_fract_y
 _atom_site_fract_z
 _atom_site_occupancy
  Tb  Tb0  1  0.332962  0.673859  0.061644  1
  Tb  Tb1  1  0.168922  0.178489  0.437532  1
  Tb  Tb2  1  0.670195  0.323666  0.564106  1
  Tb  Tb3  1  0.826558  0.823284  0.932493  1
  Tb  Tb4  1  0.670195  0.323666  0.935894  1
  Tb  Tb5  1  0.826558  0.823284  0.567507  1
  Tb  Tb6  1  0.332962  0.673859  0.438356  1
  Tb  Tb7  1  0.168922  0.178489  0.062468  1
  Tb  Tb8  1  0.865962  0.538756  0.250000  1
  Tb  Tb9  1  0.633903  0.040422  0.250000  1
  Tb  Tb10  1  0.131266  0.462165  0.750000  1
  Tb  Tb11  1  0.368220  0.961807  0.750000  1
  Tc  Tc12  1  0.962040  0.113379  0.750000  1
  Os  Os13  1  0.457012  0.385164  0.250000  1
  Os  Os14  1  0.539786  0.615445  0.750000  1
  Rh  Rh15  1  0.044539  0.884266  0.250000  1
