# generated using pymatgen
data_Yb3Hf(Al8Pt3)3
_symmetry_space_group_name_H-M   'P 1'
_cell_length_a   7.45036475
_cell_length_b   7.49091256
_cell_length_c   13.28413453
_cell_angle_alpha   84.73638813
_cell_angle_beta   100.75108811
_cell_angle_gamma   119.52571190
_symmetry_Int_Tables_number   1
_chemical_formula_structural   Yb3Hf(Al8Pt3)3
_chemical_formula_sum   'Yb3 Hf1 Al24 Pt9'
_cell_volume   633.78365820
_cell_formula_units_Z   1
loop_
 _symmetry_equiv_pos_site_id
 _symmetry_equiv_pos_as_xyz
  1  'x, y, z'
loop_
 _atom_site_type_symbol
 _atom_site_label
 _atom_site_symmetry_multiplicity
 _atom_site_fract_x
 _atom_site_fract_y
 _atom_site_fract_z
 _atom_site_occupancy
  Yb  Yb0  1  0.563962  0.170377  0.191380  1
  Yb  Yb1  1  0.766749  0.501115  0.807968  1
  Yb  Yb2  1  0.232155  0.497689  0.191225  1
  Hf  Hf3  1  0.435894  0.829489  0.809816  1
  Al  Al4  1  0.480957  0.163768  0.941488  1
  Al  Al5  1  0.518686  0.833907  0.051477  1
  Al  Al6  1  0.022412  0.168917  0.561713  1
  Al  Al7  1  0.979294  0.831922  0.441965  1
  Al  Al8  1  0.356557  0.834224  0.560500  1
  Al  Al9  1  0.644730  0.164918  0.443002  1
  Al  Al10  1  0.619446  0.835177  0.329336  1
  Al  Al11  1  0.384545  0.162654  0.676933  1
  Al  Al12  1  0.060012  0.496155  0.676436  1
  Al  Al13  1  0.944478  0.507371  0.329327  1
  Al  Al14  1  0.729843  0.840049  0.674694  1
  Al  Al15  1  0.269598  0.159412  0.330738  1
  Al  Al16  1  0.148145  0.503299  0.942076  1
  Al  Al17  1  0.852122  0.502144  0.051508  1
  Al  Al18  1  0.809682  0.831014  0.947481  1
  Al  Al19  1  0.180257  0.165456  0.042539  1
  Al  Al20  1  0.313378  0.500460  0.442915  1
  Al  Al21  1  0.686319  0.499296  0.559317  1
  Al  Al22  1  0.102480  0.835169  0.182179  1
  Al  Al23  1  0.888358  0.155231  0.816848  1
  Al  Al24  1  0.306111  0.377019  0.815556  1
  Al  Al25  1  0.693179  0.632091  0.182691  1
  Al  Al26  1  0.112427  0.960467  0.815926  1
  Al  Al27  1  0.896709  0.039929  0.182535  1
  Pt  Pt28  1  0.388862  0.508234  0.639264  1
  Pt  Pt29  1  0.613278  0.492879  0.362877  1
  Pt  Pt30  1  0.171151  0.829270  0.997567  1
  Pt  Pt31  1  0.828010  0.172005  0.998721  1
  Pt  Pt32  1  0.295189  0.832604  0.362851  1
  Pt  Pt33  1  0.705313  0.167809  0.639156  1
  Pt  Pt34  1  0.047132  0.825318  0.637833  1
  Pt  Pt35  1  0.953984  0.173993  0.364258  1
  Pt  Pt36  1  0.498595  0.499168  0.997905  1
