# generated using pymatgen
data_K8Ti6MnFe(PO4)12
_symmetry_space_group_name_H-M   'P 1'
_cell_length_a   10.02292900
_cell_length_b   10.05369461
_cell_length_c   10.05663900
_cell_angle_alpha   89.96756142
_cell_angle_beta   90.00000000
_cell_angle_gamma   90.00000000
_symmetry_Int_Tables_number   1
_chemical_formula_structural   K8Ti6MnFe(PO4)12
_chemical_formula_sum   'K8 Ti6 Mn1 Fe1 P12 O48'
_cell_volume   1013.38187893
_cell_formula_units_Z   1
loop_
 _symmetry_equiv_pos_site_id
 _symmetry_equiv_pos_as_xyz
  1  'x, y, z'
loop_
 _atom_site_type_symbol
 _atom_site_label
 _atom_site_symmetry_multiplicity
 _atom_site_fract_x
 _atom_site_fract_y
 _atom_site_fract_z
 _atom_site_occupancy
  K  K0  1  0.063680  0.192324  0.062793  1
  K  K1  1  0.798512  0.053303  0.712756  1
  K  K2  1  0.298175  0.946012  0.286752  1
  K  K3  1  0.562469  0.806224  0.937884  1
  K  K4  1  0.932731  0.676938  0.432657  1
  K  K5  1  0.202363  0.542655  0.806637  1
  K  K6  1  0.702391  0.457578  0.193409  1
  K  K7  1  0.433577  0.323259  0.567611  1
  Ti  Ti8  1  0.414583  0.166395  0.911742  1
  Ti  Ti9  1  0.638894  0.107789  0.357220  1
  Ti  Ti10  1  0.139723  0.891740  0.642390  1
  Ti  Ti11  1  0.914234  0.833486  0.088546  1
  Ti  Ti12  1  0.589325  0.658273  0.588937  1
  Ti  Ti13  1  0.090115  0.341448  0.411343  1
  Mn  Mn14  1  0.854184  0.394859  0.854973  1
  Fe  Fe15  1  0.355300  0.606665  0.145049  1
  P  P16  1  0.134457  0.210305  0.721299  1
  P  P17  1  0.720870  0.113253  0.043148  1
  P  P18  1  0.959833  0.026931  0.371835  1
  P  P19  1  0.460335  0.973018  0.628312  1
  P  P20  1  0.220929  0.885875  0.957202  1
  P  P21  1  0.632176  0.788529  0.278218  1
  P  P22  1  0.877344  0.711196  0.771965  1
  P  P23  1  0.271277  0.627838  0.462638  1
  P  P24  1  0.042024  0.523330  0.128840  1
  P  P25  1  0.538406  0.478667  0.873571  1
  P  P26  1  0.770442  0.371602  0.535921  1
  P  P27  1  0.377271  0.290108  0.227469  1
  O  O28  1  0.356192  0.245749  0.080481  1
  O  O29  1  0.797068  0.208921  0.955475  1
  O  O30  1  0.273941  0.228476  0.787218  1
  O  O31  1  0.469622  0.185489  0.299302  1
  O  O32  1  0.721943  0.162024  0.191157  1
  O  O33  1  0.007028  0.171883  0.350416  1
  O  O34  1  0.572773  0.094469  0.999549  1
  O  O35  1  0.091098  0.061082  0.722848  1
  O  O36  1  0.479168  0.047592  0.761601  1
  O  O37  1  0.549186  0.047113  0.524991  1
  O  O38  1  0.812821  0.025390  0.420627  1
  O  O39  1  0.288356  0.024892  0.966603  1
  O  O40  1  0.788119  0.974294  0.033519  1
  O  O41  1  0.313375  0.974652  0.579555  1
  O  O42  1  0.049067  0.952776  0.474614  1
  O  O43  1  0.977574  0.951699  0.238584  1
  O  O44  1  0.589474  0.937983  0.276344  1
  O  O45  1  0.072580  0.904950  0.000598  1
  O  O46  1  0.507004  0.827783  0.649163  1
  O  O47  1  0.221704  0.836986  0.808961  1
  O  O48  1  0.969401  0.815968  0.700338  1
  O  O49  1  0.770636  0.769168  0.210567  1
  O  O50  1  0.296757  0.790486  0.045056  1
  O  O51  1  0.856742  0.754143  0.919349  1
  O  O52  1  0.649340  0.746219  0.425908  1
  O  O53  1  0.197211  0.724734  0.560924  1
  O  O54  1  0.739970  0.723944  0.699910  1
  O  O55  1  0.531121  0.705862  0.202713  1
  O  O56  1  0.259720  0.681622  0.322400  1
  O  O57  1  0.001491  0.674226  0.145117  1
  O  O58  1  0.419069  0.610268  0.506704  1
  O  O59  1  0.937099  0.573348  0.759183  1
  O  O60  1  0.529675  0.540678  0.728981  1
  O  O61  1  0.434284  0.551414  0.955515  1
  O  O62  1  0.183672  0.512744  0.075864  1
  O  O63  1  0.700982  0.509396  0.515815  1
  O  O64  1  0.201743  0.490332  0.484056  1
  O  O65  1  0.678976  0.492223  0.928401  1
  O  O66  1  0.940995  0.449007  0.044397  1
  O  O67  1  0.031494  0.460855  0.272744  1
  O  O68  1  0.436546  0.427973  0.239396  1
  O  O69  1  0.918644  0.389046  0.493267  1
  O  O70  1  0.501159  0.326775  0.856786  1
  O  O71  1  0.757005  0.317357  0.675901  1
  O  O72  1  0.035054  0.293080  0.798287  1
  O  O73  1  0.239876  0.276565  0.299688  1
  O  O74  1  0.696905  0.275695  0.436488  1
  O  O75  1  0.150725  0.253069  0.573521  1
