# generated using pymatgen
data_Ho3Th(ScSb5)4
_symmetry_space_group_name_H-M   'P 1'
_cell_length_a   4.22245800
_cell_length_b   13.05841416
_cell_length_c   14.27337090
_cell_angle_alpha   78.52242395
_cell_angle_beta   90.00000000
_cell_angle_gamma   90.00000000
_symmetry_Int_Tables_number   1
_chemical_formula_structural   Ho3Th(ScSb5)4
_chemical_formula_sum   'Ho3 Th1 Sc4 Sb20'
_cell_volume   771.27558082
_cell_formula_units_Z   1
loop_
 _symmetry_equiv_pos_site_id
 _symmetry_equiv_pos_as_xyz
  1  'x, y, z'
loop_
 _atom_site_type_symbol
 _atom_site_label
 _atom_site_symmetry_multiplicity
 _atom_site_fract_x
 _atom_site_fract_y
 _atom_site_fract_z
 _atom_site_occupancy
  Ho  Ho0  1  0.750000  0.327508  0.424112  1
  Ho  Ho1  1  0.250000  0.953939  0.352932  1
  Ho  Ho2  1  0.750000  0.049074  0.644871  1
  Th  Th3  1  0.250000  0.671021  0.573992  1
  Sc  Sc4  1  0.250000  0.393603  0.773913  1
  Sc  Sc5  1  0.750000  0.602925  0.225568  1
  Sc  Sc6  1  0.250000  0.658312  0.860704  1
  Sc  Sc7  1  0.750000  0.341815  0.141601  1
  Sb  Sb8  1  0.250000  0.148728  0.780903  1
  Sb  Sb9  1  0.750000  0.851906  0.219312  1
  Sb  Sb10  1  0.250000  0.140506  0.483105  1
  Sb  Sb11  1  0.750000  0.863105  0.515134  1
  Sb  Sb12  1  0.250000  0.162964  0.160253  1
  Sb  Sb13  1  0.750000  0.838128  0.841688  1
  Sb  Sb14  1  0.250000  0.421771  0.975553  1
  Sb  Sb15  1  0.750000  0.578295  0.024046  1
  Sb  Sb16  1  0.750000  0.030888  0.914348  1
  Sb  Sb17  1  0.250000  0.970867  0.087143  1
  Sb  Sb18  1  0.750000  0.142454  0.313967  1
  Sb  Sb19  1  0.250000  0.860820  0.690438  1
  Sb  Sb20  1  0.750000  0.279840  0.937764  1
  Sb  Sb21  1  0.250000  0.720476  0.061609  1
  Sb  Sb22  1  0.750000  0.288160  0.660717  1
  Sb  Sb23  1  0.250000  0.710999  0.337703  1
  Sb  Sb24  1  0.750000  0.572255  0.743294  1
  Sb  Sb25  1  0.250000  0.426533  0.258573  1
  Sb  Sb26  1  0.750000  0.567070  0.441046  1
  Sb  Sb27  1  0.250000  0.426038  0.555709  1
