# generated using pymatgen
data_Nb12Ga8FePd3C4
_symmetry_space_group_name_H-M   'P 1'
_cell_length_a   8.37270845
_cell_length_b   8.37270972
_cell_length_c   8.37270814
_cell_angle_alpha   59.66446764
_cell_angle_beta   59.66446190
_cell_angle_gamma   59.66447036
_symmetry_Int_Tables_number   1
_chemical_formula_structural   Nb12Ga8FePd3C4
_chemical_formula_sum   'Nb12 Ga8 Fe1 Pd3 C4'
_cell_volume   411.86940256
_cell_formula_units_Z   1
loop_
 _symmetry_equiv_pos_site_id
 _symmetry_equiv_pos_as_xyz
  1  'x, y, z'
loop_
 _atom_site_type_symbol
 _atom_site_label
 _atom_site_symmetry_multiplicity
 _atom_site_fract_x
 _atom_site_fract_y
 _atom_site_fract_z
 _atom_site_occupancy
  Nb  Nb0  1  0.567860  0.933582  0.567860  1
  Nb  Nb1  1  0.316418  0.682140  0.682140  1
  Nb  Nb2  1  0.694443  0.311541  0.311541  1
  Nb  Nb3  1  0.311541  0.694443  0.311541  1
  Nb  Nb4  1  0.682140  0.682140  0.316418  1
  Nb  Nb5  1  0.311541  0.311541  0.694443  1
  Nb  Nb6  1  0.567860  0.567860  0.933582  1
  Nb  Nb7  1  0.933582  0.567860  0.567860  1
  Nb  Nb8  1  0.555557  0.938459  0.938459  1
  Nb  Nb9  1  0.938459  0.938459  0.555557  1
  Nb  Nb10  1  0.682140  0.316418  0.682140  1
  Nb  Nb11  1  0.938459  0.555557  0.938459  1
  Ga  Ga12  1  0.911639  0.911639  0.911639  1
  Ga  Ga13  1  0.996989  0.330991  0.330991  1
  Ga  Ga14  1  0.330991  0.996989  0.330991  1
  Ga  Ga15  1  0.330991  0.330991  0.996989  1
  Ga  Ga16  1  0.919009  0.253011  0.919009  1
  Ga  Ga17  1  0.919009  0.919009  0.253011  1
  Ga  Ga18  1  0.253011  0.919009  0.919009  1
  Ga  Ga19  1  0.338361  0.338361  0.338361  1
  Fe  Fe20  1  0.125000  0.125000  0.125000  1
  Pd  Pd21  1  0.625000  0.125000  0.125000  1
  Pd  Pd22  1  0.125000  0.625000  0.125000  1
  Pd  Pd23  1  0.125000  0.125000  0.625000  1
  C  C24  1  0.625000  0.625000  0.625000  1
  C  C25  1  0.125000  0.625000  0.625000  1
  C  C26  1  0.625000  0.125000  0.625000  1
  C  C27  1  0.625000  0.625000  0.125000  1
