# generated using pymatgen
data_TbEr3(ScSb5)4
_symmetry_space_group_name_H-M   'P 1'
_cell_length_a   4.19763600
_cell_length_b   13.02564633
_cell_length_c   14.20672400
_cell_angle_alpha   78.83200101
_cell_angle_beta   90.00000000
_cell_angle_gamma   90.00000000
_symmetry_Int_Tables_number   1
_chemical_formula_structural   TbEr3(ScSb5)4
_chemical_formula_sum   'Tb1 Er3 Sc4 Sb20'
_cell_volume   762.07043547
_cell_formula_units_Z   1
loop_
 _symmetry_equiv_pos_site_id
 _symmetry_equiv_pos_as_xyz
  1  'x, y, z'
loop_
 _atom_site_type_symbol
 _atom_site_label
 _atom_site_symmetry_multiplicity
 _atom_site_fract_x
 _atom_site_fract_y
 _atom_site_fract_z
 _atom_site_occupancy
  Tb  Tb0  1  0.750000  0.046515  0.646083  1
  Er  Er1  1  0.250000  0.670065  0.575763  1
  Er  Er2  1  0.750000  0.329871  0.423779  1
  Er  Er3  1  0.250000  0.953427  0.355381  1
  Sc  Sc4  1  0.250000  0.397911  0.771970  1
  Sc  Sc5  1  0.750000  0.603124  0.227742  1
  Sc  Sc6  1  0.250000  0.657164  0.858888  1
  Sc  Sc7  1  0.750000  0.342329  0.141646  1
  Sb  Sb8  1  0.250000  0.149485  0.780617  1
  Sb  Sb9  1  0.750000  0.852329  0.220563  1
  Sb  Sb10  1  0.250000  0.142674  0.481931  1
  Sb  Sb11  1  0.750000  0.857009  0.516885  1
  Sb  Sb12  1  0.250000  0.162364  0.158869  1
  Sb  Sb13  1  0.750000  0.836728  0.840954  1
  Sb  Sb14  1  0.250000  0.422302  0.974938  1
  Sb  Sb15  1  0.750000  0.577476  0.025266  1
  Sb  Sb16  1  0.750000  0.029602  0.914018  1
  Sb  Sb17  1  0.250000  0.969850  0.085766  1
  Sb  Sb18  1  0.750000  0.142459  0.313992  1
  Sb  Sb19  1  0.250000  0.855918  0.685820  1
  Sb  Sb20  1  0.750000  0.280596  0.935762  1
  Sb  Sb21  1  0.250000  0.719404  0.064239  1
  Sb  Sb22  1  0.750000  0.290195  0.658701  1
  Sb  Sb23  1  0.250000  0.710798  0.341243  1
  Sb  Sb24  1  0.750000  0.574650  0.740193  1
  Sb  Sb25  1  0.250000  0.425622  0.259678  1
  Sb  Sb26  1  0.750000  0.570245  0.444000  1
  Sb  Sb27  1  0.250000  0.429891  0.555311  1
