# generated using pymatgen
data_Tb6Zn4Pt13
_symmetry_space_group_name_H-M   'P 1'
_cell_length_a   8.25080880
_cell_length_b   8.25080981
_cell_length_c   8.25081000
_cell_angle_alpha   109.47122110
_cell_angle_beta   109.47122357
_cell_angle_gamma   109.47121870
_symmetry_Int_Tables_number   1
_chemical_formula_structural   Tb6Zn4Pt13
_chemical_formula_sum   'Tb6 Zn4 Pt13'
_cell_volume   432.38218045
_cell_formula_units_Z   1
loop_
 _symmetry_equiv_pos_site_id
 _symmetry_equiv_pos_as_xyz
  1  'x, y, z'
loop_
 _atom_site_type_symbol
 _atom_site_label
 _atom_site_symmetry_multiplicity
 _atom_site_fract_x
 _atom_site_fract_y
 _atom_site_fract_z
 _atom_site_occupancy
  Tb  Tb0  1  0.698382  0.698382  0.000000  1
  Tb  Tb1  1  0.301618  0.000000  0.301618  1
  Tb  Tb2  1  0.000000  0.301618  0.301618  1
  Tb  Tb3  1  0.301618  0.301618  0.000000  1
  Tb  Tb4  1  0.698382  0.000000  0.698382  1
  Tb  Tb5  1  0.000000  0.698382  0.698382  1
  Zn  Zn6  1  0.000000  0.000000  0.500000  1
  Zn  Zn7  1  0.000000  0.500000  0.000000  1
  Zn  Zn8  1  0.500000  0.000000  0.000000  1
  Zn  Zn9  1  0.500000  0.500000  0.500000  1
  Pt  Pt10  1  0.330594  0.330594  0.661189  1
  Pt  Pt11  1  0.669406  0.000000  0.330594  1
  Pt  Pt12  1  0.000000  0.669406  0.330594  1
  Pt  Pt13  1  0.669406  0.330594  0.000000  1
  Pt  Pt14  1  0.330594  0.661189  0.330594  1
  Pt  Pt15  1  0.000000  0.330594  0.669406  1
  Pt  Pt16  1  0.330594  0.669406  0.000000  1
  Pt  Pt17  1  0.330594  0.000000  0.669406  1
  Pt  Pt18  1  0.661189  0.330594  0.330594  1
  Pt  Pt19  1  0.669406  0.669406  0.338811  1
  Pt  Pt20  1  0.669406  0.338811  0.669406  1
  Pt  Pt21  1  0.338811  0.669406  0.669406  1
  Pt  Pt22  1  0.000000  0.000000  0.000000  1
