# generated using pymatgen
data_Tb2HoSc(Co4P3)2
_symmetry_space_group_name_H-M   'P 1'
_cell_length_a   3.73427700
_cell_length_b   10.68808300
_cell_length_c   12.38718500
_cell_angle_alpha   90.00000000
_cell_angle_beta   90.00000000
_cell_angle_gamma   90.00000000
_symmetry_Int_Tables_number   1
_chemical_formula_structural   Tb2HoSc(Co4P3)2
_chemical_formula_sum   'Tb4 Ho2 Sc2 Co16 P12'
_cell_volume   494.40057962
_cell_formula_units_Z   2
loop_
 _symmetry_equiv_pos_site_id
 _symmetry_equiv_pos_as_xyz
  1  'x, y, z'
loop_
 _atom_site_type_symbol
 _atom_site_label
 _atom_site_symmetry_multiplicity
 _atom_site_fract_x
 _atom_site_fract_y
 _atom_site_fract_z
 _atom_site_occupancy
  Tb  Tb0  1  0.000000  0.500000  0.528030  1
  Tb  Tb1  1  0.500000  0.000000  0.472642  1
  Tb  Tb2  1  0.500000  0.822282  0.205615  1
  Tb  Tb3  1  0.500000  0.177718  0.205615  1
  Ho  Ho4  1  0.000000  0.677443  0.794462  1
  Ho  Ho5  1  0.000000  0.322557  0.794462  1
  Sc  Sc6  1  0.500000  0.500000  0.156666  1
  Sc  Sc7  1  0.000000  0.000000  0.843214  1
  Co  Co8  1  0.000000  0.500000  0.986760  1
  Co  Co9  1  0.500000  0.000000  0.011776  1
  Co  Co10  1  0.500000  0.295597  0.433531  1
  Co  Co11  1  0.500000  0.704403  0.433531  1
  Co  Co12  1  0.000000  0.204751  0.567850  1
  Co  Co13  1  0.000000  0.795249  0.567850  1
  Co  Co14  1  0.500000  0.877659  0.703470  1
  Co  Co15  1  0.500000  0.122341  0.703470  1
  Co  Co16  1  0.000000  0.621796  0.297329  1
  Co  Co17  1  0.000000  0.378204  0.297329  1
  Co  Co18  1  0.500000  0.331444  0.993827  1
  Co  Co19  1  0.500000  0.668556  0.993827  1
  Co  Co20  1  0.000000  0.169149  0.004656  1
  Co  Co21  1  0.000000  0.830851  0.004656  1
  Co  Co22  1  0.500000  0.500000  0.705931  1
  Co  Co23  1  0.000000  0.000000  0.294508  1
  P  P24  1  0.500000  0.309261  0.616276  1
  P  P25  1  0.500000  0.690739  0.616276  1
  P  P26  1  0.000000  0.191264  0.385148  1
  P  P27  1  0.000000  0.808736  0.385148  1
  P  P28  1  0.500000  0.500000  0.885110  1
  P  P29  1  0.000000  0.000000  0.113441  1
  P  P30  1  0.500000  0.839040  0.892340  1
  P  P31  1  0.500000  0.160960  0.892340  1
  P  P32  1  0.000000  0.660238  0.106268  1
  P  P33  1  0.000000  0.339762  0.106268  1
  P  P34  1  0.500000  0.500000  0.359418  1
  P  P35  1  0.000000  0.000000  0.640956  1
