# generated using pymatgen
data_Th6InTe12
_symmetry_space_group_name_H-M   'P 1'
_cell_length_a   12.65911401
_cell_length_b   12.73226450
_cell_length_c   4.37003600
_cell_angle_alpha   90.00000000
_cell_angle_beta   90.00000000
_cell_angle_gamma   119.64246023
_symmetry_Int_Tables_number   1
_chemical_formula_structural   Th6InTe12
_chemical_formula_sum   'Th6 In1 Te12'
_cell_volume   612.17845615
_cell_formula_units_Z   1
loop_
 _symmetry_equiv_pos_site_id
 _symmetry_equiv_pos_as_xyz
  1  'x, y, z'
loop_
 _atom_site_type_symbol
 _atom_site_label
 _atom_site_symmetry_multiplicity
 _atom_site_fract_x
 _atom_site_fract_y
 _atom_site_fract_z
 _atom_site_occupancy
  Th  Th0  1  0.850932  0.569112  0.000000  1
  Th  Th1  1  0.428450  0.269959  0.000000  1
  Th  Th2  1  0.555510  0.713635  0.500000  1
  Th  Th3  1  0.292790  0.847223  0.500000  1
  Th  Th4  1  0.156202  0.445070  0.500000  1
  Th  Th5  1  0.990086  0.998007  0.000000  1
  In  In6  1  0.723279  0.155649  0.000000  1
  Te  Te7  1  0.744265  0.744758  0.000000  1
  Te  Te8  1  0.238714  0.990451  0.000000  1
  Te  Te9  1  0.008366  0.257367  0.000000  1
  Te  Te10  1  0.487090  0.857943  0.000000  1
  Te  Te11  1  0.140734  0.631112  0.000000  1
  Te  Te12  1  0.375086  0.508816  0.000000  1
  Te  Te13  1  0.874633  0.405631  0.500000  1
  Te  Te14  1  0.213639  0.212534  0.500000  1
  Te  Te15  1  0.997326  0.784842  0.500000  1
  Te  Te16  1  0.802802  0.994335  0.500000  1
  Te  Te17  1  0.508311  0.138028  0.500000  1
  Te  Te18  1  0.611790  0.475527  0.500000  1
