# generated using pymatgen
data_TaTi2Nb7N12
_symmetry_space_group_name_H-M   'P 1'
_cell_length_a   5.23567200
_cell_length_b   5.23567290
_cell_length_c   10.31988600
_cell_angle_alpha   90.00000000
_cell_angle_beta   90.00000000
_cell_angle_gamma   119.99999430
_symmetry_Int_Tables_number   1
_chemical_formula_structural   TaTi2Nb7N12
_chemical_formula_sum   'Ta1 Ti2 Nb7 N12'
_cell_volume   244.99120521
_cell_formula_units_Z   1
loop_
 _symmetry_equiv_pos_site_id
 _symmetry_equiv_pos_as_xyz
  1  'x, y, z'
loop_
 _atom_site_type_symbol
 _atom_site_label
 _atom_site_symmetry_multiplicity
 _atom_site_fract_x
 _atom_site_fract_y
 _atom_site_fract_z
 _atom_site_occupancy
  Ta  Ta0  1  0.666667  0.333333  0.500000  1
  Ti  Ti1  1  0.333333  0.666667  0.000000  1
  Ti  Ti2  1  0.333333  0.666667  0.500000  1
  Nb  Nb3  1  0.676221  0.677537  0.750067  1
  Nb  Nb4  1  0.322463  0.998685  0.750067  1
  Nb  Nb5  1  0.001315  0.323779  0.750067  1
  Nb  Nb6  1  0.322463  0.323779  0.249933  1
  Nb  Nb7  1  0.676221  0.998685  0.249933  1
  Nb  Nb8  1  0.001315  0.677537  0.249933  1
  Nb  Nb9  1  0.666667  0.333333  0.000000  1
  N  N10  1  0.654700  0.656152  0.381044  1
  N  N11  1  0.343848  0.998548  0.381044  1
  N  N12  1  0.001452  0.345300  0.381044  1
  N  N13  1  0.343848  0.345300  0.618956  1
  N  N14  1  0.654700  0.998548  0.618956  1
  N  N15  1  0.001452  0.656152  0.618956  1
  N  N16  1  0.340775  0.345200  0.879539  1
  N  N17  1  0.654800  0.995575  0.879539  1
  N  N18  1  0.004425  0.659225  0.879539  1
  N  N19  1  0.654800  0.659225  0.120461  1
  N  N20  1  0.340775  0.995575  0.120461  1
  N  N21  1  0.004425  0.345200  0.120461  1
