# generated using pymatgen
data_Cs5K3RbInSb4
_symmetry_space_group_name_H-M   'P 1'
_cell_length_a   11.17822900
_cell_length_b   11.19693462
_cell_length_c   11.80386894
_cell_angle_alpha   89.99999923
_cell_angle_beta   90.08092797
_cell_angle_gamma   120.05536757
_symmetry_Int_Tables_number   1
_chemical_formula_structural   Cs5K3RbInSb4
_chemical_formula_sum   'Cs10 K6 Rb2 In2 Sb8'
_cell_volume   1278.74516528
_cell_formula_units_Z   2
loop_
 _symmetry_equiv_pos_site_id
 _symmetry_equiv_pos_as_xyz
  1  'x, y, z'
loop_
 _atom_site_type_symbol
 _atom_site_label
 _atom_site_symmetry_multiplicity
 _atom_site_fract_x
 _atom_site_fract_y
 _atom_site_fract_z
 _atom_site_occupancy
  Cs  Cs0  1  0.208158  0.416085  0.543219  1
  Cs  Cs1  1  0.792427  0.208062  0.042407  1
  Cs  Cs2  1  0.415580  0.207790  0.042566  1
  Cs  Cs3  1  0.583786  0.791893  0.542620  1
  Cs  Cs4  1  0.208158  0.792073  0.543219  1
  Cs  Cs5  1  0.791941  0.584046  0.457097  1
  Cs  Cs6  1  0.791941  0.207895  0.457097  1
  Cs  Cs7  1  0.792427  0.584365  0.042407  1
  Cs  Cs8  1  0.415607  0.207803  0.457218  1
  Cs  Cs9  1  0.582691  0.791346  0.957242  1
  K  K10  1  0.120036  0.239792  0.248925  1
  K  K11  1  0.881193  0.119982  0.750614  1
  K  K12  1  0.238966  0.119483  0.750881  1
  K  K13  1  0.760949  0.880474  0.249839  1
  K  K14  1  0.120036  0.880243  0.248925  1
  K  K15  1  0.881193  0.761212  0.750614  1
  Rb  Rb16  1  0.207048  0.414459  0.957064  1
  Rb  Rb17  1  0.207048  0.792589  0.957064  1
  In  In18  1  0.333070  0.666535  0.248604  1
  In  In19  1  0.666325  0.333162  0.751860  1
  Sb  Sb20  1  0.479645  0.520002  0.249260  1
  Sb  Sb21  1  0.961823  0.480913  0.752136  1
  Sb  Sb22  1  0.519366  0.039395  0.750951  1
  Sb  Sb23  1  0.479645  0.959641  0.249260  1
  Sb  Sb24  1  0.039957  0.519978  0.248351  1
  Sb  Sb25  1  0.519366  0.479972  0.750951  1
  Sb  Sb26  1  0.001861  0.000930  0.999717  1
  Sb  Sb27  1  0.999759  0.999879  0.499891  1
