# generated using pymatgen
data_Tm4Sb6Ru4Rh3
_symmetry_space_group_name_H-M   'P 1'
_cell_length_a   7.54962666
_cell_length_b   7.54472763
_cell_length_c   7.54472720
_cell_angle_alpha   109.45806703
_cell_angle_beta   109.48437998
_cell_angle_gamma   109.48437005
_symmetry_Int_Tables_number   1
_chemical_formula_structural   Tm4Sb6Ru4Rh3
_chemical_formula_sum   'Tm4 Sb6 Ru4 Rh3'
_cell_volume   330.76545096
_cell_formula_units_Z   1
loop_
 _symmetry_equiv_pos_site_id
 _symmetry_equiv_pos_as_xyz
  1  'x, y, z'
loop_
 _atom_site_type_symbol
 _atom_site_label
 _atom_site_symmetry_multiplicity
 _atom_site_fract_x
 _atom_site_fract_y
 _atom_site_fract_z
 _atom_site_occupancy
  Tm  Tm0  1  0.500000  0.000000  0.000000  1
  Tm  Tm1  1  0.998188  0.498188  0.996376  1
  Tm  Tm2  1  0.001812  0.003624  0.501812  1
  Tm  Tm3  1  0.500000  0.498188  0.501812  1
  Sb  Sb4  1  0.315677  0.002249  0.315785  1
  Sb  Sb5  1  0.999891  0.684215  0.686464  1
  Sb  Sb6  1  0.684323  0.684215  0.997751  1
  Sb  Sb7  1  0.686572  0.002249  0.686464  1
  Sb  Sb8  1  0.000109  0.313536  0.315785  1
  Sb  Sb9  1  0.313428  0.313536  0.997751  1
  Ru  Ru10  1  0.249784  0.499568  0.749784  1
  Ru  Ru11  1  0.500000  0.250216  0.749784  1
  Ru  Ru12  1  0.750216  0.250216  0.500432  1
  Ru  Ru13  1  0.000000  0.000000  0.000000  1
  Rh  Rh14  1  0.500000  0.750516  0.249484  1
  Rh  Rh15  1  0.250516  0.750516  0.501032  1
  Rh  Rh16  1  0.749484  0.498968  0.249484  1
