# generated using pymatgen
data_Yb12Cu12Si11Ge
_symmetry_space_group_name_H-M   'P 1'
_cell_length_a   4.28111100
_cell_length_b   7.23788647
_cell_length_c   20.72081978
_cell_angle_alpha   89.95961690
_cell_angle_beta   90.00000000
_cell_angle_gamma   90.00000000
_symmetry_Int_Tables_number   1
_chemical_formula_structural   Yb12Cu12Si11Ge
_chemical_formula_sum   'Yb12 Cu12 Si11 Ge1'
_cell_volume   642.05921025
_cell_formula_units_Z   1
loop_
 _symmetry_equiv_pos_site_id
 _symmetry_equiv_pos_as_xyz
  1  'x, y, z'
loop_
 _atom_site_type_symbol
 _atom_site_label
 _atom_site_symmetry_multiplicity
 _atom_site_fract_x
 _atom_site_fract_y
 _atom_site_fract_z
 _atom_site_occupancy
  Yb  Yb0  1  0.250000  0.800218  0.832750  1
  Yb  Yb1  1  0.250000  0.707302  0.003178  1
  Yb  Yb2  1  0.750000  0.291717  0.997527  1
  Yb  Yb3  1  0.750000  0.208898  0.497019  1
  Yb  Yb4  1  0.250000  0.791463  0.502636  1
  Yb  Yb5  1  0.250000  0.795857  0.166793  1
  Yb  Yb6  1  0.750000  0.202943  0.833249  1
  Yb  Yb7  1  0.750000  0.296783  0.333952  1
  Yb  Yb8  1  0.250000  0.701800  0.666051  1
  Yb  Yb9  1  0.250000  0.701824  0.333396  1
  Yb  Yb10  1  0.750000  0.298703  0.666290  1
  Yb  Yb11  1  0.750000  0.202707  0.167730  1
  Cu  Cu12  1  0.250000  0.405875  0.096768  1
  Cu  Cu13  1  0.750000  0.584631  0.904756  1
  Cu  Cu14  1  0.750000  0.913896  0.403572  1
  Cu  Cu15  1  0.250000  0.086205  0.596314  1
  Cu  Cu16  1  0.250000  0.412288  0.236463  1
  Cu  Cu17  1  0.750000  0.586434  0.762629  1
  Cu  Cu18  1  0.750000  0.911852  0.264550  1
  Cu  Cu19  1  0.250000  0.090915  0.733914  1
  Cu  Cu20  1  0.250000  0.417495  0.437651  1
  Cu  Cu21  1  0.750000  0.583018  0.562209  1
  Cu  Cu22  1  0.750000  0.923117  0.061110  1
  Cu  Cu23  1  0.250000  0.083959  0.938888  1
  Si  Si24  1  0.250000  0.088234  0.066354  1
  Si  Si25  1  0.750000  0.909750  0.933883  1
  Si  Si26  1  0.750000  0.590228  0.433666  1
  Si  Si27  1  0.250000  0.409813  0.565994  1
  Si  Si28  1  0.250000  0.081167  0.273041  1
  Si  Si29  1  0.750000  0.919548  0.726418  1
  Si  Si30  1  0.750000  0.581868  0.229592  1
  Si  Si31  1  0.250000  0.419227  0.772720  1
  Si  Si32  1  0.250000  0.084063  0.394826  1
  Si  Si33  1  0.750000  0.915628  0.604723  1
  Si  Si34  1  0.250000  0.415943  0.894833  1
  Ge  Ge35  1  0.750000  0.584630  0.104553  1
