# generated using pymatgen
data_Pr3Ho(SiPd14)2
_symmetry_space_group_name_H-M   'P 1'
_cell_length_a   8.96553800
_cell_length_b   8.96553800
_cell_length_c   7.16703000
_cell_angle_alpha   90.00000000
_cell_angle_beta   90.00000000
_cell_angle_gamma   90.00000000
_symmetry_Int_Tables_number   1
_chemical_formula_structural   Pr3Ho(SiPd14)2
_chemical_formula_sum   'Pr3 Ho1 Si2 Pd28'
_cell_volume   576.09211839
_cell_formula_units_Z   1
loop_
 _symmetry_equiv_pos_site_id
 _symmetry_equiv_pos_as_xyz
  1  'x, y, z'
loop_
 _atom_site_type_symbol
 _atom_site_label
 _atom_site_symmetry_multiplicity
 _atom_site_fract_x
 _atom_site_fract_y
 _atom_site_fract_z
 _atom_site_occupancy
  Pr  Pr0  1  0.500000  0.000000  0.936510  1
  Pr  Pr1  1  0.000000  0.500000  0.063490  1
  Pr  Pr2  1  0.500000  0.500000  0.500000  1
  Ho  Ho3  1  0.000000  0.000000  0.500000  1
  Si  Si4  1  0.500000  0.000000  0.448866  1
  Si  Si5  1  0.000000  0.500000  0.551134  1
  Pd  Pd6  1  0.333086  0.835093  0.614467  1
  Pd  Pd7  1  0.333086  0.164907  0.614467  1
  Pd  Pd8  1  0.666914  0.835093  0.614467  1
  Pd  Pd9  1  0.666914  0.164907  0.614467  1
  Pd  Pd10  1  0.164907  0.666914  0.385533  1
  Pd  Pd11  1  0.164907  0.333086  0.385533  1
  Pd  Pd12  1  0.835093  0.666914  0.385533  1
  Pd  Pd13  1  0.835093  0.333086  0.385533  1
  Pd  Pd14  1  0.500000  0.771387  0.256729  1
  Pd  Pd15  1  0.500000  0.228613  0.256729  1
  Pd  Pd16  1  0.267132  0.000000  0.261285  1
  Pd  Pd17  1  0.732868  0.000000  0.261285  1
  Pd  Pd18  1  0.000000  0.732868  0.738715  1
  Pd  Pd19  1  0.000000  0.267132  0.738715  1
  Pd  Pd20  1  0.228613  0.500000  0.743271  1
  Pd  Pd21  1  0.771387  0.500000  0.743271  1
  Pd  Pd22  1  0.500000  0.348384  0.856174  1
  Pd  Pd23  1  0.500000  0.651616  0.856174  1
  Pd  Pd24  1  0.850529  0.000000  0.851397  1
  Pd  Pd25  1  0.149471  0.000000  0.851397  1
  Pd  Pd26  1  0.000000  0.149471  0.148603  1
  Pd  Pd27  1  0.000000  0.850529  0.148603  1
  Pd  Pd28  1  0.651616  0.500000  0.143826  1
  Pd  Pd29  1  0.348384  0.500000  0.143826  1
  Pd  Pd30  1  0.248925  0.751075  0.000000  1
  Pd  Pd31  1  0.248925  0.248925  0.000000  1
  Pd  Pd32  1  0.751075  0.751075  0.000000  1
  Pd  Pd33  1  0.751075  0.248925  0.000000  1
