# generated using pymatgen
data_Tb3Ho3CoTe2
_symmetry_space_group_name_H-M   'P 1'
_cell_length_a   8.34976900
_cell_length_b   8.34976869
_cell_length_c   3.92407000
_cell_angle_alpha   90.00000000
_cell_angle_beta   90.00000000
_cell_angle_gamma   119.99999727
_symmetry_Int_Tables_number   1
_chemical_formula_structural   Tb3Ho3CoTe2
_chemical_formula_sum   'Tb3 Ho3 Co1 Te2'
_cell_volume   236.92794899
_cell_formula_units_Z   1
loop_
 _symmetry_equiv_pos_site_id
 _symmetry_equiv_pos_as_xyz
  1  'x, y, z'
loop_
 _atom_site_type_symbol
 _atom_site_label
 _atom_site_symmetry_multiplicity
 _atom_site_fract_x
 _atom_site_fract_y
 _atom_site_fract_z
 _atom_site_occupancy
  Tb  Tb0  1  0.600709  0.000000  0.500000  1
  Tb  Tb1  1  0.000000  0.600709  0.500000  1
  Tb  Tb2  1  0.399291  0.399291  0.500000  1
  Ho  Ho3  1  0.234490  0.000000  0.000000  1
  Ho  Ho4  1  0.000000  0.234490  0.000000  1
  Ho  Ho5  1  0.765510  0.765510  0.000000  1
  Co  Co6  1  0.000000  0.000000  0.500000  1
  Te  Te7  1  0.333333  0.666667  0.000000  1
  Te  Te8  1  0.666667  0.333333  0.000000  1
