# generated using pymatgen
data_DyHo3(Ga10Os3)2
_symmetry_space_group_name_H-M   'P 1'
_cell_length_a   8.91719789
_cell_length_b   8.91719789
_cell_length_c   6.42628600
_cell_angle_alpha   90.00000000
_cell_angle_beta   90.00000000
_cell_angle_gamma   89.94888022
_symmetry_Int_Tables_number   1
_chemical_formula_structural   DyHo3(Ga10Os3)2
_chemical_formula_sum   'Dy1 Ho3 Ga20 Os6'
_cell_volume   510.99504141
_cell_formula_units_Z   1
loop_
 _symmetry_equiv_pos_site_id
 _symmetry_equiv_pos_as_xyz
  1  'x, y, z'
loop_
 _atom_site_type_symbol
 _atom_site_label
 _atom_site_symmetry_multiplicity
 _atom_site_fract_x
 _atom_site_fract_y
 _atom_site_fract_z
 _atom_site_occupancy
  Dy  Dy0  1  0.183029  0.316971  0.000000  1
  Ho  Ho1  1  0.683112  0.183115  0.000000  1
  Ho  Ho2  1  0.816986  0.683014  0.000000  1
  Ho  Ho3  1  0.316885  0.816888  0.000000  1
  Ga  Ga4  1  0.499984  0.000016  0.285683  1
  Ga  Ga5  1  0.499984  0.000016  0.714317  1
  Ga  Ga6  1  0.293378  0.561460  0.706812  1
  Ga  Ga7  1  0.999888  0.500112  0.286276  1
  Ga  Ga8  1  0.999888  0.500112  0.713724  1
  Ga  Ga9  1  0.061318  0.793265  0.706988  1
  Ga  Ga10  1  0.206589  0.061097  0.293283  1
  Ga  Ga11  1  0.061318  0.793265  0.293012  1
  Ga  Ga12  1  0.706735  0.438682  0.706988  1
  Ga  Ga13  1  0.206589  0.061097  0.706717  1
  Ga  Ga14  1  0.938540  0.206622  0.706812  1
  Ga  Ga15  1  0.706735  0.438682  0.293012  1
  Ga  Ga16  1  0.561342  0.706724  0.293014  1
  Ga  Ga17  1  0.938540  0.206622  0.293188  1
  Ga  Ga18  1  0.561342  0.706724  0.706986  1
  Ga  Ga19  1  0.793276  0.938658  0.293014  1
  Ga  Ga20  1  0.438903  0.293411  0.706717  1
  Ga  Ga21  1  0.793276  0.938658  0.706986  1
  Ga  Ga22  1  0.438903  0.293411  0.293283  1
  Ga  Ga23  1  0.293378  0.561460  0.293188  1
  Os  Os24  1  0.178285  0.321715  0.500000  1
  Os  Os25  1  0.321809  0.821808  0.500000  1
  Os  Os26  1  0.821664  0.678336  0.500000  1
  Os  Os27  1  0.999792  0.999658  0.000000  1
  Os  Os28  1  0.678192  0.178191  0.500000  1
  Os  Os29  1  0.500342  0.500208  0.000000  1
