# generated using pymatgen
data_Ca2AsPd6
_symmetry_space_group_name_H-M   'P 1'
_cell_length_a   6.12224278
_cell_length_b   6.12224198
_cell_length_c   6.12224300
_cell_angle_alpha   59.99999989
_cell_angle_beta   60.00000421
_cell_angle_gamma   60.00001096
_symmetry_Int_Tables_number   1
_chemical_formula_structural   Ca2AsPd6
_chemical_formula_sum   'Ca2 As1 Pd6'
_cell_volume   162.26193604
_cell_formula_units_Z   1
loop_
 _symmetry_equiv_pos_site_id
 _symmetry_equiv_pos_as_xyz
  1  'x, y, z'
loop_
 _atom_site_type_symbol
 _atom_site_label
 _atom_site_symmetry_multiplicity
 _atom_site_fract_x
 _atom_site_fract_y
 _atom_site_fract_z
 _atom_site_occupancy
  Ca  Ca0  1  0.250000  0.250000  0.250000  1
  Ca  Ca1  1  0.750000  0.750000  0.750000  1
  As  As2  1  0.000000  0.000000  0.000000  1
  Pd  Pd3  1  0.726049  0.273951  0.273951  1
  Pd  Pd4  1  0.273951  0.726049  0.273951  1
  Pd  Pd5  1  0.726049  0.726049  0.273951  1
  Pd  Pd6  1  0.273951  0.273951  0.726049  1
  Pd  Pd7  1  0.726049  0.273951  0.726049  1
  Pd  Pd8  1  0.273951  0.726049  0.726049  1
