# generated using pymatgen
data_Tb14Dy6(Ir3Pt)3
_symmetry_space_group_name_H-M   'P 1'
_cell_length_a   11.00595803
_cell_length_b   11.00515731
_cell_length_c   6.36016702
_cell_angle_alpha   89.98427420
_cell_angle_beta   89.97798258
_cell_angle_gamma   90.19656960
_symmetry_Int_Tables_number   1
_chemical_formula_structural   Tb14Dy6(Ir3Pt)3
_chemical_formula_sum   'Tb14 Dy6 Ir9 Pt3'
_cell_volume   770.35343540
_cell_formula_units_Z   1
loop_
 _symmetry_equiv_pos_site_id
 _symmetry_equiv_pos_as_xyz
  1  'x, y, z'
loop_
 _atom_site_type_symbol
 _atom_site_label
 _atom_site_symmetry_multiplicity
 _atom_site_fract_x
 _atom_site_fract_y
 _atom_site_fract_z
 _atom_site_occupancy
  Tb  Tb0  1  0.293560  0.087320  0.372739  1
  Tb  Tb1  1  0.292831  0.908262  0.877755  1
  Tb  Tb2  1  0.705416  0.090265  0.874641  1
  Tb  Tb3  1  0.704603  0.909559  0.374215  1
  Tb  Tb4  1  0.585545  0.790966  0.879150  1
  Tb  Tb5  1  0.585891  0.209033  0.379167  1
  Tb  Tb6  1  0.410487  0.791198  0.378956  1
  Tb  Tb7  1  0.413827  0.209124  0.879104  1
  Tb  Tb8  1  0.208962  0.414489  0.620822  1
  Tb  Tb9  1  0.208722  0.589433  0.121076  1
  Tb  Tb10  1  0.791061  0.414065  0.120849  1
  Tb  Tb11  1  0.790975  0.586184  0.620936  1
  Tb  Tb12  1  0.912815  0.706388  0.127165  1
  Tb  Tb13  1  0.909819  0.294592  0.625362  1
  Dy  Dy14  1  0.091650  0.706973  0.621972  1
  Dy  Dy15  1  0.090421  0.295588  0.125648  1
  Dy  Dy16  1  0.001269  0.998032  0.499543  1
  Dy  Dy17  1  0.001941  0.998846  0.000506  1
  Dy  Dy18  1  0.499749  0.499898  0.000414  1
  Dy  Dy19  1  0.500081  0.500262  0.499614  1
  Ir  Ir20  1  0.151938  0.847846  0.250322  1
  Ir  Ir21  1  0.654250  0.345770  0.750011  1
  Ir  Ir22  1  0.654650  0.654209  0.249604  1
  Ir  Ir23  1  0.345572  0.345311  0.250330  1
  Ir  Ir24  1  0.346425  0.653406  0.749930  1
  Ir  Ir25  1  0.500501  0.000081  0.123692  1
  Ir  Ir26  1  0.500269  0.000303  0.624847  1
  Ir  Ir27  1  0.999827  0.499708  0.875156  1
  Ir  Ir28  1  0.000056  0.499501  0.376291  1
  Pt  Pt29  1  0.847303  0.152872  0.249922  1
  Pt  Pt30  1  0.846081  0.846346  0.749861  1
  Pt  Pt31  1  0.153505  0.154172  0.750403  1
