# generated using pymatgen
data_Cr3Pt8Rh
_symmetry_space_group_name_H-M   'P 1'
_cell_length_a   16.56134300
_cell_length_b   3.89690500
_cell_length_c   5.55145300
_cell_angle_alpha   90.00000000
_cell_angle_beta   90.00000000
_cell_angle_gamma   90.00000000
_symmetry_Int_Tables_number   1
_chemical_formula_structural   Cr3Pt8Rh
_chemical_formula_sum   'Cr6 Pt16 Rh2'
_cell_volume   358.27956459
_cell_formula_units_Z   2
loop_
 _symmetry_equiv_pos_site_id
 _symmetry_equiv_pos_as_xyz
  1  'x, y, z'
loop_
 _atom_site_type_symbol
 _atom_site_label
 _atom_site_symmetry_multiplicity
 _atom_site_fract_x
 _atom_site_fract_y
 _atom_site_fract_z
 _atom_site_occupancy
  Cr  Cr0  1  0.082255  0.000000  0.248613  1
  Cr  Cr1  1  0.417745  0.000000  0.248613  1
  Cr  Cr2  1  0.582255  0.000000  0.751386  1
  Cr  Cr3  1  0.917746  0.000000  0.751386  1
  Cr  Cr4  1  0.250000  0.000000  0.754419  1
  Cr  Cr5  1  0.750000  0.000000  0.245581  1
  Pt  Pt6  1  0.165682  0.500001  0.003964  1
  Pt  Pt7  1  0.334318  0.500001  0.003964  1
  Pt  Pt8  1  0.665682  0.500001  0.996035  1
  Pt  Pt9  1  0.834317  0.500001  0.996035  1
  Pt  Pt10  1  0.166543  0.500001  0.503741  1
  Pt  Pt11  1  0.333457  0.500001  0.503741  1
  Pt  Pt12  1  0.666543  0.500001  0.496258  1
  Pt  Pt13  1  0.833457  0.500001  0.496258  1
  Pt  Pt14  1  0.082111  0.000000  0.754463  1
  Pt  Pt15  1  0.417889  0.000000  0.754463  1
  Pt  Pt16  1  0.582111  0.000000  0.245538  1
  Pt  Pt17  1  0.917889  0.000000  0.245538  1
  Pt  Pt18  1  0.250000  0.000000  0.252725  1
  Pt  Pt19  1  0.750000  0.000000  0.747274  1
  Pt  Pt20  1  0.000000  0.500001  0.500000  1
  Pt  Pt21  1  0.500000  0.500001  0.500000  1
  Rh  Rh22  1  0.000000  0.500001  0.000000  1
  Rh  Rh23  1  0.500000  0.500001  0.000000  1
