# generated using pymatgen
data_TaTi7(TcOs)4
_symmetry_space_group_name_H-M   'P 1'
_cell_length_a   6.20566300
_cell_length_b   4.40640300
_cell_length_c   8.83444400
_cell_angle_alpha   90.00000000
_cell_angle_beta   90.00038845
_cell_angle_gamma   90.00000000
_symmetry_Int_Tables_number   1
_chemical_formula_structural   TaTi7(TcOs)4
_chemical_formula_sum   'Ta1 Ti7 Tc4 Os4'
_cell_volume   241.57479732
_cell_formula_units_Z   1
loop_
 _symmetry_equiv_pos_site_id
 _symmetry_equiv_pos_as_xyz
  1  'x, y, z'
loop_
 _atom_site_type_symbol
 _atom_site_label
 _atom_site_symmetry_multiplicity
 _atom_site_fract_x
 _atom_site_fract_y
 _atom_site_fract_z
 _atom_site_occupancy
  Ta  Ta0  1  0.000154  0.749999  0.125000  1
  Ti  Ti1  1  0.500135  0.749999  0.125007  1
  Ti  Ti2  1  0.999996  0.249999  0.377888  1
  Ti  Ti3  1  0.500020  0.249999  0.376439  1
  Ti  Ti4  1  0.499931  0.749999  0.624999  1
  Ti  Ti5  1  0.999828  0.749999  0.625004  1
  Ti  Ti6  1  0.499993  0.249999  0.873557  1
  Ti  Ti7  1  0.999971  0.249999  0.872108  1
  Tc  Tc8  1  0.747610  0.249999  0.124999  1
  Tc  Tc9  1  0.251213  0.749999  0.375814  1
  Tc  Tc10  1  0.749899  0.249999  0.625007  1
  Tc  Tc11  1  0.251174  0.749999  0.874176  1
  Os  Os12  1  0.252014  0.249999  0.125000  1
  Os  Os13  1  0.748967  0.749999  0.375778  1
  Os  Os14  1  0.250146  0.249999  0.625004  1
  Os  Os15  1  0.748947  0.749999  0.874222  1
