# generated using pymatgen
data_KGd3F10
_symmetry_space_group_name_H-M   'P 1'
_cell_length_a   8.39628490
_cell_length_b   8.39633112
_cell_length_c   8.39633200
_cell_angle_alpha   60.00000441
_cell_angle_beta   59.99982231
_cell_angle_gamma   59.99982085
_symmetry_Int_Tables_number   1
_chemical_formula_structural   KGd3F10
_chemical_formula_sum   'K2 Gd6 F20'
_cell_volume   418.55272306
_cell_formula_units_Z   2
loop_
 _symmetry_equiv_pos_site_id
 _symmetry_equiv_pos_as_xyz
  1  'x, y, z'
loop_
 _atom_site_type_symbol
 _atom_site_label
 _atom_site_symmetry_multiplicity
 _atom_site_fract_x
 _atom_site_fract_y
 _atom_site_fract_z
 _atom_site_occupancy
  K  K0  1  0.249998  0.250001  0.250001  1
  K  K1  1  0.750002  0.749999  0.749999  1
  Gd  Gd2  1  0.759930  0.240071  0.240071  1
  Gd  Gd3  1  0.240070  0.759929  0.759929  1
  Gd  Gd4  1  0.240070  0.759929  0.240072  1
  Gd  Gd5  1  0.759930  0.240071  0.759928  1
  Gd  Gd6  1  0.240070  0.240072  0.759929  1
  Gd  Gd7  1  0.759930  0.759928  0.240071  1
  F  F8  1  0.830566  0.500000  0.500000  1
  F  F9  1  0.169434  0.500000  0.500000  1
  F  F10  1  0.500000  0.830566  0.169434  1
  F  F11  1  0.500000  0.169434  0.830566  1
  F  F12  1  0.500000  0.830566  0.500000  1
  F  F13  1  0.169434  0.500000  0.830566  1
  F  F14  1  0.500000  0.169434  0.500000  1
  F  F15  1  0.830566  0.500000  0.169434  1
  F  F16  1  0.500000  0.500000  0.830566  1
  F  F17  1  0.500000  0.500000  0.169434  1
  F  F18  1  0.169434  0.830566  0.500000  1
  F  F19  1  0.830566  0.169434  0.500000  1
  F  F20  1  0.112249  0.112249  0.112249  1
  F  F21  1  0.887751  0.887751  0.887751  1
  F  F22  1  0.112249  0.112249  0.663255  1
  F  F23  1  0.112249  0.663255  0.112249  1
  F  F24  1  0.887751  0.887751  0.336745  1
  F  F25  1  0.887751  0.336745  0.887751  1
  F  F26  1  0.663255  0.112249  0.112249  1
  F  F27  1  0.336745  0.887751  0.887751  1
