# generated using pymatgen
data_LuSc8(In2Co)7
_symmetry_space_group_name_H-M   'P 1'
_cell_length_a   9.45857282
_cell_length_b   9.45857341
_cell_length_c   9.45857300
_cell_angle_alpha   59.99999792
_cell_angle_beta   59.99999586
_cell_angle_gamma   60.00000334
_symmetry_Int_Tables_number   1
_chemical_formula_structural   LuSc8(In2Co)7
_chemical_formula_sum   'Lu1 Sc8 In14 Co7'
_cell_volume   598.35904852
_cell_formula_units_Z   1
loop_
 _symmetry_equiv_pos_site_id
 _symmetry_equiv_pos_as_xyz
  1  'x, y, z'
loop_
 _atom_site_type_symbol
 _atom_site_label
 _atom_site_symmetry_multiplicity
 _atom_site_fract_x
 _atom_site_fract_y
 _atom_site_fract_z
 _atom_site_occupancy
  Lu  Lu0  1  0.500000  0.500000  0.500000  1
  Sc  Sc1  1  0.117658  0.647028  0.117658  1
  Sc  Sc2  1  0.352972  0.882342  0.882342  1
  Sc  Sc3  1  0.882342  0.882342  0.882342  1
  Sc  Sc4  1  0.647028  0.117658  0.117658  1
  Sc  Sc5  1  0.882342  0.882342  0.352972  1
  Sc  Sc6  1  0.117658  0.117658  0.117658  1
  Sc  Sc7  1  0.882342  0.352972  0.882342  1
  Sc  Sc8  1  0.117658  0.117658  0.647028  1
  In  In9  1  0.500000  0.844101  0.155899  1
  In  In10  1  0.500000  0.844101  0.500000  1
  In  In11  1  0.500000  0.155899  0.500000  1
  In  In12  1  0.500000  0.500000  0.844101  1
  In  In13  1  0.155899  0.500000  0.500000  1
  In  In14  1  0.844101  0.155899  0.500000  1
  In  In15  1  0.155899  0.844101  0.500000  1
  In  In16  1  0.500000  0.155899  0.844101  1
  In  In17  1  0.155899  0.500000  0.844101  1
  In  In18  1  0.500000  0.500000  0.155899  1
  In  In19  1  0.844101  0.500000  0.500000  1
  In  In20  1  0.844101  0.500000  0.155899  1
  In  In21  1  0.250000  0.250000  0.250000  1
  In  In22  1  0.750000  0.750000  0.750000  1
  Co  Co23  1  0.771995  0.771995  0.228005  1
  Co  Co24  1  0.000000  0.000000  0.000000  1
  Co  Co25  1  0.228005  0.771995  0.228005  1
  Co  Co26  1  0.228005  0.771995  0.771995  1
  Co  Co27  1  0.228005  0.228005  0.771995  1
  Co  Co28  1  0.771995  0.228005  0.771995  1
  Co  Co29  1  0.771995  0.228005  0.228005  1
