# generated using pymatgen
data_Li3MgAs6Ir7
_symmetry_space_group_name_H-M   'P 1'
_cell_length_a   7.01636968
_cell_length_b   7.01636928
_cell_length_c   7.00420500
_cell_angle_alpha   109.43610466
_cell_angle_beta   109.43610351
_cell_angle_gamma   109.50631199
_symmetry_Int_Tables_number   1
_chemical_formula_structural   Li3MgAs6Ir7
_chemical_formula_sum   'Li3 Mg1 As6 Ir7'
_cell_volume   265.55220131
_cell_formula_units_Z   1
loop_
 _symmetry_equiv_pos_site_id
 _symmetry_equiv_pos_as_xyz
  1  'x, y, z'
loop_
 _atom_site_type_symbol
 _atom_site_label
 _atom_site_symmetry_multiplicity
 _atom_site_fract_x
 _atom_site_fract_y
 _atom_site_fract_z
 _atom_site_occupancy
  Li  Li0  1  0.500000  0.000000  0.000000  1
  Li  Li1  1  0.000000  0.500000  0.000000  1
  Li  Li2  1  0.500000  0.500000  0.500000  1
  Mg  Mg3  1  0.000000  0.000000  0.500000  1
  As  As4  1  0.684718  0.684718  0.993089  1
  As  As5  1  0.315282  0.315282  0.006911  1
  As  As6  1  0.000000  0.684718  0.691628  1
  As  As7  1  0.000000  0.315282  0.308372  1
  As  As8  1  0.684718  0.000000  0.691628  1
  As  As9  1  0.315282  0.000000  0.308372  1
  Ir  Ir10  1  0.000000  0.000000  0.000000  1
  Ir  Ir11  1  0.248644  0.497288  0.748644  1
  Ir  Ir12  1  0.751356  0.248644  0.500000  1
  Ir  Ir13  1  0.497288  0.248644  0.748644  1
  Ir  Ir14  1  0.502712  0.751356  0.251356  1
  Ir  Ir15  1  0.751356  0.502712  0.251356  1
  Ir  Ir16  1  0.248644  0.751356  0.500000  1
