# generated using pymatgen
data_Y7ThAlPd24
_symmetry_space_group_name_H-M   'P 1'
_cell_length_a   8.37868363
_cell_length_b   8.37868249
_cell_length_c   8.37868376
_cell_angle_alpha   89.96679478
_cell_angle_beta   90.03320503
_cell_angle_gamma   90.03320322
_symmetry_Int_Tables_number   1
_chemical_formula_structural   Y7ThAlPd24
_chemical_formula_sum   'Y7 Th1 Al1 Pd24'
_cell_volume   588.20282373
_cell_formula_units_Z   1
loop_
 _symmetry_equiv_pos_site_id
 _symmetry_equiv_pos_as_xyz
  1  'x, y, z'
loop_
 _atom_site_type_symbol
 _atom_site_label
 _atom_site_symmetry_multiplicity
 _atom_site_fract_x
 _atom_site_fract_y
 _atom_site_fract_z
 _atom_site_occupancy
  Y  Y0  1  0.251341  0.251996  0.251996  1
  Y  Y1  1  0.748018  0.747869  0.747869  1
  Y  Y2  1  0.748004  0.748659  0.251996  1
  Y  Y3  1  0.748004  0.251996  0.748659  1
  Y  Y4  1  0.252131  0.251982  0.747869  1
  Y  Y5  1  0.252131  0.747869  0.251982  1
  Y  Y6  1  0.252209  0.747791  0.747791  1
  Th  Th7  1  0.746526  0.253474  0.253474  1
  Al  Al8  1  0.001272  0.998728  0.998728  1
  Pd  Pd9  1  0.259591  0.499923  0.999827  1
  Pd  Pd10  1  0.740554  0.500279  0.000185  1
  Pd  Pd11  1  0.999815  0.259446  0.500279  1
  Pd  Pd12  1  0.499721  0.259446  0.000185  1
  Pd  Pd13  1  0.000173  0.740409  0.499923  1
  Pd  Pd14  1  0.500077  0.740409  0.999827  1
  Pd  Pd15  1  0.499721  0.000185  0.259446  1
  Pd  Pd16  1  0.259591  0.999827  0.499923  1
  Pd  Pd17  1  0.500077  0.999827  0.740409  1
  Pd  Pd18  1  0.740554  0.000185  0.500279  1
  Pd  Pd19  1  0.999815  0.500279  0.259446  1
  Pd  Pd20  1  0.000173  0.499923  0.740409  1
  Pd  Pd21  1  0.252730  0.499924  0.499924  1
  Pd  Pd22  1  0.746890  0.500896  0.500896  1
  Pd  Pd23  1  0.499104  0.253110  0.500896  1
  Pd  Pd24  1  0.500076  0.747270  0.499924  1
  Pd  Pd25  1  0.499104  0.500896  0.253110  1
  Pd  Pd26  1  0.500076  0.499924  0.747270  1
  Pd  Pd27  1  0.289239  0.999752  0.999752  1
  Pd  Pd28  1  0.711436  0.999324  0.999324  1
  Pd  Pd29  1  0.000676  0.288564  0.999324  1
  Pd  Pd30  1  0.000248  0.710761  0.999752  1
  Pd  Pd31  1  0.000676  0.999324  0.288564  1
  Pd  Pd32  1  0.000248  0.999752  0.710761  1
