# generated using pymatgen
data_La2Sm(HoSi2)2
_symmetry_space_group_name_H-M   'P 1'
_cell_length_a   7.85302630
_cell_length_b   7.85297621
_cell_length_c   14.87219100
_cell_angle_alpha   89.84954779
_cell_angle_beta   89.98425520
_cell_angle_gamma   90.04225391
_symmetry_Int_Tables_number   1
_chemical_formula_structural   La2Sm(HoSi2)2
_chemical_formula_sum   'La8 Sm4 Ho8 Si16'
_cell_volume   917.15905056
_cell_formula_units_Z   4
loop_
 _symmetry_equiv_pos_site_id
 _symmetry_equiv_pos_as_xyz
  1  'x, y, z'
loop_
 _atom_site_type_symbol
 _atom_site_label
 _atom_site_symmetry_multiplicity
 _atom_site_fract_x
 _atom_site_fract_y
 _atom_site_fract_z
 _atom_site_occupancy
  La  La0  1  0.987739  0.633408  0.045160  1
  La  La1  1  0.011887  0.368411  0.548916  1
  La  La2  1  0.632580  0.989128  0.952778  1
  La  La3  1  0.132883  0.513135  0.796689  1
  La  La4  1  0.868352  0.488308  0.297429  1
  La  La5  1  0.511059  0.131312  0.201101  1
  La  La6  1  0.488823  0.867187  0.704657  1
  La  La7  1  0.367725  0.010212  0.453063  1
  Sm  Sm8  1  0.366852  0.483911  0.374226  1
  Sm  Sm9  1  0.865534  0.014811  0.375876  1
  Sm  Sm10  1  0.985843  0.132724  0.122212  1
  Sm  Sm11  1  0.013440  0.866783  0.625607  1
  Ho  Ho12  1  0.632988  0.512026  0.873664  1
  Ho  Ho13  1  0.486689  0.366004  0.627437  1
  Ho  Ho14  1  0.512529  0.634281  0.124482  1
  Ho  Ho15  1  0.134037  0.988735  0.876107  1
  Ho  Ho16  1  0.686013  0.684982  0.500975  1
  Ho  Ho17  1  0.814507  0.186622  0.750737  1
  Ho  Ho18  1  0.186649  0.812521  0.249292  1
  Ho  Ho19  1  0.314563  0.315901  0.999031  1
  Si  Si20  1  0.072593  0.712090  0.438081  1
  Si  Si21  1  0.927529  0.288464  0.935551  1
  Si  Si22  1  0.710758  0.073159  0.564495  1
  Si  Si23  1  0.215336  0.429403  0.185769  1
  Si  Si24  1  0.782973  0.570437  0.689194  1
  Si  Si25  1  0.428632  0.216117  0.813116  1
  Si  Si26  1  0.571206  0.784050  0.310847  1
  Si  Si27  1  0.287433  0.926197  0.060889  1
  Si  Si28  1  0.838430  0.801536  0.805328  1
  Si  Si29  1  0.163823  0.195162  0.299381  1
  Si  Si30  1  0.800474  0.834428  0.196810  1
  Si  Si31  1  0.304631  0.660284  0.553450  1
  Si  Si32  1  0.694559  0.341401  0.049968  1
  Si  Si33  1  0.662321  0.304294  0.451937  1
  Si  Si34  1  0.339965  0.698766  0.945937  1
  Si  Si35  1  0.198644  0.163814  0.699808  1
