# generated using pymatgen
data_Er6Al12Ga7Si5Os8
_symmetry_space_group_name_H-M   'P 1'
_cell_length_a   8.63623600
_cell_length_b   8.62329323
_cell_length_c   9.67457900
_cell_angle_alpha   90.00000000
_cell_angle_beta   90.00000000
_cell_angle_gamma   120.04966209
_symmetry_Int_Tables_number   1
_chemical_formula_structural   Er6Al12Ga7Si5Os8
_chemical_formula_sum   'Er6 Al12 Ga7 Si5 Os8'
_cell_volume   623.65270727
_cell_formula_units_Z   1
loop_
 _symmetry_equiv_pos_site_id
 _symmetry_equiv_pos_as_xyz
  1  'x, y, z'
loop_
 _atom_site_type_symbol
 _atom_site_label
 _atom_site_symmetry_multiplicity
 _atom_site_fract_x
 _atom_site_fract_y
 _atom_site_fract_z
 _atom_site_occupancy
  Er  Er0  1  0.193793  0.387588  0.250000  1
  Er  Er1  1  0.805991  0.611982  0.750000  1
  Er  Er2  1  0.610933  0.805983  0.250000  1
  Er  Er3  1  0.387935  0.194906  0.750000  1
  Er  Er4  1  0.195049  0.805983  0.250000  1
  Er  Er5  1  0.806972  0.194906  0.750000  1
  Al  Al6  1  0.165981  0.331963  0.576650  1
  Al  Al7  1  0.833683  0.667365  0.423693  1
  Al  Al8  1  0.667233  0.834285  0.575133  1
  Al  Al9  1  0.833683  0.667365  0.076307  1
  Al  Al10  1  0.331295  0.166488  0.422689  1
  Al  Al11  1  0.165981  0.331963  0.923350  1
  Al  Al12  1  0.167052  0.834285  0.575133  1
  Al  Al13  1  0.331295  0.166488  0.077311  1
  Al  Al14  1  0.835193  0.166488  0.422689  1
  Al  Al15  1  0.667233  0.834285  0.924867  1
  Al  Al16  1  0.835193  0.166488  0.077311  1
  Al  Al17  1  0.167052  0.834285  0.924867  1
  Ga  Ga18  1  0.437933  0.875865  0.750000  1
  Ga  Ga19  1  0.873756  0.434630  0.250000  1
  Ga  Ga20  1  0.127709  0.564683  0.750000  1
  Ga  Ga21  1  0.560874  0.434630  0.250000  1
  Ga  Ga22  1  0.436973  0.564683  0.750000  1
  Ga  Ga23  1  0.999801  0.999602  0.250000  1
  Ga  Ga24  1  0.000295  0.000589  0.750000  1
  Si  Si25  1  0.332458  0.664917  0.045431  1
  Si  Si26  1  0.666870  0.333738  0.956006  1
  Si  Si27  1  0.666870  0.333738  0.543994  1
  Si  Si28  1  0.332458  0.664917  0.454569  1
  Si  Si29  1  0.562909  0.125820  0.250000  1
  Os  Os30  1  0.500736  0.001470  0.009355  1
  Os  Os31  1  0.999532  0.499337  0.000222  1
  Os  Os32  1  0.500736  0.001470  0.490645  1
  Os  Os33  1  0.499805  0.499337  0.000222  1
  Os  Os34  1  0.999532  0.499337  0.499778  1
  Os  Os35  1  0.499805  0.499337  0.499778  1
  Os  Os36  1  0.999700  0.999400  0.000115  1
  Os  Os37  1  0.999700  0.999400  0.499885  1
