# generated using pymatgen
data_Th4ZrP12Ru19
_symmetry_space_group_name_H-M   'P 1'
_cell_length_a   12.64352200
_cell_length_b   12.64352179
_cell_length_c   4.00044700
_cell_angle_alpha   90.00000000
_cell_angle_beta   90.00000000
_cell_angle_gamma   120.00000056
_symmetry_Int_Tables_number   1
_chemical_formula_structural   Th4ZrP12Ru19
_chemical_formula_sum   'Th4 Zr1 P12 Ru19'
_cell_volume   553.82847370
_cell_formula_units_Z   1
loop_
 _symmetry_equiv_pos_site_id
 _symmetry_equiv_pos_as_xyz
  1  'x, y, z'
loop_
 _atom_site_type_symbol
 _atom_site_label
 _atom_site_symmetry_multiplicity
 _atom_site_fract_x
 _atom_site_fract_y
 _atom_site_fract_z
 _atom_site_occupancy
  Th  Th0  1  0.812952  0.001043  0.500000  1
  Th  Th1  1  0.998957  0.811909  0.500000  1
  Th  Th2  1  0.188091  0.187048  0.500000  1
  Th  Th3  1  0.666667  0.333333  0.000000  1
  Zr  Zr4  1  0.333333  0.666667  0.000000  1
  P  P5  1  0.186225  0.996886  0.000000  1
  P  P6  1  0.003114  0.189339  0.000000  1
  P  P7  1  0.810661  0.813775  0.000000  1
  P  P8  1  0.518127  0.696308  0.500000  1
  P  P9  1  0.303692  0.821819  0.500000  1
  P  P10  1  0.178181  0.481873  0.500000  1
  P  P11  1  0.475273  0.169679  0.500000  1
  P  P12  1  0.694406  0.524727  0.500000  1
  P  P13  1  0.830321  0.305594  0.500000  1
  P  P14  1  0.625373  0.000660  0.000000  1
  P  P15  1  0.999340  0.624715  0.000000  1
  P  P16  1  0.375285  0.374627  0.000000  1
  Ru  Ru17  1  0.445089  0.999331  0.000000  1
  Ru  Ru18  1  0.000669  0.445758  0.000000  1
  Ru  Ru19  1  0.554242  0.554911  0.000000  1
  Ru  Ru20  1  0.284594  0.996640  0.500000  1
  Ru  Ru21  1  0.003360  0.287955  0.500000  1
  Ru  Ru22  1  0.712045  0.715406  0.500000  1
  Ru  Ru23  1  0.618316  0.805773  0.000000  1
  Ru  Ru24  1  0.194227  0.812543  0.000000  1
  Ru  Ru25  1  0.187457  0.381684  0.000000  1
  Ru  Ru26  1  0.376616  0.182071  0.000000  1
  Ru  Ru27  1  0.805455  0.623384  0.000000  1
  Ru  Ru28  1  0.817929  0.194545  0.000000  1
  Ru  Ru29  1  0.501652  0.870441  0.500000  1
  Ru  Ru30  1  0.129559  0.631211  0.500000  1
  Ru  Ru31  1  0.368789  0.498348  0.500000  1
  Ru  Ru32  1  0.491529  0.366893  0.500000  1
  Ru  Ru33  1  0.875364  0.508471  0.500000  1
  Ru  Ru34  1  0.633107  0.124636  0.500000  1
  Ru  Ru35  1  0.000000  0.000000  0.000000  1
