# generated using pymatgen
data_Yb2ScAl3Si2Pt
_symmetry_space_group_name_H-M   'P 1'
_cell_length_a   6.83083000
_cell_length_b   6.80227559
_cell_length_c   4.23057300
_cell_angle_alpha   90.00000000
_cell_angle_beta   90.00000000
_cell_angle_gamma   120.13894889
_symmetry_Int_Tables_number   1
_chemical_formula_structural   Yb2ScAl3Si2Pt
_chemical_formula_sum   'Yb2 Sc1 Al3 Si2 Pt1'
_cell_volume   169.99954051
_cell_formula_units_Z   1
loop_
 _symmetry_equiv_pos_site_id
 _symmetry_equiv_pos_as_xyz
  1  'x, y, z'
loop_
 _atom_site_type_symbol
 _atom_site_label
 _atom_site_symmetry_multiplicity
 _atom_site_fract_x
 _atom_site_fract_y
 _atom_site_fract_z
 _atom_site_occupancy
  Yb  Yb0  1  0.997831  0.423886  0.000000  1
  Yb  Yb1  1  0.573946  0.576114  0.000000  1
  Sc  Sc2  1  0.420222  0.000000  0.000000  1
  Al  Al3  1  0.760996  0.000000  0.500000  1
  Al  Al4  1  0.238490  0.235617  0.500000  1
  Al  Al5  1  0.002872  0.764383  0.500000  1
  Si  Si6  1  0.655121  0.317027  0.500000  1
  Si  Si7  1  0.338095  0.682974  0.500000  1
  Pt  Pt8  1  0.012431  0.000000  0.000000  1
