# generated using pymatgen
data_Tb12Tc3Rh
_symmetry_space_group_name_H-M   'P 1'
_cell_length_a   6.31294649
_cell_length_b   7.45564181
_cell_length_c   9.22272000
_cell_angle_alpha   90.00000000
_cell_angle_beta   90.00000000
_cell_angle_gamma   89.92071540
_symmetry_Int_Tables_number   1
_chemical_formula_structural   Tb12Tc3Rh
_chemical_formula_sum   'Tb12 Tc3 Rh1'
_cell_volume   434.08597187
_cell_formula_units_Z   1
loop_
 _symmetry_equiv_pos_site_id
 _symmetry_equiv_pos_as_xyz
  1  'x, y, z'
loop_
 _atom_site_type_symbol
 _atom_site_label
 _atom_site_symmetry_multiplicity
 _atom_site_fract_x
 _atom_site_fract_y
 _atom_site_fract_z
 _atom_site_occupancy
  Tb  Tb0  1  0.332597  0.676129  0.066021  1
  Tb  Tb1  1  0.162578  0.176678  0.436492  1
  Tb  Tb2  1  0.664095  0.321727  0.561421  1
  Tb  Tb3  1  0.837645  0.826038  0.938456  1
  Tb  Tb4  1  0.664095  0.321727  0.938579  1
  Tb  Tb5  1  0.837645  0.826038  0.561544  1
  Tb  Tb6  1  0.332597  0.676129  0.433979  1
  Tb  Tb7  1  0.162578  0.176678  0.063508  1
  Tb  Tb8  1  0.873083  0.541898  0.250000  1
  Tb  Tb9  1  0.624772  0.038832  0.250000  1
  Tb  Tb10  1  0.132483  0.457046  0.750000  1
  Tb  Tb11  1  0.370174  0.959218  0.750000  1
  Tc  Tc12  1  0.039386  0.884211  0.250000  1
  Tc  Tc13  1  0.462320  0.386775  0.250000  1
  Tc  Tc14  1  0.958788  0.115562  0.750000  1
  Rh  Rh15  1  0.545165  0.615312  0.750000  1
