# generated using pymatgen
data_Nb2Si2PdRu
_symmetry_space_group_name_H-M   'P 1'
_cell_length_a   3.78876300
_cell_length_b   6.48241900
_cell_length_c   7.40872400
_cell_angle_alpha   90.00000000
_cell_angle_beta   90.00000000
_cell_angle_gamma   90.00000000
_symmetry_Int_Tables_number   1
_chemical_formula_structural   Nb2Si2PdRu
_chemical_formula_sum   'Nb4 Si4 Pd2 Ru2'
_cell_volume   181.96084899
_cell_formula_units_Z   2
loop_
 _symmetry_equiv_pos_site_id
 _symmetry_equiv_pos_as_xyz
  1  'x, y, z'
loop_
 _atom_site_type_symbol
 _atom_site_label
 _atom_site_symmetry_multiplicity
 _atom_site_fract_x
 _atom_site_fract_y
 _atom_site_fract_z
 _atom_site_occupancy
  Nb  Nb0  1  0.750000  0.525555  0.828504  1
  Nb  Nb1  1  0.250000  0.971557  0.325775  1
  Nb  Nb2  1  0.750000  0.025555  0.671496  1
  Nb  Nb3  1  0.250000  0.471557  0.174225  1
  Si  Si4  1  0.250000  0.230335  0.867546  1
  Si  Si5  1  0.250000  0.730335  0.632454  1
  Si  Si6  1  0.750000  0.764752  0.120686  1
  Si  Si7  1  0.750000  0.264752  0.379314  1
  Pd  Pd8  1  0.750000  0.649568  0.436480  1
  Pd  Pd9  1  0.750000  0.149568  0.063520  1
  Ru  Ru10  1  0.250000  0.858234  0.940490  1
  Ru  Ru11  1  0.250000  0.358234  0.559510  1
