# generated using pymatgen
data_Y3CdIn3NiIr
_symmetry_space_group_name_H-M   'P 1'
_cell_length_a   7.85349600
_cell_length_b   7.85349546
_cell_length_c   3.77024700
_cell_angle_alpha   90.00000000
_cell_angle_beta   90.00000000
_cell_angle_gamma   119.99999384
_symmetry_Int_Tables_number   1
_chemical_formula_structural   Y3CdIn3NiIr
_chemical_formula_sum   'Y3 Cd1 In3 Ni1 Ir1'
_cell_volume   201.38470615
_cell_formula_units_Z   1
loop_
 _symmetry_equiv_pos_site_id
 _symmetry_equiv_pos_as_xyz
  1  'x, y, z'
loop_
 _atom_site_type_symbol
 _atom_site_label
 _atom_site_symmetry_multiplicity
 _atom_site_fract_x
 _atom_site_fract_y
 _atom_site_fract_z
 _atom_site_occupancy
  Y  Y0  1  0.968369  0.578404  0.500000  1
  Y  Y1  1  0.610035  0.031631  0.500000  1
  Y  Y2  1  0.421596  0.389965  0.500000  1
  Cd  Cd3  1  0.333333  0.666667  0.000000  1
  In  In4  1  0.000201  0.249017  0.000000  1
  In  In5  1  0.248815  0.999799  0.000000  1
  In  In6  1  0.750983  0.751185  0.000000  1
  Ni  Ni7  1  0.000000  0.000000  0.500000  1
  Ir  Ir8  1  0.666667  0.333333  0.000000  1
