# generated using pymatgen
data_Ce2Nd3Sn3Br
_symmetry_space_group_name_H-M   'P 1'
_cell_length_a   9.48548900
_cell_length_b   9.48548973
_cell_length_c   6.79473300
_cell_angle_alpha   90.00000000
_cell_angle_beta   90.00000000
_cell_angle_gamma   120.00000093
_symmetry_Int_Tables_number   1
_chemical_formula_structural   Ce2Nd3Sn3Br
_chemical_formula_sum   'Ce4 Nd6 Sn6 Br2'
_cell_volume   529.44701784
_cell_formula_units_Z   2
loop_
 _symmetry_equiv_pos_site_id
 _symmetry_equiv_pos_as_xyz
  1  'x, y, z'
loop_
 _atom_site_type_symbol
 _atom_site_label
 _atom_site_symmetry_multiplicity
 _atom_site_fract_x
 _atom_site_fract_y
 _atom_site_fract_z
 _atom_site_occupancy
  Ce  Ce0  1  0.333333  0.666667  0.500000  1
  Ce  Ce1  1  0.666667  0.333333  0.500000  1
  Ce  Ce2  1  0.333333  0.666667  0.000000  1
  Ce  Ce3  1  0.666667  0.333333  0.000000  1
  Nd  Nd4  1  0.270584  0.270584  0.750000  1
  Nd  Nd5  1  0.000000  0.729416  0.750000  1
  Nd  Nd6  1  0.729416  0.000000  0.750000  1
  Nd  Nd7  1  0.000000  0.270584  0.250000  1
  Nd  Nd8  1  0.729416  0.729416  0.250000  1
  Nd  Nd9  1  0.270584  0.000000  0.250000  1
  Sn  Sn10  1  0.612102  0.000000  0.250000  1
  Sn  Sn11  1  0.000000  0.387898  0.750000  1
  Sn  Sn12  1  0.387898  0.000000  0.750000  1
  Sn  Sn13  1  0.612102  0.612102  0.750000  1
  Sn  Sn14  1  0.000000  0.612102  0.250000  1
  Sn  Sn15  1  0.387898  0.387898  0.250000  1
  Br  Br16  1  0.000000  0.000000  0.000000  1
  Br  Br17  1  0.000000  0.000000  0.500000  1
