# generated using pymatgen
data_ErTm4VReO12
_symmetry_space_group_name_H-M   'P 1'
_cell_length_a   6.70965364
_cell_length_b   6.71104618
_cell_length_c   7.37976964
_cell_angle_alpha   73.91456421
_cell_angle_beta   73.91718611
_cell_angle_gamma   50.29097324
_symmetry_Int_Tables_number   1
_chemical_formula_structural   ErTm4VReO12
_chemical_formula_sum   'Er1 Tm4 V1 Re1 O12'
_cell_volume   243.37270943
_cell_formula_units_Z   1
loop_
 _symmetry_equiv_pos_site_id
 _symmetry_equiv_pos_as_xyz
  1  'x, y, z'
loop_
 _atom_site_type_symbol
 _atom_site_label
 _atom_site_symmetry_multiplicity
 _atom_site_fract_x
 _atom_site_fract_y
 _atom_site_fract_z
 _atom_site_occupancy
  Er  Er0  1  0.819105  0.789504  0.360187  1
  Tm  Tm1  1  0.210450  0.180759  0.640144  1
  Tm  Tm2  1  0.187019  0.184123  0.177801  1
  Tm  Tm3  1  0.815984  0.813037  0.822263  1
  Tm  Tm4  1  0.508376  0.491412  0.500236  1
  V  V5  1  0.267183  0.733085  0.999790  1
  Re  Re6  1  0.715719  0.284574  0.999743  1
  O  O7  1  0.409128  0.931140  0.914816  1
  O  O8  1  0.069475  0.590450  0.084081  1
  O  O9  1  0.592624  0.088117  0.083471  1
  O  O10  1  0.912385  0.407254  0.915767  1
  O  O11  1  0.605782  0.091249  0.570301  1
  O  O12  1  0.909817  0.392184  0.430850  1
  O  O13  1  0.409827  0.901842  0.422447  1
  O  O14  1  0.988860  0.011673  0.815796  1
  O  O15  1  0.988739  0.011702  0.183552  1
  O  O16  1  0.493475  0.503248  0.799509  1
  O  O17  1  0.496841  0.506597  0.200261  1
  O  O18  1  0.099213  0.588047  0.578986  1
