# generated using pymatgen
data_Sc5(Ga2Pt)2
_symmetry_space_group_name_H-M   'P 1'
_cell_length_a   3.31114500
_cell_length_b   7.46505300
_cell_length_c   16.81942000
_cell_angle_alpha   90.00000000
_cell_angle_beta   90.00000000
_cell_angle_gamma   90.00000000
_symmetry_Int_Tables_number   1
_chemical_formula_structural   Sc5(Ga2Pt)2
_chemical_formula_sum   'Sc10 Ga8 Pt4'
_cell_volume   415.74028608
_cell_formula_units_Z   2
loop_
 _symmetry_equiv_pos_site_id
 _symmetry_equiv_pos_as_xyz
  1  'x, y, z'
loop_
 _atom_site_type_symbol
 _atom_site_label
 _atom_site_symmetry_multiplicity
 _atom_site_fract_x
 _atom_site_fract_y
 _atom_site_fract_z
 _atom_site_occupancy
  Sc  Sc0  1  0.500000  0.500000  0.500000  1
  Sc  Sc1  1  0.500000  0.000000  0.000000  1
  Sc  Sc2  1  0.500000  0.876089  0.422674  1
  Sc  Sc3  1  0.500000  0.123911  0.577326  1
  Sc  Sc4  1  0.500000  0.623911  0.922674  1
  Sc  Sc5  1  0.500000  0.376089  0.077326  1
  Sc  Sc6  1  0.500000  0.263238  0.284085  1
  Sc  Sc7  1  0.500000  0.736762  0.715915  1
  Sc  Sc8  1  0.500000  0.236762  0.784085  1
  Sc  Sc9  1  0.500000  0.763238  0.215915  1
  Ga  Ga10  1  0.000000  0.208328  0.432798  1
  Ga  Ga11  1  0.000000  0.791672  0.567202  1
  Ga  Ga12  1  0.000000  0.291672  0.932798  1
  Ga  Ga13  1  0.000000  0.708328  0.067202  1
  Ga  Ga14  1  0.000000  0.582090  0.351675  1
  Ga  Ga15  1  0.000000  0.417910  0.648325  1
  Ga  Ga16  1  0.000000  0.917910  0.851675  1
  Ga  Ga17  1  0.000000  0.082090  0.148325  1
  Pt  Pt18  1  0.000000  0.973759  0.305910  1
  Pt  Pt19  1  0.000000  0.026241  0.694090  1
  Pt  Pt20  1  0.000000  0.526241  0.805910  1
  Pt  Pt21  1  0.000000  0.473759  0.194090  1
