# generated using pymatgen
data_Yb6Al3Ga(SiO4)6
_symmetry_space_group_name_H-M   'P 1'
_cell_length_a   10.29977143
_cell_length_b   10.29977100
_cell_length_c   10.31954908
_cell_angle_alpha   109.47795560
_cell_angle_beta   109.46958091
_cell_angle_gamma   109.38836429
_symmetry_Int_Tables_number   1
_chemical_formula_structural   Yb6Al3Ga(SiO4)6
_chemical_formula_sum   'Yb12 Al6 Ga2 Si12 O48'
_cell_volume   843.54805040
_cell_formula_units_Z   2
loop_
 _symmetry_equiv_pos_site_id
 _symmetry_equiv_pos_as_xyz
  1  'x, y, z'
loop_
 _atom_site_type_symbol
 _atom_site_label
 _atom_site_symmetry_multiplicity
 _atom_site_fract_x
 _atom_site_fract_y
 _atom_site_fract_z
 _atom_site_occupancy
  Yb  Yb0  1  0.375513  0.750823  0.124482  1
  Yb  Yb1  1  0.250985  0.375655  0.126165  1
  Yb  Yb2  1  0.375811  0.125811  0.250000  1
  Yb  Yb3  1  0.875029  0.625029  0.250000  1
  Yb  Yb4  1  0.749490  0.124820  0.373835  1
  Yb  Yb5  1  0.126342  0.251032  0.375518  1
  Yb  Yb6  1  0.873658  0.748969  0.624481  1
  Yb  Yb7  1  0.250509  0.875179  0.626165  1
  Yb  Yb8  1  0.124970  0.374971  0.750000  1
  Yb  Yb9  1  0.624190  0.874190  0.750000  1
  Yb  Yb10  1  0.749015  0.624344  0.873835  1
  Yb  Yb11  1  0.624487  0.249177  0.875518  1
  Al  Al12  1  0.000000  0.000000  0.000000  1
  Al  Al13  1  0.500000  0.000000  0.000000  1
  Al  Al14  1  0.500000  0.500000  0.000000  1
  Al  Al15  1  0.500000  0.500000  0.500000  1
  Al  Al16  1  0.000000  0.500000  0.500000  1
  Al  Al17  1  0.500000  0.000000  0.500000  1
  Ga  Ga18  1  0.000000  0.500000  0.000000  1
  Ga  Ga19  1  0.000000  0.000000  0.500000  1
  Si  Si20  1  0.873872  0.248037  0.126354  1
  Si  Si21  1  0.747977  0.873917  0.121869  1
  Si  Si22  1  0.625328  0.375327  0.250000  1
  Si  Si23  1  0.126885  0.876885  0.250000  1
  Si  Si24  1  0.252049  0.626108  0.378131  1
  Si  Si25  1  0.621683  0.747517  0.373646  1
  Si  Si26  1  0.747951  0.373892  0.621869  1
  Si  Si27  1  0.378317  0.252482  0.626354  1
  Si  Si28  1  0.873116  0.123116  0.750000  1
  Si  Si29  1  0.374673  0.624673  0.750000  1
  Si  Si30  1  0.252024  0.126082  0.878131  1
  Si  Si31  1  0.126128  0.751963  0.873646  1
  O  O32  1  0.199209  0.115635  0.011467  1
  O  O33  1  0.311468  0.896725  0.008899  1
  O  O34  1  0.697132  0.688835  0.082935  1
  O  O35  1  0.881950  0.393756  0.087824  1
  O  O36  1  0.614180  0.416891  0.105615  1
  O  O37  1  0.987905  0.693420  0.104352  1
  O  O38  1  0.008364  0.197422  0.114470  1
  O  O39  1  0.603246  0.915125  0.113105  1
  O  O40  1  0.205373  0.588265  0.194484  1
  O  O41  1  0.488623  0.603979  0.187494  1
  O  O42  1  0.115688  0.011224  0.199078  1
  O  O43  1  0.584129  0.189244  0.197946  1
  O  O44  1  0.312146  0.916609  0.300922  1
  O  O45  1  0.491298  0.386182  0.302053  1
  O  O46  1  0.916485  0.301129  0.312507  1
  O  O47  1  0.893782  0.010889  0.305516  1
  O  O48  1  0.582953  0.893894  0.385531  1
  O  O49  1  0.302021  0.490141  0.386895  1
  O  O50  1  0.811276  0.508564  0.394384  1
  O  O51  1  0.089068  0.883553  0.395648  1
  O  O52  1  0.805932  0.794126  0.412176  1
  O  O53  1  0.105900  0.614197  0.417065  1
  O  O54  1  0.387826  0.302569  0.491101  1
  O  O55  1  0.604168  0.187742  0.488533  1
  O  O56  1  0.395833  0.812259  0.511467  1
  O  O57  1  0.612174  0.697432  0.508899  1
  O  O58  1  0.894099  0.385803  0.582935  1
  O  O59  1  0.194068  0.205874  0.587824  1
  O  O60  1  0.910932  0.116447  0.604352  1
  O  O61  1  0.188725  0.491436  0.605616  1
  O  O62  1  0.417047  0.106105  0.614469  1
  O  O63  1  0.697980  0.509860  0.613106  1
  O  O64  1  0.106218  0.989110  0.694484  1
  O  O65  1  0.083515  0.698871  0.687494  1
  O  O66  1  0.687853  0.083390  0.699077  1
  O  O67  1  0.508703  0.613818  0.697947  1
  O  O68  1  0.415871  0.810755  0.802053  1
  O  O69  1  0.884313  0.988776  0.800923  1
  O  O70  1  0.511377  0.396021  0.812506  1
  O  O71  1  0.794627  0.411735  0.805516  1
  O  O72  1  0.396754  0.084874  0.886895  1
  O  O73  1  0.991636  0.802578  0.885531  1
  O  O74  1  0.385820  0.583109  0.894384  1
  O  O75  1  0.012095  0.306580  0.895648  1
  O  O76  1  0.302869  0.311165  0.917066  1
  O  O77  1  0.118049  0.606244  0.912176  1
  O  O78  1  0.688532  0.103274  0.991100  1
  O  O79  1  0.800792  0.884366  0.988533  1
