# generated using pymatgen
data_YHo7(TcB6)4
_symmetry_space_group_name_H-M   'P 1'
_cell_length_a   3.67760900
_cell_length_b   9.14565701
_cell_length_c   11.52349001
_cell_angle_alpha   89.99441158
_cell_angle_beta   90.00000000
_cell_angle_gamma   90.00000000
_symmetry_Int_Tables_number   1
_chemical_formula_structural   YHo7(TcB6)4
_chemical_formula_sum   'Y1 Ho7 Tc4 B24'
_cell_volume   387.58279596
_cell_formula_units_Z   1
loop_
 _symmetry_equiv_pos_site_id
 _symmetry_equiv_pos_as_xyz
  1  'x, y, z'
loop_
 _atom_site_type_symbol
 _atom_site_label
 _atom_site_symmetry_multiplicity
 _atom_site_fract_x
 _atom_site_fract_y
 _atom_site_fract_z
 _atom_site_occupancy
  Y  Y0  1  0.000000  0.323647  0.414192  1
  Ho  Ho1  1  0.000000  0.676129  0.585844  1
  Ho  Ho2  1  0.000000  0.823892  0.085769  1
  Ho  Ho3  1  0.000000  0.176056  0.914182  1
  Ho  Ho4  1  0.000000  0.942672  0.369256  1
  Ho  Ho5  1  0.000000  0.057202  0.630848  1
  Ho  Ho6  1  0.000000  0.442758  0.130611  1
  Ho  Ho7  1  0.000000  0.557342  0.869333  1
  Tc  Tc8  1  0.000000  0.639162  0.320327  1
  Tc  Tc9  1  0.000000  0.361130  0.679821  1
  Tc  Tc10  1  0.000000  0.138664  0.179259  1
  Tc  Tc11  1  0.000000  0.861118  0.820516  1
  B  B12  1  0.500000  0.553708  0.433046  1
  B  B13  1  0.500000  0.446915  0.567285  1
  B  B14  1  0.500000  0.053236  0.066864  1
  B  B15  1  0.500000  0.946681  0.933046  1
  B  B16  1  0.500000  0.749156  0.418734  1
  B  B17  1  0.500000  0.250902  0.581767  1
  B  B18  1  0.500000  0.249015  0.081132  1
  B  B19  1  0.500000  0.751018  0.918720  1
  B  B20  1  0.500000  0.792108  0.265018  1
  B  B21  1  0.500000  0.207925  0.735100  1
  B  B22  1  0.500000  0.291889  0.234537  1
  B  B23  1  0.500000  0.707990  0.765122  1
  B  B24  1  0.500000  0.630961  0.185239  1
  B  B25  1  0.500000  0.369218  0.814754  1
  B  B26  1  0.500000  0.130471  0.314337  1
  B  B27  1  0.500000  0.869152  0.685393  1
  B  B28  1  0.500000  0.981906  0.211498  1
  B  B29  1  0.500000  0.017916  0.788457  1
  B  B30  1  0.500000  0.482437  0.288140  1
  B  B31  1  0.500000  0.518062  0.711753  1
  B  B32  1  0.500000  0.600237  0.027942  1
  B  B33  1  0.500000  0.399847  0.971991  1
  B  B34  1  0.500000  0.099621  0.472174  1
  B  B35  1  0.500000  0.899857  0.527994  1
