# generated using pymatgen
data_Tb3Er(Co5As3)4
_symmetry_space_group_name_H-M   'P 1'
_cell_length_a   3.79460000
_cell_length_b   12.18637212
_cell_length_c   10.68940081
_cell_angle_alpha   89.95303762
_cell_angle_beta   90.00000000
_cell_angle_gamma   90.00000000
_symmetry_Int_Tables_number   1
_chemical_formula_structural   Tb3Er(Co5As3)4
_chemical_formula_sum   'Tb3 Er1 Co20 As12'
_cell_volume   494.30346403
_cell_formula_units_Z   1
loop_
 _symmetry_equiv_pos_site_id
 _symmetry_equiv_pos_as_xyz
  1  'x, y, z'
loop_
 _atom_site_type_symbol
 _atom_site_label
 _atom_site_symmetry_multiplicity
 _atom_site_fract_x
 _atom_site_fract_y
 _atom_site_fract_z
 _atom_site_occupancy
  Tb  Tb0  1  0.250000  0.298493  0.918066  1
  Tb  Tb1  1  0.250000  0.798648  0.582215  1
  Tb  Tb2  1  0.750000  0.201449  0.417796  1
  Er  Er3  1  0.750000  0.700823  0.081792  1
  Co  Co4  1  0.750000  0.697052  0.383416  1
  Co  Co5  1  0.250000  0.303345  0.615903  1
  Co  Co6  1  0.250000  0.802483  0.884914  1
  Co  Co7  1  0.750000  0.196685  0.115702  1
  Co  Co8  1  0.750000  0.991094  0.211730  1
  Co  Co9  1  0.250000  0.008689  0.788382  1
  Co  Co10  1  0.250000  0.509529  0.711821  1
  Co  Co11  1  0.750000  0.491391  0.288068  1
  Co  Co12  1  0.750000  0.677588  0.784319  1
  Co  Co13  1  0.250000  0.322529  0.215636  1
  Co  Co14  1  0.250000  0.822341  0.283830  1
  Co  Co15  1  0.750000  0.177660  0.716106  1
  Co  Co16  1  0.750000  0.931202  0.970293  1
  Co  Co17  1  0.250000  0.066862  0.030437  1
  Co  Co18  1  0.250000  0.568060  0.468954  1
  Co  Co19  1  0.750000  0.432509  0.530112  1
  Co  Co20  1  0.750000  0.988344  0.593201  1
  Co  Co21  1  0.250000  0.011721  0.406994  1
  Co  Co22  1  0.250000  0.512835  0.093214  1
  Co  Co23  1  0.750000  0.488710  0.907290  1
  As  As24  1  0.750000  0.614100  0.584473  1
  As  As25  1  0.250000  0.386277  0.415066  1
  As  As26  1  0.250000  0.884771  0.084835  1
  As  As27  1  0.750000  0.113270  0.915379  1
  As  As28  1  0.750000  0.890926  0.399045  1
  As  As29  1  0.250000  0.109293  0.601192  1
  As  As30  1  0.250000  0.609579  0.899830  1
  As  As31  1  0.750000  0.390874  0.101041  1
  As  As32  1  0.750000  0.870363  0.770087  1
  As  As33  1  0.250000  0.129535  0.229922  1
  As  As34  1  0.250000  0.630282  0.268706  1
  As  As35  1  0.750000  0.370686  0.730239  1
