# generated using pymatgen
data_La3Nd(AlPd2)4
_symmetry_space_group_name_H-M   'P 1'
_cell_length_a   6.02279435
_cell_length_b   6.98845400
_cell_length_c   7.67528548
_cell_angle_alpha   90.00000000
_cell_angle_beta   89.96026591
_cell_angle_gamma   90.00000000
_symmetry_Int_Tables_number   1
_chemical_formula_structural   La3Nd(AlPd2)4
_chemical_formula_sum   'La3 Nd1 Al4 Pd8'
_cell_volume   323.05285127
_cell_formula_units_Z   1
loop_
 _symmetry_equiv_pos_site_id
 _symmetry_equiv_pos_as_xyz
  1  'x, y, z'
loop_
 _atom_site_type_symbol
 _atom_site_label
 _atom_site_symmetry_multiplicity
 _atom_site_fract_x
 _atom_site_fract_y
 _atom_site_fract_z
 _atom_site_occupancy
  La  La0  1  0.343756  0.750000  0.033474  1
  La  La1  1  0.155037  0.750000  0.533094  1
  La  La2  1  0.656411  0.250000  0.966300  1
  Nd  Nd3  1  0.843235  0.250000  0.467413  1
  Al  Al4  1  0.657422  0.750000  0.381181  1
  Al  Al5  1  0.843010  0.750000  0.881438  1
  Al  Al6  1  0.342516  0.250000  0.617550  1
  Al  Al7  1  0.156018  0.250000  0.121762  1
  Pd  Pd8  1  0.910997  0.551435  0.176404  1
  Pd  Pd9  1  0.589476  0.948383  0.675322  1
  Pd  Pd10  1  0.087431  0.052230  0.823023  1
  Pd  Pd11  1  0.413393  0.448034  0.324145  1
  Pd  Pd12  1  0.087431  0.447770  0.823023  1
  Pd  Pd13  1  0.413393  0.051966  0.324145  1
  Pd  Pd14  1  0.910997  0.948565  0.176404  1
  Pd  Pd15  1  0.589476  0.551617  0.675322  1
