# generated using pymatgen
data_TbCoMo(PRh)3
_symmetry_space_group_name_H-M   'P 1'
_cell_length_a   3.86887300
_cell_length_b   10.75884100
_cell_length_c   12.41280900
_cell_angle_alpha   90.00000000
_cell_angle_beta   90.00000000
_cell_angle_gamma   90.00000000
_symmetry_Int_Tables_number   1
_chemical_formula_structural   TbCoMo(PRh)3
_chemical_formula_sum   'Tb4 Co4 Mo4 P12 Rh12'
_cell_volume   516.67807862
_cell_formula_units_Z   4
loop_
 _symmetry_equiv_pos_site_id
 _symmetry_equiv_pos_as_xyz
  1  'x, y, z'
loop_
 _atom_site_type_symbol
 _atom_site_label
 _atom_site_symmetry_multiplicity
 _atom_site_fract_x
 _atom_site_fract_y
 _atom_site_fract_z
 _atom_site_occupancy
  Tb  Tb0  1  0.250000  0.583621  0.707519  1
  Tb  Tb1  1  0.250000  0.916379  0.207519  1
  Tb  Tb2  1  0.750000  0.416379  0.292481  1
  Tb  Tb3  1  0.750000  0.083621  0.792481  1
  Co  Co4  1  0.250000  0.464525  0.935687  1
  Co  Co5  1  0.250000  0.035475  0.435687  1
  Co  Co6  1  0.750000  0.535475  0.064313  1
  Co  Co7  1  0.750000  0.964525  0.564313  1
  Mo  Mo8  1  0.250000  0.706742  0.985431  1
  Mo  Mo9  1  0.250000  0.793258  0.485431  1
  Mo  Mo10  1  0.750000  0.293258  0.014569  1
  Mo  Mo11  1  0.750000  0.206742  0.514569  1
  P  P12  1  0.250000  0.423204  0.107745  1
  P  P13  1  0.250000  0.076796  0.607745  1
  P  P14  1  0.750000  0.576796  0.892255  1
  P  P15  1  0.750000  0.923204  0.392255  1
  P  P16  1  0.250000  0.270591  0.871822  1
  P  P17  1  0.250000  0.229409  0.371822  1
  P  P18  1  0.750000  0.729409  0.128178  1
  P  P19  1  0.750000  0.770591  0.628178  1
  P  P20  1  0.250000  0.599604  0.391237  1
  P  P21  1  0.250000  0.900396  0.891237  1
  P  P22  1  0.750000  0.400396  0.608763  1
  P  P23  1  0.750000  0.099604  0.108763  1
  Rh  Rh24  1  0.250000  0.404781  0.485960  1
  Rh  Rh25  1  0.250000  0.095219  0.985960  1
  Rh  Rh26  1  0.750000  0.595219  0.514040  1
  Rh  Rh27  1  0.750000  0.904781  0.014040  1
  Rh  Rh28  1  0.250000  0.228335  0.180225  1
  Rh  Rh29  1  0.250000  0.271665  0.680225  1
  Rh  Rh30  1  0.750000  0.771665  0.819775  1
  Rh  Rh31  1  0.750000  0.728335  0.319775  1
  Rh  Rh32  1  0.250000  0.889448  0.699383  1
  Rh  Rh33  1  0.250000  0.610552  0.199383  1
  Rh  Rh34  1  0.750000  0.110552  0.300617  1
  Rh  Rh35  1  0.750000  0.389448  0.800617  1
