# generated using pymatgen
data_NdTmMnIr3
_symmetry_space_group_name_H-M   'P 1'
_cell_length_a   5.21897951
_cell_length_b   5.21897933
_cell_length_c   5.21897912
_cell_angle_alpha   63.72623264
_cell_angle_beta   63.72623484
_cell_angle_gamma   63.72624224
_symmetry_Int_Tables_number   1
_chemical_formula_structural   NdTmMnIr3
_chemical_formula_sum   'Nd1 Tm1 Mn1 Ir3'
_cell_volume   108.78502907
_cell_formula_units_Z   1
loop_
 _symmetry_equiv_pos_site_id
 _symmetry_equiv_pos_as_xyz
  1  'x, y, z'
loop_
 _atom_site_type_symbol
 _atom_site_label
 _atom_site_symmetry_multiplicity
 _atom_site_fract_x
 _atom_site_fract_y
 _atom_site_fract_z
 _atom_site_occupancy
  Nd  Nd0  1  0.249974  0.249974  0.249974  1
  Tm  Tm1  1  0.997733  0.997733  0.997733  1
  Mn  Mn2  1  0.625559  0.625559  0.625559  1
  Ir  Ir3  1  0.626220  0.626220  0.124295  1
  Ir  Ir4  1  0.626220  0.124295  0.626220  1
  Ir  Ir5  1  0.124295  0.626220  0.626220  1
