# generated using pymatgen
data_TbPrZn2(GeRh2)2
_symmetry_space_group_name_H-M   'P 1'
_cell_length_a   4.13091500
_cell_length_b   4.13091500
_cell_length_c   10.74175300
_cell_angle_alpha   90.00000000
_cell_angle_beta   90.00000000
_cell_angle_gamma   90.00000000
_symmetry_Int_Tables_number   1
_chemical_formula_structural   TbPrZn2(GeRh2)2
_chemical_formula_sum   'Tb1 Pr1 Zn2 Ge2 Rh4'
_cell_volume   183.30220083
_cell_formula_units_Z   1
loop_
 _symmetry_equiv_pos_site_id
 _symmetry_equiv_pos_as_xyz
  1  'x, y, z'
loop_
 _atom_site_type_symbol
 _atom_site_label
 _atom_site_symmetry_multiplicity
 _atom_site_fract_x
 _atom_site_fract_y
 _atom_site_fract_z
 _atom_site_occupancy
  Tb  Tb0  1  0.000000  0.500000  0.247642  1
  Pr  Pr1  1  0.500000  0.000000  0.749960  1
  Zn  Zn2  1  0.000000  0.000000  0.495799  1
  Zn  Zn3  1  0.500000  0.500000  0.495799  1
  Ge  Ge4  1  0.000000  0.500000  0.875883  1
  Ge  Ge5  1  0.500000  0.000000  0.129764  1
  Rh  Rh6  1  0.000000  0.000000  0.003430  1
  Rh  Rh7  1  0.500000  0.500000  0.003430  1
  Rh  Rh8  1  0.000000  0.500000  0.642984  1
  Rh  Rh9  1  0.500000  0.000000  0.355307  1
