# generated using pymatgen
data_Ba8Li13InSb12
_symmetry_space_group_name_H-M   'P 1'
_cell_length_a   9.50412144
_cell_length_b   9.50412115
_cell_length_c   21.16628669
_cell_angle_alpha   83.43247635
_cell_angle_beta   83.43247621
_cell_angle_gamma   30.69986207
_symmetry_Int_Tables_number   1
_chemical_formula_structural   Ba8Li13InSb12
_chemical_formula_sum   'Ba8 Li13 In1 Sb12'
_cell_volume   969.22091302
_cell_formula_units_Z   1
loop_
 _symmetry_equiv_pos_site_id
 _symmetry_equiv_pos_as_xyz
  1  'x, y, z'
loop_
 _atom_site_type_symbol
 _atom_site_label
 _atom_site_symmetry_multiplicity
 _atom_site_fract_x
 _atom_site_fract_y
 _atom_site_fract_z
 _atom_site_occupancy
  Ba  Ba0  1  0.117624  0.117624  0.959119  1
  Ba  Ba1  1  0.614998  0.614998  0.453418  1
  Ba  Ba2  1  0.387503  0.387503  0.540493  1
  Ba  Ba3  1  0.883956  0.883956  0.044522  1
  Ba  Ba4  1  0.567364  0.567364  0.669431  1
  Ba  Ba5  1  0.069587  0.069587  0.172594  1
  Ba  Ba6  1  0.928374  0.928374  0.831066  1
  Ba  Ba7  1  0.430288  0.430288  0.327285  1
  Li  Li8  1  0.888290  0.888290  0.658600  1
  Li  Li9  1  0.383843  0.383843  0.158426  1
  Li  Li10  1  0.616156  0.616156  0.842203  1
  Li  Li11  1  0.116572  0.116572  0.341082  1
  Li  Li12  1  0.186881  0.186881  0.542862  1
  Li  Li13  1  0.690225  0.690225  0.045991  1
  Li  Li14  1  0.310067  0.310067  0.955033  1
  Li  Li15  1  0.811543  0.811543  0.451708  1
  Li  Li16  1  0.751338  0.751338  0.757063  1
  Li  Li17  1  0.249861  0.249861  0.248074  1
  Li  Li18  1  0.740636  0.740636  0.174034  1
  Li  Li19  1  0.259096  0.259096  0.829491  1
  Li  Li20  1  0.759283  0.759283  0.325726  1
  In  In21  1  0.238598  0.238598  0.669524  1
  Sb  Sb22  1  0.748539  0.748539  0.594788  1
  Sb  Sb23  1  0.249211  0.249211  0.091182  1
  Sb  Sb24  1  0.750170  0.750170  0.905267  1
  Sb  Sb25  1  0.250936  0.250936  0.411469  1
  Sb  Sb26  1  0.023257  0.023257  0.562065  1
  Sb  Sb27  1  0.523482  0.523482  0.061884  1
  Sb  Sb28  1  0.478444  0.478444  0.936648  1
  Sb  Sb29  1  0.977015  0.977015  0.437162  1
  Sb  Sb30  1  0.375979  0.375979  0.727166  1
  Sb  Sb31  1  0.876120  0.876120  0.226365  1
  Sb  Sb32  1  0.120598  0.120598  0.773991  1
  Sb  Sb33  1  0.624164  0.624164  0.274262  1
