# generated using pymatgen
data_Cs3GaSeS2
_symmetry_space_group_name_H-M   'P 1'
_cell_length_a   13.94840900
_cell_length_b   8.63799237
_cell_length_c   11.10982061
_cell_angle_alpha   51.96290934
_cell_angle_beta   90.00000000
_cell_angle_gamma   90.00000000
_symmetry_Int_Tables_number   1
_chemical_formula_structural   Cs3GaSeS2
_chemical_formula_sum   'Cs12 Ga4 Se4 S8'
_cell_volume   1054.28221721
_cell_formula_units_Z   4
loop_
 _symmetry_equiv_pos_site_id
 _symmetry_equiv_pos_as_xyz
  1  'x, y, z'
loop_
 _atom_site_type_symbol
 _atom_site_label
 _atom_site_symmetry_multiplicity
 _atom_site_fract_x
 _atom_site_fract_y
 _atom_site_fract_z
 _atom_site_occupancy
  Cs  Cs0  1  0.930669  0.369977  0.382040  1
  Cs  Cs1  1  0.430669  0.630023  0.117960  1
  Cs  Cs2  1  0.069331  0.630023  0.617960  1
  Cs  Cs3  1  0.569331  0.369977  0.882040  1
  Cs  Cs4  1  0.201417  0.145083  0.572167  1
  Cs  Cs5  1  0.701417  0.854917  0.927833  1
  Cs  Cs6  1  0.798583  0.854917  0.427833  1
  Cs  Cs7  1  0.298583  0.145083  0.072167  1
  Cs  Cs8  1  0.641004  0.364241  0.489913  1
  Cs  Cs9  1  0.141004  0.635759  0.010087  1
  Cs  Cs10  1  0.358996  0.635759  0.510087  1
  Cs  Cs11  1  0.858996  0.364241  0.989913  1
  Ga  Ga12  1  0.944450  0.068012  0.844459  1
  Ga  Ga13  1  0.444450  0.931988  0.655541  1
  Ga  Ga14  1  0.055550  0.931988  0.155541  1
  Ga  Ga15  1  0.555550  0.068012  0.344459  1
  Se  Se16  1  0.554267  0.879229  0.249256  1
  Se  Se17  1  0.054267  0.120771  0.250744  1
  Se  Se18  1  0.445733  0.120771  0.750744  1
  Se  Se19  1  0.945733  0.879229  0.749256  1
  S  S20  1  0.398868  0.121661  0.392095  1
  S  S21  1  0.898868  0.878339  0.107905  1
  S  S22  1  0.601132  0.878339  0.607905  1
  S  S23  1  0.101132  0.121661  0.892095  1
  S  S24  1  0.651142  0.340100  0.195453  1
  S  S25  1  0.151142  0.659900  0.304547  1
  S  S26  1  0.348858  0.659900  0.804547  1
  S  S27  1  0.848858  0.340100  0.695453  1
