# generated using pymatgen
data_YbSn(PO4)2
_symmetry_space_group_name_H-M   'P 1'
_cell_length_a   8.55625634
_cell_length_b   8.55625671
_cell_length_c   8.06521910
_cell_angle_alpha   63.24310376
_cell_angle_beta   63.24310387
_cell_angle_gamma   36.11934088
_symmetry_Int_Tables_number   1
_chemical_formula_structural   YbSn(PO4)2
_chemical_formula_sum   'Yb2 Sn2 P4 O16'
_cell_volume   306.55595928
_cell_formula_units_Z   2
loop_
 _symmetry_equiv_pos_site_id
 _symmetry_equiv_pos_as_xyz
  1  'x, y, z'
loop_
 _atom_site_type_symbol
 _atom_site_label
 _atom_site_symmetry_multiplicity
 _atom_site_fract_x
 _atom_site_fract_y
 _atom_site_fract_z
 _atom_site_occupancy
  Yb  Yb0  1  0.204087  0.795913  0.250000  1
  Yb  Yb1  1  0.795913  0.204087  0.750000  1
  Sn  Sn2  1  0.500000  0.000000  0.000000  1
  Sn  Sn3  1  0.000000  0.500000  0.500000  1
  P  P4  1  0.874974  0.392810  0.256068  1
  P  P5  1  0.607190  0.125026  0.243932  1
  P  P6  1  0.125026  0.607190  0.743932  1
  P  P7  1  0.392810  0.874974  0.756068  1
  O  O8  1  0.958914  0.486025  0.280510  1
  O  O9  1  0.513975  0.041086  0.219490  1
  O  O10  1  0.041086  0.513975  0.719490  1
  O  O11  1  0.486025  0.958914  0.780510  1
  O  O12  1  0.804343  0.277545  0.430980  1
  O  O13  1  0.722455  0.195657  0.069020  1
  O  O14  1  0.195657  0.722455  0.569020  1
  O  O15  1  0.277545  0.804343  0.930980  1
  O  O16  1  0.625990  0.645365  0.148679  1
  O  O17  1  0.354635  0.374010  0.351321  1
  O  O18  1  0.374010  0.354635  0.851321  1
  O  O19  1  0.645365  0.625990  0.648679  1
  O  O20  1  0.119109  0.170656  0.124769  1
  O  O21  1  0.829344  0.880891  0.375231  1
  O  O22  1  0.880891  0.829344  0.875231  1
  O  O23  1  0.170656  0.119109  0.624769  1
