# generated using pymatgen
data_Ta3BeP
_symmetry_space_group_name_H-M   'P 1'
_cell_length_a   6.52935100
_cell_length_b   6.51628700
_cell_length_c   3.42676000
_cell_angle_alpha   90.00000000
_cell_angle_beta   90.00000000
_cell_angle_gamma   90.00000000
_symmetry_Int_Tables_number   1
_chemical_formula_structural   Ta3BeP
_chemical_formula_sum   'Ta6 Be2 P2'
_cell_volume   145.79878620
_cell_formula_units_Z   2
loop_
 _symmetry_equiv_pos_site_id
 _symmetry_equiv_pos_as_xyz
  1  'x, y, z'
loop_
 _atom_site_type_symbol
 _atom_site_label
 _atom_site_symmetry_multiplicity
 _atom_site_fract_x
 _atom_site_fract_y
 _atom_site_fract_z
 _atom_site_occupancy
  Ta  Ta0  1  0.997257  0.997246  0.000000  1
  Ta  Ta1  1  0.497257  0.502754  0.000000  1
  Ta  Ta2  1  0.677899  0.171640  0.500000  1
  Ta  Ta3  1  0.177899  0.328360  0.500000  1
  Ta  Ta4  1  0.823291  0.680217  0.500000  1
  Ta  Ta5  1  0.323291  0.819783  0.500000  1
  Be  Be6  1  0.619896  0.877539  0.000000  1
  Be  Be7  1  0.119896  0.622461  0.000000  1
  P  P8  1  0.881657  0.386690  0.000000  1
  P  P9  1  0.381657  0.113310  0.000000  1
