# generated using pymatgen
data_Y2TmNi6B2Ir
_symmetry_space_group_name_H-M   'P 1'
_cell_length_a   5.07986700
_cell_length_b   5.07986736
_cell_length_c   14.58565300
_cell_angle_alpha   90.00000000
_cell_angle_beta   90.00000000
_cell_angle_gamma   120.00000415
_symmetry_Int_Tables_number   1
_chemical_formula_structural   Y2TmNi6B2Ir
_chemical_formula_sum   'Y4 Tm2 Ni12 B4 Ir2'
_cell_volume   325.95767055
_cell_formula_units_Z   2
loop_
 _symmetry_equiv_pos_site_id
 _symmetry_equiv_pos_as_xyz
  1  'x, y, z'
loop_
 _atom_site_type_symbol
 _atom_site_label
 _atom_site_symmetry_multiplicity
 _atom_site_fract_x
 _atom_site_fract_y
 _atom_site_fract_z
 _atom_site_occupancy
  Y  Y0  1  0.333333  0.666667  0.968419  1
  Y  Y1  1  0.666667  0.333333  0.031581  1
  Y  Y2  1  0.666667  0.333333  0.468419  1
  Y  Y3  1  0.333333  0.666667  0.531581  1
  Tm  Tm4  1  0.333333  0.666667  0.750000  1
  Tm  Tm5  1  0.666667  0.333333  0.250000  1
  Ni  Ni6  1  0.165157  0.834843  0.347211  1
  Ni  Ni7  1  0.165157  0.330314  0.347211  1
  Ni  Ni8  1  0.669686  0.834843  0.347211  1
  Ni  Ni9  1  0.834843  0.165157  0.652789  1
  Ni  Ni10  1  0.834843  0.669686  0.652789  1
  Ni  Ni11  1  0.330314  0.165157  0.652789  1
  Ni  Ni12  1  0.834843  0.165157  0.847211  1
  Ni  Ni13  1  0.834843  0.669686  0.847211  1
  Ni  Ni14  1  0.330314  0.165157  0.847211  1
  Ni  Ni15  1  0.165157  0.834843  0.152789  1
  Ni  Ni16  1  0.165157  0.330314  0.152789  1
  Ni  Ni17  1  0.669686  0.834843  0.152789  1
  B  B18  1  0.333333  0.666667  0.250000  1
  B  B19  1  0.666667  0.333333  0.750000  1
  B  B20  1  0.000000  0.000000  0.250000  1
  B  B21  1  0.000000  0.000000  0.750000  1
  Ir  Ir22  1  0.000000  0.000000  0.500000  1
  Ir  Ir23  1  0.000000  0.000000  0.000000  1
