# generated using pymatgen
data_NaAs12Ir3Ru
_symmetry_space_group_name_H-M   'P 1'
_cell_length_a   7.46921024
_cell_length_b   7.46921016
_cell_length_c   7.45363700
_cell_angle_alpha   109.42899314
_cell_angle_beta   109.42899293
_cell_angle_gamma   109.51341551
_symmetry_Int_Tables_number   1
_chemical_formula_structural   NaAs12Ir3Ru
_chemical_formula_sum   'Na1 As12 Ir3 Ru1'
_cell_volume   320.27406670
_cell_formula_units_Z   1
loop_
 _symmetry_equiv_pos_site_id
 _symmetry_equiv_pos_as_xyz
  1  'x, y, z'
loop_
 _atom_site_type_symbol
 _atom_site_label
 _atom_site_symmetry_multiplicity
 _atom_site_fract_x
 _atom_site_fract_y
 _atom_site_fract_z
 _atom_site_occupancy
  Na  Na0  1  0.000000  0.000000  0.000000  1
  As  As1  1  0.854177  0.654184  0.504334  1
  As  As2  1  0.145823  0.345816  0.495666  1
  As  As3  1  0.146667  0.650581  0.796797  1
  As  As4  1  0.853333  0.349419  0.203203  1
  As  As5  1  0.650581  0.503914  0.853784  1
  As  As6  1  0.349419  0.496086  0.146216  1
  As  As7  1  0.654184  0.800007  0.149850  1
  As  As8  1  0.345816  0.199993  0.850150  1
  As  As9  1  0.503914  0.853333  0.650130  1
  As  As10  1  0.496086  0.146667  0.349870  1
  As  As11  1  0.800007  0.145823  0.650159  1
  As  As12  1  0.199993  0.854177  0.349841  1
  Ir  Ir13  1  0.500000  0.500000  0.500000  1
  Ir  Ir14  1  0.500000  0.000000  0.000000  1
  Ir  Ir15  1  0.000000  0.500000  0.000000  1
  Ru  Ru16  1  0.000000  0.000000  0.500000  1
