# generated using pymatgen
data_Tb4YIn4PtRh
_symmetry_space_group_name_H-M   'P 1'
_cell_length_a   3.65200700
_cell_length_b   8.16580274
_cell_length_c   18.33921383
_cell_angle_alpha   90.07438830
_cell_angle_beta   90.00000000
_cell_angle_gamma   90.00000000
_symmetry_Int_Tables_number   1
_chemical_formula_structural   Tb4YIn4PtRh
_chemical_formula_sum   'Tb8 Y2 In8 Pt2 Rh2'
_cell_volume   546.90366515
_cell_formula_units_Z   2
loop_
 _symmetry_equiv_pos_site_id
 _symmetry_equiv_pos_as_xyz
  1  'x, y, z'
loop_
 _atom_site_type_symbol
 _atom_site_label
 _atom_site_symmetry_multiplicity
 _atom_site_fract_x
 _atom_site_fract_y
 _atom_site_fract_z
 _atom_site_occupancy
  Tb  Tb0  1  0.000000  0.114481  0.412115  1
  Tb  Tb1  1  0.000000  0.885519  0.587885  1
  Tb  Tb2  1  0.000000  0.384063  0.914082  1
  Tb  Tb3  1  0.000000  0.615937  0.085918  1
  Tb  Tb4  1  0.000000  0.238917  0.221279  1
  Tb  Tb5  1  0.000000  0.761083  0.778721  1
  Tb  Tb6  1  0.000000  0.250355  0.720458  1
  Tb  Tb7  1  0.000000  0.749645  0.279542  1
  Y  Y8  1  0.000000  0.000000  0.000000  1
  Y  Y9  1  0.000000  0.500000  0.500000  1
  In  In10  1  0.500000  0.423679  0.351375  1
  In  In11  1  0.500000  0.576321  0.648625  1
  In  In12  1  0.500000  0.073240  0.850560  1
  In  In13  1  0.500000  0.926760  0.149440  1
  In  In14  1  0.500000  0.291359  0.066910  1
  In  In15  1  0.500000  0.708641  0.933090  1
  In  In16  1  0.500000  0.207379  0.567896  1
  In  In17  1  0.500000  0.792621  0.432104  1
  Pt  Pt18  1  0.500000  0.477463  0.803041  1
  Pt  Pt19  1  0.500000  0.522537  0.196959  1
  Rh  Rh20  1  0.500000  0.021532  0.304419  1
  Rh  Rh21  1  0.500000  0.978468  0.695581  1
