# generated using pymatgen
data_Tb8Nd12Si15Ag
_symmetry_space_group_name_H-M   'P 1'
_cell_length_a   7.86626484
_cell_length_b   7.85451194
_cell_length_c   14.57777900
_cell_angle_alpha   89.54033838
_cell_angle_beta   89.80870694
_cell_angle_gamma   90.19279365
_symmetry_Int_Tables_number   1
_chemical_formula_structural   Tb8Nd12Si15Ag
_chemical_formula_sum   'Tb8 Nd12 Si15 Ag1'
_cell_volume   900.65867367
_cell_formula_units_Z   1
loop_
 _symmetry_equiv_pos_site_id
 _symmetry_equiv_pos_as_xyz
  1  'x, y, z'
loop_
 _atom_site_type_symbol
 _atom_site_label
 _atom_site_symmetry_multiplicity
 _atom_site_fract_x
 _atom_site_fract_y
 _atom_site_fract_z
 _atom_site_occupancy
  Tb  Tb0  1  0.489660  0.361185  0.123413  1
  Tb  Tb1  1  0.980267  0.149399  0.633284  1
  Tb  Tb2  1  0.864016  0.010568  0.873531  1
  Tb  Tb3  1  0.131532  0.981710  0.372243  1
  Tb  Tb4  1  0.512427  0.632714  0.622920  1
  Tb  Tb5  1  0.366635  0.494924  0.876685  1
  Tb  Tb6  1  0.636711  0.503641  0.374926  1
  Tb  Tb7  1  0.010293  0.865099  0.124759  1
  Nd  Nd8  1  0.645454  0.988074  0.456785  1
  Nd  Nd9  1  0.365730  0.008404  0.955382  1
  Nd  Nd10  1  0.982719  0.628818  0.541344  1
  Nd  Nd11  1  0.492028  0.860792  0.206370  1
  Nd  Nd12  1  0.516916  0.149449  0.712971  1
  Nd  Nd13  1  0.865718  0.497598  0.795547  1
  Nd  Nd14  1  0.136148  0.502424  0.292988  1
  Nd  Nd15  1  0.010933  0.363107  0.043684  1
  Nd  Nd16  1  0.309444  0.313199  0.502456  1
  Nd  Nd17  1  0.188662  0.826625  0.748092  1
  Nd  Nd18  1  0.815523  0.180952  0.250438  1
  Nd  Nd19  1  0.683499  0.687841  0.000878  1
  Si  Si20  1  0.711311  0.071065  0.057970  1
  Si  Si21  1  0.929834  0.286434  0.441420  1
  Si  Si22  1  0.428632  0.206895  0.309156  1
  Si  Si23  1  0.570808  0.790564  0.807353  1
  Si  Si24  1  0.209738  0.437463  0.693174  1
  Si  Si25  1  0.790409  0.566492  0.190737  1
  Si  Si26  1  0.070335  0.710982  0.940437  1
  Si  Si27  1  0.793984  0.846538  0.687999  1
  Si  Si28  1  0.206101  0.152265  0.189321  1
  Si  Si29  1  0.843876  0.790395  0.308678  1
  Si  Si30  1  0.346816  0.696103  0.434281  1
  Si  Si31  1  0.657274  0.297263  0.939549  1
  Si  Si32  1  0.699896  0.342987  0.559146  1
  Si  Si33  1  0.295478  0.655048  0.060118  1
  Si  Si34  1  0.155950  0.211762  0.813774  1
  Ag  Ag35  1  0.285247  0.931218  0.558192  1
