# generated using pymatgen
data_Tm8Sc2Ir5Pt
_symmetry_space_group_name_H-M   'P 1'
_cell_length_a   10.70385900
_cell_length_b   10.70391600
_cell_length_c   6.21676400
_cell_angle_alpha   90.00000000
_cell_angle_beta   90.00309531
_cell_angle_gamma   90.00000000
_symmetry_Int_Tables_number   1
_chemical_formula_structural   Tm8Sc2Ir5Pt
_chemical_formula_sum   'Tm16 Sc4 Ir10 Pt2'
_cell_volume   712.27459193
_cell_formula_units_Z   2
loop_
 _symmetry_equiv_pos_site_id
 _symmetry_equiv_pos_as_xyz
  1  'x, y, z'
loop_
 _atom_site_type_symbol
 _atom_site_label
 _atom_site_symmetry_multiplicity
 _atom_site_fract_x
 _atom_site_fract_y
 _atom_site_fract_z
 _atom_site_occupancy
  Tm  Tm0  1  0.288696  0.086327  0.375914  1
  Tm  Tm1  1  0.288696  0.913673  0.875914  1
  Tm  Tm2  1  0.707716  0.087743  0.874623  1
  Tm  Tm3  1  0.707716  0.912257  0.374623  1
  Tm  Tm4  1  0.583512  0.788128  0.877498  1
  Tm  Tm5  1  0.583512  0.211872  0.377498  1
  Tm  Tm6  1  0.413446  0.788457  0.376618  1
  Tm  Tm7  1  0.413446  0.211543  0.876618  1
  Tm  Tm8  1  0.211438  0.413820  0.623138  1
  Tm  Tm9  1  0.211438  0.586180  0.123138  1
  Tm  Tm10  1  0.788111  0.416136  0.122641  1
  Tm  Tm11  1  0.788111  0.583864  0.622641  1
  Tm  Tm12  1  0.914905  0.709419  0.126628  1
  Tm  Tm13  1  0.914905  0.290581  0.626628  1
  Tm  Tm14  1  0.088856  0.709783  0.622907  1
  Tm  Tm15  1  0.088856  0.290217  0.122907  1
  Sc  Sc16  1  0.004071  0.999800  0.500051  1
  Sc  Sc17  1  0.004071  0.000200  0.000051  1
  Sc  Sc18  1  0.499760  0.499911  0.999946  1
  Sc  Sc19  1  0.499760  0.500089  0.499946  1
  Ir  Ir20  1  0.147927  0.148656  0.750022  1
  Ir  Ir21  1  0.147927  0.851344  0.250022  1
  Ir  Ir22  1  0.649496  0.350428  0.750056  1
  Ir  Ir23  1  0.649496  0.649572  0.250056  1
  Ir  Ir24  1  0.350932  0.350967  0.249948  1
  Ir  Ir25  1  0.350932  0.649033  0.749948  1
  Ir  Ir26  1  0.500618  0.999920  0.123238  1
  Ir  Ir27  1  0.500618  0.000080  0.623238  1
  Ir  Ir28  1  0.999728  0.500066  0.876805  1
  Ir  Ir29  1  0.999728  0.499934  0.376805  1
  Pt  Pt30  1  0.850789  0.148802  0.249966  1
  Pt  Pt31  1  0.850789  0.851198  0.749966  1
