# generated using pymatgen
data_La4HoMgSi3Ge
_symmetry_space_group_name_H-M   'P 1'
_cell_length_a   7.63306258
_cell_length_b   7.65393250
_cell_length_c   4.50001100
_cell_angle_alpha   90.00000000
_cell_angle_beta   90.00000000
_cell_angle_gamma   89.79243455
_symmetry_Int_Tables_number   1
_chemical_formula_structural   La4HoMgSi3Ge
_chemical_formula_sum   'La4 Ho1 Mg1 Si3 Ge1'
_cell_volume   262.90217332
_cell_formula_units_Z   1
loop_
 _symmetry_equiv_pos_site_id
 _symmetry_equiv_pos_as_xyz
  1  'x, y, z'
loop_
 _atom_site_type_symbol
 _atom_site_label
 _atom_site_symmetry_multiplicity
 _atom_site_fract_x
 _atom_site_fract_y
 _atom_site_fract_z
 _atom_site_occupancy
  La  La0  1  0.671189  0.187023  0.500000  1
  La  La1  1  0.330494  0.814177  0.500000  1
  La  La2  1  0.187020  0.326793  0.500000  1
  La  La3  1  0.810643  0.671219  0.500000  1
  Ho  Ho4  1  0.999112  0.002455  0.000000  1
  Mg  Mg5  1  0.500389  0.497254  0.000000  1
  Si  Si6  1  0.890215  0.378005  0.000000  1
  Si  Si7  1  0.619786  0.893822  0.000000  1
  Si  Si8  1  0.380805  0.107113  0.000000  1
  Ge  Ge9  1  0.110347  0.622138  0.000000  1
