# generated using pymatgen
data_Nb2Co4B4MoW
_symmetry_space_group_name_H-M   'P 1'
_cell_length_a   3.28029200
_cell_length_b   5.79993823
_cell_length_c   6.72198743
_cell_angle_alpha   89.92537306
_cell_angle_beta   90.00000000
_cell_angle_gamma   90.00000000
_symmetry_Int_Tables_number   1
_chemical_formula_structural   Nb2Co4B4MoW
_chemical_formula_sum   'Nb2 Co4 B4 Mo1 W1'
_cell_volume   127.88900262
_cell_formula_units_Z   1
loop_
 _symmetry_equiv_pos_site_id
 _symmetry_equiv_pos_as_xyz
  1  'x, y, z'
loop_
 _atom_site_type_symbol
 _atom_site_label
 _atom_site_symmetry_multiplicity
 _atom_site_fract_x
 _atom_site_fract_y
 _atom_site_fract_z
 _atom_site_occupancy
  Nb  Nb0  1  0.250000  0.026800  0.823928  1
  Nb  Nb1  1  0.250000  0.526712  0.676750  1
  Co  Co2  1  0.250000  0.143967  0.439947  1
  Co  Co3  1  0.250000  0.643049  0.060306  1
  Co  Co4  1  0.750000  0.857240  0.555312  1
  Co  Co5  1  0.750000  0.357255  0.944754  1
  B  B6  1  0.250000  0.272114  0.129352  1
  B  B7  1  0.250000  0.770460  0.370903  1
  B  B8  1  0.750000  0.727310  0.885744  1
  B  B9  1  0.750000  0.227834  0.613437  1
  Mo  Mo10  1  0.750000  0.973537  0.178719  1
  W  W11  1  0.750000  0.473723  0.320847  1
