# generated using pymatgen
data_LaAl2GaAu
_symmetry_space_group_name_H-M   'P 1'
_cell_length_a   6.32261514
_cell_length_b   6.32261474
_cell_length_c   6.32261517
_cell_angle_alpha   139.72672582
_cell_angle_beta   139.72671781
_cell_angle_gamma   58.26846509
_symmetry_Int_Tables_number   1
_chemical_formula_structural   LaAl2GaAu
_chemical_formula_sum   'La1 Al2 Ga1 Au1'
_cell_volume   104.65920263
_cell_formula_units_Z   1
loop_
 _symmetry_equiv_pos_site_id
 _symmetry_equiv_pos_as_xyz
  1  'x, y, z'
loop_
 _atom_site_type_symbol
 _atom_site_label
 _atom_site_symmetry_multiplicity
 _atom_site_fract_x
 _atom_site_fract_y
 _atom_site_fract_z
 _atom_site_occupancy
  La  La0  1  0.988506  0.988506  0.000000  1
  Al  Al1  1  0.250812  0.750812  0.500000  1
  Al  Al2  1  0.750812  0.250812  0.500000  1
  Ga  Ga3  1  0.396511  0.396511  0.000000  1
  Au  Au4  1  0.629358  0.629358  0.000000  1
