# generated using pymatgen
data_Rb4Ba2TiSb4
_symmetry_space_group_name_H-M   'P 1'
_cell_length_a   11.36444430
_cell_length_b   11.36444495
_cell_length_c   8.64239692
_cell_angle_alpha   88.47931585
_cell_angle_beta   88.47931480
_cell_angle_gamma   119.45029959
_symmetry_Int_Tables_number   1
_chemical_formula_structural   Rb4Ba2TiSb4
_chemical_formula_sum   'Rb8 Ba4 Ti2 Sb8'
_cell_volume   970.59449228
_cell_formula_units_Z   2
loop_
 _symmetry_equiv_pos_site_id
 _symmetry_equiv_pos_as_xyz
  1  'x, y, z'
loop_
 _atom_site_type_symbol
 _atom_site_label
 _atom_site_symmetry_multiplicity
 _atom_site_fract_x
 _atom_site_fract_y
 _atom_site_fract_z
 _atom_site_occupancy
  Rb  Rb0  1  0.476418  0.948824  0.385707  1
  Rb  Rb1  1  0.948824  0.476418  0.885707  1
  Rb  Rb2  1  0.864761  0.723337  0.175515  1
  Rb  Rb3  1  0.271010  0.128907  0.226129  1
  Rb  Rb4  1  0.854136  0.138929  0.196730  1
  Rb  Rb5  1  0.128907  0.271010  0.726129  1
  Rb  Rb6  1  0.723337  0.864761  0.675515  1
  Rb  Rb7  1  0.138929  0.854136  0.696730  1
  Ba  Ba8  1  0.058432  0.529143  0.389984  1
  Ba  Ba9  1  0.477406  0.528467  0.381083  1
  Ba  Ba10  1  0.529143  0.058432  0.889984  1
  Ba  Ba11  1  0.528467  0.477406  0.881083  1
  Ti  Ti12  1  0.664295  0.334431  0.492761  1
  Ti  Ti13  1  0.334431  0.664295  0.992761  1
  Sb  Sb14  1  0.649532  0.333140  0.176277  1
  Sb  Sb15  1  0.333140  0.649532  0.676277  1
  Sb  Sb16  1  0.211567  0.407724  0.120124  1
  Sb  Sb17  1  0.596414  0.794152  0.078181  1
  Sb  Sb18  1  0.209802  0.798983  0.095176  1
  Sb  Sb19  1  0.794152  0.596414  0.578181  1
  Sb  Sb20  1  0.407724  0.211567  0.620124  1
  Sb  Sb21  1  0.798983  0.209802  0.595176  1
