# generated using pymatgen
data_Li3Tm8Sc8Si16W
_symmetry_space_group_name_H-M   'P 1'
_cell_length_a   6.86651708
_cell_length_b   7.26899844
_cell_length_c   13.88154761
_cell_angle_alpha   90.07917355
_cell_angle_beta   89.79592086
_cell_angle_gamma   89.56993855
_symmetry_Int_Tables_number   1
_chemical_formula_structural   Li3Tm8Sc8Si16W
_chemical_formula_sum   'Li3 Tm8 Sc8 Si16 W1'
_cell_volume   692.84094857
_cell_formula_units_Z   1
loop_
 _symmetry_equiv_pos_site_id
 _symmetry_equiv_pos_as_xyz
  1  'x, y, z'
loop_
 _atom_site_type_symbol
 _atom_site_label
 _atom_site_symmetry_multiplicity
 _atom_site_fract_x
 _atom_site_fract_y
 _atom_site_fract_z
 _atom_site_occupancy
  Li  Li0  1  0.161718  0.501899  0.745111  1
  Li  Li1  1  0.839448  0.494425  0.252098  1
  Li  Li2  1  0.339093  0.007557  0.251129  1
  Tm  Tm3  1  0.013195  0.182128  0.098740  1
  Tm  Tm4  1  0.991853  0.819691  0.896944  1
  Tm  Tm5  1  0.485946  0.676577  0.898983  1
  Tm  Tm6  1  0.992307  0.824399  0.596389  1
  Tm  Tm7  1  0.512394  0.318912  0.098224  1
  Tm  Tm8  1  0.012361  0.181997  0.400867  1
  Tm  Tm9  1  0.509905  0.316906  0.407907  1
  Tm  Tm10  1  0.485490  0.671647  0.596378  1
  Sc  Sc11  1  0.660805  0.002391  0.746913  1
  Sc  Sc12  1  0.665929  0.824879  0.377470  1
  Sc  Sc13  1  0.167943  0.680556  0.378444  1
  Sc  Sc14  1  0.667340  0.822639  0.128093  1
  Sc  Sc15  1  0.838836  0.323522  0.624168  1
  Sc  Sc16  1  0.327558  0.180811  0.871978  1
  Sc  Sc17  1  0.829666  0.327363  0.871399  1
  Sc  Sc18  1  0.169065  0.678312  0.126700  1
  Si  Si19  1  0.038308  0.105272  0.742372  1
  Si  Si20  1  0.968987  0.900252  0.250861  1
  Si  Si21  1  0.468713  0.603501  0.252289  1
  Si  Si22  1  0.529617  0.378296  0.745286  1
  Si  Si23  1  0.290304  0.878792  0.745626  1
  Si  Si24  1  0.713820  0.124412  0.251139  1
  Si  Si25  1  0.219931  0.377275  0.251107  1
  Si  Si26  1  0.780771  0.626109  0.746240  1
  Si  Si27  1  0.177962  0.448654  0.535029  1
  Si  Si28  1  0.839362  0.534803  0.467287  1
  Si  Si29  1  0.328887  0.969194  0.476107  1
  Si  Si30  1  0.838472  0.538724  0.035075  1
  Si  Si31  1  0.645564  0.034144  0.544693  1
  Si  Si32  1  0.158353  0.463690  0.964580  1
  Si  Si33  1  0.660290  0.034507  0.960953  1
  Si  Si34  1  0.341336  0.963849  0.034554  1
  W  W35  1  0.328469  0.181915  0.628869  1
