# generated using pymatgen
data_Ta3Nb3Al4(AuC)2
_symmetry_space_group_name_H-M   'P 1'
_cell_length_a   8.44664058
_cell_length_b   8.44796419
_cell_length_c   8.44663914
_cell_angle_alpha   59.99482181
_cell_angle_beta   60.01350896
_cell_angle_gamma   59.99482190
_symmetry_Int_Tables_number   1
_chemical_formula_structural   Ta3Nb3Al4(AuC)2
_chemical_formula_sum   'Ta6 Nb6 Al8 Au4 C4'
_cell_volume   426.20185710
_cell_formula_units_Z   2
loop_
 _symmetry_equiv_pos_site_id
 _symmetry_equiv_pos_as_xyz
  1  'x, y, z'
loop_
 _atom_site_type_symbol
 _atom_site_label
 _atom_site_symmetry_multiplicity
 _atom_site_fract_x
 _atom_site_fract_y
 _atom_site_fract_z
 _atom_site_occupancy
  Ta  Ta0  1  0.571391  0.570500  0.929083  1
  Ta  Ta1  1  0.929083  0.570500  0.571391  1
  Ta  Ta2  1  0.571391  0.929026  0.929083  1
  Ta  Ta3  1  0.929083  0.929026  0.571391  1
  Ta  Ta4  1  0.678909  0.321091  0.678909  1
  Ta  Ta5  1  0.928888  0.571112  0.928888  1
  Nb  Nb6  1  0.569838  0.930162  0.569838  1
  Nb  Nb7  1  0.319701  0.679831  0.680756  1
  Nb  Nb8  1  0.680756  0.319712  0.319701  1
  Nb  Nb9  1  0.319793  0.680207  0.319793  1
  Nb  Nb10  1  0.680756  0.679831  0.319701  1
  Nb  Nb11  1  0.319701  0.319712  0.680756  1
  Al  Al12  1  0.914260  0.913699  0.914260  1
  Al  Al13  1  0.991464  0.336429  0.335677  1
  Al  Al14  1  0.336552  0.990942  0.336552  1
  Al  Al15  1  0.335677  0.336429  0.991464  1
  Al  Al16  1  0.914260  0.257781  0.914260  1
  Al  Al17  1  0.913481  0.914063  0.258393  1
  Al  Al18  1  0.258393  0.914063  0.913481  1
  Al  Al19  1  0.336552  0.335955  0.336552  1
  Au  Au20  1  0.125037  0.125127  0.125037  1
  Au  Au21  1  0.624996  0.125926  0.123152  1
  Au  Au22  1  0.125037  0.624799  0.125037  1
  Au  Au23  1  0.123152  0.125926  0.624996  1
  C  C24  1  0.626551  0.623197  0.626551  1
  C  C25  1  0.122594  0.625627  0.626151  1
  C  C26  1  0.626551  0.123701  0.626551  1
  C  C27  1  0.626151  0.625627  0.122594  1
