# generated using pymatgen
data_NdYPa(Ga2Ni3)3
_symmetry_space_group_name_H-M   'P 1'
_cell_length_a   8.74661200
_cell_length_b   8.74661134
_cell_length_c   4.15340500
_cell_angle_alpha   90.00000000
_cell_angle_beta   90.00000000
_cell_angle_gamma   119.99999495
_symmetry_Int_Tables_number   1
_chemical_formula_structural   NdYPa(Ga2Ni3)3
_chemical_formula_sum   'Nd1 Y1 Pa1 Ga6 Ni9'
_cell_volume   275.17858017
_cell_formula_units_Z   1
loop_
 _symmetry_equiv_pos_site_id
 _symmetry_equiv_pos_as_xyz
  1  'x, y, z'
loop_
 _atom_site_type_symbol
 _atom_site_label
 _atom_site_symmetry_multiplicity
 _atom_site_fract_x
 _atom_site_fract_y
 _atom_site_fract_z
 _atom_site_occupancy
  Nd  Nd0  1  0.666667  0.333333  0.500000  1
  Y  Y1  1  0.333333  0.666667  0.500000  1
  Pa  Pa2  1  0.000000  0.000000  0.000000  1
  Ga  Ga3  1  0.482193  0.998646  0.000000  1
  Ga  Ga4  1  0.001354  0.483547  0.000000  1
  Ga  Ga5  1  0.516453  0.517807  0.000000  1
  Ga  Ga6  1  0.723507  0.998836  0.500000  1
  Ga  Ga7  1  0.001164  0.724671  0.500000  1
  Ga  Ga8  1  0.275329  0.276493  0.500000  1
  Ni  Ni9  1  0.193313  0.365413  0.000000  1
  Ni  Ni10  1  0.634587  0.827901  0.000000  1
  Ni  Ni11  1  0.172099  0.806687  0.000000  1
  Ni  Ni12  1  0.829749  0.639810  0.000000  1
  Ni  Ni13  1  0.810062  0.170251  0.000000  1
  Ni  Ni14  1  0.360190  0.189938  0.000000  1
  Ni  Ni15  1  0.287605  0.998713  0.500000  1
  Ni  Ni16  1  0.001287  0.288892  0.500000  1
  Ni  Ni17  1  0.711108  0.712395  0.500000  1
