# generated using pymatgen
data_Lu3Tc(Ni4P3)2
_symmetry_space_group_name_H-M   'P 1'
_cell_length_a   3.71767100
_cell_length_b   10.48573700
_cell_length_c   12.31157500
_cell_angle_alpha   90.00000000
_cell_angle_beta   90.00000000
_cell_angle_gamma   90.00000000
_symmetry_Int_Tables_number   1
_chemical_formula_structural   Lu3Tc(Ni4P3)2
_chemical_formula_sum   'Lu6 Tc2 Ni16 P12'
_cell_volume   479.93622308
_cell_formula_units_Z   2
loop_
 _symmetry_equiv_pos_site_id
 _symmetry_equiv_pos_as_xyz
  1  'x, y, z'
loop_
 _atom_site_type_symbol
 _atom_site_label
 _atom_site_symmetry_multiplicity
 _atom_site_fract_x
 _atom_site_fract_y
 _atom_site_fract_z
 _atom_site_occupancy
  Lu  Lu0  1  0.000000  0.500000  0.525006  1
  Lu  Lu1  1  0.500000  0.000000  0.474994  1
  Lu  Lu2  1  0.500000  0.816068  0.208666  1
  Lu  Lu3  1  0.500000  0.183932  0.208666  1
  Lu  Lu4  1  0.000000  0.683932  0.791334  1
  Lu  Lu5  1  0.000000  0.316068  0.791334  1
  Tc  Tc6  1  0.500000  0.500000  0.156621  1
  Tc  Tc7  1  0.000000  0.000000  0.843379  1
  Ni  Ni8  1  0.500000  0.500000  0.700894  1
  Ni  Ni9  1  0.000000  0.000000  0.299106  1
  Ni  Ni10  1  0.000000  0.500000  0.982945  1
  Ni  Ni11  1  0.500000  0.000000  0.017055  1
  Ni  Ni12  1  0.500000  0.331977  0.985796  1
  Ni  Ni13  1  0.500000  0.668023  0.985796  1
  Ni  Ni14  1  0.000000  0.168023  0.014204  1
  Ni  Ni15  1  0.000000  0.831977  0.014204  1
  Ni  Ni16  1  0.500000  0.303175  0.430895  1
  Ni  Ni17  1  0.500000  0.696825  0.430895  1
  Ni  Ni18  1  0.000000  0.196825  0.569105  1
  Ni  Ni19  1  0.000000  0.803175  0.569105  1
  Ni  Ni20  1  0.500000  0.878024  0.707773  1
  Ni  Ni21  1  0.500000  0.121976  0.707773  1
  Ni  Ni22  1  0.000000  0.621976  0.292227  1
  Ni  Ni23  1  0.000000  0.378024  0.292227  1
  P  P24  1  0.500000  0.500000  0.875629  1
  P  P25  1  0.000000  0.000000  0.124371  1
  P  P26  1  0.500000  0.500000  0.351024  1
  P  P27  1  0.000000  0.000000  0.648976  1
  P  P28  1  0.500000  0.315468  0.615262  1
  P  P29  1  0.500000  0.684532  0.615262  1
  P  P30  1  0.000000  0.184532  0.384738  1
  P  P31  1  0.000000  0.815468  0.384738  1
  P  P32  1  0.500000  0.847709  0.890721  1
  P  P33  1  0.500000  0.152291  0.890721  1
  P  P34  1  0.000000  0.652291  0.109279  1
  P  P35  1  0.000000  0.347709  0.109279  1
