# generated using pymatgen
data_La2SmDy3OsI10
_symmetry_space_group_name_H-M   'P 1'
_cell_length_a   7.91219116
_cell_length_b   10.00490243
_cell_length_c   9.88653714
_cell_angle_alpha   107.06447184
_cell_angle_beta   95.80578570
_cell_angle_gamma   105.79299407
_symmetry_Int_Tables_number   1
_chemical_formula_structural   La2SmDy3OsI10
_chemical_formula_sum   'La2 Sm1 Dy3 Os1 I10'
_cell_volume   705.85048521
_cell_formula_units_Z   1
loop_
 _symmetry_equiv_pos_site_id
 _symmetry_equiv_pos_as_xyz
  1  'x, y, z'
loop_
 _atom_site_type_symbol
 _atom_site_label
 _atom_site_symmetry_multiplicity
 _atom_site_fract_x
 _atom_site_fract_y
 _atom_site_fract_z
 _atom_site_occupancy
  La  La0  1  0.385319  0.957569  0.730142  1
  La  La1  1  0.614096  0.041652  0.269243  1
  Sm  Sm2  1  0.471916  0.293155  0.589671  1
  Dy  Dy3  1  0.527307  0.711315  0.411310  1
  Dy  Dy4  1  0.852801  0.128612  0.668255  1
  Dy  Dy5  1  0.147486  0.869444  0.331551  1
  Os  Os6  1  0.499914  0.999693  0.499826  1
  I  I7  1  0.417974  0.625969  0.673937  1
  I  I8  1  0.583422  0.377687  0.322301  1
  I  I9  1  0.277426  0.262893  0.846498  1
  I  I10  1  0.719126  0.734619  0.156795  1
  I  I11  1  0.857990  0.449149  0.770321  1
  I  I12  1  0.148697  0.550818  0.231767  1
  I  I13  1  0.050219  0.177604  0.412689  1
  I  I14  1  0.228735  0.909791  0.045157  1
  I  I15  1  0.770519  0.089567  0.954918  1
  I  I16  1  0.947054  0.820463  0.585619  1
