# generated using pymatgen
data_K2Cu(TeO4)3
_symmetry_space_group_name_H-M   'P 1'
_cell_length_a   7.06626890
_cell_length_b   7.06626866
_cell_length_c   7.24870761
_cell_angle_alpha   61.21293819
_cell_angle_beta   61.21294068
_cell_angle_gamma   61.47469135
_symmetry_Int_Tables_number   1
_chemical_formula_structural   K2Cu(TeO4)3
_chemical_formula_sum   'K2 Cu1 Te3 O12'
_cell_volume   263.40926488
_cell_formula_units_Z   1
loop_
 _symmetry_equiv_pos_site_id
 _symmetry_equiv_pos_as_xyz
  1  'x, y, z'
loop_
 _atom_site_type_symbol
 _atom_site_label
 _atom_site_symmetry_multiplicity
 _atom_site_fract_x
 _atom_site_fract_y
 _atom_site_fract_z
 _atom_site_occupancy
  K  K0  1  0.839245  0.890057  0.376983  1
  K  K1  1  0.109943  0.160755  0.623017  1
  Cu  Cu2  1  0.497682  0.502318  0.000000  1
  Te  Te3  1  0.998351  0.502520  0.000053  1
  Te  Te4  1  0.497480  0.001649  0.999947  1
  Te  Te5  1  0.497689  0.502311  0.500000  1
  O  O6  1  0.167640  0.171709  0.065714  1
  O  O7  1  0.578861  0.576016  0.665234  1
  O  O8  1  0.179685  0.569812  0.076141  1
  O  O9  1  0.571401  0.171347  0.677648  1
  O  O10  1  0.568590  0.183683  0.071426  1
  O  O11  1  0.167872  0.573871  0.677815  1
  O  O12  1  0.828291  0.832360  0.934286  1
  O  O13  1  0.423984  0.421139  0.334766  1
  O  O14  1  0.816317  0.431410  0.928574  1
  O  O15  1  0.426129  0.832128  0.322185  1
  O  O16  1  0.430188  0.820315  0.923859  1
  O  O17  1  0.828653  0.428599  0.322352  1
