# generated using pymatgen
data_Er17Tm3(IrRh3)3
_symmetry_space_group_name_H-M   'P 1'
_cell_length_a   10.79876947
_cell_length_b   10.79851355
_cell_length_c   6.31987214
_cell_angle_alpha   90.00244164
_cell_angle_beta   90.00064311
_cell_angle_gamma   89.85519451
_symmetry_Int_Tables_number   1
_chemical_formula_structural   Er17Tm3(IrRh3)3
_chemical_formula_sum   'Er17 Tm3 Ir3 Rh9'
_cell_volume   736.96209670
_cell_formula_units_Z   1
loop_
 _symmetry_equiv_pos_site_id
 _symmetry_equiv_pos_as_xyz
  1  'x, y, z'
loop_
 _atom_site_type_symbol
 _atom_site_label
 _atom_site_symmetry_multiplicity
 _atom_site_fract_x
 _atom_site_fract_y
 _atom_site_fract_z
 _atom_site_occupancy
  Er  Er0  1  0.290773  0.089195  0.377389  1
  Er  Er1  1  0.291100  0.910676  0.877329  1
  Er  Er2  1  0.709055  0.087717  0.877143  1
  Er  Er3  1  0.708910  0.910626  0.377036  1
  Er  Er4  1  0.586914  0.789674  0.878157  1
  Er  Er5  1  0.586469  0.209350  0.376918  1
  Er  Er6  1  0.413315  0.790165  0.377407  1
  Er  Er7  1  0.411121  0.209462  0.878081  1
  Er  Er8  1  0.210317  0.413085  0.621868  1
  Er  Er9  1  0.209847  0.586690  0.122580  1
  Er  Er10  1  0.790658  0.413554  0.123138  1
  Er  Er11  1  0.790506  0.588844  0.621851  1
  Er  Er12  1  0.910845  0.709306  0.122510  1
  Er  Er13  1  0.912238  0.291017  0.622880  1
  Er  Er14  1  0.089324  0.708850  0.622748  1
  Er  Er15  1  0.089342  0.291011  0.122940  1
  Er  Er16  1  0.999806  0.000008  0.499825  1
  Tm  Tm17  1  0.000016  0.000186  0.000203  1
  Tm  Tm18  1  0.499914  0.499869  0.999823  1
  Tm  Tm19  1  0.500122  0.500086  0.500180  1
  Ir  Ir20  1  0.654236  0.653325  0.249982  1
  Ir  Ir21  1  0.346662  0.345749  0.250055  1
  Ir  Ir22  1  0.345735  0.654239  0.749976  1
  Rh  Rh23  1  0.845768  0.154237  0.249496  1
  Rh  Rh24  1  0.846552  0.847139  0.750659  1
  Rh  Rh25  1  0.152787  0.153531  0.750235  1
  Rh  Rh26  1  0.153410  0.846593  0.249588  1
  Rh  Rh27  1  0.654906  0.345144  0.749992  1
  Rh  Rh28  1  0.500213  0.000554  0.122903  1
  Rh  Rh29  1  0.500303  0.000668  0.623585  1
  Rh  Rh30  1  0.999325  0.499667  0.876392  1
  Rh  Rh31  1  0.999511  0.499784  0.377130  1
