# generated using pymatgen
data_Dy20Ir2Os3Au7
_symmetry_space_group_name_H-M   'P 1'
_cell_length_a   11.26575681
_cell_length_b   11.26545735
_cell_length_c   6.37520133
_cell_angle_alpha   89.71345953
_cell_angle_beta   89.78225314
_cell_angle_gamma   90.46498644
_symmetry_Int_Tables_number   1
_chemical_formula_structural   Dy20Ir2Os3Au7
_chemical_formula_sum   'Dy20 Ir2 Os3 Au7'
_cell_volume   809.05895102
_cell_formula_units_Z   1
loop_
 _symmetry_equiv_pos_site_id
 _symmetry_equiv_pos_as_xyz
  1  'x, y, z'
loop_
 _atom_site_type_symbol
 _atom_site_label
 _atom_site_symmetry_multiplicity
 _atom_site_fract_x
 _atom_site_fract_y
 _atom_site_fract_z
 _atom_site_occupancy
  Dy  Dy0  1  0.302132  0.079956  0.359080  1
  Dy  Dy1  1  0.301514  0.907511  0.860529  1
  Dy  Dy2  1  0.696858  0.081446  0.856450  1
  Dy  Dy3  1  0.696362  0.915417  0.356111  1
  Dy  Dy4  1  0.576134  0.796136  0.856638  1
  Dy  Dy5  1  0.582585  0.198951  0.358957  1
  Dy  Dy6  1  0.411925  0.795362  0.369702  1
  Dy  Dy7  1  0.416142  0.195004  0.860600  1
  Dy  Dy8  1  0.205327  0.423664  0.645702  1
  Dy  Dy9  1  0.206234  0.589085  0.127905  1
  Dy  Dy10  1  0.799858  0.416868  0.137601  1
  Dy  Dy11  1  0.803106  0.584701  0.641735  1
  Dy  Dy12  1  0.919821  0.699268  0.138265  1
  Dy  Dy13  1  0.917430  0.301323  0.645867  1
  Dy  Dy14  1  0.093759  0.700451  0.641039  1
  Dy  Dy15  1  0.084761  0.302569  0.142054  1
  Dy  Dy16  1  0.998547  0.000957  0.499705  1
  Dy  Dy17  1  0.999683  0.001725  0.998510  1
  Dy  Dy18  1  0.493547  0.503371  0.997722  1
  Dy  Dy19  1  0.495896  0.506982  0.500593  1
  Ir  Ir20  1  0.347904  0.650471  0.750215  1
  Ir  Ir21  1  0.000919  0.500568  0.390366  1
  Os  Os22  1  0.499349  0.998163  0.112728  1
  Os  Os23  1  0.499139  0.998888  0.610254  1
  Os  Os24  1  0.000753  0.500991  0.890896  1
  Au  Au25  1  0.845210  0.156067  0.250070  1
  Au  Au26  1  0.843519  0.844940  0.751307  1
  Au  Au27  1  0.155349  0.156625  0.749414  1
  Au  Au28  1  0.153161  0.845961  0.250289  1
  Au  Au29  1  0.652085  0.347389  0.749615  1
  Au  Au30  1  0.657235  0.654872  0.246520  1
  Au  Au31  1  0.343751  0.344320  0.253557  1
