# generated using pymatgen
data_DyY9(Tl2Au)4
_symmetry_space_group_name_H-M   'P 1'
_cell_length_a   3.67933000
_cell_length_b   8.25118884
_cell_length_c   18.49060700
_cell_angle_alpha   90.03824724
_cell_angle_beta   90.00000000
_cell_angle_gamma   90.00000000
_symmetry_Int_Tables_number   1
_chemical_formula_structural   DyY9(Tl2Au)4
_chemical_formula_sum   'Dy1 Y9 Tl8 Au4'
_cell_volume   561.35337691
_cell_formula_units_Z   1
loop_
 _symmetry_equiv_pos_site_id
 _symmetry_equiv_pos_as_xyz
  1  'x, y, z'
loop_
 _atom_site_type_symbol
 _atom_site_label
 _atom_site_symmetry_multiplicity
 _atom_site_fract_x
 _atom_site_fract_y
 _atom_site_fract_z
 _atom_site_occupancy
  Dy  Dy0  1  0.000000  0.739218  0.283461  1
  Y  Y1  1  0.000000  0.119623  0.418671  1
  Y  Y2  1  0.000000  0.879857  0.581176  1
  Y  Y3  1  0.000000  0.380133  0.918915  1
  Y  Y4  1  0.000000  0.620190  0.081316  1
  Y  Y5  1  0.000000  0.239219  0.216191  1
  Y  Y6  1  0.000000  0.761002  0.784058  1
  Y  Y7  1  0.000000  0.260951  0.715932  1
  Y  Y8  1  0.000000  0.000155  0.999976  1
  Y  Y9  1  0.000000  0.499773  0.500030  1
  Tl  Tl10  1  0.500000  0.419074  0.354452  1
  Tl  Tl11  1  0.500000  0.581050  0.645640  1
  Tl  Tl12  1  0.500000  0.081130  0.854402  1
  Tl  Tl13  1  0.500000  0.919250  0.145451  1
  Tl  Tl14  1  0.500000  0.291480  0.064682  1
  Tl  Tl15  1  0.500000  0.708656  0.935545  1
  Tl  Tl16  1  0.500000  0.208353  0.564497  1
  Tl  Tl17  1  0.500000  0.790907  0.435295  1
  Au  Au18  1  0.500000  0.027943  0.302589  1
  Au  Au19  1  0.500000  0.970911  0.697263  1
  Au  Au20  1  0.500000  0.470957  0.802732  1
  Au  Au21  1  0.500000  0.530169  0.197725  1
