# generated using pymatgen
data_Dy3Th(AuBr6)4
_symmetry_space_group_name_H-M   'P 1'
_cell_length_a   8.31284014
_cell_length_b   10.44982923
_cell_length_c   14.85335100
_cell_angle_alpha   103.38136674
_cell_angle_beta   96.46893539
_cell_angle_gamma   112.71442012
_symmetry_Int_Tables_number   1
_chemical_formula_structural   Dy3Th(AuBr6)4
_chemical_formula_sum   'Dy3 Th1 Au4 Br24'
_cell_volume   1128.16806402
_cell_formula_units_Z   1
loop_
 _symmetry_equiv_pos_site_id
 _symmetry_equiv_pos_as_xyz
  1  'x, y, z'
loop_
 _atom_site_type_symbol
 _atom_site_label
 _atom_site_symmetry_multiplicity
 _atom_site_fract_x
 _atom_site_fract_y
 _atom_site_fract_z
 _atom_site_occupancy
  Dy  Dy0  1  0.577244  0.921873  0.622424  1
  Dy  Dy1  1  0.428478  0.084201  0.381041  1
  Dy  Dy2  1  0.973425  0.304106  0.867914  1
  Th  Th3  1  0.023538  0.689006  0.127173  1
  Au  Au4  1  0.293732  0.630990  0.763261  1
  Au  Au5  1  0.703901  0.366290  0.236993  1
  Au  Au6  1  0.501040  0.500959  0.500230  1
  Au  Au7  1  0.000475  0.002647  0.999467  1
  Br  Br8  1  0.609401  0.737597  0.748897  1
  Br  Br9  1  0.386461  0.261415  0.252209  1
  Br  Br10  1  0.275987  0.847952  0.730747  1
  Br  Br11  1  0.721275  0.147799  0.270823  1
  Br  Br12  1  0.975591  0.525213  0.773183  1
  Br  Br13  1  0.027202  0.469987  0.228285  1
  Br  Br14  1  0.311210  0.412171  0.794521  1
  Br  Br15  1  0.684772  0.587803  0.203731  1
  Br  Br16  1  0.690833  0.367949  0.508283  1
  Br  Br17  1  0.313128  0.635450  0.492853  1
  Br  Br18  1  0.763562  0.734544  0.527761  1
  Br  Br19  1  0.238907  0.266777  0.473483  1
  Br  Br20  1  0.784022  0.112141  0.973617  1
  Br  Br21  1  0.219371  0.891841  0.023575  1
  Br  Br22  1  0.766844  0.794139  0.041879  1
  Br  Br23  1  0.231317  0.210814  0.958517  1
  Br  Br24  1  0.620948  0.190852  0.744143  1
  Br  Br25  1  0.380347  0.808872  0.256662  1
  Br  Br26  1  0.943077  0.053532  0.723527  1
  Br  Br27  1  0.056426  0.944939  0.277352  1
  Br  Br28  1  0.721336  0.048055  0.482668  1
  Br  Br29  1  0.279127  0.952140  0.516949  1
  Br  Br30  1  0.765570  0.438393  0.972607  1
  Br  Br31  1  0.231452  0.559557  0.025227  1
