# generated using pymatgen
data_Tb2Y10Co4SnRh
_symmetry_space_group_name_H-M   'P 1'
_cell_length_a   8.34750910
_cell_length_b   8.34973973
_cell_length_c   8.34974015
_cell_angle_alpha   110.88473538
_cell_angle_beta   110.57079653
_cell_angle_gamma   106.99681649
_symmetry_Int_Tables_number   1
_chemical_formula_structural   Tb2Y10Co4SnRh
_chemical_formula_sum   'Tb2 Y10 Co4 Sn1 Rh1'
_cell_volume   447.31658370
_cell_formula_units_Z   1
loop_
 _symmetry_equiv_pos_site_id
 _symmetry_equiv_pos_as_xyz
  1  'x, y, z'
loop_
 _atom_site_type_symbol
 _atom_site_label
 _atom_site_symmetry_multiplicity
 _atom_site_fract_x
 _atom_site_fract_y
 _atom_site_fract_z
 _atom_site_occupancy
  Tb  Tb0  1  0.406627  0.211239  0.195387  1
  Tb  Tb1  1  0.593373  0.788761  0.804613  1
  Y  Y2  1  0.016460  0.211959  0.804500  1
  Y  Y3  1  0.983540  0.788041  0.195500  1
  Y  Y4  1  0.186008  0.291370  0.477246  1
  Y  Y5  1  0.813992  0.708630  0.522754  1
  Y  Y6  1  0.186008  0.708761  0.894638  1
  Y  Y7  1  0.813992  0.291239  0.105362  1
  Y  Y8  1  0.313535  0.619423  0.305839  1
  Y  Y9  1  0.686465  0.380577  0.694161  1
  Y  Y10  1  0.313535  0.007696  0.694112  1
  Y  Y11  1  0.686465  0.992304  0.305888  1
  Co  Co12  1  0.380257  0.000262  0.379995  1
  Co  Co13  1  0.619743  0.999738  0.620005  1
  Co  Co14  1  0.110464  0.610627  0.499838  1
  Co  Co15  1  0.889536  0.389373  0.500162  1
  Sn  Sn16  1  0.500000  0.500000  0.000000  1
  Rh  Rh17  1  0.000000  0.000000  0.000000  1
