# generated using pymatgen
data_Be2Fe5Ni3(B2P)2
_symmetry_space_group_name_H-M   'P 1'
_cell_length_a   6.38655485
_cell_length_b   6.24491759
_cell_length_c   6.28395924
_cell_angle_alpha   129.57796046
_cell_angle_beta   130.45528327
_cell_angle_gamma   73.00338361
_symmetry_Int_Tables_number   1
_chemical_formula_structural   Be2Fe5Ni3(B2P)2
_chemical_formula_sum   'Be2 Fe5 Ni3 B4 P2'
_cell_volume   143.82027565
_cell_formula_units_Z   1
loop_
 _symmetry_equiv_pos_site_id
 _symmetry_equiv_pos_as_xyz
  1  'x, y, z'
loop_
 _atom_site_type_symbol
 _atom_site_label
 _atom_site_symmetry_multiplicity
 _atom_site_fract_x
 _atom_site_fract_y
 _atom_site_fract_z
 _atom_site_occupancy
  Be  Be0  1  0.498766  0.500391  0.002143  1
  Be  Be1  1  0.999758  0.996229  0.998271  1
  Fe  Fe2  1  0.064996  0.184677  0.503130  1
  Fe  Fe3  1  0.560712  0.058355  0.874965  1
  Fe  Fe4  1  0.184115  0.679932  0.134277  1
  Fe  Fe5  1  0.439680  0.941866  0.123438  1
  Fe  Fe6  1  0.939793  0.816043  0.499447  1
  Ni  Ni7  1  0.312942  0.460721  0.498594  1
  Ni  Ni8  1  0.810420  0.316066  0.860719  1
  Ni  Ni9  1  0.688240  0.543050  0.504988  1
  B  B10  1  0.881182  0.386694  0.270781  1
  B  B11  1  0.379524  0.109542  0.491162  1
  B  B12  1  0.117196  0.615346  0.734605  1
  B  B13  1  0.614787  0.883629  0.498593  1
  P  P14  1  0.250918  0.241808  0.988227  1
  P  P15  1  0.756972  0.765652  0.016660  1
