# generated using pymatgen
data_NdSc4Pa3(ReB6)4
_symmetry_space_group_name_H-M   'P 1'
_cell_length_a   3.64365500
_cell_length_b   9.02088438
_cell_length_c   11.40498400
_cell_angle_alpha   90.07483076
_cell_angle_beta   90.00000000
_cell_angle_gamma   90.00000000
_symmetry_Int_Tables_number   1
_chemical_formula_structural   NdSc4Pa3(ReB6)4
_chemical_formula_sum   'Nd1 Sc4 Pa3 Re4 B24'
_cell_volume   374.86999105
_cell_formula_units_Z   1
loop_
 _symmetry_equiv_pos_site_id
 _symmetry_equiv_pos_as_xyz
  1  'x, y, z'
loop_
 _atom_site_type_symbol
 _atom_site_label
 _atom_site_symmetry_multiplicity
 _atom_site_fract_x
 _atom_site_fract_y
 _atom_site_fract_z
 _atom_site_occupancy
  Nd  Nd0  1  0.000000  0.180862  0.913434  1
  Sc  Sc1  1  0.000000  0.945948  0.375171  1
  Sc  Sc2  1  0.000000  0.054776  0.626035  1
  Sc  Sc3  1  0.000000  0.444929  0.125280  1
  Sc  Sc4  1  0.000000  0.553895  0.874360  1
  Pa  Pa5  1  0.000000  0.319486  0.413912  1
  Pa  Pa6  1  0.000000  0.679936  0.586212  1
  Pa  Pa7  1  0.000000  0.821294  0.085855  1
  Re  Re8  1  0.000000  0.640421  0.319562  1
  Re  Re9  1  0.000000  0.362604  0.677045  1
  Re  Re10  1  0.000000  0.139938  0.184555  1
  Re  Re11  1  0.000000  0.855812  0.818331  1
  B  B12  1  0.500000  0.555004  0.432273  1
  B  B13  1  0.500000  0.445774  0.566426  1
  B  B14  1  0.500000  0.053725  0.069952  1
  B  B15  1  0.500000  0.942510  0.932403  1
  B  B16  1  0.500000  0.753500  0.419192  1
  B  B17  1  0.500000  0.247035  0.580689  1
  B  B18  1  0.500000  0.253759  0.083011  1
  B  B19  1  0.500000  0.746515  0.919364  1
  B  B20  1  0.500000  0.794194  0.264996  1
  B  B21  1  0.500000  0.206419  0.733226  1
  B  B22  1  0.500000  0.294606  0.235546  1
  B  B23  1  0.500000  0.705179  0.764683  1
  B  B24  1  0.500000  0.629886  0.182606  1
  B  B25  1  0.500000  0.372061  0.815599  1
  B  B26  1  0.500000  0.129761  0.317927  1
  B  B27  1  0.500000  0.869379  0.682812  1
  B  B28  1  0.500000  0.981317  0.215055  1
  B  B29  1  0.500000  0.016916  0.783985  1
  B  B30  1  0.500000  0.482244  0.284965  1
  B  B31  1  0.500000  0.518295  0.714403  1
  B  B32  1  0.500000  0.599922  0.027556  1
  B  B33  1  0.500000  0.402383  0.973191  1
  B  B34  1  0.500000  0.100514  0.472933  1
  B  B35  1  0.500000  0.899201  0.527453  1
