# generated using pymatgen
data_K(IrO3)2
_symmetry_space_group_name_H-M   'P 1'
_cell_length_a   7.19461530
_cell_length_b   7.19461528
_cell_length_c   7.19461500
_cell_angle_alpha   60.00000587
_cell_angle_beta   60.00000599
_cell_angle_gamma   60.00000122
_symmetry_Int_Tables_number   1
_chemical_formula_structural   K(IrO3)2
_chemical_formula_sum   'K2 Ir4 O12'
_cell_volume   263.33449753
_cell_formula_units_Z   2
loop_
 _symmetry_equiv_pos_site_id
 _symmetry_equiv_pos_as_xyz
  1  'x, y, z'
loop_
 _atom_site_type_symbol
 _atom_site_label
 _atom_site_symmetry_multiplicity
 _atom_site_fract_x
 _atom_site_fract_y
 _atom_site_fract_z
 _atom_site_occupancy
  K  K0  1  0.250000  0.250000  0.250000  1
  K  K1  1  0.000000  0.000000  0.000000  1
  Ir  Ir2  1  0.625000  0.625000  0.625000  1
  Ir  Ir3  1  0.625000  0.625000  0.125000  1
  Ir  Ir4  1  0.125000  0.625000  0.625000  1
  Ir  Ir5  1  0.625000  0.125000  0.625000  1
  O  O6  1  0.553877  0.553877  0.946123  1
  O  O7  1  0.946123  0.553877  0.553877  1
  O  O8  1  0.303877  0.303877  0.696123  1
  O  O9  1  0.696123  0.303877  0.303877  1
  O  O10  1  0.553877  0.946123  0.553877  1
  O  O11  1  0.946123  0.553877  0.946123  1
  O  O12  1  0.696123  0.303877  0.696123  1
  O  O13  1  0.553877  0.946123  0.946123  1
  O  O14  1  0.946123  0.946123  0.553877  1
  O  O15  1  0.303877  0.696123  0.303877  1
  O  O16  1  0.696123  0.696123  0.303877  1
  O  O17  1  0.303877  0.696123  0.696123  1
