# generated using pymatgen
data_Tb3Dy6Ho3Ni4
_symmetry_space_group_name_H-M   'P 1'
_cell_length_a   6.35200801
_cell_length_b   6.84002801
_cell_length_c   9.55599302
_cell_angle_alpha   90.00456293
_cell_angle_beta   89.99336486
_cell_angle_gamma   90.00378682
_symmetry_Int_Tables_number   1
_chemical_formula_structural   Tb3Dy6Ho3Ni4
_chemical_formula_sum   'Tb3 Dy6 Ho3 Ni4'
_cell_volume   415.18794594
_cell_formula_units_Z   1
loop_
 _symmetry_equiv_pos_site_id
 _symmetry_equiv_pos_as_xyz
  1  'x, y, z'
loop_
 _atom_site_type_symbol
 _atom_site_label
 _atom_site_symmetry_multiplicity
 _atom_site_fract_x
 _atom_site_fract_y
 _atom_site_fract_z
 _atom_site_occupancy
  Tb  Tb0  1  0.640162  0.034224  0.250068  1
  Tb  Tb1  1  0.140008  0.465535  0.749937  1
  Tb  Tb2  1  0.360115  0.965777  0.749947  1
  Dy  Dy3  1  0.823253  0.821991  0.934348  1
  Dy  Dy4  1  0.677007  0.322558  0.934254  1
  Dy  Dy5  1  0.823293  0.822054  0.565694  1
  Dy  Dy6  1  0.322732  0.677530  0.433896  1
  Dy  Dy7  1  0.176676  0.177821  0.066185  1
  Dy  Dy8  1  0.859876  0.534844  0.249999  1
  Ho  Ho9  1  0.322743  0.677541  0.066135  1
  Ho  Ho10  1  0.176639  0.177884  0.433872  1
  Ho  Ho11  1  0.677067  0.322546  0.565729  1
  Ni  Ni12  1  0.057138  0.890533  0.249990  1
  Ni  Ni13  1  0.443697  0.391565  0.250043  1
  Ni  Ni14  1  0.942224  0.108899  0.749879  1
  Ni  Ni15  1  0.557369  0.608696  0.750023  1
