# generated using pymatgen
data_TbHo2P4Rh7
_symmetry_space_group_name_H-M   'P 1'
_cell_length_a   7.75245731
_cell_length_b   7.75245763
_cell_length_c   9.20158876
_cell_angle_alpha   56.64760279
_cell_angle_beta   56.64760164
_cell_angle_gamma   29.44208013
_symmetry_Int_Tables_number   1
_chemical_formula_structural   TbHo2P4Rh7
_chemical_formula_sum   'Tb1 Ho2 P4 Rh7'
_cell_volume   223.64321152
_cell_formula_units_Z   1
loop_
 _symmetry_equiv_pos_site_id
 _symmetry_equiv_pos_as_xyz
  1  'x, y, z'
loop_
 _atom_site_type_symbol
 _atom_site_label
 _atom_site_symmetry_multiplicity
 _atom_site_fract_x
 _atom_site_fract_y
 _atom_site_fract_z
 _atom_site_occupancy
  Tb  Tb0  1  0.000000  0.000000  0.000000  1
  Ho  Ho1  1  0.671014  0.671014  0.331845  1
  Ho  Ho2  1  0.328986  0.328986  0.668155  1
  P  P3  1  0.332254  0.332254  0.274895  1
  P  P4  1  0.667746  0.667746  0.725105  1
  P  P5  1  0.891266  0.891266  0.824685  1
  P  P6  1  0.108734  0.108734  0.175315  1
  Rh  Rh7  1  0.301315  0.301315  0.047034  1
  Rh  Rh8  1  0.698685  0.698685  0.952966  1
  Rh  Rh9  1  0.506522  0.506522  0.731330  1
  Rh  Rh10  1  0.831414  0.831414  0.421571  1
  Rh  Rh11  1  0.493478  0.493478  0.268670  1
  Rh  Rh12  1  0.168586  0.168586  0.578429  1
  Rh  Rh13  1  0.000000  0.000000  0.500000  1
