# generated using pymatgen
data_Er2Th3TcRu2
_symmetry_space_group_name_H-M   'P 1'
_cell_length_a   8.33890000
_cell_length_b   8.36541590
_cell_length_c   6.39305400
_cell_angle_alpha   90.00000000
_cell_angle_beta   90.00000000
_cell_angle_gamma   119.89520230
_symmetry_Int_Tables_number   1
_chemical_formula_structural   Er2Th3TcRu2
_chemical_formula_sum   'Er4 Th6 Tc2 Ru4'
_cell_volume   386.62769420
_cell_formula_units_Z   2
loop_
 _symmetry_equiv_pos_site_id
 _symmetry_equiv_pos_as_xyz
  1  'x, y, z'
loop_
 _atom_site_type_symbol
 _atom_site_label
 _atom_site_symmetry_multiplicity
 _atom_site_fract_x
 _atom_site_fract_y
 _atom_site_fract_z
 _atom_site_occupancy
  Er  Er0  1  0.332996  0.665992  0.000000  1
  Er  Er1  1  0.667004  0.334008  0.000000  1
  Er  Er2  1  0.667004  0.334008  0.500000  1
  Er  Er3  1  0.332996  0.665992  0.500000  1
  Th  Th4  1  0.251584  0.000000  0.250000  1
  Th  Th5  1  0.748416  0.000000  0.750000  1
  Th  Th6  1  0.998245  0.249642  0.250000  1
  Th  Th7  1  0.001755  0.750358  0.750000  1
  Th  Th8  1  0.748603  0.750358  0.250000  1
  Th  Th9  1  0.251397  0.249642  0.750000  1
  Tc  Tc10  1  0.617225  0.000000  0.250000  1
  Tc  Tc11  1  0.382775  0.000000  0.750000  1
  Ru  Ru12  1  0.997140  0.624087  0.250000  1
  Ru  Ru13  1  0.002860  0.375913  0.750000  1
  Ru  Ru14  1  0.373054  0.375913  0.250000  1
  Ru  Ru15  1  0.626946  0.624087  0.750000  1
