# generated using pymatgen
data_KNd(CuO2)4
_symmetry_space_group_name_H-M   'P 1'
_cell_length_a   6.38390342
_cell_length_b   6.38390269
_cell_length_c   6.38390256
_cell_angle_alpha   123.70356347
_cell_angle_beta   123.70356291
_cell_angle_gamma   83.69664976
_symmetry_Int_Tables_number   1
_chemical_formula_structural   KNd(CuO2)4
_chemical_formula_sum   'K1 Nd1 Cu4 O8'
_cell_volume   172.52658638
_cell_formula_units_Z   1
loop_
 _symmetry_equiv_pos_site_id
 _symmetry_equiv_pos_as_xyz
  1  'x, y, z'
loop_
 _atom_site_type_symbol
 _atom_site_label
 _atom_site_symmetry_multiplicity
 _atom_site_fract_x
 _atom_site_fract_y
 _atom_site_fract_z
 _atom_site_occupancy
  K  K0  1  0.000000  0.000000  0.000000  1
  Nd  Nd1  1  0.750000  0.250000  0.500000  1
  Cu  Cu2  1  0.391602  0.127731  0.768942  1
  Cu  Cu3  1  0.358789  0.622660  0.231058  1
  Cu  Cu4  1  0.872269  0.641211  0.263871  1
  Cu  Cu5  1  0.377340  0.608398  0.736129  1
  O  O6  1  0.178890  0.563850  0.846312  1
  O  O7  1  0.717538  0.332579  0.153688  1
  O  O8  1  0.544807  0.622215  0.580333  1
  O  O9  1  0.041882  0.964474  0.419667  1
  O  O10  1  0.377785  0.958118  0.922592  1
  O  O11  1  0.035526  0.455193  0.077408  1
  O  O12  1  0.667421  0.821110  0.384960  1
  O  O13  1  0.436150  0.282462  0.615040  1
