# generated using pymatgen
data_Ti3VAg2(PO4)6
_symmetry_space_group_name_H-M   'P 1'
_cell_length_a   8.60511101
_cell_length_b   8.60645060
_cell_length_c   8.92413947
_cell_angle_alpha   89.93222341
_cell_angle_beta   118.80212338
_cell_angle_gamma   120.00415825
_symmetry_Int_Tables_number   1
_chemical_formula_structural   Ti3VAg2(PO4)6
_chemical_formula_sum   'Ti3 V1 Ag2 P6 O24'
_cell_volume   475.85464108
_cell_formula_units_Z   1
loop_
 _symmetry_equiv_pos_site_id
 _symmetry_equiv_pos_as_xyz
  1  'x, y, z'
loop_
 _atom_site_type_symbol
 _atom_site_label
 _atom_site_symmetry_multiplicity
 _atom_site_fract_x
 _atom_site_fract_y
 _atom_site_fract_z
 _atom_site_occupancy
  Ti  Ti0  1  0.298445  0.146690  0.436150  1
  Ti  Ti1  1  0.296576  0.643336  0.936321  1
  Ti  Ti2  1  0.714601  0.854343  0.562118  1
  V  V3  1  0.711273  0.350308  0.059949  1
  Ag  Ag4  1  0.025176  0.524911  0.498404  1
  Ag  Ag5  1  0.999120  0.977236  0.999960  1
  P  P6  1  0.505921  0.035354  0.247487  1
  P  P7  1  0.790944  0.532997  0.749118  1
  P  P8  1  0.222205  0.248987  0.750974  1
  P  P9  1  0.789977  0.747344  0.248014  1
  P  P10  1  0.219390  0.463798  0.250024  1
  P  P11  1  0.509124  0.965693  0.751473  1
  O  O12  1  0.643059  0.001677  0.417184  1
  O  O13  1  0.352313  0.062480  0.268662  1
  O  O14  1  0.017942  0.073978  0.725579  1
  O  O15  1  0.591359  0.364424  0.577680  1
  O  O16  1  0.226630  0.496878  0.082768  1
  O  O17  1  0.663145  0.216080  0.228824  1
  O  O18  1  0.418330  0.274100  0.922644  1
  O  O19  1  0.992217  0.557517  0.771980  1
  O  O20  1  0.227694  0.221548  0.583132  1
  O  O21  1  0.798274  0.714402  0.728326  1
  O  O22  1  0.651501  0.133639  0.924185  1
  O  O23  1  0.220445  0.425725  0.772962  1
  O  O24  1  0.793696  0.571031  0.226410  1
  O  O25  1  0.365180  0.863334  0.078945  1
  O  O26  1  0.211347  0.282450  0.270504  1
  O  O27  1  0.786025  0.775616  0.416590  1
  O  O28  1  0.017935  0.440291  0.227162  1
  O  O29  1  0.592614  0.722440  0.078975  1
  O  O30  1  0.350979  0.785477  0.770142  1
  O  O31  1  0.787348  0.502858  0.918245  1
  O  O32  1  0.419564  0.633897  0.420513  1
  O  O33  1  0.994449  0.922103  0.272883  1
  O  O34  1  0.661468  0.936654  0.730336  1
  O  O35  1  0.372336  0.999501  0.582578  1
