# generated using pymatgen
data_Li22AgRh3
_symmetry_space_group_name_H-M   'P 1'
_cell_length_a   8.26082375
_cell_length_b   8.15540465
_cell_length_c   8.26082466
_cell_angle_alpha   109.21292621
_cell_angle_beta   109.72828168
_cell_angle_gamma   109.21291205
_symmetry_Int_Tables_number   1
_chemical_formula_structural   Li22AgRh3
_chemical_formula_sum   'Li22 Ag1 Rh3'
_cell_volume   429.77871878
_cell_formula_units_Z   1
loop_
 _symmetry_equiv_pos_site_id
 _symmetry_equiv_pos_as_xyz
  1  'x, y, z'
loop_
 _atom_site_type_symbol
 _atom_site_label
 _atom_site_symmetry_multiplicity
 _atom_site_fract_x
 _atom_site_fract_y
 _atom_site_fract_z
 _atom_site_occupancy
  Li  Li0  1  0.000000  0.797125  0.000000  1
  Li  Li1  1  0.797590  0.990927  0.000000  1
  Li  Li2  1  0.000000  0.990927  0.797590  1
  Li  Li3  1  0.202410  0.193336  0.202410  1
  Li  Li4  1  0.361104  0.604802  0.361104  1
  Li  Li5  1  0.251288  0.004284  0.649028  1
  Li  Li6  1  0.649028  0.004284  0.251288  1
  Li  Li7  1  0.267052  0.660820  0.000000  1
  Li  Li8  1  0.748712  0.752997  0.397740  1
  Li  Li9  1  0.397740  0.752997  0.748712  1
  Li  Li10  1  0.000000  0.660820  0.267052  1
  Li  Li11  1  0.000000  0.243699  0.638896  1
  Li  Li12  1  0.638896  0.243699  0.000000  1
  Li  Li13  1  0.350972  0.355256  0.602260  1
  Li  Li14  1  0.602260  0.355256  0.350972  1
  Li  Li15  1  0.732948  0.393767  0.732948  1
  Li  Li16  1  0.349301  0.338708  0.000000  1
  Li  Li17  1  0.000000  0.657332  0.658889  1
  Li  Li18  1  0.000000  0.338708  0.349301  1
  Li  Li19  1  0.341111  0.998443  0.341111  1
  Li  Li20  1  0.650699  0.989406  0.650699  1
  Li  Li21  1  0.658889  0.657332  0.000000  1
  Ag  Ag22  1  0.000000  0.348741  0.000000  1
  Rh  Rh23  1  0.338967  0.001767  0.000000  1
  Rh  Rh24  1  0.000000  0.001767  0.338967  1
  Rh  Rh25  1  0.661033  0.662800  0.661033  1
