# generated using pymatgen
data_HoEr3Tm2FeBi2
_symmetry_space_group_name_H-M   'P 1'
_cell_length_a   8.25421306
_cell_length_b   8.24883421
_cell_length_c   4.15245500
_cell_angle_alpha   90.00000000
_cell_angle_beta   90.00000000
_cell_angle_gamma   120.00751661
_symmetry_Int_Tables_number   1
_chemical_formula_structural   HoEr3Tm2FeBi2
_chemical_formula_sum   'Ho1 Er3 Tm2 Fe1 Bi2'
_cell_volume   244.83354285
_cell_formula_units_Z   1
loop_
 _symmetry_equiv_pos_site_id
 _symmetry_equiv_pos_as_xyz
  1  'x, y, z'
loop_
 _atom_site_type_symbol
 _atom_site_label
 _atom_site_symmetry_multiplicity
 _atom_site_fract_x
 _atom_site_fract_y
 _atom_site_fract_z
 _atom_site_occupancy
  Ho  Ho0  1  0.610317  0.999864  0.500000  1
  Er  Er1  1  0.999932  0.611347  0.500000  1
  Er  Er2  1  0.389096  0.389021  0.500000  1
  Er  Er3  1  0.000238  0.230122  0.000000  1
  Tm  Tm4  1  0.229930  0.999931  0.000000  1
  Tm  Tm5  1  0.770305  0.769961  0.000000  1
  Fe  Fe6  1  0.000540  0.999442  0.500000  1
  Bi  Bi7  1  0.333220  0.666579  0.000000  1
  Bi  Bi8  1  0.666421  0.333733  0.000000  1
