# generated using pymatgen
data_Ho2Mn5Fe9(SiC)3
_symmetry_space_group_name_H-M   'P 1'
_cell_length_a   6.42832627
_cell_length_b   6.42832569
_cell_length_c   6.43601916
_cell_angle_alpha   83.34946809
_cell_angle_beta   83.34947139
_cell_angle_gamma   83.40541031
_symmetry_Int_Tables_number   1
_chemical_formula_structural   Ho2Mn5Fe9(SiC)3
_chemical_formula_sum   'Ho2 Mn5 Fe9 Si3 C3'
_cell_volume   261.00042392
_cell_formula_units_Z   1
loop_
 _symmetry_equiv_pos_site_id
 _symmetry_equiv_pos_as_xyz
  1  'x, y, z'
loop_
 _atom_site_type_symbol
 _atom_site_label
 _atom_site_symmetry_multiplicity
 _atom_site_fract_x
 _atom_site_fract_y
 _atom_site_fract_z
 _atom_site_occupancy
  Ho  Ho0  1  0.653588  0.653956  0.653825  1
  Ho  Ho1  1  0.346044  0.346412  0.346175  1
  Mn  Mn2  1  0.717240  0.282760  0.000000  1
  Mn  Mn3  1  0.999876  0.718580  0.283285  1
  Mn  Mn4  1  0.281420  0.000124  0.716715  1
  Mn  Mn5  1  0.000505  0.282398  0.717932  1
  Mn  Mn6  1  0.717602  0.999495  0.282068  1
  Fe  Fe7  1  0.283702  0.716298  0.000000  1
  Fe  Fe8  1  0.339444  0.861651  0.339794  1
  Fe  Fe9  1  0.340597  0.339032  0.861360  1
  Fe  Fe10  1  0.861199  0.340343  0.338497  1
  Fe  Fe11  1  0.659657  0.138801  0.661503  1
  Fe  Fe12  1  0.660968  0.659403  0.138640  1
  Fe  Fe13  1  0.138349  0.660556  0.660206  1
  Fe  Fe14  1  0.903099  0.902904  0.903707  1
  Fe  Fe15  1  0.097096  0.096901  0.096293  1
  Si  Si16  1  0.999210  0.000790  0.500000  1
  Si  Si17  1  0.499129  0.998888  0.000065  1
  Si  Si18  1  0.001112  0.500871  0.999935  1
  C  C19  1  0.499953  0.500047  0.000000  1
  C  C20  1  0.999984  0.499775  0.500391  1
  C  C21  1  0.500225  0.000016  0.499609  1
