# generated using pymatgen
data_Pa2SnF11
_symmetry_space_group_name_H-M   'P 1'
_cell_length_a   8.95931729
_cell_length_b   8.95931631
_cell_length_c   8.95931832
_cell_angle_alpha   122.72411670
_cell_angle_beta   106.74261689
_cell_angle_gamma   99.86532043
_symmetry_Int_Tables_number   1
_chemical_formula_structural   Pa2SnF11
_chemical_formula_sum   'Pa4 Sn2 F22'
_cell_volume   529.47529478
_cell_formula_units_Z   2
loop_
 _symmetry_equiv_pos_site_id
 _symmetry_equiv_pos_as_xyz
  1  'x, y, z'
loop_
 _atom_site_type_symbol
 _atom_site_label
 _atom_site_symmetry_multiplicity
 _atom_site_fract_x
 _atom_site_fract_y
 _atom_site_fract_z
 _atom_site_occupancy
  Pa  Pa0  1  0.681447  0.147206  0.828653  1
  Pa  Pa1  1  0.318553  0.852794  0.171347  1
  Pa  Pa2  1  0.181447  0.352794  0.534242  1
  Pa  Pa3  1  0.818553  0.647206  0.465758  1
  Sn  Sn4  1  0.750000  0.750000  0.000000  1
  Sn  Sn5  1  0.250000  0.250000  0.000000  1
  F  F6  1  0.500000  0.000000  0.500000  1
  F  F7  1  0.000000  0.500000  0.500000  1
  F  F8  1  0.784617  0.371118  0.155736  1
  F  F9  1  0.215383  0.628882  0.844264  1
  F  F10  1  0.284617  0.128882  0.413499  1
  F  F11  1  0.715383  0.871118  0.586501  1
  F  F12  1  0.708181  0.399038  0.842904  1
  F  F13  1  0.556136  0.865277  0.157096  1
  F  F14  1  0.943864  0.100962  0.309143  1
  F  F15  1  0.791819  0.634723  0.690857  1
  F  F16  1  0.291819  0.600962  0.157096  1
  F  F17  1  0.443864  0.134723  0.842904  1
  F  F18  1  0.056136  0.899038  0.690857  1
  F  F19  1  0.208181  0.365277  0.309143  1
  F  F20  1  0.950089  0.233327  0.911163  1
  F  F21  1  0.322164  0.038926  0.088837  1
  F  F22  1  0.177836  0.266673  0.716761  1
  F  F23  1  0.549911  0.461074  0.283239  1
  F  F24  1  0.049911  0.766673  0.088837  1
  F  F25  1  0.677836  0.961074  0.911163  1
  F  F26  1  0.822164  0.733327  0.283239  1
  F  F27  1  0.450089  0.538926  0.716761  1
