# generated using pymatgen
data_NdThSn5Rh3
_symmetry_space_group_name_H-M   'P 1'
_cell_length_a   13.63408924
_cell_length_b   13.63408883
_cell_length_c   7.32827819
_cell_angle_alpha   90.27654228
_cell_angle_beta   89.72345789
_cell_angle_gamma   160.88112909
_symmetry_Int_Tables_number   1
_chemical_formula_structural   NdThSn5Rh3
_chemical_formula_sum   'Nd2 Th2 Sn10 Rh6'
_cell_volume   446.16849538
_cell_formula_units_Z   2
loop_
 _symmetry_equiv_pos_site_id
 _symmetry_equiv_pos_as_xyz
  1  'x, y, z'
loop_
 _atom_site_type_symbol
 _atom_site_label
 _atom_site_symmetry_multiplicity
 _atom_site_fract_x
 _atom_site_fract_y
 _atom_site_fract_z
 _atom_site_occupancy
  Nd  Nd0  1  0.525149  0.474851  0.738186  1
  Nd  Nd1  1  0.826792  0.173208  0.753190  1
  Th  Th2  1  0.474560  0.525440  0.237401  1
  Th  Th3  1  0.171764  0.828236  0.258172  1
  Sn  Sn4  1  0.705372  0.294628  0.552319  1
  Sn  Sn5  1  0.596687  0.403313  0.108064  1
  Sn  Sn6  1  0.048900  0.951100  0.403249  1
  Sn  Sn7  1  0.951916  0.048084  0.894258  1
  Sn  Sn8  1  0.710091  0.289909  0.974326  1
  Sn  Sn9  1  0.289993  0.710007  0.475461  1
  Sn  Sn10  1  0.295800  0.704200  0.049017  1
  Sn  Sn11  1  0.877318  0.122682  0.233028  1
  Sn  Sn12  1  0.120970  0.879030  0.734411  1
  Sn  Sn13  1  0.403213  0.596787  0.616504  1
  Rh  Rh14  1  0.396692  0.603308  0.991109  1
  Rh  Rh15  1  0.775583  0.224417  0.265793  1
  Rh  Rh16  1  0.222616  0.777384  0.766076  1
  Rh  Rh17  1  0.050702  0.949298  0.023719  1
  Rh  Rh18  1  0.607361  0.392639  0.477827  1
  Rh  Rh19  1  0.948518  0.051482  0.511689  1
