# generated using pymatgen
data_SmDy4Co16(P4W)3
_symmetry_space_group_name_H-M   'P 1'
_cell_length_a   12.08460200
_cell_length_b   12.08460208
_cell_length_c   3.70945500
_cell_angle_alpha   90.00000000
_cell_angle_beta   90.00000000
_cell_angle_gamma   119.99999430
_symmetry_Int_Tables_number   1
_chemical_formula_structural   SmDy4Co16(P4W)3
_chemical_formula_sum   'Sm1 Dy4 Co16 P12 W3'
_cell_volume   469.14324775
_cell_formula_units_Z   1
loop_
 _symmetry_equiv_pos_site_id
 _symmetry_equiv_pos_as_xyz
  1  'x, y, z'
loop_
 _atom_site_type_symbol
 _atom_site_label
 _atom_site_symmetry_multiplicity
 _atom_site_fract_x
 _atom_site_fract_y
 _atom_site_fract_z
 _atom_site_occupancy
  Sm  Sm0  1  0.666667  0.333333  0.000000  1
  Dy  Dy1  1  0.333333  0.666667  0.000000  1
  Dy  Dy2  1  0.185175  0.184558  0.500000  1
  Dy  Dy3  1  0.815442  0.000618  0.500000  1
  Dy  Dy4  1  0.999382  0.814825  0.500000  1
  Co  Co5  1  0.824920  0.198502  0.000000  1
  Co  Co6  1  0.801498  0.626419  0.000000  1
  Co  Co7  1  0.373581  0.175080  0.000000  1
  Co  Co8  1  0.197826  0.822492  0.000000  1
  Co  Co9  1  0.624666  0.802174  0.000000  1
  Co  Co10  1  0.177508  0.375334  0.000000  1
  Co  Co11  1  0.644453  0.124738  0.500000  1
  Co  Co12  1  0.875262  0.519715  0.500000  1
  Co  Co13  1  0.480285  0.355547  0.500000  1
  Co  Co14  1  0.127697  0.644119  0.500000  1
  Co  Co15  1  0.516422  0.872303  0.500000  1
  Co  Co16  1  0.355881  0.483578  0.500000  1
  Co  Co17  1  0.718748  0.720434  0.500000  1
  Co  Co18  1  0.279566  0.998314  0.500000  1
  Co  Co19  1  0.001686  0.281252  0.500000  1
  Co  Co20  1  0.000000  0.000000  0.000000  1
  P  P21  1  0.359839  0.359611  0.000000  1
  P  P22  1  0.640389  0.000228  0.000000  1
  P  P23  1  0.999772  0.640161  0.000000  1
  P  P24  1  0.836730  0.313828  0.500000  1
  P  P25  1  0.686172  0.522902  0.500000  1
  P  P26  1  0.477098  0.163270  0.500000  1
  P  P27  1  0.313305  0.833531  0.500000  1
  P  P28  1  0.520226  0.686695  0.500000  1
  P  P29  1  0.166469  0.479774  0.500000  1
  P  P30  1  0.821947  0.823051  0.000000  1
  P  P31  1  0.176949  0.998896  0.000000  1
  P  P32  1  0.001104  0.178053  0.000000  1
  W  W33  1  0.553255  0.554577  0.000000  1
  W  W34  1  0.445423  0.998678  0.000000  1
  W  W35  1  0.001322  0.446745  0.000000  1
