# generated using pymatgen
data_Dy(Ti3Bi2)2
_symmetry_space_group_name_H-M   'P 1'
_cell_length_a   8.49532138
_cell_length_b   8.49532077
_cell_length_c   8.49532062
_cell_angle_alpha   40.45651652
_cell_angle_beta   40.45652232
_cell_angle_gamma   40.45652165
_symmetry_Int_Tables_number   1
_chemical_formula_structural   Dy(Ti3Bi2)2
_chemical_formula_sum   'Dy1 Ti6 Bi4'
_cell_volume   232.79657283
_cell_formula_units_Z   1
loop_
 _symmetry_equiv_pos_site_id
 _symmetry_equiv_pos_as_xyz
  1  'x, y, z'
loop_
 _atom_site_type_symbol
 _atom_site_label
 _atom_site_symmetry_multiplicity
 _atom_site_fract_x
 _atom_site_fract_y
 _atom_site_fract_z
 _atom_site_occupancy
  Dy  Dy0  1  0.000000  0.000000  0.000000  1
  Ti  Ti1  1  0.596752  0.596752  0.121731  1
  Ti  Ti2  1  0.878268  0.403248  0.403248  1
  Ti  Ti3  1  0.403248  0.878268  0.403248  1
  Ti  Ti4  1  0.596752  0.121732  0.596752  1
  Ti  Ti5  1  0.121732  0.596752  0.596752  1
  Ti  Ti6  1  0.403248  0.403248  0.878268  1
  Bi  Bi7  1  0.129278  0.129278  0.129278  1
  Bi  Bi8  1  0.331586  0.331586  0.331586  1
  Bi  Bi9  1  0.668414  0.668414  0.668414  1
  Bi  Bi10  1  0.870722  0.870722  0.870722  1
