# generated using pymatgen
data_Dy5Zr3(As3Pd4)4
_symmetry_space_group_name_H-M   'P 1'
_cell_length_a   13.58821900
_cell_length_b   13.58821852
_cell_length_c   4.09399500
_cell_angle_alpha   90.00000000
_cell_angle_beta   90.00000000
_cell_angle_gamma   120.00000361
_symmetry_Int_Tables_number   1
_chemical_formula_structural   Dy5Zr3(As3Pd4)4
_chemical_formula_sum   'Dy5 Zr3 As12 Pd16'
_cell_volume   654.64067182
_cell_formula_units_Z   1
loop_
 _symmetry_equiv_pos_site_id
 _symmetry_equiv_pos_as_xyz
  1  'x, y, z'
loop_
 _atom_site_type_symbol
 _atom_site_label
 _atom_site_symmetry_multiplicity
 _atom_site_fract_x
 _atom_site_fract_y
 _atom_site_fract_z
 _atom_site_occupancy
  Dy  Dy0  1  0.189651  0.189651  0.500000  1
  Dy  Dy1  1  0.810349  0.000000  0.500000  1
  Dy  Dy2  1  0.000000  0.810349  0.500000  1
  Dy  Dy3  1  0.333333  0.666667  0.000000  1
  Dy  Dy4  1  0.666667  0.333333  0.000000  1
  Zr  Zr5  1  0.556312  0.556312  0.000000  1
  Zr  Zr6  1  0.443688  0.000000  0.000000  1
  Zr  Zr7  1  0.000000  0.443688  0.000000  1
  As  As8  1  0.826177  0.826177  0.000000  1
  As  As9  1  0.173823  0.000000  0.000000  1
  As  As10  1  0.000000  0.173823  0.000000  1
  As  As11  1  0.167098  0.483509  0.500000  1
  As  As12  1  0.516491  0.683589  0.500000  1
  As  As13  1  0.316411  0.832902  0.500000  1
  As  As14  1  0.683589  0.516491  0.500000  1
  As  As15  1  0.832902  0.316411  0.500000  1
  As  As16  1  0.483509  0.167098  0.500000  1
  As  As17  1  0.358091  0.358091  0.000000  1
  As  As18  1  0.641909  0.000000  0.000000  1
  As  As19  1  0.000000  0.641909  0.000000  1
  Pd  Pd20  1  0.721856  0.721856  0.500000  1
  Pd  Pd21  1  0.278144  0.000000  0.500000  1
  Pd  Pd22  1  0.000000  0.278144  0.500000  1
  Pd  Pd23  1  0.181731  0.372581  0.000000  1
  Pd  Pd24  1  0.627419  0.809150  0.000000  1
  Pd  Pd25  1  0.190850  0.818269  0.000000  1
  Pd  Pd26  1  0.809150  0.627419  0.000000  1
  Pd  Pd27  1  0.818269  0.190850  0.000000  1
  Pd  Pd28  1  0.372581  0.181731  0.000000  1
  Pd  Pd29  1  0.357049  0.485767  0.500000  1
  Pd  Pd30  1  0.514233  0.871283  0.500000  1
  Pd  Pd31  1  0.128717  0.642951  0.500000  1
  Pd  Pd32  1  0.871283  0.514233  0.500000  1
  Pd  Pd33  1  0.642951  0.128717  0.500000  1
  Pd  Pd34  1  0.485767  0.357049  0.500000  1
  Pd  Pd35  1  0.000000  0.000000  0.000000  1
