# generated using pymatgen
data_Tb14Tm6Si15Pt
_symmetry_space_group_name_H-M   'P 1'
_cell_length_a   7.37155090
_cell_length_b   7.73083438
_cell_length_c   14.56804800
_cell_angle_alpha   90.08908425
_cell_angle_beta   89.97173899
_cell_angle_gamma   90.00544680
_symmetry_Int_Tables_number   1
_chemical_formula_structural   Tb14Tm6Si15Pt
_chemical_formula_sum   'Tb14 Tm6 Si15 Pt1'
_cell_volume   830.20629443
_cell_formula_units_Z   1
loop_
 _symmetry_equiv_pos_site_id
 _symmetry_equiv_pos_as_xyz
  1  'x, y, z'
loop_
 _atom_site_type_symbol
 _atom_site_label
 _atom_site_symmetry_multiplicity
 _atom_site_fract_x
 _atom_site_fract_y
 _atom_site_fract_z
 _atom_site_occupancy
  Tb  Tb0  1  0.317756  0.819706  0.123325  1
  Tb  Tb1  1  0.816942  0.677491  0.376278  1
  Tb  Tb2  1  0.317790  0.820617  0.376993  1
  Tb  Tb3  1  0.816765  0.676968  0.123430  1
  Tb  Tb4  1  0.679515  0.179355  0.876034  1
  Tb  Tb5  1  0.187542  0.323880  0.624382  1
  Tb  Tb6  1  0.524089  0.681160  0.595183  1
  Tb  Tb7  1  0.025895  0.818110  0.904089  1
  Tb  Tb8  1  0.473508  0.315905  0.097319  1
  Tb  Tb9  1  0.973208  0.182396  0.402536  1
  Tb  Tb10  1  0.474509  0.316564  0.403032  1
  Tb  Tb11  1  0.974119  0.182124  0.097020  1
  Tb  Tb12  1  0.523305  0.681145  0.905024  1
  Tb  Tb13  1  0.026030  0.817562  0.595854  1
  Tm  Tm14  1  0.678660  0.180128  0.624736  1
  Tm  Tm15  1  0.188397  0.325244  0.874977  1
  Tm  Tm16  1  0.844248  0.510650  0.749854  1
  Tm  Tm17  1  0.354961  0.984795  0.750103  1
  Tm  Tm18  1  0.148809  0.485438  0.249887  1
  Tm  Tm19  1  0.648460  0.013259  0.250122  1
  Si  Si20  1  0.648478  0.973176  0.460719  1
  Si  Si21  1  0.147939  0.526489  0.039059  1
  Si  Si22  1  0.349160  0.028384  0.959912  1
  Si  Si23  1  0.850697  0.469988  0.540364  1
  Si  Si24  1  0.354210  0.026813  0.540930  1
  Si  Si25  1  0.855349  0.471199  0.958773  1
  Si  Si26  1  0.646488  0.972191  0.040588  1
  Si  Si27  1  0.145905  0.527295  0.459684  1
  Si  Si28  1  0.981686  0.102270  0.749714  1
  Si  Si29  1  0.519430  0.601312  0.250016  1
  Si  Si30  1  0.019273  0.897024  0.249978  1
  Si  Si31  1  0.739273  0.875044  0.749293  1
  Si  Si32  1  0.227461  0.632878  0.750746  1
  Si  Si33  1  0.268108  0.129484  0.249943  1
  Si  Si34  1  0.768540  0.369818  0.249970  1
  Pt  Pt35  1  0.483497  0.404145  0.750132  1
