# generated using pymatgen
data_Ta2Ti2Mn7Al
_symmetry_space_group_name_H-M   'P 1'
_cell_length_a   4.80037300
_cell_length_b   4.80037365
_cell_length_c   7.92998300
_cell_angle_alpha   90.00000000
_cell_angle_beta   90.00000000
_cell_angle_gamma   119.99998866
_symmetry_Int_Tables_number   1
_chemical_formula_structural   Ta2Ti2Mn7Al
_chemical_formula_sum   'Ta2 Ti2 Mn7 Al1'
_cell_volume   158.25336916
_cell_formula_units_Z   1
loop_
 _symmetry_equiv_pos_site_id
 _symmetry_equiv_pos_as_xyz
  1  'x, y, z'
loop_
 _atom_site_type_symbol
 _atom_site_label
 _atom_site_symmetry_multiplicity
 _atom_site_fract_x
 _atom_site_fract_y
 _atom_site_fract_z
 _atom_site_occupancy
  Ta  Ta0  1  0.666667  0.333333  0.072834  1
  Ta  Ta1  1  0.333333  0.666667  0.927166  1
  Ti  Ti2  1  0.333333  0.666667  0.558109  1
  Ti  Ti3  1  0.666667  0.333333  0.441891  1
  Mn  Mn4  1  0.654983  0.827491  0.256595  1
  Mn  Mn5  1  0.172509  0.827491  0.256595  1
  Mn  Mn6  1  0.172509  0.345017  0.256595  1
  Mn  Mn7  1  0.345017  0.172509  0.743405  1
  Mn  Mn8  1  0.827491  0.172509  0.743405  1
  Mn  Mn9  1  0.827491  0.654983  0.743405  1
  Mn  Mn10  1  0.000000  0.000000  0.500000  1
  Al  Al11  1  0.000000  0.000000  0.000000  1
