# generated using pymatgen
data_Ba6Pu2Fe2O13
_symmetry_space_group_name_H-M   'P 1'
_cell_length_a   11.69901900
_cell_length_b   11.69901897
_cell_length_c   5.96912300
_cell_angle_alpha   90.00000000
_cell_angle_beta   90.00000000
_cell_angle_gamma   150.34434769
_symmetry_Int_Tables_number   1
_chemical_formula_structural   Ba6Pu2Fe2O13
_chemical_formula_sum   'Ba6 Pu2 Fe2 O13'
_cell_volume   404.22855333
_cell_formula_units_Z   1
loop_
 _symmetry_equiv_pos_site_id
 _symmetry_equiv_pos_as_xyz
  1  'x, y, z'
loop_
 _atom_site_type_symbol
 _atom_site_label
 _atom_site_symmetry_multiplicity
 _atom_site_fract_x
 _atom_site_fract_y
 _atom_site_fract_z
 _atom_site_occupancy
  Ba  Ba0  1  0.500000  0.500000  0.000000  1
  Ba  Ba1  1  0.000000  0.000000  0.500000  1
  Ba  Ba2  1  0.186277  0.813723  0.500000  1
  Ba  Ba3  1  0.683118  0.316882  0.000000  1
  Ba  Ba4  1  0.316882  0.683118  0.000000  1
  Ba  Ba5  1  0.813723  0.186277  0.500000  1
  Pu  Pu6  1  0.905129  0.094871  0.000000  1
  Pu  Pu7  1  0.094871  0.905129  0.000000  1
  Fe  Fe8  1  0.391939  0.608061  0.500000  1
  Fe  Fe9  1  0.608061  0.391939  0.500000  1
  O  O10  1  0.656772  0.837944  0.747534  1
  O  O11  1  0.162056  0.343228  0.252466  1
  O  O12  1  0.837944  0.656772  0.747534  1
  O  O13  1  0.343228  0.162056  0.252466  1
  O  O14  1  0.162056  0.343228  0.747534  1
  O  O15  1  0.656772  0.837944  0.252466  1
  O  O16  1  0.343228  0.162056  0.747534  1
  O  O17  1  0.837944  0.656772  0.252466  1
  O  O18  1  0.300442  0.699558  0.500000  1
  O  O19  1  0.809700  0.190300  0.000000  1
  O  O20  1  0.190300  0.809700  0.000000  1
  O  O21  1  0.699558  0.300442  0.500000  1
  O  O22  1  0.000000  0.000000  0.000000  1
