# generated using pymatgen
data_AcTb2Al7Cu2
_symmetry_space_group_name_H-M   'P 1'
_cell_length_a   9.25273107
_cell_length_b   9.25273161
_cell_length_c   9.25272953
_cell_angle_alpha   35.15761373
_cell_angle_beta   35.15761066
_cell_angle_gamma   35.15761299
_symmetry_Int_Tables_number   1
_chemical_formula_structural   AcTb2Al7Cu2
_chemical_formula_sum   'Ac1 Tb2 Al7 Cu2'
_cell_volume   234.58778447
_cell_formula_units_Z   1
loop_
 _symmetry_equiv_pos_site_id
 _symmetry_equiv_pos_as_xyz
  1  'x, y, z'
loop_
 _atom_site_type_symbol
 _atom_site_label
 _atom_site_symmetry_multiplicity
 _atom_site_fract_x
 _atom_site_fract_y
 _atom_site_fract_z
 _atom_site_occupancy
  Ac  Ac0  1  0.000000  0.000000  0.000000  1
  Tb  Tb1  1  0.142616  0.142616  0.142616  1
  Tb  Tb2  1  0.857384  0.857384  0.857384  1
  Al  Al3  1  0.584099  0.584099  0.073773  1
  Al  Al4  1  0.926227  0.415902  0.415901  1
  Al  Al5  1  0.415902  0.926227  0.415901  1
  Al  Al6  1  0.500000  0.500000  0.500000  1
  Al  Al7  1  0.584099  0.073773  0.584099  1
  Al  Al8  1  0.073773  0.584099  0.584099  1
  Al  Al9  1  0.415901  0.415901  0.926227  1
  Cu  Cu10  1  0.335739  0.335739  0.335739  1
  Cu  Cu11  1  0.664261  0.664261  0.664261  1
