# generated using pymatgen
data_Dy2Ni5C3
_symmetry_space_group_name_H-M   'P 1'
_cell_length_a   8.21777500
_cell_length_b   8.21777500
_cell_length_c   3.81784500
_cell_angle_alpha   90.00000000
_cell_angle_beta   90.00000000
_cell_angle_gamma   90.00000000
_symmetry_Int_Tables_number   1
_chemical_formula_structural   Dy2Ni5C3
_chemical_formula_sum   'Dy4 Ni10 C6'
_cell_volume   257.82604405
_cell_formula_units_Z   2
loop_
 _symmetry_equiv_pos_site_id
 _symmetry_equiv_pos_as_xyz
  1  'x, y, z'
loop_
 _atom_site_type_symbol
 _atom_site_label
 _atom_site_symmetry_multiplicity
 _atom_site_fract_x
 _atom_site_fract_y
 _atom_site_fract_z
 _atom_site_occupancy
  Dy  Dy0  1  0.343114  0.843114  0.000000  1
  Dy  Dy1  1  0.656886  0.156886  0.000000  1
  Dy  Dy2  1  0.156886  0.343114  0.000000  1
  Dy  Dy3  1  0.843114  0.656886  0.000000  1
  Ni  Ni4  1  0.577623  0.712389  0.500000  1
  Ni  Ni5  1  0.422377  0.287611  0.500000  1
  Ni  Ni6  1  0.922377  0.212389  0.500000  1
  Ni  Ni7  1  0.077623  0.787611  0.500000  1
  Ni  Ni8  1  0.712389  0.422377  0.500000  1
  Ni  Ni9  1  0.287611  0.577623  0.500000  1
  Ni  Ni10  1  0.212389  0.077623  0.500000  1
  Ni  Ni11  1  0.787611  0.922377  0.500000  1
  Ni  Ni12  1  0.500000  0.500000  0.000000  1
  Ni  Ni13  1  0.000000  0.000000  0.000000  1
  C  C14  1  0.500000  0.500000  0.500000  1
  C  C15  1  0.000000  0.000000  0.500000  1
  C  C16  1  0.058820  0.558820  0.500000  1
  C  C17  1  0.941180  0.441180  0.500000  1
  C  C18  1  0.441180  0.058820  0.500000  1
  C  C19  1  0.558820  0.941180  0.500000  1
