# generated using pymatgen
data_Hf2Pa(Co3P2)3
_symmetry_space_group_name_H-M   'P 1'
_cell_length_a   3.66667700
_cell_length_b   10.33194900
_cell_length_c   11.99592600
_cell_angle_alpha   90.00000000
_cell_angle_beta   90.00000000
_cell_angle_gamma   90.00000000
_symmetry_Int_Tables_number   1
_chemical_formula_structural   Hf2Pa(Co3P2)3
_chemical_formula_sum   'Hf4 Pa2 Co18 P12'
_cell_volume   454.45269807
_cell_formula_units_Z   2
loop_
 _symmetry_equiv_pos_site_id
 _symmetry_equiv_pos_as_xyz
  1  'x, y, z'
loop_
 _atom_site_type_symbol
 _atom_site_label
 _atom_site_symmetry_multiplicity
 _atom_site_fract_x
 _atom_site_fract_y
 _atom_site_fract_z
 _atom_site_occupancy
  Hf  Hf0  1  0.500000  0.817954  0.205792  1
  Hf  Hf1  1  0.500000  0.182046  0.205792  1
  Hf  Hf2  1  0.000000  0.682046  0.794208  1
  Hf  Hf3  1  0.000000  0.317954  0.794208  1
  Pa  Pa4  1  0.000000  0.500000  0.530758  1
  Pa  Pa5  1  0.500000  0.000000  0.469242  1
  Co  Co6  1  0.500000  0.500000  0.159527  1
  Co  Co7  1  0.000000  0.000000  0.840473  1
  Co  Co8  1  0.500000  0.500000  0.700939  1
  Co  Co9  1  0.000000  0.000000  0.299061  1
  Co  Co10  1  0.000000  0.500000  0.983279  1
  Co  Co11  1  0.500000  0.000000  0.016721  1
  Co  Co12  1  0.500000  0.333331  0.992660  1
  Co  Co13  1  0.500000  0.666669  0.992660  1
  Co  Co14  1  0.000000  0.166669  0.007340  1
  Co  Co15  1  0.000000  0.833331  0.007340  1
  Co  Co16  1  0.500000  0.301254  0.430561  1
  Co  Co17  1  0.500000  0.698746  0.430561  1
  Co  Co18  1  0.000000  0.198746  0.569439  1
  Co  Co19  1  0.000000  0.801254  0.569439  1
  Co  Co20  1  0.500000  0.877027  0.713361  1
  Co  Co21  1  0.500000  0.122973  0.713361  1
  Co  Co22  1  0.000000  0.622973  0.286639  1
  Co  Co23  1  0.000000  0.377027  0.286639  1
  P  P24  1  0.500000  0.500000  0.877265  1
  P  P25  1  0.000000  0.000000  0.122735  1
  P  P26  1  0.500000  0.500000  0.344076  1
  P  P27  1  0.000000  0.000000  0.655924  1
  P  P28  1  0.500000  0.309183  0.620732  1
  P  P29  1  0.500000  0.690817  0.620732  1
  P  P30  1  0.000000  0.190817  0.379268  1
  P  P31  1  0.000000  0.809183  0.379268  1
  P  P32  1  0.500000  0.845027  0.892719  1
  P  P33  1  0.500000  0.154973  0.892719  1
  P  P34  1  0.000000  0.654973  0.107281  1
  P  P35  1  0.000000  0.345027  0.107281  1
