# generated using pymatgen
data_Ca6NpOsO12
_symmetry_space_group_name_H-M   'P 1'
_cell_length_a   6.67341784
_cell_length_b   6.67341878
_cell_length_c   6.67341961
_cell_angle_alpha   92.27267001
_cell_angle_beta   92.27268070
_cell_angle_gamma   92.27268133
_symmetry_Int_Tables_number   1
_chemical_formula_structural   Ca6NpOsO12
_chemical_formula_sum   'Ca6 Np1 Os1 O12'
_cell_volume   296.47704541
_cell_formula_units_Z   1
loop_
 _symmetry_equiv_pos_site_id
 _symmetry_equiv_pos_as_xyz
  1  'x, y, z'
loop_
 _atom_site_type_symbol
 _atom_site_label
 _atom_site_symmetry_multiplicity
 _atom_site_fract_x
 _atom_site_fract_y
 _atom_site_fract_z
 _atom_site_occupancy
  Ca  Ca0  1  0.930541  0.437797  0.740418  1
  Ca  Ca1  1  0.740418  0.930541  0.437797  1
  Ca  Ca2  1  0.562203  0.259582  0.069459  1
  Ca  Ca3  1  0.437797  0.740418  0.930541  1
  Ca  Ca4  1  0.259582  0.069459  0.562203  1
  Ca  Ca5  1  0.069459  0.562203  0.259582  1
  Np  Np6  1  0.000000  0.000000  0.000000  1
  Os  Os7  1  0.500000  0.500000  0.500000  1
  O  O8  1  0.929307  0.295150  0.065412  1
  O  O9  1  0.934588  0.070693  0.704850  1
  O  O10  1  0.780240  0.578910  0.454157  1
  O  O11  1  0.704850  0.934588  0.070693  1
  O  O12  1  0.578910  0.454157  0.780240  1
  O  O13  1  0.545843  0.219760  0.421090  1
  O  O14  1  0.454157  0.780240  0.578910  1
  O  O15  1  0.421090  0.545843  0.219760  1
  O  O16  1  0.295150  0.065412  0.929307  1
  O  O17  1  0.219760  0.421090  0.545843  1
  O  O18  1  0.065412  0.929307  0.295150  1
  O  O19  1  0.070693  0.704850  0.934588  1
