# generated using pymatgen
data_Dy4Sc16Bi11Sb
_symmetry_space_group_name_H-M   'P 1'
_cell_length_a   7.87206428
_cell_length_b   9.05211500
_cell_length_c   11.54461540
_cell_angle_alpha   90.00000000
_cell_angle_beta   90.03029299
_cell_angle_gamma   90.00000000
_symmetry_Int_Tables_number   1
_chemical_formula_structural   Dy4Sc16Bi11Sb
_chemical_formula_sum   'Dy4 Sc16 Bi11 Sb1'
_cell_volume   822.65568422
_cell_formula_units_Z   1
loop_
 _symmetry_equiv_pos_site_id
 _symmetry_equiv_pos_as_xyz
  1  'x, y, z'
loop_
 _atom_site_type_symbol
 _atom_site_label
 _atom_site_symmetry_multiplicity
 _atom_site_fract_x
 _atom_site_fract_y
 _atom_site_fract_z
 _atom_site_occupancy
  Dy  Dy0  1  0.315727  0.250000  0.218970  1
  Dy  Dy1  1  0.815665  0.250000  0.281115  1
  Dy  Dy2  1  0.681095  0.750000  0.783325  1
  Dy  Dy3  1  0.185412  0.750000  0.720358  1
  Sc  Sc4  1  0.349143  0.750000  0.217536  1
  Sc  Sc5  1  0.848417  0.750000  0.279301  1
  Sc  Sc6  1  0.651845  0.250000  0.779309  1
  Sc  Sc7  1  0.151676  0.250000  0.720806  1
  Sc  Sc8  1  0.690217  0.569104  0.061218  1
  Sc  Sc9  1  0.192969  0.932769  0.437771  1
  Sc  Sc10  1  0.308112  0.063453  0.938188  1
  Sc  Sc11  1  0.807046  0.433024  0.562178  1
  Sc  Sc12  1  0.308112  0.436547  0.938188  1
  Sc  Sc13  1  0.807046  0.066976  0.562178  1
  Sc  Sc14  1  0.690217  0.930896  0.061218  1
  Sc  Sc15  1  0.192969  0.567231  0.437771  1
  Sc  Sc16  1  0.481989  0.250000  0.488809  1
  Sc  Sc17  1  0.982240  0.250000  0.011085  1
  Sc  Sc18  1  0.518120  0.750000  0.511227  1
  Sc  Sc19  1  0.021827  0.750000  0.988627  1
  Bi  Bi20  1  0.902394  0.750000  0.533316  1
  Bi  Bi21  1  0.597888  0.250000  0.033097  1
  Bi  Bi22  1  0.097954  0.250000  0.466954  1
  Bi  Bi23  1  0.563821  0.989636  0.328364  1
  Bi  Bi24  1  0.063766  0.510159  0.171542  1
  Bi  Bi25  1  0.436068  0.489845  0.671562  1
  Bi  Bi26  1  0.935933  0.009999  0.828417  1
  Bi  Bi27  1  0.436068  0.010155  0.671562  1
  Bi  Bi28  1  0.935933  0.490001  0.828417  1
  Bi  Bi29  1  0.563821  0.510364  0.328364  1
  Bi  Bi30  1  0.063766  0.989841  0.171542  1
  Sb  Sb31  1  0.402742  0.750000  0.967686  1
