# generated using pymatgen
data_Zr6Al16Cu4Ru3
_symmetry_space_group_name_H-M   'P 1'
_cell_length_a   8.72011488
_cell_length_b   8.63426256
_cell_length_c   8.72011552
_cell_angle_alpha   60.32514975
_cell_angle_beta   59.34970288
_cell_angle_gamma   60.32514782
_symmetry_Int_Tables_number   1
_chemical_formula_structural   Zr6Al16Cu4Ru3
_chemical_formula_sum   'Zr6 Al16 Cu4 Ru3'
_cell_volume   464.16385482
_cell_formula_units_Z   1
loop_
 _symmetry_equiv_pos_site_id
 _symmetry_equiv_pos_as_xyz
  1  'x, y, z'
loop_
 _atom_site_type_symbol
 _atom_site_label
 _atom_site_symmetry_multiplicity
 _atom_site_fract_x
 _atom_site_fract_y
 _atom_site_fract_z
 _atom_site_occupancy
  Zr  Zr0  1  0.190214  0.809786  0.809786  1
  Zr  Zr1  1  0.809786  0.190214  0.190214  1
  Zr  Zr2  1  0.797110  0.202890  0.797110  1
  Zr  Zr3  1  0.809786  0.809786  0.190214  1
  Zr  Zr4  1  0.202890  0.797110  0.202890  1
  Zr  Zr5  1  0.190214  0.190214  0.809786  1
  Al  Al6  1  0.833887  0.835739  0.833887  1
  Al  Al7  1  0.835739  0.833887  0.496486  1
  Al  Al8  1  0.496486  0.833887  0.835739  1
  Al  Al9  1  0.833887  0.496486  0.833887  1
  Al  Al10  1  0.166113  0.164261  0.166113  1
  Al  Al11  1  0.164261  0.166113  0.503514  1
  Al  Al12  1  0.166113  0.503514  0.166113  1
  Al  Al13  1  0.503514  0.166113  0.164261  1
  Al  Al14  1  0.614775  0.627161  0.614775  1
  Al  Al15  1  0.627161  0.614775  0.143289  1
  Al  Al16  1  0.143289  0.614775  0.627161  1
  Al  Al17  1  0.614775  0.143289  0.614775  1
  Al  Al18  1  0.385225  0.372839  0.385225  1
  Al  Al19  1  0.372839  0.385225  0.856711  1
  Al  Al20  1  0.385225  0.856711  0.385225  1
  Al  Al21  1  0.856711  0.385225  0.372839  1
  Cu  Cu22  1  0.000000  0.500000  0.500000  1
  Cu  Cu23  1  0.500000  0.000000  0.000000  1
  Cu  Cu24  1  0.500000  0.500000  0.000000  1
  Cu  Cu25  1  0.000000  0.000000  0.500000  1
  Ru  Ru26  1  0.500000  0.000000  0.500000  1
  Ru  Ru27  1  0.000000  0.500000  0.000000  1
  Ru  Ru28  1  0.500000  0.500000  0.500000  1
