# generated using pymatgen
data_Zr5InSnBi2
_symmetry_space_group_name_H-M   'P 1'
_cell_length_a   8.94658565
_cell_length_b   8.94658498
_cell_length_c   6.00745700
_cell_angle_alpha   90.00000000
_cell_angle_beta   90.00000000
_cell_angle_gamma   119.90651555
_symmetry_Int_Tables_number   1
_chemical_formula_structural   Zr5InSnBi2
_chemical_formula_sum   'Zr10 In2 Sn2 Bi4'
_cell_volume   416.81588182
_cell_formula_units_Z   2
loop_
 _symmetry_equiv_pos_site_id
 _symmetry_equiv_pos_as_xyz
  1  'x, y, z'
loop_
 _atom_site_type_symbol
 _atom_site_label
 _atom_site_symmetry_multiplicity
 _atom_site_fract_x
 _atom_site_fract_y
 _atom_site_fract_z
 _atom_site_occupancy
  Zr  Zr0  1  0.667330  0.330367  0.003540  1
  Zr  Zr1  1  0.330367  0.667330  0.003540  1
  Zr  Zr2  1  0.330367  0.667330  0.496460  1
  Zr  Zr3  1  0.667330  0.330367  0.496460  1
  Zr  Zr4  1  0.720624  0.720624  0.750000  1
  Zr  Zr5  1  0.281027  0.999939  0.750000  1
  Zr  Zr6  1  0.999939  0.281027  0.750000  1
  Zr  Zr7  1  0.280210  0.280210  0.250000  1
  Zr  Zr8  1  0.718360  0.004723  0.250000  1
  Zr  Zr9  1  0.004723  0.718360  0.250000  1
  In  In10  1  0.000347  0.000347  0.001549  1
  In  In11  1  0.000347  0.000347  0.498451  1
  Sn  Sn12  1  0.381786  0.000386  0.250000  1
  Sn  Sn13  1  0.000386  0.381786  0.250000  1
  Bi  Bi14  1  0.383618  0.383618  0.750000  1
  Bi  Bi15  1  0.615611  0.999563  0.750000  1
  Bi  Bi16  1  0.999563  0.615611  0.750000  1
  Bi  Bi17  1  0.618066  0.618066  0.250000  1
