# generated using pymatgen
data_Ti3CSe
_symmetry_space_group_name_H-M   'P 1'
_cell_length_a   5.53409708
_cell_length_b   5.53409760
_cell_length_c   8.07746800
_cell_angle_alpha   90.00000000
_cell_angle_beta   90.00000000
_cell_angle_gamma   145.84059784
_symmetry_Int_Tables_number   1
_chemical_formula_structural   Ti3CSe
_chemical_formula_sum   'Ti6 C2 Se2'
_cell_volume   138.90453502
_cell_formula_units_Z   2
loop_
 _symmetry_equiv_pos_site_id
 _symmetry_equiv_pos_as_xyz
  1  'x, y, z'
loop_
 _atom_site_type_symbol
 _atom_site_label
 _atom_site_symmetry_multiplicity
 _atom_site_fract_x
 _atom_site_fract_y
 _atom_site_fract_z
 _atom_site_occupancy
  Ti  Ti0  1  0.872566  0.127431  0.053126  1
  Ti  Ti1  1  0.553974  0.446023  0.250000  1
  Ti  Ti2  1  0.872566  0.127431  0.446874  1
  Ti  Ti3  1  0.127431  0.872566  0.553126  1
  Ti  Ti4  1  0.446023  0.553974  0.750000  1
  Ti  Ti5  1  0.127431  0.872566  0.946874  1
  C  C6  1  0.499999  0.499999  0.000000  1
  C  C7  1  0.499999  0.499999  0.500000  1
  Se  Se8  1  0.243812  0.756186  0.250000  1
  Se  Se9  1  0.756186  0.243812  0.750000  1
