# generated using pymatgen
data_Pr3(PdAu2)2
_symmetry_space_group_name_H-M   'P 1'
_cell_length_a   7.78001700
_cell_length_b   7.78001743
_cell_length_c   3.94268200
_cell_angle_alpha   90.00000000
_cell_angle_beta   90.00000000
_cell_angle_gamma   120.00001091
_symmetry_Int_Tables_number   1
_chemical_formula_structural   Pr3(PdAu2)2
_chemical_formula_sum   'Pr3 Pd2 Au4'
_cell_volume   206.67286042
_cell_formula_units_Z   1
loop_
 _symmetry_equiv_pos_site_id
 _symmetry_equiv_pos_as_xyz
  1  'x, y, z'
loop_
 _atom_site_type_symbol
 _atom_site_label
 _atom_site_symmetry_multiplicity
 _atom_site_fract_x
 _atom_site_fract_y
 _atom_site_fract_z
 _atom_site_occupancy
  Pr  Pr0  1  0.378890  0.388888  0.500000  1
  Pr  Pr1  1  0.611112  0.990002  0.500000  1
  Pr  Pr2  1  0.009998  0.621110  0.500000  1
  Pd  Pd3  1  0.333333  0.666667  0.000000  1
  Pd  Pd4  1  0.000000  0.000000  0.500000  1
  Au  Au5  1  0.732068  0.735008  0.000000  1
  Au  Au6  1  0.264992  0.997060  0.000000  1
  Au  Au7  1  0.002940  0.267932  0.000000  1
  Au  Au8  1  0.666667  0.333333  0.000000  1
