# generated using pymatgen
data_Tb5Tm3Re2(B12Ru)2
_symmetry_space_group_name_H-M   'P 1'
_cell_length_a   3.66430900
_cell_length_b   9.14089706
_cell_length_c   11.54105020
_cell_angle_alpha   89.82870583
_cell_angle_beta   90.00000000
_cell_angle_gamma   90.00000000
_symmetry_Int_Tables_number   1
_chemical_formula_structural   Tb5Tm3Re2(B12Ru)2
_chemical_formula_sum   'Tb5 Tm3 Re2 B24 Ru2'
_cell_volume   386.56657253
_cell_formula_units_Z   1
loop_
 _symmetry_equiv_pos_site_id
 _symmetry_equiv_pos_as_xyz
  1  'x, y, z'
loop_
 _atom_site_type_symbol
 _atom_site_label
 _atom_site_symmetry_multiplicity
 _atom_site_fract_x
 _atom_site_fract_y
 _atom_site_fract_z
 _atom_site_occupancy
  Tb  Tb0  1  0.000000  0.324482  0.415481  1
  Tb  Tb1  1  0.000000  0.675415  0.584933  1
  Tb  Tb2  1  0.000000  0.820669  0.087159  1
  Tb  Tb3  1  0.000000  0.179256  0.912443  1
  Tb  Tb4  1  0.000000  0.942905  0.371101  1
  Tm  Tm5  1  0.000000  0.057396  0.630076  1
  Tm  Tm6  1  0.000000  0.442880  0.128965  1
  Tm  Tm7  1  0.000000  0.557153  0.870586  1
  Re  Re8  1  0.000000  0.637415  0.319507  1
  Re  Re9  1  0.000000  0.361363  0.680625  1
  B  B10  1  0.500000  0.552480  0.432665  1
  B  B11  1  0.500000  0.446382  0.567645  1
  B  B12  1  0.500000  0.054665  0.066928  1
  B  B13  1  0.500000  0.945711  0.932430  1
  B  B14  1  0.500000  0.747927  0.418507  1
  B  B15  1  0.500000  0.250427  0.581893  1
  B  B16  1  0.500000  0.250003  0.081198  1
  B  B17  1  0.500000  0.750439  0.918413  1
  B  B18  1  0.500000  0.790501  0.264796  1
  B  B19  1  0.500000  0.208125  0.734969  1
  B  B20  1  0.500000  0.291601  0.233556  1
  B  B21  1  0.500000  0.709060  0.766132  1
  B  B22  1  0.500000  0.629916  0.184288  1
  B  B23  1  0.500000  0.369576  0.815412  1
  B  B24  1  0.500000  0.131844  0.313510  1
  B  B25  1  0.500000  0.869631  0.686079  1
  B  B26  1  0.500000  0.984080  0.211431  1
  B  B27  1  0.500000  0.016783  0.787684  1
  B  B28  1  0.500000  0.481898  0.286544  1
  B  B29  1  0.500000  0.517685  0.713278  1
  B  B30  1  0.500000  0.601037  0.027552  1
  B  B31  1  0.500000  0.398945  0.972020  1
  B  B32  1  0.500000  0.103339  0.472989  1
  B  B33  1  0.500000  0.898172  0.529845  1
  Ru  Ru34  1  0.000000  0.139190  0.178313  1
  Ru  Ru35  1  0.000000  0.861649  0.821048  1
