# generated using pymatgen
data_TbTmBeSi4Ni
_symmetry_space_group_name_H-M   'P 1'
_cell_length_a   8.46345602
_cell_length_b   8.46345559
_cell_length_c   3.90221800
_cell_angle_alpha   90.00000000
_cell_angle_beta   90.00000000
_cell_angle_gamma   152.70893968
_symmetry_Int_Tables_number   1
_chemical_formula_structural   TbTmBeSi4Ni
_chemical_formula_sum   'Tb1 Tm1 Be1 Si4 Ni1'
_cell_volume   128.16122637
_cell_formula_units_Z   1
loop_
 _symmetry_equiv_pos_site_id
 _symmetry_equiv_pos_as_xyz
  1  'x, y, z'
loop_
 _atom_site_type_symbol
 _atom_site_label
 _atom_site_symmetry_multiplicity
 _atom_site_fract_x
 _atom_site_fract_y
 _atom_site_fract_z
 _atom_site_occupancy
  Tb  Tb0  1  0.393833  0.606167  0.750000  1
  Tm  Tm1  1  0.601942  0.398058  0.250000  1
  Be  Be2  1  0.827349  0.172651  0.250000  1
  Si  Si3  1  0.961791  0.038209  0.250000  1
  Si  Si4  1  0.040613  0.959387  0.750000  1
  Si  Si5  1  0.249841  0.750159  0.250000  1
  Si  Si6  1  0.747864  0.252136  0.750000  1
  Ni  Ni7  1  0.176767  0.823233  0.750000  1
