# generated using pymatgen
data_Nd2Ga2CoNi5B2
_symmetry_space_group_name_H-M   'P 1'
_cell_length_a   5.28561700
_cell_length_b   5.25730534
_cell_length_c   6.76288500
_cell_angle_alpha   90.00000000
_cell_angle_beta   90.00000000
_cell_angle_gamma   120.17829528
_symmetry_Int_Tables_number   1
_chemical_formula_structural   Nd2Ga2CoNi5B2
_chemical_formula_sum   'Nd2 Ga2 Co1 Ni5 B2'
_cell_volume   162.45701002
_cell_formula_units_Z   1
loop_
 _symmetry_equiv_pos_site_id
 _symmetry_equiv_pos_as_xyz
  1  'x, y, z'
loop_
 _atom_site_type_symbol
 _atom_site_label
 _atom_site_symmetry_multiplicity
 _atom_site_fract_x
 _atom_site_fract_y
 _atom_site_fract_z
 _atom_site_occupancy
  Nd  Nd0  1  0.000000  0.000000  0.501493  1
  Nd  Nd1  1  0.000000  0.000000  0.006926  1
  Ga  Ga2  1  0.335870  0.671741  0.999189  1
  Ga  Ga3  1  0.664130  0.328259  0.999189  1
  Co  Co4  1  0.500000  0.000000  0.299230  1
  Ni  Ni5  1  0.500000  0.500000  0.296149  1
  Ni  Ni6  1  0.000000  0.500000  0.296149  1
  Ni  Ni7  1  0.500000  0.000000  0.699225  1
  Ni  Ni8  1  0.500000  0.500000  0.703060  1
  Ni  Ni9  1  0.000000  0.500000  0.703060  1
  B  B10  1  0.665182  0.330362  0.498165  1
  B  B11  1  0.334818  0.669638  0.498165  1
