# generated using pymatgen
data_Ho3ErCrOsC4
_symmetry_space_group_name_H-M   'P 1'
_cell_length_a   5.04089800
_cell_length_b   6.45762214
_cell_length_c   9.73263418
_cell_angle_alpha   90.34040877
_cell_angle_beta   90.00000000
_cell_angle_gamma   90.00000000
_symmetry_Int_Tables_number   1
_chemical_formula_structural   Ho3ErCrOsC4
_chemical_formula_sum   'Ho6 Er2 Cr2 Os2 C8'
_cell_volume   316.81320396
_cell_formula_units_Z   2
loop_
 _symmetry_equiv_pos_site_id
 _symmetry_equiv_pos_as_xyz
  1  'x, y, z'
loop_
 _atom_site_type_symbol
 _atom_site_label
 _atom_site_symmetry_multiplicity
 _atom_site_fract_x
 _atom_site_fract_y
 _atom_site_fract_z
 _atom_site_occupancy
  Ho  Ho0  1  0.750000  0.822033  0.054128  1
  Ho  Ho1  1  0.250000  0.177967  0.945872  1
  Ho  Ho2  1  0.250000  0.531485  0.216100  1
  Ho  Ho3  1  0.750000  0.468515  0.783900  1
  Ho  Ho4  1  0.750000  0.972614  0.715262  1
  Ho  Ho5  1  0.250000  0.027386  0.284738  1
  Er  Er6  1  0.250000  0.681254  0.558052  1
  Er  Er7  1  0.750000  0.318746  0.441948  1
  Cr  Cr8  1  0.250000  0.724926  0.861315  1
  Cr  Cr9  1  0.750000  0.275074  0.138685  1
  Os  Os10  1  0.750000  0.776097  0.363340  1
  Os  Os11  1  0.250000  0.223903  0.636660  1
  C  C12  1  0.250000  0.463256  0.763280  1
  C  C13  1  0.750000  0.536744  0.236720  1
  C  C14  1  0.750000  0.047093  0.256868  1
  C  C15  1  0.250000  0.952907  0.743132  1
  C  C16  1  0.250000  0.813909  0.039774  1
  C  C17  1  0.750000  0.186091  0.960226  1
  C  C18  1  0.750000  0.676981  0.549165  1
  C  C19  1  0.250000  0.323019  0.450835  1
