# generated using pymatgen
data_Ta8Ti2Al5
_symmetry_space_group_name_H-M   'P 1'
_cell_length_a   9.90946700
_cell_length_b   9.90946700
_cell_length_c   5.23904100
_cell_angle_alpha   90.00000000
_cell_angle_beta   90.00000000
_cell_angle_gamma   90.00000000
_symmetry_Int_Tables_number   1
_chemical_formula_structural   Ta8Ti2Al5
_chemical_formula_sum   'Ta16 Ti4 Al10'
_cell_volume   514.46091838
_cell_formula_units_Z   2
loop_
 _symmetry_equiv_pos_site_id
 _symmetry_equiv_pos_as_xyz
  1  'x, y, z'
loop_
 _atom_site_type_symbol
 _atom_site_label
 _atom_site_symmetry_multiplicity
 _atom_site_fract_x
 _atom_site_fract_y
 _atom_site_fract_z
 _atom_site_occupancy
  Ta  Ta0  1  0.131172  0.463402  0.000000  1
  Ta  Ta1  1  0.963402  0.368828  0.500000  1
  Ta  Ta2  1  0.036598  0.631172  0.500000  1
  Ta  Ta3  1  0.868828  0.536598  0.000000  1
  Ta  Ta4  1  0.368828  0.963402  0.500000  1
  Ta  Ta5  1  0.631172  0.036598  0.500000  1
  Ta  Ta6  1  0.463402  0.131172  0.000000  1
  Ta  Ta7  1  0.536598  0.868828  0.000000  1
  Ta  Ta8  1  0.181180  0.181180  0.251717  1
  Ta  Ta9  1  0.681180  0.318820  0.751717  1
  Ta  Ta10  1  0.318820  0.681180  0.751717  1
  Ta  Ta11  1  0.818820  0.818820  0.251717  1
  Ta  Ta12  1  0.318820  0.681180  0.248283  1
  Ta  Ta13  1  0.681180  0.318820  0.248283  1
  Ta  Ta14  1  0.181180  0.181180  0.748283  1
  Ta  Ta15  1  0.818820  0.818820  0.748283  1
  Ti  Ti16  1  0.399303  0.399303  0.000000  1
  Ti  Ti17  1  0.899303  0.100697  0.500000  1
  Ti  Ti18  1  0.100697  0.899303  0.500000  1
  Ti  Ti19  1  0.600697  0.600697  0.000000  1
  Al  Al20  1  0.000000  0.000000  0.000000  1
  Al  Al21  1  0.500000  0.500000  0.500000  1
  Al  Al22  1  0.264017  0.933180  0.000000  1
  Al  Al23  1  0.433180  0.235983  0.500000  1
  Al  Al24  1  0.566820  0.764017  0.500000  1
  Al  Al25  1  0.735983  0.066820  0.000000  1
  Al  Al26  1  0.235983  0.433180  0.500000  1
  Al  Al27  1  0.764017  0.566820  0.500000  1
  Al  Al28  1  0.933180  0.264017  0.000000  1
  Al  Al29  1  0.066820  0.735983  0.000000  1
