# generated using pymatgen
data_TbNd5Ta2O14
_symmetry_space_group_name_H-M   'P 1'
_cell_length_a   6.67009539
_cell_length_b   6.65082263
_cell_length_c   7.70016100
_cell_angle_alpha   90.00000000
_cell_angle_beta   90.00000000
_cell_angle_gamma   108.92243530
_symmetry_Int_Tables_number   1
_chemical_formula_structural   TbNd5Ta2O14
_chemical_formula_sum   'Tb1 Nd5 Ta2 O14'
_cell_volume   323.13148599
_cell_formula_units_Z   1
loop_
 _symmetry_equiv_pos_site_id
 _symmetry_equiv_pos_as_xyz
  1  'x, y, z'
loop_
 _atom_site_type_symbol
 _atom_site_label
 _atom_site_symmetry_multiplicity
 _atom_site_fract_x
 _atom_site_fract_y
 _atom_site_fract_z
 _atom_site_occupancy
  Tb  Tb0  1  0.003607  0.532289  0.250000  1
  Nd  Nd1  1  0.532077  0.526444  0.499144  1
  Nd  Nd2  1  0.532077  0.526444  0.000856  1
  Nd  Nd3  1  0.005876  0.462231  0.750000  1
  Nd  Nd4  1  0.533674  0.003048  0.750000  1
  Nd  Nd5  1  0.464106  0.003844  0.250000  1
  Ta  Ta6  1  0.001336  0.001420  0.498126  1
  Ta  Ta7  1  0.001336  0.001420  0.001874  1
  O  O8  1  0.944464  0.056648  0.750000  1
  O  O9  1  0.058171  0.935860  0.250000  1
  O  O10  1  0.355764  0.634574  0.250000  1
  O  O11  1  0.640771  0.367954  0.750000  1
  O  O12  1  0.371887  0.631181  0.750000  1
  O  O13  1  0.641861  0.376733  0.250000  1
  O  O14  1  0.309183  0.068911  0.969756  1
  O  O15  1  0.679436  0.919070  0.472924  1
  O  O16  1  0.309183  0.068911  0.530244  1
  O  O17  1  0.679436  0.919070  0.027076  1
  O  O18  1  0.038689  0.301344  0.460109  1
  O  O19  1  0.929186  0.680630  0.975266  1
  O  O20  1  0.929186  0.680630  0.524734  1
  O  O21  1  0.038689  0.301344  0.039891  1
