# generated using pymatgen
data_As6OsPt
_symmetry_space_group_name_H-M   'P 1'
_cell_length_a   7.47357900
_cell_length_b   7.47357909
_cell_length_c   8.63740506
_cell_angle_alpha   54.75899983
_cell_angle_beta   54.75900366
_cell_angle_gamma   70.56337904
_symmetry_Int_Tables_number   1
_chemical_formula_structural   As6OsPt
_chemical_formula_sum   'As12 Os2 Pt2'
_cell_volume   321.81027957
_cell_formula_units_Z   2
loop_
 _symmetry_equiv_pos_site_id
 _symmetry_equiv_pos_as_xyz
  1  'x, y, z'
loop_
 _atom_site_type_symbol
 _atom_site_label
 _atom_site_symmetry_multiplicity
 _atom_site_fract_x
 _atom_site_fract_y
 _atom_site_fract_z
 _atom_site_occupancy
  As  As0  1  0.147915  0.147915  0.193231  1
  As  As1  1  0.852085  0.852085  0.806769  1
  As  As2  1  0.856510  0.856510  0.498308  1
  As  As3  1  0.143490  0.143490  0.501692  1
  As  As4  1  0.796986  0.505346  0.344087  1
  As  As5  1  0.203014  0.494654  0.655913  1
  As  As6  1  0.505346  0.796986  0.344087  1
  As  As7  1  0.494654  0.203014  0.655913  1
  As  As8  1  0.646967  0.344172  0.859070  1
  As  As9  1  0.353033  0.655828  0.140930  1
  As  As10  1  0.655828  0.353033  0.140930  1
  As  As11  1  0.344172  0.646967  0.859070  1
  Os  Os12  1  0.000000  0.500000  0.000000  1
  Os  Os13  1  0.500000  0.000000  0.000000  1
  Pt  Pt14  1  0.000000  0.500000  0.500000  1
  Pt  Pt15  1  0.500000  0.000000  0.500000  1
