# generated using pymatgen
data_MnCo(S2O7)2
_symmetry_space_group_name_H-M   'P 1'
_cell_length_a   5.03030386
_cell_length_b   7.18132830
_cell_length_c   8.49477290
_cell_angle_alpha   92.41155355
_cell_angle_beta   94.06746357
_cell_angle_gamma   106.23707547
_symmetry_Int_Tables_number   1
_chemical_formula_structural   MnCo(S2O7)2
_chemical_formula_sum   'Mn1 Co1 S4 O14'
_cell_volume   293.27056272
_cell_formula_units_Z   1
loop_
 _symmetry_equiv_pos_site_id
 _symmetry_equiv_pos_as_xyz
  1  'x, y, z'
loop_
 _atom_site_type_symbol
 _atom_site_label
 _atom_site_symmetry_multiplicity
 _atom_site_fract_x
 _atom_site_fract_y
 _atom_site_fract_z
 _atom_site_occupancy
  Mn  Mn0  1  0.500000  0.000000  0.500000  1
  Co  Co1  1  0.000000  0.500000  0.000000  1
  S  S2  1  0.505401  0.642398  0.772198  1
  S  S3  1  0.494599  0.357602  0.227802  1
  S  S4  1  0.132873  0.254709  0.692169  1
  S  S5  1  0.867127  0.745291  0.307831  1
  O  O6  1  0.728986  0.559313  0.820165  1
  O  O7  1  0.271014  0.440687  0.179835  1
  O  O8  1  0.340538  0.678226  0.899023  1
  O  O9  1  0.659462  0.321774  0.100977  1
  O  O10  1  0.591922  0.804617  0.673242  1
  O  O11  1  0.408078  0.195383  0.326758  1
  O  O12  1  0.290016  0.478446  0.644670  1
  O  O13  1  0.709984  0.521554  0.355330  1
  O  O14  1  0.909608  0.198907  0.566055  1
  O  O15  1  0.090392  0.801093  0.433945  1
  O  O16  1  0.337291  0.146203  0.685313  1
  O  O17  1  0.662709  0.853797  0.314687  1
  O  O18  1  0.046519  0.271859  0.851292  1
  O  O19  1  0.953481  0.728141  0.148708  1
