# generated using pymatgen
data_Tm3Lu5Re3B24Rh
_symmetry_space_group_name_H-M   'P 1'
_cell_length_a   3.62342700
_cell_length_b   9.06598404
_cell_length_c   11.42991863
_cell_angle_alpha   90.14182915
_cell_angle_beta   90.00000000
_cell_angle_gamma   90.00000000
_symmetry_Int_Tables_number   1
_chemical_formula_structural   Tm3Lu5Re3B24Rh
_chemical_formula_sum   'Tm3 Lu5 Re3 B24 Rh1'
_cell_volume   375.47089215
_cell_formula_units_Z   1
loop_
 _symmetry_equiv_pos_site_id
 _symmetry_equiv_pos_as_xyz
  1  'x, y, z'
loop_
 _atom_site_type_symbol
 _atom_site_label
 _atom_site_symmetry_multiplicity
 _atom_site_fract_x
 _atom_site_fract_y
 _atom_site_fract_z
 _atom_site_occupancy
  Tm  Tm0  1  0.000000  0.317649  0.415671  1
  Tm  Tm1  1  0.000000  0.678843  0.591129  1
  Tm  Tm2  1  0.000000  0.826269  0.081332  1
  Lu  Lu3  1  0.000000  0.177732  0.912839  1
  Lu  Lu4  1  0.000000  0.944021  0.370513  1
  Lu  Lu5  1  0.000000  0.055728  0.628971  1
  Lu  Lu6  1  0.000000  0.441269  0.128180  1
  Lu  Lu7  1  0.000000  0.556366  0.871766  1
  Re  Re8  1  0.000000  0.361900  0.678425  1
  Re  Re9  1  0.000000  0.138664  0.180067  1
  Re  Re10  1  0.000000  0.861466  0.820684  1
  B  B11  1  0.500000  0.554227  0.433989  1
  B  B12  1  0.500000  0.446613  0.566165  1
  B  B13  1  0.500000  0.053473  0.065963  1
  B  B14  1  0.500000  0.947306  0.933200  1
  B  B15  1  0.500000  0.750384  0.420515  1
  B  B16  1  0.500000  0.249011  0.580727  1
  B  B17  1  0.500000  0.250546  0.080359  1
  B  B18  1  0.500000  0.750239  0.919358  1
  B  B19  1  0.500000  0.792147  0.264409  1
  B  B20  1  0.500000  0.207184  0.735125  1
  B  B21  1  0.500000  0.293069  0.235619  1
  B  B22  1  0.500000  0.707194  0.765337  1
  B  B23  1  0.500000  0.631293  0.183012  1
  B  B24  1  0.500000  0.369616  0.815572  1
  B  B25  1  0.500000  0.130448  0.315898  1
  B  B26  1  0.500000  0.869142  0.684445  1
  B  B27  1  0.500000  0.981750  0.212246  1
  B  B28  1  0.500000  0.018720  0.787081  1
  B  B29  1  0.500000  0.482393  0.287549  1
  B  B30  1  0.500000  0.519034  0.712776  1
  B  B31  1  0.500000  0.602128  0.028755  1
  B  B32  1  0.500000  0.398578  0.972427  1
  B  B33  1  0.500000  0.100031  0.471839  1
  B  B34  1  0.500000  0.896924  0.527634  1
  Rh  Rh35  1  0.000000  0.638646  0.320424  1
