# generated using pymatgen
data_TlBr5
_symmetry_space_group_name_H-M   'P 1'
_cell_length_a   8.53178600
_cell_length_b   9.38112100
_cell_length_c   14.26424700
_cell_angle_alpha   90.00000000
_cell_angle_beta   90.00000000
_cell_angle_gamma   90.00000000
_symmetry_Int_Tables_number   1
_chemical_formula_structural   TlBr5
_chemical_formula_sum   'Tl4 Br20'
_cell_volume   1141.67776192
_cell_formula_units_Z   4
loop_
 _symmetry_equiv_pos_site_id
 _symmetry_equiv_pos_as_xyz
  1  'x, y, z'
loop_
 _atom_site_type_symbol
 _atom_site_label
 _atom_site_symmetry_multiplicity
 _atom_site_fract_x
 _atom_site_fract_y
 _atom_site_fract_z
 _atom_site_occupancy
  Tl  Tl0  1  0.404829  0.401741  0.126939  1
  Tl  Tl1  1  0.595171  0.901741  0.373061  1
  Tl  Tl2  1  0.095170  0.598259  0.626939  1
  Tl  Tl3  1  0.904829  0.098259  0.873061  1
  Br  Br4  1  0.489104  0.637708  0.016955  1
  Br  Br5  1  0.354226  0.195925  0.015129  1
  Br  Br6  1  0.116095  0.514504  0.177981  1
  Br  Br7  1  0.414811  0.925794  0.232161  1
  Br  Br8  1  0.585190  0.425793  0.267839  1
  Br  Br9  1  0.883905  0.014503  0.322019  1
  Br  Br10  1  0.645773  0.695926  0.484871  1
  Br  Br11  1  0.510897  0.137707  0.483045  1
  Br  Br12  1  0.010897  0.362292  0.516955  1
  Br  Br13  1  0.145774  0.804075  0.515129  1
  Br  Br14  1  0.383906  0.485496  0.677981  1
  Br  Br15  1  0.085189  0.074206  0.732161  1
  Br  Br16  1  0.914811  0.574207  0.767839  1
  Br  Br17  1  0.616095  0.985497  0.822020  1
  Br  Br18  1  0.854227  0.304074  0.984871  1
  Br  Br19  1  0.989104  0.862293  0.983045  1
  Br  Br20  1  0.928518  0.940046  0.150582  1
  Br  Br21  1  0.071481  0.440047  0.349418  1
  Br  Br22  1  0.571482  0.059954  0.650582  1
  Br  Br23  1  0.428519  0.559953  0.849418  1
