# generated using pymatgen
data_Li2Ta3CrN6
_symmetry_space_group_name_H-M   'P 1'
_cell_length_a   5.11587065
_cell_length_b   5.11586968
_cell_length_c   10.27031200
_cell_angle_alpha   90.00000000
_cell_angle_beta   90.00000000
_cell_angle_gamma   119.80187839
_symmetry_Int_Tables_number   1
_chemical_formula_structural   Li2Ta3CrN6
_chemical_formula_sum   'Li4 Ta6 Cr2 N12'
_cell_volume   233.24742995
_cell_formula_units_Z   2
loop_
 _symmetry_equiv_pos_site_id
 _symmetry_equiv_pos_as_xyz
  1  'x, y, z'
loop_
 _atom_site_type_symbol
 _atom_site_label
 _atom_site_symmetry_multiplicity
 _atom_site_fract_x
 _atom_site_fract_y
 _atom_site_fract_z
 _atom_site_occupancy
  Li  Li0  1  0.332911  0.667089  0.000000  1
  Li  Li1  1  0.332911  0.667089  0.500000  1
  Li  Li2  1  0.668797  0.331203  0.500000  1
  Li  Li3  1  0.668797  0.331203  0.000000  1
  Ta  Ta4  1  0.349591  0.346069  0.750000  1
  Ta  Ta5  1  0.998521  0.001479  0.500000  1
  Ta  Ta6  1  0.998521  0.001479  0.000000  1
  Ta  Ta7  1  0.653931  0.650409  0.250000  1
  Ta  Ta8  1  0.345505  0.997035  0.250000  1
  Ta  Ta9  1  0.002965  0.654495  0.750000  1
  Cr  Cr10  1  0.000694  0.350541  0.250000  1
  Cr  Cr11  1  0.649459  0.999306  0.750000  1
  N  N12  1  0.675847  0.680279  0.626163  1
  N  N13  1  0.675847  0.680279  0.873837  1
  N  N14  1  0.319721  0.324153  0.126163  1
  N  N15  1  0.319721  0.324153  0.373837  1
  N  N16  1  0.327533  0.000338  0.874327  1
  N  N17  1  0.327533  0.000338  0.625673  1
  N  N18  1  0.999662  0.672467  0.374327  1
  N  N19  1  0.999662  0.672467  0.125673  1
  N  N20  1  0.680029  0.004094  0.126077  1
  N  N21  1  0.680029  0.004094  0.373923  1
  N  N22  1  0.995906  0.319971  0.873923  1
  N  N23  1  0.995906  0.319971  0.626077  1
