# generated using pymatgen
data_Ho4LuHf5(Si5Ir2)4
_symmetry_space_group_name_H-M   'P 1'
_cell_length_a   12.46690900
_cell_length_b   12.46690900
_cell_length_c   4.15873700
_cell_angle_alpha   90.00000000
_cell_angle_beta   90.00000000
_cell_angle_gamma   90.00000000
_symmetry_Int_Tables_number   1
_chemical_formula_structural   Ho4LuHf5(Si5Ir2)4
_chemical_formula_sum   'Ho4 Lu1 Hf5 Si20 Ir8'
_cell_volume   646.36679097
_cell_formula_units_Z   1
loop_
 _symmetry_equiv_pos_site_id
 _symmetry_equiv_pos_as_xyz
  1  'x, y, z'
loop_
 _atom_site_type_symbol
 _atom_site_label
 _atom_site_symmetry_multiplicity
 _atom_site_fract_x
 _atom_site_fract_y
 _atom_site_fract_z
 _atom_site_occupancy
  Ho  Ho0  1  0.884310  0.384485  0.500000  1
  Ho  Ho1  1  0.115690  0.615515  0.500000  1
  Ho  Ho2  1  0.384485  0.115690  0.500000  1
  Ho  Ho3  1  0.615515  0.884310  0.500000  1
  Lu  Lu4  1  0.000000  0.000000  0.000000  1
  Hf  Hf5  1  0.500000  0.500000  0.000000  1
  Hf  Hf6  1  0.673917  0.175068  0.500000  1
  Hf  Hf7  1  0.326083  0.824932  0.500000  1
  Hf  Hf8  1  0.175068  0.326083  0.500000  1
  Hf  Hf9  1  0.824932  0.673917  0.500000  1
  Si  Si10  1  0.566027  0.067515  0.000000  1
  Si  Si11  1  0.433973  0.932485  0.000000  1
  Si  Si12  1  0.067515  0.433973  0.000000  1
  Si  Si13  1  0.932485  0.566027  0.000000  1
  Si  Si14  1  0.665359  0.701584  0.000000  1
  Si  Si15  1  0.334641  0.298416  0.000000  1
  Si  Si16  1  0.163779  0.800533  0.000000  1
  Si  Si17  1  0.836221  0.199467  0.000000  1
  Si  Si18  1  0.298416  0.665359  0.000000  1
  Si  Si19  1  0.701584  0.334641  0.000000  1
  Si  Si20  1  0.199467  0.163779  0.000000  1
  Si  Si21  1  0.800533  0.836221  0.000000  1
  Si  Si22  1  0.650960  0.508297  0.500000  1
  Si  Si23  1  0.349040  0.491703  0.500000  1
  Si  Si24  1  0.154674  0.992410  0.500000  1
  Si  Si25  1  0.845326  0.007590  0.500000  1
  Si  Si26  1  0.491703  0.650960  0.500000  1
  Si  Si27  1  0.508297  0.349040  0.500000  1
  Si  Si28  1  0.007590  0.154674  0.500000  1
  Si  Si29  1  0.992410  0.845326  0.500000  1
  Ir  Ir30  1  0.742130  0.521798  0.000000  1
  Ir  Ir31  1  0.257870  0.478202  0.000000  1
  Ir  Ir32  1  0.245647  0.977908  0.000000  1
  Ir  Ir33  1  0.754353  0.022092  0.000000  1
  Ir  Ir34  1  0.478202  0.742130  0.000000  1
  Ir  Ir35  1  0.521798  0.257870  0.000000  1
  Ir  Ir36  1  0.022092  0.245647  0.000000  1
  Ir  Ir37  1  0.977908  0.754353  0.000000  1
