# generated using pymatgen
data_Hf4Zr6Al2Sn5Bi
_symmetry_space_group_name_H-M   'P 1'
_cell_length_a   8.75435400
_cell_length_b   8.75480907
_cell_length_c   5.87916700
_cell_angle_alpha   90.00000000
_cell_angle_beta   90.00000000
_cell_angle_gamma   119.99827299
_symmetry_Int_Tables_number   1
_chemical_formula_structural   Hf4Zr6Al2Sn5Bi
_chemical_formula_sum   'Hf4 Zr6 Al2 Sn5 Bi1'
_cell_volume   390.23369782
_cell_formula_units_Z   1
loop_
 _symmetry_equiv_pos_site_id
 _symmetry_equiv_pos_as_xyz
  1  'x, y, z'
loop_
 _atom_site_type_symbol
 _atom_site_label
 _atom_site_symmetry_multiplicity
 _atom_site_fract_x
 _atom_site_fract_y
 _atom_site_fract_z
 _atom_site_occupancy
  Hf  Hf0  1  0.330725  0.663443  0.998382  1
  Hf  Hf1  1  0.667282  0.336557  0.501618  1
  Hf  Hf2  1  0.667282  0.336557  0.998382  1
  Hf  Hf3  1  0.330725  0.663443  0.501618  1
  Zr  Zr4  1  0.267512  0.000000  0.250000  1
  Zr  Zr5  1  0.271019  0.270977  0.750000  1
  Zr  Zr6  1  0.000042  0.729023  0.750000  1
  Zr  Zr7  1  0.004728  0.272840  0.250000  1
  Zr  Zr8  1  0.731887  0.727160  0.250000  1
  Zr  Zr9  1  0.730037  0.000000  0.750000  1
  Al  Al10  1  0.000008  0.000000  0.998806  1
  Al  Al11  1  0.000008  0.000000  0.501194  1
  Sn  Sn12  1  0.613564  0.614234  0.750000  1
  Sn  Sn13  1  0.999331  0.385766  0.750000  1
  Sn  Sn14  1  0.000601  0.613135  0.250000  1
  Sn  Sn15  1  0.387465  0.386865  0.250000  1
  Sn  Sn16  1  0.385122  0.000000  0.750000  1
  Bi  Bi17  1  0.612663  0.000000  0.250000  1
