# generated using pymatgen
data_SmDy5(RuBr3)2
_symmetry_space_group_name_H-M   'P 1'
_cell_length_a   4.11525400
_cell_length_b   8.53131827
_cell_length_c   11.96551170
_cell_angle_alpha   86.76372841
_cell_angle_beta   90.00000000
_cell_angle_gamma   90.00000000
_symmetry_Int_Tables_number   1
_chemical_formula_structural   SmDy5(RuBr3)2
_chemical_formula_sum   'Sm1 Dy5 Ru2 Br6'
_cell_volume   419.42171446
_cell_formula_units_Z   1
loop_
 _symmetry_equiv_pos_site_id
 _symmetry_equiv_pos_as_xyz
  1  'x, y, z'
loop_
 _atom_site_type_symbol
 _atom_site_label
 _atom_site_symmetry_multiplicity
 _atom_site_fract_x
 _atom_site_fract_y
 _atom_site_fract_z
 _atom_site_occupancy
  Sm  Sm0  1  0.750000  0.114528  0.171537  1
  Dy  Dy1  1  0.250000  0.273436  0.397734  1
  Dy  Dy2  1  0.750000  0.725255  0.603500  1
  Dy  Dy3  1  0.250000  0.861874  0.364698  1
  Dy  Dy4  1  0.750000  0.136598  0.633625  1
  Dy  Dy5  1  0.250000  0.887363  0.823341  1
  Ru  Ru6  1  0.250000  0.940333  0.594272  1
  Ru  Ru7  1  0.750000  0.057794  0.404591  1
  Br  Br8  1  0.250000  0.425670  0.632241  1
  Br  Br9  1  0.750000  0.571063  0.373408  1
  Br  Br10  1  0.250000  0.875080  0.103815  1
  Br  Br11  1  0.750000  0.118821  0.892793  1
  Br  Br12  1  0.250000  0.363195  0.146059  1
  Br  Br13  1  0.750000  0.648988  0.858388  1
