# generated using pymatgen
data_DyEr7(B6Rh)4
_symmetry_space_group_name_H-M   'P 1'
_cell_length_a   3.63877600
_cell_length_b   9.14681500
_cell_length_c   11.47284201
_cell_angle_alpha   90.00366190
_cell_angle_beta   90.00000000
_cell_angle_gamma   90.00000000
_symmetry_Int_Tables_number   1
_chemical_formula_structural   DyEr7(B6Rh)4
_chemical_formula_sum   'Dy1 Er7 B24 Rh4'
_cell_volume   381.85301950
_cell_formula_units_Z   1
loop_
 _symmetry_equiv_pos_site_id
 _symmetry_equiv_pos_as_xyz
  1  'x, y, z'
loop_
 _atom_site_type_symbol
 _atom_site_label
 _atom_site_symmetry_multiplicity
 _atom_site_fract_x
 _atom_site_fract_y
 _atom_site_fract_z
 _atom_site_occupancy
  Dy  Dy0  1  0.500000  0.322475  0.413468  1
  Er  Er1  1  0.500000  0.677748  0.586541  1
  Er  Er2  1  0.500000  0.177715  0.913497  1
  Er  Er3  1  0.500000  0.822257  0.086456  1
  Er  Er4  1  0.500000  0.444553  0.126517  1
  Er  Er5  1  0.500000  0.555544  0.873351  1
  Er  Er6  1  0.500000  0.055369  0.626868  1
  Er  Er7  1  0.500000  0.944314  0.373298  1
  B  B8  1  0.000000  0.109493  0.470258  1
  B  B9  1  0.000000  0.889813  0.530000  1
  B  B10  1  0.000000  0.389554  0.969899  1
  B  B11  1  0.000000  0.610553  0.029975  1
  B  B12  1  0.000000  0.133000  0.315825  1
  B  B13  1  0.000000  0.866541  0.683986  1
  B  B14  1  0.000000  0.366582  0.816118  1
  B  B15  1  0.000000  0.633526  0.183786  1
  B  B16  1  0.000000  0.053872  0.065099  1
  B  B17  1  0.000000  0.946080  0.934789  1
  B  B18  1  0.000000  0.446402  0.565651  1
  B  B19  1  0.000000  0.554393  0.434805  1
  B  B20  1  0.000000  0.483314  0.286425  1
  B  B21  1  0.000000  0.517357  0.713276  1
  B  B22  1  0.000000  0.017143  0.786899  1
  B  B23  1  0.000000  0.982650  0.213130  1
  B  B24  1  0.000000  0.249420  0.078900  1
  B  B25  1  0.000000  0.750574  0.920928  1
  B  B26  1  0.000000  0.250319  0.579616  1
  B  B27  1  0.000000  0.749541  0.420992  1
  B  B28  1  0.000000  0.294397  0.235336  1
  B  B29  1  0.000000  0.705405  0.764206  1
  B  B30  1  0.000000  0.205301  0.736037  1
  B  B31  1  0.000000  0.794644  0.264044  1
  Rh  Rh32  1  0.500000  0.139481  0.178409  1
  Rh  Rh33  1  0.500000  0.860299  0.821461  1
  Rh  Rh34  1  0.500000  0.360272  0.678996  1
  Rh  Rh35  1  0.500000  0.640098  0.321162  1
