# generated using pymatgen
data_Er2Ni7MoP7Ru4
_symmetry_space_group_name_H-M   'P 1'
_cell_length_a   9.29710650
_cell_length_b   9.30128107
_cell_length_c   3.71068000
_cell_angle_alpha   90.00000000
_cell_angle_beta   90.00000000
_cell_angle_gamma   120.67731510
_symmetry_Int_Tables_number   1
_chemical_formula_structural   Er2Ni7MoP7Ru4
_chemical_formula_sum   'Er2 Ni7 Mo1 P7 Ru4'
_cell_volume   275.97514489
_cell_formula_units_Z   1
loop_
 _symmetry_equiv_pos_site_id
 _symmetry_equiv_pos_as_xyz
  1  'x, y, z'
loop_
 _atom_site_type_symbol
 _atom_site_label
 _atom_site_symmetry_multiplicity
 _atom_site_fract_x
 _atom_site_fract_y
 _atom_site_fract_z
 _atom_site_occupancy
  Er  Er0  1  0.995066  0.995064  0.000000  1
  Er  Er1  1  0.331765  0.667630  0.500000  1
  Ni  Ni2  1  0.096706  0.398689  0.000000  1
  Ni  Ni3  1  0.301156  0.904295  0.000000  1
  Ni  Ni4  1  0.601580  0.697903  0.000000  1
  Ni  Ni5  1  0.823696  0.608556  0.000000  1
  Ni  Ni6  1  0.786393  0.172636  0.000000  1
  Ni  Ni7  1  0.387994  0.216972  0.000000  1
  Ni  Ni8  1  0.585864  0.457248  0.500000  1
  Mo  Mo9  1  0.547916  0.126472  0.500000  1
  P  P10  1  0.078599  0.628229  0.000000  1
  P  P11  1  0.548672  0.917416  0.000000  1
  P  P12  1  0.369501  0.453850  0.000000  1
  P  P13  1  0.778776  0.732124  0.500000  1
  P  P14  1  0.956019  0.216364  0.500000  1
  P  P15  1  0.260530  0.048525  0.500000  1
  P  P16  1  0.667243  0.334451  0.000000  1
  Ru  Ru17  1  0.055200  0.769136  0.500000  1
  Ru  Ru18  1  0.713693  0.943422  0.500000  1
  Ru  Ru19  1  0.236695  0.292876  0.500000  1
  Ru  Ru20  1  0.876933  0.418138  0.500000  1
