# generated using pymatgen
data_Tb2DyEr5(WO6)4
_symmetry_space_group_name_H-M   'P 1'
_cell_length_a   5.38721200
_cell_length_b   7.69176129
_cell_length_c   11.43175250
_cell_angle_alpha   75.42461474
_cell_angle_beta   90.00000000
_cell_angle_gamma   90.00000000
_symmetry_Int_Tables_number   1
_chemical_formula_structural   Tb2DyEr5(WO6)4
_chemical_formula_sum   'Tb2 Dy1 Er5 W4 O24'
_cell_volume   458.45434280
_cell_formula_units_Z   1
loop_
 _symmetry_equiv_pos_site_id
 _symmetry_equiv_pos_as_xyz
  1  'x, y, z'
loop_
 _atom_site_type_symbol
 _atom_site_label
 _atom_site_symmetry_multiplicity
 _atom_site_fract_x
 _atom_site_fract_y
 _atom_site_fract_z
 _atom_site_occupancy
  Tb  Tb0  1  0.683679  0.500000  0.250000  1
  Tb  Tb1  1  0.315654  0.500000  0.750000  1
  Dy  Dy2  1  0.741507  0.000000  0.250000  1
  Er  Er3  1  0.183874  0.205590  0.422346  1
  Er  Er4  1  0.183874  0.794410  0.077654  1
  Er  Er5  1  0.816587  0.794571  0.578410  1
  Er  Er6  1  0.816587  0.205429  0.921590  1
  Er  Er7  1  0.259113  0.000000  0.750000  1
  W  W8  1  0.255630  0.276075  0.114564  1
  W  W9  1  0.255630  0.723925  0.385436  1
  W  W10  1  0.744174  0.724912  0.884842  1
  W  W11  1  0.744174  0.275088  0.615158  1
  O  O12  1  0.456686  0.208673  0.273530  1
  O  O13  1  0.456686  0.791327  0.226470  1
  O  O14  1  0.541717  0.792930  0.726209  1
  O  O15  1  0.541717  0.207070  0.773791  1
  O  O16  1  0.045775  0.059701  0.103197  1
  O  O17  1  0.045775  0.940299  0.396803  1
  O  O18  1  0.956357  0.940745  0.895457  1
  O  O19  1  0.956357  0.059255  0.604543  1
  O  O20  1  0.981299  0.287517  0.229143  1
  O  O21  1  0.981299  0.712483  0.270857  1
  O  O22  1  0.018708  0.713281  0.770420  1
  O  O23  1  0.018708  0.286719  0.729580  1
  O  O24  1  0.850077  0.363808  0.451835  1
  O  O25  1  0.850077  0.636192  0.048165  1
  O  O26  1  0.149048  0.634892  0.548708  1
  O  O27  1  0.149048  0.365108  0.951292  1
  O  O28  1  0.642262  0.509786  0.614370  1
  O  O29  1  0.642262  0.490214  0.885630  1
  O  O30  1  0.358205  0.489179  0.386308  1
  O  O31  1  0.358205  0.510821  0.113692  1
  O  O32  1  0.463568  0.153393  0.569539  1
  O  O33  1  0.463568  0.846607  0.930461  1
  O  O34  1  0.536059  0.845016  0.431453  1
  O  O35  1  0.536059  0.154984  0.068547  1
