# generated using pymatgen
data_Dy3HoGa12Os
_symmetry_space_group_name_H-M   'P 1'
_cell_length_a   7.47363031
_cell_length_b   7.47363173
_cell_length_c   7.47362985
_cell_angle_alpha   109.42481142
_cell_angle_beta   109.42481324
_cell_angle_gamma   109.42480292
_symmetry_Int_Tables_number   1
_chemical_formula_structural   Dy3HoGa12Os
_chemical_formula_sum   'Dy3 Ho1 Ga12 Os1'
_cell_volume   321.89707184
_cell_formula_units_Z   1
loop_
 _symmetry_equiv_pos_site_id
 _symmetry_equiv_pos_as_xyz
  1  'x, y, z'
loop_
 _atom_site_type_symbol
 _atom_site_label
 _atom_site_symmetry_multiplicity
 _atom_site_fract_x
 _atom_site_fract_y
 _atom_site_fract_z
 _atom_site_occupancy
  Dy  Dy0  1  0.000000  0.000000  0.500000  1
  Dy  Dy1  1  0.000000  0.500000  0.000000  1
  Dy  Dy2  1  0.500000  0.000000  0.000000  1
  Ho  Ho3  1  0.500000  0.500000  0.500000  1
  Ga  Ga4  1  0.749641  0.250359  0.500000  1
  Ga  Ga5  1  0.749641  0.500000  0.250359  1
  Ga  Ga6  1  0.500000  0.250359  0.749641  1
  Ga  Ga7  1  0.250359  0.500000  0.749641  1
  Ga  Ga8  1  0.250359  0.749641  0.500000  1
  Ga  Ga9  1  0.500000  0.749641  0.250359  1
  Ga  Ga10  1  0.708447  0.708447  0.999402  1
  Ga  Ga11  1  0.291553  0.000598  0.291553  1
  Ga  Ga12  1  0.000598  0.291553  0.291553  1
  Ga  Ga13  1  0.291553  0.291553  0.000598  1
  Ga  Ga14  1  0.708447  0.999402  0.708447  1
  Ga  Ga15  1  0.999402  0.708447  0.708447  1
  Os  Os16  1  0.000000  0.000000  0.000000  1
