# generated using pymatgen
data_Hf3Ti3ZnSb2
_symmetry_space_group_name_H-M   'P 1'
_cell_length_a   7.32819900
_cell_length_b   7.32819832
_cell_length_c   3.80947700
_cell_angle_alpha   90.00000000
_cell_angle_beta   90.00000000
_cell_angle_gamma   119.99999856
_symmetry_Int_Tables_number   1
_chemical_formula_structural   Hf3Ti3ZnSb2
_chemical_formula_sum   'Hf3 Ti3 Zn1 Sb2'
_cell_volume   177.17011291
_cell_formula_units_Z   1
loop_
 _symmetry_equiv_pos_site_id
 _symmetry_equiv_pos_as_xyz
  1  'x, y, z'
loop_
 _atom_site_type_symbol
 _atom_site_label
 _atom_site_symmetry_multiplicity
 _atom_site_fract_x
 _atom_site_fract_y
 _atom_site_fract_z
 _atom_site_occupancy
  Hf  Hf0  1  0.604484  0.000000  0.000000  1
  Hf  Hf1  1  0.395516  0.395516  0.000000  1
  Hf  Hf2  1  0.000000  0.604484  0.000000  1
  Ti  Ti3  1  0.236812  0.000000  0.500000  1
  Ti  Ti4  1  0.000000  0.236812  0.500000  1
  Ti  Ti5  1  0.763188  0.763189  0.500000  1
  Zn  Zn6  1  0.000000  0.000000  0.000000  1
  Sb  Sb7  1  0.666667  0.333333  0.500000  1
  Sb  Sb8  1  0.333333  0.666667  0.500000  1
