# generated using pymatgen
data_HoPaPdPtPb
_symmetry_space_group_name_H-M   'P 1'
_cell_length_a   7.93105872
_cell_length_b   7.91060275
_cell_length_c   3.63784000
_cell_angle_alpha   90.00000000
_cell_angle_beta   90.00000000
_cell_angle_gamma   90.07577923
_symmetry_Int_Tables_number   1
_chemical_formula_structural   HoPaPdPtPb
_chemical_formula_sum   'Ho2 Pa2 Pd2 Pt2 Pb2'
_cell_volume   228.23589889
_cell_formula_units_Z   2
loop_
 _symmetry_equiv_pos_site_id
 _symmetry_equiv_pos_as_xyz
  1  'x, y, z'
loop_
 _atom_site_type_symbol
 _atom_site_label
 _atom_site_symmetry_multiplicity
 _atom_site_fract_x
 _atom_site_fract_y
 _atom_site_fract_z
 _atom_site_occupancy
  Ho  Ho0  1  0.833231  0.671998  0.500000  1
  Ho  Ho1  1  0.322526  0.828491  0.500000  1
  Pa  Pa2  1  0.663440  0.169786  0.500000  1
  Pa  Pa3  1  0.174463  0.331746  0.500000  1
  Pd  Pd4  1  0.629093  0.882604  0.000000  1
  Pd  Pd5  1  0.867882  0.360094  0.000000  1
  Pt  Pt6  1  0.375958  0.136455  0.000000  1
  Pt  Pt7  1  0.126251  0.609441  0.000000  1
  Pb  Pb8  1  0.998810  0.993467  0.000000  1
  Pb  Pb9  1  0.508347  0.515917  0.000000  1
