# generated using pymatgen
data_Tm8B24Mo3Ru
_symmetry_space_group_name_H-M   'P 1'
_cell_length_a   3.60995300
_cell_length_b   9.18492018
_cell_length_c   11.56900672
_cell_angle_alpha   89.92123263
_cell_angle_beta   90.00000000
_cell_angle_gamma   90.00000000
_symmetry_Int_Tables_number   1
_chemical_formula_structural   Tm8B24Mo3Ru
_chemical_formula_sum   'Tm8 B24 Mo3 Ru1'
_cell_volume   383.59469915
_cell_formula_units_Z   1
loop_
 _symmetry_equiv_pos_site_id
 _symmetry_equiv_pos_as_xyz
  1  'x, y, z'
loop_
 _atom_site_type_symbol
 _atom_site_label
 _atom_site_symmetry_multiplicity
 _atom_site_fract_x
 _atom_site_fract_y
 _atom_site_fract_z
 _atom_site_occupancy
  Tm  Tm0  1  0.000000  0.321689  0.413618  1
  Tm  Tm1  1  0.000000  0.677911  0.586157  1
  Tm  Tm2  1  0.000000  0.821456  0.085781  1
  Tm  Tm3  1  0.000000  0.177186  0.913901  1
  Tm  Tm4  1  0.000000  0.943957  0.372524  1
  Tm  Tm5  1  0.000000  0.055046  0.630078  1
  Tm  Tm6  1  0.000000  0.444541  0.127450  1
  Tm  Tm7  1  0.000000  0.558716  0.870729  1
  B  B8  1  0.500000  0.550959  0.434734  1
  B  B9  1  0.500000  0.447803  0.565666  1
  B  B10  1  0.500000  0.050955  0.063840  1
  B  B11  1  0.500000  0.945569  0.932120  1
  B  B12  1  0.500000  0.751489  0.422185  1
  B  B13  1  0.500000  0.248418  0.578833  1
  B  B14  1  0.500000  0.252067  0.078018  1
  B  B15  1  0.500000  0.751861  0.918901  1
  B  B16  1  0.500000  0.795286  0.264671  1
  B  B17  1  0.500000  0.204308  0.736813  1
  B  B18  1  0.500000  0.294415  0.235103  1
  B  B19  1  0.500000  0.708888  0.765432  1
  B  B20  1  0.500000  0.632027  0.182926  1
  B  B21  1  0.500000  0.369127  0.817655  1
  B  B22  1  0.500000  0.130887  0.316284  1
  B  B23  1  0.500000  0.868619  0.685702  1
  B  B24  1  0.500000  0.978704  0.212311  1
  B  B25  1  0.500000  0.016507  0.788289  1
  B  B26  1  0.500000  0.478679  0.287168  1
  B  B27  1  0.500000  0.522000  0.712442  1
  B  B28  1  0.500000  0.603433  0.027355  1
  B  B29  1  0.500000  0.399998  0.971273  1
  B  B30  1  0.500000  0.101278  0.472543  1
  B  B31  1  0.500000  0.897858  0.529884  1
  Mo  Mo32  1  0.000000  0.639560  0.320259  1
  Mo  Mo33  1  0.000000  0.360099  0.681149  1
  Mo  Mo34  1  0.000000  0.138184  0.178077  1
  Ru  Ru35  1  0.000000  0.860518  0.820126  1
