# generated using pymatgen
data_HfZrCo12Si4P3
_symmetry_space_group_name_H-M   'P 1'
_cell_length_a   8.99758900
_cell_length_b   8.99758869
_cell_length_c   3.54237600
_cell_angle_alpha   90.00000000
_cell_angle_beta   90.00000000
_cell_angle_gamma   120.00000482
_symmetry_Int_Tables_number   1
_chemical_formula_structural   HfZrCo12Si4P3
_chemical_formula_sum   'Hf1 Zr1 Co12 Si4 P3'
_cell_volume   248.35765744
_cell_formula_units_Z   1
loop_
 _symmetry_equiv_pos_site_id
 _symmetry_equiv_pos_as_xyz
  1  'x, y, z'
loop_
 _atom_site_type_symbol
 _atom_site_label
 _atom_site_symmetry_multiplicity
 _atom_site_fract_x
 _atom_site_fract_y
 _atom_site_fract_z
 _atom_site_occupancy
  Hf  Hf0  1  0.666667  0.333333  0.500000  1
  Zr  Zr1  1  0.333333  0.666667  0.000000  1
  Co  Co2  1  0.435212  0.056501  0.000000  1
  Co  Co3  1  0.943499  0.378711  0.000000  1
  Co  Co4  1  0.621289  0.564788  0.000000  1
  Co  Co5  1  0.383148  0.441716  0.500000  1
  Co  Co6  1  0.558284  0.941432  0.500000  1
  Co  Co7  1  0.058568  0.616852  0.500000  1
  Co  Co8  1  0.155897  0.282787  0.000000  1
  Co  Co9  1  0.717213  0.873111  0.000000  1
  Co  Co10  1  0.126889  0.844103  0.000000  1
  Co  Co11  1  0.227427  0.099413  0.500000  1
  Co  Co12  1  0.900587  0.128013  0.500000  1
  Co  Co13  1  0.871987  0.772573  0.500000  1
  Si  Si14  1  0.000000  0.000000  0.000000  1
  Si  Si15  1  0.406718  0.289077  0.000000  1
  Si  Si16  1  0.710923  0.117641  0.000000  1
  Si  Si17  1  0.882359  0.593282  0.000000  1
  P  P18  1  0.115233  0.405526  0.500000  1
  P  P19  1  0.594474  0.709705  0.500000  1
  P  P20  1  0.290295  0.884767  0.500000  1
