# generated using pymatgen
data_Ho12InCo6
_symmetry_space_group_name_H-M   'P 1'
_cell_length_a   8.32678166
_cell_length_b   8.32678084
_cell_length_c   8.32678200
_cell_angle_alpha   109.47122346
_cell_angle_beta   109.47122145
_cell_angle_gamma   109.47121839
_symmetry_Int_Tables_number   1
_chemical_formula_structural   Ho12InCo6
_chemical_formula_sum   'Ho12 In1 Co6'
_cell_volume   444.43638629
_cell_formula_units_Z   1
loop_
 _symmetry_equiv_pos_site_id
 _symmetry_equiv_pos_as_xyz
  1  'x, y, z'
loop_
 _atom_site_type_symbol
 _atom_site_label
 _atom_site_symmetry_multiplicity
 _atom_site_fract_x
 _atom_site_fract_y
 _atom_site_fract_z
 _atom_site_occupancy
  Ho  Ho0  1  0.807040  0.697656  0.504695  1
  Ho  Ho1  1  0.192960  0.302344  0.495305  1
  Ho  Ho2  1  0.192960  0.697656  0.890616  1
  Ho  Ho3  1  0.807040  0.302344  0.109384  1
  Ho  Ho4  1  0.697656  0.504695  0.807040  1
  Ho  Ho5  1  0.302344  0.495305  0.192960  1
  Ho  Ho6  1  0.697656  0.890616  0.192960  1
  Ho  Ho7  1  0.302344  0.109384  0.807040  1
  Ho  Ho8  1  0.504695  0.807040  0.697656  1
  Ho  Ho9  1  0.495305  0.192960  0.302344  1
  Ho  Ho10  1  0.109384  0.807040  0.302344  1
  Ho  Ho11  1  0.890616  0.192960  0.697656  1
  In  In12  1  0.000000  0.000000  0.000000  1
  Co  Co13  1  0.886310  0.386310  0.500000  1
  Co  Co14  1  0.113690  0.613690  0.500000  1
  Co  Co15  1  0.386310  0.500000  0.886310  1
  Co  Co16  1  0.613690  0.500000  0.113690  1
  Co  Co17  1  0.500000  0.886310  0.386310  1
  Co  Co18  1  0.500000  0.113690  0.613690  1
