# generated using pymatgen
data_Er4Al18(IrRh)3
_symmetry_space_group_name_H-M   'P 1'
_cell_length_a   7.54166158
_cell_length_b   7.54166283
_cell_length_c   9.45551219
_cell_angle_alpha   89.99489306
_cell_angle_beta   89.99488245
_cell_angle_gamma   119.45101998
_symmetry_Int_Tables_number   1
_chemical_formula_structural   Er4Al18(IrRh)3
_chemical_formula_sum   'Er4 Al18 Ir3 Rh3'
_cell_volume   468.30179310
_cell_formula_units_Z   1
loop_
 _symmetry_equiv_pos_site_id
 _symmetry_equiv_pos_as_xyz
  1  'x, y, z'
loop_
 _atom_site_type_symbol
 _atom_site_label
 _atom_site_symmetry_multiplicity
 _atom_site_fract_x
 _atom_site_fract_y
 _atom_site_fract_z
 _atom_site_occupancy
  Er  Er0  1  0.994522  0.671316  0.248741  1
  Er  Er1  1  0.005478  0.328684  0.751259  1
  Er  Er2  1  0.671316  0.994522  0.248741  1
  Er  Er3  1  0.328684  0.005478  0.751259  1
  Al  Al4  1  0.128302  0.128302  0.250929  1
  Al  Al5  1  0.871698  0.871698  0.749071  1
  Al  Al6  1  0.000772  0.335168  0.074501  1
  Al  Al7  1  0.999228  0.664832  0.925499  1
  Al  Al8  1  0.999850  0.664909  0.574338  1
  Al  Al9  1  0.335091  0.000150  0.425662  1
  Al  Al10  1  0.000150  0.335091  0.425662  1
  Al  Al11  1  0.664909  0.999850  0.574338  1
  Al  Al12  1  0.664832  0.999228  0.925499  1
  Al  Al13  1  0.335168  0.000772  0.074501  1
  Al  Al14  1  0.332718  0.332718  0.551643  1
  Al  Al15  1  0.667282  0.667282  0.448357  1
  Al  Al16  1  0.666986  0.666986  0.050243  1
  Al  Al17  1  0.333014  0.333014  0.949757  1
  Al  Al18  1  0.339577  0.549156  0.250787  1
  Al  Al19  1  0.660423  0.450844  0.749213  1
  Al  Al20  1  0.549156  0.339577  0.250787  1
  Al  Al21  1  0.450844  0.660423  0.749213  1
  Ir  Ir22  1  0.672002  0.327998  0.000000  1
  Ir  Ir23  1  0.327998  0.672002  0.000000  1
  Ir  Ir24  1  0.000000  0.000000  0.000000  1
  Rh  Rh25  1  0.328050  0.671950  0.500000  1
  Rh  Rh26  1  0.671950  0.328050  0.500000  1
  Rh  Rh27  1  0.000000  0.000000  0.500000  1
