# generated using pymatgen
data_Zr3Ti3Ge2Se
_symmetry_space_group_name_H-M   'P 1'
_cell_length_a   7.04281000
_cell_length_b   7.04280968
_cell_length_c   3.79084500
_cell_angle_alpha   90.00000000
_cell_angle_beta   90.00000000
_cell_angle_gamma   120.00000152
_symmetry_Int_Tables_number   1
_chemical_formula_structural   Zr3Ti3Ge2Se
_chemical_formula_sum   'Zr3 Ti3 Ge2 Se1'
_cell_volume   162.83905630
_cell_formula_units_Z   1
loop_
 _symmetry_equiv_pos_site_id
 _symmetry_equiv_pos_as_xyz
  1  'x, y, z'
loop_
 _atom_site_type_symbol
 _atom_site_label
 _atom_site_symmetry_multiplicity
 _atom_site_fract_x
 _atom_site_fract_y
 _atom_site_fract_z
 _atom_site_occupancy
  Zr  Zr0  1  0.406557  0.997467  0.500000  1
  Zr  Zr1  1  0.002533  0.409091  0.500000  1
  Zr  Zr2  1  0.590909  0.593442  0.500000  1
  Ti  Ti3  1  0.751925  0.997308  0.000000  1
  Ti  Ti4  1  0.245383  0.248074  0.000000  1
  Ti  Ti5  1  0.002692  0.754616  0.000000  1
  Ge  Ge6  1  0.333333  0.666666  0.000000  1
  Ge  Ge7  1  0.000000  0.000000  0.500000  1
  Se  Se8  1  0.666666  0.333333  0.000000  1
