# generated using pymatgen
data_LaY7BePd24
_symmetry_space_group_name_H-M   'P 1'
_cell_length_a   8.33807766
_cell_length_b   8.33807732
_cell_length_c   8.33807700
_cell_angle_alpha   89.93939264
_cell_angle_beta   90.06060736
_cell_angle_gamma   90.06060959
_symmetry_Int_Tables_number   1
_chemical_formula_structural   LaY7BePd24
_chemical_formula_sum   'La1 Y7 Be1 Pd24'
_cell_volume   579.69162645
_cell_formula_units_Z   1
loop_
 _symmetry_equiv_pos_site_id
 _symmetry_equiv_pos_as_xyz
  1  'x, y, z'
loop_
 _atom_site_type_symbol
 _atom_site_label
 _atom_site_symmetry_multiplicity
 _atom_site_fract_x
 _atom_site_fract_y
 _atom_site_fract_z
 _atom_site_occupancy
  La  La0  1  0.747895  0.252105  0.252105  1
  Y  Y1  1  0.250575  0.250955  0.250955  1
  Y  Y2  1  0.749350  0.749779  0.749779  1
  Y  Y3  1  0.749045  0.749425  0.250955  1
  Y  Y4  1  0.749045  0.250955  0.749425  1
  Y  Y5  1  0.250221  0.250650  0.749779  1
  Y  Y6  1  0.250221  0.749779  0.250650  1
  Y  Y7  1  0.251400  0.748600  0.748600  1
  Be  Be8  1  0.002190  0.997810  0.997810  1
  Pd  Pd9  1  0.253912  0.499828  0.000007  1
  Pd  Pd10  1  0.746267  0.501852  0.998603  1
  Pd  Pd11  1  0.001397  0.253733  0.501852  1
  Pd  Pd12  1  0.498148  0.253733  0.998603  1
  Pd  Pd13  1  0.999993  0.746088  0.499828  1
  Pd  Pd14  1  0.500172  0.746088  0.000007  1
  Pd  Pd15  1  0.498148  0.998603  0.253733  1
  Pd  Pd16  1  0.253912  0.000007  0.499828  1
  Pd  Pd17  1  0.500172  0.000007  0.746088  1
  Pd  Pd18  1  0.746267  0.998603  0.501852  1
  Pd  Pd19  1  0.001397  0.501852  0.253733  1
  Pd  Pd20  1  0.999993  0.499828  0.746088  1
  Pd  Pd21  1  0.250511  0.499879  0.499879  1
  Pd  Pd22  1  0.748911  0.502366  0.502366  1
  Pd  Pd23  1  0.497634  0.251089  0.502366  1
  Pd  Pd24  1  0.500121  0.749489  0.499879  1
  Pd  Pd25  1  0.497634  0.502366  0.251089  1
  Pd  Pd26  1  0.500121  0.499879  0.749489  1
  Pd  Pd27  1  0.269306  0.999586  0.999586  1
  Pd  Pd28  1  0.732598  0.998692  0.998692  1
  Pd  Pd29  1  0.001308  0.267402  0.998692  1
  Pd  Pd30  1  0.000414  0.730694  0.999586  1
  Pd  Pd31  1  0.001308  0.998692  0.267402  1
  Pd  Pd32  1  0.000414  0.999586  0.730694  1
