# generated using pymatgen
data_K2SrCeSe8
_symmetry_space_group_name_H-M   'P 1'
_cell_length_a   6.40115400
_cell_length_b   6.40115400
_cell_length_c   8.62137600
_cell_angle_alpha   90.00000000
_cell_angle_beta   90.00000000
_cell_angle_gamma   90.00000000
_symmetry_Int_Tables_number   1
_chemical_formula_structural   K2SrCeSe8
_chemical_formula_sum   'K2 Sr1 Ce1 Se8'
_cell_volume   353.25892051
_cell_formula_units_Z   1
loop_
 _symmetry_equiv_pos_site_id
 _symmetry_equiv_pos_as_xyz
  1  'x, y, z'
loop_
 _atom_site_type_symbol
 _atom_site_label
 _atom_site_symmetry_multiplicity
 _atom_site_fract_x
 _atom_site_fract_y
 _atom_site_fract_z
 _atom_site_occupancy
  K  K0  1  0.500000  0.500000  0.500000  1
  K  K1  1  0.000000  0.000000  0.500000  1
  Sr  Sr2  1  0.500000  0.500000  0.000000  1
  Ce  Ce3  1  0.000000  0.000000  0.000000  1
  Se  Se4  1  0.652681  0.886431  0.215551  1
  Se  Se5  1  0.113569  0.652681  0.215551  1
  Se  Se6  1  0.886431  0.347319  0.215551  1
  Se  Se7  1  0.652681  0.113569  0.784449  1
  Se  Se8  1  0.347319  0.886431  0.784449  1
  Se  Se9  1  0.347319  0.113569  0.215551  1
  Se  Se10  1  0.886431  0.652681  0.784449  1
  Se  Se11  1  0.113569  0.347319  0.784449  1
