# generated using pymatgen
data_SrLiPr3(FeO4)3
_symmetry_space_group_name_H-M   'P 1'
_cell_length_a   5.51346497
_cell_length_b   5.57461297
_cell_length_c   7.83502973
_cell_angle_alpha   89.43245945
_cell_angle_beta   90.08799570
_cell_angle_gamma   90.29247841
_symmetry_Int_Tables_number   1
_chemical_formula_structural   SrLiPr3(FeO4)3
_chemical_formula_sum   'Sr1 Li1 Pr3 Fe3 O12'
_cell_volume   240.79781698
_cell_formula_units_Z   1
loop_
 _symmetry_equiv_pos_site_id
 _symmetry_equiv_pos_as_xyz
  1  'x, y, z'
loop_
 _atom_site_type_symbol
 _atom_site_label
 _atom_site_symmetry_multiplicity
 _atom_site_fract_x
 _atom_site_fract_y
 _atom_site_fract_z
 _atom_site_occupancy
  Sr  Sr0  1  0.010821  0.961629  0.740654  1
  Li  Li1  1  0.999359  0.506523  0.503002  1
  Pr  Pr2  1  0.503257  0.539642  0.258696  1
  Pr  Pr3  1  0.491614  0.458421  0.741146  1
  Pr  Pr4  1  0.986541  0.050988  0.260436  1
  Fe  Fe5  1  0.500992  0.998615  0.499642  1
  Fe  Fe6  1  0.497664  0.998206  0.998678  1
  Fe  Fe7  1  0.999530  0.502065  0.999499  1
  O  O8  1  0.707090  0.270282  0.463316  1
  O  O9  1  0.240312  0.209136  0.523821  1
  O  O10  1  0.773281  0.792108  0.050977  1
  O  O11  1  0.287498  0.698181  0.960615  1
  O  O12  1  0.305619  0.721647  0.528668  1
  O  O13  1  0.766154  0.795780  0.458634  1
  O  O14  1  0.231132  0.212227  0.961716  1
  O  O15  1  0.723838  0.289581  0.048671  1
  O  O16  1  0.068483  0.490189  0.235560  1
  O  O17  1  0.564045  0.014695  0.759178  1
  O  O18  1  0.418278  0.985526  0.239166  1
  O  O19  1  0.924490  0.504558  0.767926  1
