# generated using pymatgen
data_ErTmTh2(ReB6)2
_symmetry_space_group_name_H-M   'P 1'
_cell_length_a   3.75409900
_cell_length_b   9.23126806
_cell_length_c   11.66176707
_cell_angle_alpha   90.01286144
_cell_angle_beta   90.00000000
_cell_angle_gamma   90.00000000
_symmetry_Int_Tables_number   1
_chemical_formula_structural   ErTmTh2(ReB6)2
_chemical_formula_sum   'Er2 Tm2 Th4 Re4 B24'
_cell_volume   404.13962612
_cell_formula_units_Z   2
loop_
 _symmetry_equiv_pos_site_id
 _symmetry_equiv_pos_as_xyz
  1  'x, y, z'
loop_
 _atom_site_type_symbol
 _atom_site_label
 _atom_site_symmetry_multiplicity
 _atom_site_fract_x
 _atom_site_fract_y
 _atom_site_fract_z
 _atom_site_occupancy
  Er  Er0  1  0.000000  0.944833  0.372712  1
  Er  Er1  1  0.000000  0.055167  0.627288  1
  Tm  Tm2  1  0.000000  0.444892  0.127185  1
  Tm  Tm3  1  0.000000  0.555108  0.872815  1
  Th  Th4  1  0.000000  0.321969  0.414060  1
  Th  Th5  1  0.000000  0.678031  0.585940  1
  Th  Th6  1  0.000000  0.821761  0.085882  1
  Th  Th7  1  0.000000  0.178239  0.914118  1
  Re  Re8  1  0.000000  0.639125  0.319525  1
  Re  Re9  1  0.000000  0.360875  0.680475  1
  Re  Re10  1  0.000000  0.139679  0.180194  1
  Re  Re11  1  0.000000  0.860321  0.819806  1
  B  B12  1  0.500000  0.556284  0.429861  1
  B  B13  1  0.500000  0.443716  0.570139  1
  B  B14  1  0.500000  0.056333  0.070106  1
  B  B15  1  0.500000  0.943667  0.929894  1
  B  B16  1  0.500000  0.750198  0.417084  1
  B  B17  1  0.500000  0.249802  0.582916  1
  B  B18  1  0.500000  0.250486  0.082912  1
  B  B19  1  0.500000  0.749514  0.917088  1
  B  B20  1  0.500000  0.791151  0.266626  1
  B  B21  1  0.500000  0.208849  0.733374  1
  B  B22  1  0.500000  0.291439  0.233283  1
  B  B23  1  0.500000  0.708561  0.766717  1
  B  B24  1  0.500000  0.629993  0.185977  1
  B  B25  1  0.500000  0.370007  0.814023  1
  B  B26  1  0.500000  0.130268  0.313871  1
  B  B27  1  0.500000  0.869732  0.686129  1
  B  B28  1  0.500000  0.984861  0.214115  1
  B  B29  1  0.500000  0.015139  0.785885  1
  B  B30  1  0.500000  0.484718  0.285700  1
  B  B31  1  0.500000  0.515282  0.714300  1
  B  B32  1  0.500000  0.601641  0.027948  1
  B  B33  1  0.500000  0.398359  0.972052  1
  B  B34  1  0.500000  0.102011  0.471959  1
  B  B35  1  0.500000  0.897989  0.528041  1
