# generated using pymatgen
data_Tm12Co4HgIr
_symmetry_space_group_name_H-M   'P 1'
_cell_length_a   8.17400925
_cell_length_b   8.17401003
_cell_length_c   8.17400959
_cell_angle_alpha   111.23832603
_cell_angle_beta   110.58542667
_cell_angle_gamma   106.62750614
_symmetry_Int_Tables_number   1
_chemical_formula_structural   Tm12Co4HgIr
_chemical_formula_sum   'Tm12 Co4 Hg1 Ir1'
_cell_volume   419.63391877
_cell_formula_units_Z   1
loop_
 _symmetry_equiv_pos_site_id
 _symmetry_equiv_pos_as_xyz
  1  'x, y, z'
loop_
 _atom_site_type_symbol
 _atom_site_label
 _atom_site_symmetry_multiplicity
 _atom_site_fract_x
 _atom_site_fract_y
 _atom_site_fract_z
 _atom_site_occupancy
  Tm  Tm0  1  0.582356  0.276241  0.306116  1
  Tm  Tm1  1  0.181110  0.219608  0.400717  1
  Tm  Tm2  1  0.181110  0.780392  0.961503  1
  Tm  Tm3  1  0.683093  0.489897  0.806804  1
  Tm  Tm4  1  0.683093  0.876290  0.193196  1
  Tm  Tm5  1  0.970125  0.276241  0.693884  1
  Tm  Tm6  1  0.029875  0.723759  0.306116  1
  Tm  Tm7  1  0.316907  0.123710  0.806804  1
  Tm  Tm8  1  0.316907  0.510103  0.193196  1
  Tm  Tm9  1  0.818890  0.219608  0.038497  1
  Tm  Tm10  1  0.818890  0.780392  0.599283  1
  Tm  Tm11  1  0.417644  0.723759  0.693884  1
  Co  Co12  1  0.887140  0.887140  0.000000  1
  Co  Co13  1  0.372543  0.500000  0.872543  1
  Co  Co14  1  0.627457  0.500000  0.127457  1
  Co  Co15  1  0.112860  0.112860  0.000000  1
  Hg  Hg16  1  0.500000  0.000000  0.500000  1
  Ir  Ir17  1  0.000000  0.500000  0.500000  1
