# generated using pymatgen
data_Rb3Ir2(O2F3)2
_symmetry_space_group_name_H-M   'P 1'
_cell_length_a   8.65095842
_cell_length_b   8.65095861
_cell_length_c   8.92611837
_cell_angle_alpha   71.61164412
_cell_angle_beta   71.61164665
_cell_angle_gamma   90.56807397
_symmetry_Int_Tables_number   1
_chemical_formula_structural   Rb3Ir2(O2F3)2
_chemical_formula_sum   'Rb6 Ir4 O8 F12'
_cell_volume   597.08779727
_cell_formula_units_Z   2
loop_
 _symmetry_equiv_pos_site_id
 _symmetry_equiv_pos_as_xyz
  1  'x, y, z'
loop_
 _atom_site_type_symbol
 _atom_site_label
 _atom_site_symmetry_multiplicity
 _atom_site_fract_x
 _atom_site_fract_y
 _atom_site_fract_z
 _atom_site_occupancy
  Rb  Rb0  1  0.958462  0.746106  0.996384  1
  Rb  Rb1  1  0.253894  0.041538  0.503616  1
  Rb  Rb2  1  0.041538  0.253894  0.003616  1
  Rb  Rb3  1  0.746106  0.958462  0.496384  1
  Rb  Rb4  1  0.500000  0.500000  0.000000  1
  Rb  Rb5  1  0.500000  0.500000  0.500000  1
  Ir  Ir6  1  0.028760  0.427395  0.363065  1
  Ir  Ir7  1  0.572605  0.971240  0.136935  1
  Ir  Ir8  1  0.971240  0.572605  0.636935  1
  Ir  Ir9  1  0.427395  0.028760  0.863065  1
  O  O10  1  0.948361  0.365307  0.602433  1
  O  O11  1  0.634693  0.051639  0.897567  1
  O  O12  1  0.051639  0.634693  0.397567  1
  O  O13  1  0.365307  0.948361  0.102433  1
  O  O14  1  0.840813  0.444916  0.317691  1
  O  O15  1  0.555084  0.159187  0.182309  1
  O  O16  1  0.159187  0.555084  0.682309  1
  O  O17  1  0.444916  0.840813  0.817691  1
  F  F18  1  0.152409  0.503226  0.112553  1
  F  F19  1  0.496774  0.847591  0.387447  1
  F  F20  1  0.847591  0.496774  0.887447  1
  F  F21  1  0.503226  0.152409  0.612553  1
  F  F22  1  0.027018  0.197248  0.348343  1
  F  F23  1  0.802752  0.972982  0.151657  1
  F  F24  1  0.972982  0.802752  0.651657  1
  F  F25  1  0.197248  0.027018  0.848343  1
  F  F26  1  0.741733  0.608354  0.629209  1
  F  F27  1  0.391646  0.258267  0.870791  1
  F  F28  1  0.258267  0.391646  0.370791  1
  F  F29  1  0.608354  0.741733  0.129209  1
