# generated using pymatgen
data_CsMn3CrO8
_symmetry_space_group_name_H-M   'P 1'
_cell_length_a   5.89337996
_cell_length_b   5.89338819
_cell_length_c   7.88204635
_cell_angle_alpha   68.64652564
_cell_angle_beta   68.64639012
_cell_angle_gamma   59.92455654
_symmetry_Int_Tables_number   1
_chemical_formula_structural   CsMn3CrO8
_chemical_formula_sum   'Cs1 Mn3 Cr1 O8'
_cell_volume   214.96212081
_cell_formula_units_Z   1
loop_
 _symmetry_equiv_pos_site_id
 _symmetry_equiv_pos_as_xyz
  1  'x, y, z'
loop_
 _atom_site_type_symbol
 _atom_site_label
 _atom_site_symmetry_multiplicity
 _atom_site_fract_x
 _atom_site_fract_y
 _atom_site_fract_z
 _atom_site_occupancy
  Cs  Cs0  1  0.000000  0.000000  0.500000  1
  Mn  Mn1  1  0.500000  0.500000  0.000000  1
  Mn  Mn2  1  0.500000  0.000000  0.000000  1
  Mn  Mn3  1  0.000000  0.500000  0.000000  1
  Cr  Cr4  1  0.000000  0.000000  0.000000  1
  O  O5  1  0.701230  0.216178  0.863302  1
  O  O6  1  0.216179  0.701230  0.863301  1
  O  O7  1  0.288170  0.288173  0.138513  1
  O  O8  1  0.783988  0.783989  0.136270  1
  O  O9  1  0.216012  0.216011  0.863730  1
  O  O10  1  0.711830  0.711827  0.861488  1
  O  O11  1  0.783821  0.298770  0.136699  1
  O  O12  1  0.298770  0.783822  0.136698  1
