# generated using pymatgen
data_DyHo5Al23VOs8
_symmetry_space_group_name_H-M   'P 1'
_cell_length_a   8.83289300
_cell_length_b   8.83329309
_cell_length_c   9.52675500
_cell_angle_alpha   90.00158952
_cell_angle_beta   90.00000000
_cell_angle_gamma   119.99849796
_symmetry_Int_Tables_number   1
_chemical_formula_structural   DyHo5Al23VOs8
_chemical_formula_sum   'Dy1 Ho5 Al23 V1 Os8'
_cell_volume   643.73602144
_cell_formula_units_Z   1
loop_
 _symmetry_equiv_pos_site_id
 _symmetry_equiv_pos_as_xyz
  1  'x, y, z'
loop_
 _atom_site_type_symbol
 _atom_site_label
 _atom_site_symmetry_multiplicity
 _atom_site_fract_x
 _atom_site_fract_y
 _atom_site_fract_z
 _atom_site_occupancy
  Dy  Dy0  1  0.195461  0.390923  0.246251  1
  Ho  Ho1  1  0.806896  0.613793  0.750328  1
  Ho  Ho2  1  0.608639  0.804382  0.246041  1
  Ho  Ho3  1  0.386290  0.193103  0.750344  1
  Ho  Ho4  1  0.195743  0.804382  0.246041  1
  Ho  Ho5  1  0.806814  0.193103  0.750344  1
  Al  Al6  1  0.666650  0.333300  0.977080  1
  Al  Al7  1  0.666636  0.333271  0.519524  1
  Al  Al8  1  0.333432  0.666865  0.482951  1
  Al  Al9  1  0.162134  0.324267  0.575760  1
  Al  Al10  1  0.837238  0.674477  0.424705  1
  Al  Al11  1  0.675701  0.837816  0.575660  1
  Al  Al12  1  0.835638  0.671276  0.076475  1
  Al  Al13  1  0.325614  0.162773  0.424746  1
  Al  Al14  1  0.160479  0.320959  0.925115  1
  Al  Al15  1  0.162116  0.837816  0.575660  1
  Al  Al16  1  0.328812  0.164353  0.076460  1
  Al  Al17  1  0.837158  0.162773  0.424746  1
  Al  Al18  1  0.679037  0.839501  0.925229  1
  Al  Al19  1  0.835541  0.164353  0.076460  1
  Al  Al20  1  0.160463  0.839501  0.925229  1
  Al  Al21  1  0.562018  0.124036  0.253254  1
  Al  Al22  1  0.441535  0.883067  0.751275  1
  Al  Al23  1  0.875798  0.438008  0.253255  1
  Al  Al24  1  0.116934  0.558474  0.751271  1
  Al  Al25  1  0.562210  0.438008  0.253255  1
  Al  Al26  1  0.441542  0.558474  0.751271  1
  Al  Al27  1  0.999878  0.999756  0.250307  1
  Al  Al28  1  0.999997  0.999994  0.749650  1
  V  V29  1  0.333357  0.666715  0.984078  1
  Os  Os30  1  0.495267  0.990534  0.005491  1
  Os  Os31  1  0.009426  0.504859  0.005390  1
  Os  Os32  1  0.499414  0.998828  0.503614  1
  Os  Os33  1  0.495433  0.504859  0.005390  1
  Os  Os34  1  0.001174  0.500683  0.503685  1
  Os  Os35  1  0.499509  0.500683  0.503685  1
  Os  Os36  1  0.000020  0.000040  0.000817  1
  Os  Os37  1  0.999998  0.999996  0.499161  1
