# generated using pymatgen
data_ScBi(BrO3)6
_symmetry_space_group_name_H-M   'P 1'
_cell_length_a   7.93493717
_cell_length_b   7.90481740
_cell_length_c   8.09113841
_cell_angle_alpha   82.79688456
_cell_angle_beta   82.43506058
_cell_angle_gamma   76.51003807
_symmetry_Int_Tables_number   1
_chemical_formula_structural   ScBi(BrO3)6
_chemical_formula_sum   'Sc1 Bi1 Br6 O18'
_cell_volume   486.84789608
_cell_formula_units_Z   1
loop_
 _symmetry_equiv_pos_site_id
 _symmetry_equiv_pos_as_xyz
  1  'x, y, z'
loop_
 _atom_site_type_symbol
 _atom_site_label
 _atom_site_symmetry_multiplicity
 _atom_site_fract_x
 _atom_site_fract_y
 _atom_site_fract_z
 _atom_site_occupancy
  Sc  Sc0  1  0.747277  0.240492  0.470075  1
  Bi  Bi1  1  0.238631  0.747711  0.969939  1
  Br  Br2  1  0.157599  0.366519  0.281814  1
  Br  Br3  1  0.382398  0.172541  0.767837  1
  Br  Br4  1  0.072842  0.835934  0.551301  1
  Br  Br5  1  0.815096  0.094735  0.073262  1
  Br  Br6  1  0.680726  0.560475  0.777545  1
  Br  Br7  1  0.578192  0.670723  0.298278  1
  O  O8  1  0.137557  0.504002  0.099919  1
  O  O9  1  0.529333  0.156973  0.593156  1
  O  O10  1  0.947081  0.339115  0.320750  1
  O  O11  1  0.362197  0.958530  0.800736  1
  O  O12  1  0.277534  0.181143  0.223690  1
  O  O13  1  0.199247  0.286521  0.701523  1
  O  O14  1  0.073779  0.739371  0.753926  1
  O  O15  1  0.723277  0.093861  0.276829  1
  O  O16  1  0.925138  0.027502  0.579925  1
  O  O17  1  0.013197  0.954884  0.096060  1
  O  O18  1  0.981009  0.711098  0.460452  1
  O  O19  1  0.697192  0.992890  0.985009  1
  O  O20  1  0.464999  0.547074  0.829143  1
  O  O21  1  0.573665  0.454219  0.349504  1
  O  O22  1  0.760811  0.376380  0.676941  1
  O  O23  1  0.389157  0.743746  0.205824  1
  O  O24  1  0.765878  0.515112  0.956525  1
  O  O25  1  0.535191  0.757455  0.477629  1
