# generated using pymatgen
data_Nd3DyMn4Al4O20
_symmetry_space_group_name_H-M   'P 1'
_cell_length_a   5.71641200
_cell_length_b   7.42665299
_cell_length_c   8.55089791
_cell_angle_alpha   89.86618527
_cell_angle_beta   90.00000000
_cell_angle_gamma   90.00000000
_symmetry_Int_Tables_number   1
_chemical_formula_structural   Nd3DyMn4Al4O20
_chemical_formula_sum   'Nd3 Dy1 Mn4 Al4 O20'
_cell_volume   363.01719060
_cell_formula_units_Z   1
loop_
 _symmetry_equiv_pos_site_id
 _symmetry_equiv_pos_as_xyz
  1  'x, y, z'
loop_
 _atom_site_type_symbol
 _atom_site_label
 _atom_site_symmetry_multiplicity
 _atom_site_fract_x
 _atom_site_fract_y
 _atom_site_fract_z
 _atom_site_occupancy
  Nd  Nd0  1  0.000000  0.363774  0.670033  1
  Nd  Nd1  1  0.000000  0.635298  0.329747  1
  Nd  Nd2  1  0.000000  0.866037  0.831867  1
  Dy  Dy3  1  0.000000  0.136532  0.170264  1
  Mn  Mn4  1  0.256241  0.497394  0.001060  1
  Mn  Mn5  1  0.744258  0.001019  0.498571  1
  Mn  Mn6  1  0.743759  0.497394  0.001060  1
  Mn  Mn7  1  0.255742  0.001019  0.498571  1
  Al  Al8  1  0.500000  0.109132  0.860695  1
  Al  Al9  1  0.500000  0.896656  0.141079  1
  Al  Al10  1  0.500000  0.607645  0.639609  1
  Al  Al11  1  0.500000  0.389977  0.358209  1
  O  O12  1  0.253436  0.906348  0.287741  1
  O  O13  1  0.257717  0.098936  0.710374  1
  O  O14  1  0.745239  0.391181  0.209479  1
  O  O15  1  0.742572  0.598937  0.790179  1
  O  O16  1  0.742283  0.098936  0.710374  1
  O  O17  1  0.746564  0.906348  0.287741  1
  O  O18  1  0.257428  0.598937  0.790179  1
  O  O19  1  0.254761  0.391181  0.209479  1
  O  O20  1  0.500000  0.340978  0.931407  1
  O  O21  1  0.500000  0.659218  0.072494  1
  O  O22  1  0.500000  0.839588  0.564549  1
  O  O23  1  0.500000  0.160188  0.433862  1
  O  O24  1  0.282716  0.005845  0.003219  1
  O  O25  1  0.714179  0.500345  0.498459  1
  O  O26  1  0.717284  0.005845  0.003219  1
  O  O27  1  0.285821  0.500345  0.498459  1
  O  O28  1  0.000000  0.159509  0.442298  1
  O  O29  1  0.000000  0.842873  0.552257  1
  O  O30  1  0.000000  0.655268  0.053129  1
  O  O31  1  0.000000  0.337315  0.950331  1
