# generated using pymatgen
data_PrNd7(Si3Ni)4
_symmetry_space_group_name_H-M   'P 1'
_cell_length_a   8.02401800
_cell_length_b   8.02401849
_cell_length_c   8.42834700
_cell_angle_alpha   90.00000000
_cell_angle_beta   90.00000000
_cell_angle_gamma   119.99999796
_symmetry_Int_Tables_number   1
_chemical_formula_structural   PrNd7(Si3Ni)4
_chemical_formula_sum   'Pr1 Nd7 Si12 Ni4'
_cell_volume   469.95563717
_cell_formula_units_Z   1
loop_
 _symmetry_equiv_pos_site_id
 _symmetry_equiv_pos_as_xyz
  1  'x, y, z'
loop_
 _atom_site_type_symbol
 _atom_site_label
 _atom_site_symmetry_multiplicity
 _atom_site_fract_x
 _atom_site_fract_y
 _atom_site_fract_z
 _atom_site_occupancy
  Pr  Pr0  1  0.000000  0.000000  0.250000  1
  Nd  Nd1  1  0.499884  0.500116  0.750000  1
  Nd  Nd2  1  0.500120  0.499880  0.250000  1
  Nd  Nd3  1  0.000233  0.500116  0.750000  1
  Nd  Nd4  1  0.999762  0.499880  0.250000  1
  Nd  Nd5  1  0.499884  0.999767  0.750000  1
  Nd  Nd6  1  0.500120  0.000238  0.250000  1
  Nd  Nd7  1  0.000000  0.000000  0.750000  1
  Si  Si8  1  0.829165  0.170835  0.998900  1
  Si  Si9  1  0.170829  0.829171  0.999350  1
  Si  Si10  1  0.341670  0.170835  0.998900  1
  Si  Si11  1  0.170829  0.829171  0.500650  1
  Si  Si12  1  0.658341  0.829171  0.999350  1
  Si  Si13  1  0.829165  0.170835  0.501100  1
  Si  Si14  1  0.829165  0.658330  0.998900  1
  Si  Si15  1  0.658341  0.829171  0.500650  1
  Si  Si16  1  0.170829  0.341659  0.999350  1
  Si  Si17  1  0.341670  0.170835  0.501100  1
  Si  Si18  1  0.170829  0.341659  0.500650  1
  Si  Si19  1  0.829165  0.658330  0.501100  1
  Ni  Ni20  1  0.666667  0.333333  0.999749  1
  Ni  Ni21  1  0.333333  0.666667  0.000586  1
  Ni  Ni22  1  0.333333  0.666667  0.499414  1
  Ni  Ni23  1  0.666667  0.333333  0.500251  1
