# generated using pymatgen
data_Pu4Mn3NiB16
_symmetry_space_group_name_H-M   'P 1'
_cell_length_a   5.91495865
_cell_length_b   11.46102924
_cell_length_c   3.38600700
_cell_angle_alpha   90.00000000
_cell_angle_beta   90.00000000
_cell_angle_gamma   89.94646782
_symmetry_Int_Tables_number   1
_chemical_formula_structural   Pu4Mn3NiB16
_chemical_formula_sum   'Pu4 Mn3 Ni1 B16'
_cell_volume   229.54244093
_cell_formula_units_Z   1
loop_
 _symmetry_equiv_pos_site_id
 _symmetry_equiv_pos_as_xyz
  1  'x, y, z'
loop_
 _atom_site_type_symbol
 _atom_site_label
 _atom_site_symmetry_multiplicity
 _atom_site_fract_x
 _atom_site_fract_y
 _atom_site_fract_z
 _atom_site_occupancy
  Pu  Pu0  1  0.625423  0.349827  0.000000  1
  Pu  Pu1  1  0.373968  0.650665  0.000000  1
  Pu  Pu2  1  0.127828  0.150016  0.000000  1
  Pu  Pu3  1  0.873137  0.849739  0.000000  1
  Mn  Mn4  1  0.369718  0.913017  0.000000  1
  Mn  Mn5  1  0.130722  0.413456  0.000000  1
  Mn  Mn6  1  0.869198  0.586887  0.000000  1
  Ni  Ni7  1  0.635888  0.089997  0.000000  1
  B  B8  1  0.782751  0.185380  0.500000  1
  B  B9  1  0.217496  0.814747  0.500000  1
  B  B10  1  0.281636  0.315524  0.500000  1
  B  B11  1  0.718139  0.684454  0.500000  1
  B  B12  1  0.862869  0.032896  0.500000  1
  B  B13  1  0.137260  0.966363  0.500000  1
  B  B14  1  0.361798  0.466983  0.500000  1
  B  B15  1  0.637936  0.533434  0.500000  1
  B  B16  1  0.887065  0.454106  0.500000  1
  B  B17  1  0.112573  0.546046  0.500000  1
  B  B18  1  0.385025  0.045000  0.500000  1
  B  B19  1  0.611183  0.951943  0.500000  1
  B  B20  1  0.975010  0.309700  0.500000  1
  B  B21  1  0.024559  0.690107  0.500000  1
  B  B22  1  0.475267  0.191087  0.500000  1
  B  B23  1  0.523551  0.808626  0.500000  1
