# generated using pymatgen
data_Y24Tc7Os
_symmetry_space_group_name_H-M   'P 1'
_cell_length_a   6.33223759
_cell_length_b   9.24643800
_cell_length_c   14.71085700
_cell_angle_alpha   90.00000000
_cell_angle_beta   90.24007838
_cell_angle_gamma   90.00000000
_symmetry_Int_Tables_number   1
_chemical_formula_structural   Y24Tc7Os
_chemical_formula_sum   'Y24 Tc7 Os1'
_cell_volume   861.32256428
_cell_formula_units_Z   1
loop_
 _symmetry_equiv_pos_site_id
 _symmetry_equiv_pos_as_xyz
  1  'x, y, z'
loop_
 _atom_site_type_symbol
 _atom_site_label
 _atom_site_symmetry_multiplicity
 _atom_site_fract_x
 _atom_site_fract_y
 _atom_site_fract_z
 _atom_site_occupancy
  Y  Y0  1  0.537500  0.750000  0.354130  1
  Y  Y1  1  0.034472  0.250000  0.145502  1
  Y  Y2  1  0.467544  0.250000  0.645488  1
  Y  Y3  1  0.964212  0.750000  0.854880  1
  Y  Y4  1  0.777142  0.750000  0.106584  1
  Y  Y5  1  0.275427  0.250000  0.393985  1
  Y  Y6  1  0.221844  0.250000  0.891982  1
  Y  Y7  1  0.726509  0.750000  0.606213  1
  Y  Y8  1  0.432977  0.934116  0.786718  1
  Y  Y9  1  0.933295  0.064657  0.712683  1
  Y  Y10  1  0.565901  0.434826  0.212314  1
  Y  Y11  1  0.064285  0.564688  0.286764  1
  Y  Y12  1  0.565901  0.065174  0.212314  1
  Y  Y13  1  0.064285  0.935312  0.286764  1
  Y  Y14  1  0.432977  0.565884  0.786718  1
  Y  Y15  1  0.933295  0.435343  0.712683  1
  Y  Y16  1  0.241428  0.936215  0.536709  1
  Y  Y17  1  0.739806  0.063354  0.964495  1
  Y  Y18  1  0.760185  0.435946  0.464424  1
  Y  Y19  1  0.258266  0.563198  0.035615  1
  Y  Y20  1  0.760185  0.064054  0.464424  1
  Y  Y21  1  0.258266  0.936802  0.035615  1
  Y  Y22  1  0.241428  0.563785  0.536709  1
  Y  Y23  1  0.739806  0.436646  0.964495  1
  Tc  Tc24  1  0.934107  0.750000  0.438742  1
  Tc  Tc25  1  0.431217  0.250000  0.061251  1
  Tc  Tc26  1  0.068992  0.250000  0.563397  1
  Tc  Tc27  1  0.566838  0.750000  0.937791  1
  Tc  Tc28  1  0.357021  0.750000  0.183131  1
  Tc  Tc29  1  0.858106  0.250000  0.316579  1
  Tc  Tc30  1  0.645833  0.250000  0.816742  1
  Os  Os31  1  0.140950  0.750000  0.684155  1
