# generated using pymatgen
data_PrNd3(B2Rh5)2
_symmetry_space_group_name_H-M   'P 1'
_cell_length_a   5.53792401
_cell_length_b   5.53792671
_cell_length_c   21.21338200
_cell_angle_alpha   89.99991345
_cell_angle_beta   90.00002115
_cell_angle_gamma   120.00135978
_symmetry_Int_Tables_number   1
_chemical_formula_structural   PrNd3(B2Rh5)2
_chemical_formula_sum   'Pr2 Nd6 B8 Rh20'
_cell_volume   563.41549816
_cell_formula_units_Z   2
loop_
 _symmetry_equiv_pos_site_id
 _symmetry_equiv_pos_as_xyz
  1  'x, y, z'
loop_
 _atom_site_type_symbol
 _atom_site_label
 _atom_site_symmetry_multiplicity
 _atom_site_fract_x
 _atom_site_fract_y
 _atom_site_fract_z
 _atom_site_occupancy
  Pr  Pr0  1  0.666651  0.333350  0.521739  1
  Pr  Pr1  1  0.333349  0.666650  0.478261  1
  Nd  Nd2  1  0.333349  0.666648  0.021577  1
  Nd  Nd3  1  0.666651  0.333352  0.978423  1
  Nd  Nd4  1  0.666640  0.333361  0.674380  1
  Nd  Nd5  1  0.333360  0.666639  0.325620  1
  Nd  Nd6  1  0.333359  0.666641  0.174303  1
  Nd  Nd7  1  0.666641  0.333359  0.825697  1
  B  B8  1  0.999971  0.000031  0.677543  1
  B  B9  1  0.000029  0.999969  0.322457  1
  B  B10  1  0.000031  0.999967  0.177453  1
  B  B11  1  0.999969  0.000033  0.822547  1
  B  B12  1  0.666697  0.333307  0.325745  1
  B  B13  1  0.333303  0.666693  0.674255  1
  B  B14  1  0.333302  0.666696  0.825813  1
  B  B15  1  0.666698  0.333304  0.174187  1
  Rh  Rh16  1  0.000000  0.000000  0.500000  1
  Rh  Rh17  1  0.000000  0.000000  0.000000  1
  Rh  Rh18  1  0.167464  0.334985  0.750027  1
  Rh  Rh19  1  0.167463  0.832540  0.750027  1
  Rh  Rh20  1  0.665020  0.832539  0.750026  1
  Rh  Rh21  1  0.832536  0.665015  0.249973  1
  Rh  Rh22  1  0.832537  0.167460  0.249973  1
  Rh  Rh23  1  0.334980  0.167461  0.249974  1
  Rh  Rh24  1  0.163281  0.326648  0.609447  1
  Rh  Rh25  1  0.163274  0.836722  0.609451  1
  Rh  Rh26  1  0.673353  0.836718  0.609446  1
  Rh  Rh27  1  0.836719  0.673352  0.390553  1
  Rh  Rh28  1  0.836726  0.163278  0.390549  1
  Rh  Rh29  1  0.326647  0.163282  0.390554  1
  Rh  Rh30  1  0.836683  0.673277  0.109188  1
  Rh  Rh31  1  0.836690  0.163314  0.109195  1
  Rh  Rh32  1  0.326718  0.163313  0.109188  1
  Rh  Rh33  1  0.163317  0.326723  0.890812  1
  Rh  Rh34  1  0.163310  0.836686  0.890805  1
  Rh  Rh35  1  0.673282  0.836687  0.890812  1
