# generated using pymatgen
data_HoTm11GaCo4Pb
_symmetry_space_group_name_H-M   'P 1'
_cell_length_a   8.24659043
_cell_length_b   8.23425571
_cell_length_c   8.23425778
_cell_angle_alpha   111.97266685
_cell_angle_beta   109.38259626
_cell_angle_gamma   107.03916778
_symmetry_Int_Tables_number   1
_chemical_formula_structural   HoTm11GaCo4Pb
_chemical_formula_sum   'Ho1 Tm11 Ga1 Co4 Pb1'
_cell_volume   429.93123826
_cell_formula_units_Z   1
loop_
 _symmetry_equiv_pos_site_id
 _symmetry_equiv_pos_as_xyz
  1  'x, y, z'
loop_
 _atom_site_type_symbol
 _atom_site_label
 _atom_site_symmetry_multiplicity
 _atom_site_fract_x
 _atom_site_fract_y
 _atom_site_fract_z
 _atom_site_occupancy
  Ho  Ho0  1  0.566287  0.268243  0.298044  1
  Tm  Tm1  1  0.179325  0.219435  0.399226  1
  Tm  Tm2  1  0.179325  0.780099  0.959892  1
  Tm  Tm3  1  0.675641  0.489960  0.815496  1
  Tm  Tm4  1  0.675641  0.860145  0.185679  1
  Tm  Tm5  1  0.970888  0.268295  0.702593  1
  Tm  Tm6  1  0.030180  0.732674  0.297506  1
  Tm  Tm7  1  0.323688  0.138658  0.813867  1
  Tm  Tm8  1  0.323688  0.509822  0.185028  1
  Tm  Tm9  1  0.820010  0.219019  0.038435  1
  Tm  Tm10  1  0.820010  0.781573  0.600991  1
  Tm  Tm11  1  0.434725  0.731627  0.703097  1
  Ga  Ga12  1  0.001353  0.501491  0.499863  1
  Co  Co13  1  0.885036  0.884773  0.000264  1
  Co  Co14  1  0.342386  0.499709  0.842677  1
  Co  Co15  1  0.658954  0.500426  0.158528  1
  Co  Co16  1  0.112644  0.114409  0.998235  1
  Pb  Pb17  1  0.500220  0.999641  0.500580  1
