# generated using pymatgen
data_Nd4ReRuC4
_symmetry_space_group_name_H-M   'P 1'
_cell_length_a   5.36178400
_cell_length_b   6.66025700
_cell_length_c   10.19033200
_cell_angle_alpha   90.00000000
_cell_angle_beta   90.00000000
_cell_angle_gamma   90.00000000
_symmetry_Int_Tables_number   1
_chemical_formula_structural   Nd4ReRuC4
_chemical_formula_sum   'Nd8 Re2 Ru2 C8'
_cell_volume   363.90551348
_cell_formula_units_Z   2
loop_
 _symmetry_equiv_pos_site_id
 _symmetry_equiv_pos_as_xyz
  1  'x, y, z'
loop_
 _atom_site_type_symbol
 _atom_site_label
 _atom_site_symmetry_multiplicity
 _atom_site_fract_x
 _atom_site_fract_y
 _atom_site_fract_z
 _atom_site_occupancy
  Nd  Nd0  1  0.250000  0.473294  0.786094  1
  Nd  Nd1  1  0.750000  0.026706  0.286094  1
  Nd  Nd2  1  0.250000  0.975270  0.713638  1
  Nd  Nd3  1  0.750000  0.524730  0.213638  1
  Nd  Nd4  1  0.250000  0.814173  0.050491  1
  Nd  Nd5  1  0.750000  0.685827  0.550491  1
  Nd  Nd6  1  0.250000  0.310311  0.447405  1
  Nd  Nd7  1  0.750000  0.189689  0.947405  1
  Re  Re8  1  0.250000  0.770754  0.357814  1
  Re  Re9  1  0.750000  0.729246  0.857814  1
  Ru  Ru10  1  0.250000  0.269932  0.141204  1
  Ru  Ru11  1  0.750000  0.230068  0.641204  1
  C  C12  1  0.250000  0.686551  0.539165  1
  C  C13  1  0.750000  0.813449  0.039165  1
  C  C14  1  0.250000  0.185517  0.961821  1
  C  C15  1  0.750000  0.314483  0.461821  1
  C  C16  1  0.250000  0.033537  0.258375  1
  C  C17  1  0.750000  0.466463  0.758375  1
  C  C18  1  0.250000  0.534671  0.243993  1
  C  C19  1  0.750000  0.965329  0.743993  1
