# generated using pymatgen
data_Pr17Nd3Si15Ni
_symmetry_space_group_name_H-M   'P 1'
_cell_length_a   7.92849158
_cell_length_b   7.92231455
_cell_length_c   15.25018800
_cell_angle_alpha   90.22037297
_cell_angle_beta   89.93842963
_cell_angle_gamma   90.09552106
_symmetry_Int_Tables_number   1
_chemical_formula_structural   Pr17Nd3Si15Ni
_chemical_formula_sum   'Pr17 Nd3 Si15 Ni1'
_cell_volume   957.88591007
_cell_formula_units_Z   1
loop_
 _symmetry_equiv_pos_site_id
 _symmetry_equiv_pos_as_xyz
  1  'x, y, z'
loop_
 _atom_site_type_symbol
 _atom_site_label
 _atom_site_symmetry_multiplicity
 _atom_site_fract_x
 _atom_site_fract_y
 _atom_site_fract_z
 _atom_site_occupancy
  Pr  Pr0  1  0.694158  0.688111  0.500777  1
  Pr  Pr1  1  0.375050  0.010676  0.447689  1
  Pr  Pr2  1  0.489526  0.873900  0.698813  1
  Pr  Pr3  1  0.510871  0.123562  0.197373  1
  Pr  Pr4  1  0.876428  0.488264  0.300639  1
  Pr  Pr5  1  0.122201  0.509717  0.799786  1
  Pr  Pr6  1  0.625736  0.988579  0.947979  1
  Pr  Pr7  1  0.004576  0.377964  0.551966  1
  Pr  Pr8  1  0.988359  0.625572  0.051209  1
  Pr  Pr9  1  0.134491  0.985236  0.874008  1
  Pr  Pr10  1  0.517311  0.630140  0.125910  1
  Pr  Pr11  1  0.470048  0.362588  0.628539  1
  Pr  Pr12  1  0.627095  0.516661  0.873163  1
  Pr  Pr13  1  0.371972  0.483373  0.373129  1
  Pr  Pr14  1  0.873407  0.021061  0.377004  1
  Pr  Pr15  1  0.982057  0.125930  0.123495  1
  Pr  Pr16  1  0.024767  0.881311  0.625555  1
  Nd  Nd17  1  0.305510  0.305899  0.998161  1
  Nd  Nd18  1  0.192005  0.808627  0.249618  1
  Nd  Nd19  1  0.815186  0.187528  0.750297  1
  Si  Si20  1  0.332581  0.694011  0.950799  1
  Si  Si21  1  0.663203  0.303955  0.452692  1
  Si  Si22  1  0.696461  0.334316  0.048732  1
  Si  Si23  1  0.304443  0.669465  0.548076  1
  Si  Si24  1  0.806762  0.831808  0.203351  1
  Si  Si25  1  0.168426  0.196177  0.297344  1
  Si  Si26  1  0.834014  0.803498  0.798128  1
  Si  Si27  1  0.288045  0.921963  0.059211  1
  Si  Si28  1  0.579416  0.787343  0.310172  1
  Si  Si29  1  0.425342  0.207759  0.810743  1
  Si  Si30  1  0.785442  0.579302  0.690131  1
  Si  Si31  1  0.212709  0.422352  0.189125  1
  Si  Si32  1  0.706801  0.076594  0.559934  1
  Si  Si33  1  0.920298  0.287918  0.940447  1
  Si  Si34  1  0.079664  0.715569  0.440701  1
  Ni  Ni35  1  0.195636  0.173271  0.705304  1
