# generated using pymatgen
data_CoCuPtS4
_symmetry_space_group_name_H-M   'P 1'
_cell_length_a   6.82692657
_cell_length_b   6.91859716
_cell_length_c   6.91859760
_cell_angle_alpha   60.73759646
_cell_angle_beta   60.43734929
_cell_angle_gamma   60.43734790
_symmetry_Int_Tables_number   1
_chemical_formula_structural   CoCuPtS4
_chemical_formula_sum   'Co2 Cu2 Pt2 S8'
_cell_volume   233.87314180
_cell_formula_units_Z   2
loop_
 _symmetry_equiv_pos_site_id
 _symmetry_equiv_pos_as_xyz
  1  'x, y, z'
loop_
 _atom_site_type_symbol
 _atom_site_label
 _atom_site_symmetry_multiplicity
 _atom_site_fract_x
 _atom_site_fract_y
 _atom_site_fract_z
 _atom_site_occupancy
  Co  Co0  1  0.125000  0.125000  0.125000  1
  Co  Co1  1  0.625000  0.125000  0.125000  1
  Cu  Cu2  1  0.755005  0.744995  0.744995  1
  Cu  Cu3  1  0.494995  0.505005  0.505005  1
  Pt  Pt4  1  0.125000  0.625000  0.125000  1
  Pt  Pt5  1  0.125000  0.125000  0.625000  1
  S  S6  1  0.880712  0.337228  0.901348  1
  S  S7  1  0.369288  0.348652  0.912772  1
  S  S8  1  0.379743  0.356272  0.356272  1
  S  S9  1  0.907714  0.356272  0.356272  1
  S  S10  1  0.870257  0.893728  0.893728  1
  S  S11  1  0.342286  0.893728  0.893728  1
  S  S12  1  0.369288  0.912772  0.348652  1
  S  S13  1  0.880712  0.901348  0.337228  1
