# generated using pymatgen
data_Tb9Sm8Sc3Sn16
_symmetry_space_group_name_H-M   'P 1'
_cell_length_a   8.00486002
_cell_length_b   8.19774602
_cell_length_c   15.52597200
_cell_angle_alpha   90.00000000
_cell_angle_beta   90.00000000
_cell_angle_gamma   89.99147434
_symmetry_Int_Tables_number   1
_chemical_formula_structural   Tb9Sm8Sc3Sn16
_chemical_formula_sum   'Tb9 Sm8 Sc3 Sn16'
_cell_volume   1018.84236420
_cell_formula_units_Z   1
loop_
 _symmetry_equiv_pos_site_id
 _symmetry_equiv_pos_as_xyz
  1  'x, y, z'
loop_
 _atom_site_type_symbol
 _atom_site_label
 _atom_site_symmetry_multiplicity
 _atom_site_fract_x
 _atom_site_fract_y
 _atom_site_fract_z
 _atom_site_occupancy
  Tb  Tb0  1  0.357364  0.837474  0.876796  1
  Tb  Tb1  1  0.856037  0.663649  0.623035  1
  Tb  Tb2  1  0.643169  0.162561  0.375396  1
  Tb  Tb3  1  0.143618  0.337473  0.125395  1
  Tb  Tb4  1  0.643169  0.162561  0.124604  1
  Tb  Tb5  1  0.143618  0.337473  0.374605  1
  Tb  Tb6  1  0.357364  0.837474  0.623204  1
  Tb  Tb7  1  0.856037  0.663649  0.876965  1
  Tb  Tb8  1  0.188649  0.501419  0.750000  1
  Sm  Sm9  1  0.513740  0.320302  0.904594  1
  Sm  Sm10  1  0.012463  0.178289  0.595307  1
  Sm  Sm11  1  0.485927  0.679017  0.402984  1
  Sm  Sm12  1  0.986358  0.821044  0.096330  1
  Sm  Sm13  1  0.485927  0.679017  0.097016  1
  Sm  Sm14  1  0.986358  0.821044  0.403670  1
  Sm  Sm15  1  0.513740  0.320302  0.595406  1
  Sm  Sm16  1  0.012463  0.178289  0.904693  1
  Sc  Sc17  1  0.689627  0.997091  0.750000  1
  Sc  Sc18  1  0.810693  0.498287  0.250000  1
  Sc  Sc19  1  0.310757  0.001577  0.250000  1
  Sn  Sn20  1  0.303746  0.038164  0.044644  1
  Sn  Sn21  1  0.803915  0.462174  0.455156  1
  Sn  Sn22  1  0.695711  0.962372  0.543535  1
  Sn  Sn23  1  0.195917  0.539189  0.959173  1
  Sn  Sn24  1  0.695711  0.962372  0.956465  1
  Sn  Sn25  1  0.195917  0.539189  0.540827  1
  Sn  Sn26  1  0.303746  0.038164  0.455356  1
  Sn  Sn27  1  0.803915  0.462174  0.044844  1
  Sn  Sn28  1  0.556436  0.621764  0.750000  1
  Sn  Sn29  1  0.048901  0.884823  0.750000  1
  Sn  Sn30  1  0.450752  0.383108  0.250000  1
  Sn  Sn31  1  0.949911  0.116526  0.250000  1
  Sn  Sn32  1  0.325590  0.144594  0.750000  1
  Sn  Sn33  1  0.818345  0.346775  0.750000  1
  Sn  Sn34  1  0.677784  0.848319  0.250000  1
  Sn  Sn35  1  0.176626  0.652303  0.250000  1
