# generated using pymatgen
data_Yb6InRuAu
_symmetry_space_group_name_H-M   'P 1'
_cell_length_a   8.80699288
_cell_length_b   8.80699280
_cell_length_c   8.80699300
_cell_angle_alpha   114.88230417
_cell_angle_beta   114.46983701
_cell_angle_gamma   99.49898955
_symmetry_Int_Tables_number   1
_chemical_formula_structural   Yb6InRuAu
_chemical_formula_sum   'Yb12 In2 Ru2 Au2'
_cell_volume   514.20187982
_cell_formula_units_Z   2
loop_
 _symmetry_equiv_pos_site_id
 _symmetry_equiv_pos_as_xyz
  1  'x, y, z'
loop_
 _atom_site_type_symbol
 _atom_site_label
 _atom_site_symmetry_multiplicity
 _atom_site_fract_x
 _atom_site_fract_y
 _atom_site_fract_z
 _atom_site_occupancy
  Yb  Yb0  1  0.433122  0.235770  0.197354  1
  Yb  Yb1  1  0.566878  0.764230  0.802646  1
  Yb  Yb2  1  0.038416  0.235770  0.802646  1
  Yb  Yb3  1  0.961584  0.764230  0.197354  1
  Yb  Yb4  1  0.189717  0.287519  0.477236  1
  Yb  Yb5  1  0.810283  0.712481  0.522764  1
  Yb  Yb6  1  0.189717  0.712481  0.902198  1
  Yb  Yb7  1  0.810283  0.287519  0.097802  1
  Yb  Yb8  1  0.352435  0.674716  0.322281  1
  Yb  Yb9  1  0.647565  0.325284  0.677719  1
  Yb  Yb10  1  0.352435  0.030152  0.677719  1
  Yb  Yb11  1  0.647565  0.969848  0.322281  1
  In  In12  1  0.500000  0.500000  0.000000  1
  In  In13  1  0.000000  0.000000  0.000000  1
  Ru  Ru14  1  0.303814  0.000000  0.303814  1
  Ru  Ru15  1  0.696186  0.000000  0.696186  1
  Au  Au16  1  0.135620  0.635620  0.500000  1
  Au  Au17  1  0.864380  0.364380  0.500000  1
