# generated using pymatgen
data_Dy5Y(Tm2Sb3)2
_symmetry_space_group_name_H-M   'P 1'
_cell_length_a   6.25063600
_cell_length_b   8.95679508
_cell_length_c   8.95656400
_cell_angle_alpha   120.00085181
_cell_angle_beta   90.00000000
_cell_angle_gamma   90.00000000
_symmetry_Int_Tables_number   1
_chemical_formula_structural   Dy5Y(Tm2Sb3)2
_chemical_formula_sum   'Dy5 Y1 Tm4 Sb6'
_cell_volume   434.25535717
_cell_formula_units_Z   1
loop_
 _symmetry_equiv_pos_site_id
 _symmetry_equiv_pos_as_xyz
  1  'x, y, z'
loop_
 _atom_site_type_symbol
 _atom_site_label
 _atom_site_symmetry_multiplicity
 _atom_site_fract_x
 _atom_site_fract_y
 _atom_site_fract_z
 _atom_site_occupancy
  Dy  Dy0  1  0.750001  0.753190  0.753218  1
  Dy  Dy1  1  0.750001  0.999972  0.246782  1
  Dy  Dy2  1  0.249999  0.753288  0.000000  1
  Dy  Dy3  1  0.250001  0.246761  0.246807  1
  Dy  Dy4  1  0.250001  0.999954  0.753193  1
  Y  Y5  1  0.749999  0.246717  0.000000  1
  Tm  Tm6  1  0.499972  0.333341  0.666669  1
  Tm  Tm7  1  0.499972  0.666672  0.333331  1
  Tm  Tm8  1  0.000026  0.666676  0.333331  1
  Tm  Tm9  1  0.000026  0.333345  0.666669  1
  Sb  Sb10  1  0.749999  0.610407  0.000000  1
  Sb  Sb11  1  0.750001  0.389635  0.389658  1
  Sb  Sb12  1  0.750001  0.999977  0.610342  1
  Sb  Sb13  1  0.249999  0.389643  0.000000  1
  Sb  Sb14  1  0.250001  0.610391  0.610360  1
  Sb  Sb15  1  0.250001  0.000031  0.389640  1
