# generated using pymatgen
data_Eu3PtRh2Pb3
_symmetry_space_group_name_H-M   'P 1'
_cell_length_a   7.82938000
_cell_length_b   7.82938089
_cell_length_c   4.20533200
_cell_angle_alpha   90.00000000
_cell_angle_beta   90.00000000
_cell_angle_gamma   119.99999625
_symmetry_Int_Tables_number   1
_chemical_formula_structural   Eu3PtRh2Pb3
_chemical_formula_sum   'Eu3 Pt1 Rh2 Pb3'
_cell_volume   223.24705032
_cell_formula_units_Z   1
loop_
 _symmetry_equiv_pos_site_id
 _symmetry_equiv_pos_as_xyz
  1  'x, y, z'
loop_
 _atom_site_type_symbol
 _atom_site_label
 _atom_site_symmetry_multiplicity
 _atom_site_fract_x
 _atom_site_fract_y
 _atom_site_fract_z
 _atom_site_occupancy
  Eu  Eu0  1  0.002011  0.589869  0.000000  1
  Eu  Eu1  1  0.410131  0.412143  0.000000  1
  Eu  Eu2  1  0.587857  0.997989  0.000000  1
  Pt  Pt3  1  0.666667  0.333333  0.500000  1
  Rh  Rh4  1  0.000000  0.000000  0.000000  1
  Rh  Rh5  1  0.333333  0.666667  0.500000  1
  Pb  Pb6  1  0.740852  0.749589  0.500000  1
  Pb  Pb7  1  0.008737  0.259148  0.500000  1
  Pb  Pb8  1  0.250411  0.991263  0.500000  1
