# generated using pymatgen
data_H5ClF8
_symmetry_space_group_name_H-M   'P 1'
_cell_length_a   3.73385774
_cell_length_b   5.65283050
_cell_length_c   9.56657920
_cell_angle_alpha   105.51117737
_cell_angle_beta   90.72918155
_cell_angle_gamma   95.77974509
_symmetry_Int_Tables_number   1
_chemical_formula_structural   H5ClF8
_chemical_formula_sum   'H5 Cl1 F8'
_cell_volume   193.41141015
_cell_formula_units_Z   1
loop_
 _symmetry_equiv_pos_site_id
 _symmetry_equiv_pos_as_xyz
  1  'x, y, z'
loop_
 _atom_site_type_symbol
 _atom_site_label
 _atom_site_symmetry_multiplicity
 _atom_site_fract_x
 _atom_site_fract_y
 _atom_site_fract_z
 _atom_site_occupancy
  H  H0  1  0.375227  0.745438  0.168642  1
  H  H1  1  0.900747  0.345990  0.903934  1
  H  H2  1  0.755400  0.021719  0.932547  1
  H  H3  1  0.781793  0.652147  0.837043  1
  H  H4  1  0.129489  0.050120  0.231480  1
  Cl  Cl5  1  0.245190  0.555993  0.404284  1
  F  F6  1  0.404397  0.845521  0.479616  1
  F  F7  1  0.828327  0.196037  0.994202  1
  F  F8  1  0.963141  0.448704  0.834080  1
  F  F9  1  0.027803  0.538742  0.555570  1
  F  F10  1  0.651743  0.798405  0.833382  1
  F  F11  1  0.004617  0.158648  0.313206  1
  F  F12  1  0.496453  0.579779  0.233609  1
  F  F13  1  0.282259  0.873679  0.124417  1
