# generated using pymatgen
data_Zr6BiIrPb
_symmetry_space_group_name_H-M   'P 1'
_cell_length_a   3.63800300
_cell_length_b   8.09142113
_cell_length_c   8.09142200
_cell_angle_alpha   120.00000356
_cell_angle_beta   90.00000000
_cell_angle_gamma   90.00000000
_symmetry_Int_Tables_number   1
_chemical_formula_structural   Zr6BiIrPb
_chemical_formula_sum   'Zr6 Bi1 Ir1 Pb1'
_cell_volume   206.27344706
_cell_formula_units_Z   1
loop_
 _symmetry_equiv_pos_site_id
 _symmetry_equiv_pos_as_xyz
  1  'x, y, z'
loop_
 _atom_site_type_symbol
 _atom_site_label
 _atom_site_symmetry_multiplicity
 _atom_site_fract_x
 _atom_site_fract_y
 _atom_site_fract_z
 _atom_site_occupancy
  Zr  Zr0  1  0.500000  0.753118  0.751943  1
  Zr  Zr1  1  0.500000  0.998824  0.246882  1
  Zr  Zr2  1  0.500000  0.248057  0.001176  1
  Zr  Zr3  1  0.000000  0.392548  0.394469  1
  Zr  Zr4  1  0.000000  0.001923  0.607452  1
  Zr  Zr5  1  0.000000  0.605531  0.998077  1
  Bi  Bi6  1  0.500000  0.333333  0.666667  1
  Ir  Ir7  1  0.000000  0.000000  0.000000  1
  Pb  Pb8  1  0.500000  0.666667  0.333333  1
