# generated using pymatgen
data_Tb7Er3(Ir2Ru)2
_symmetry_space_group_name_H-M   'P 1'
_cell_length_a   10.85367804
_cell_length_b   10.84726400
_cell_length_c   6.43448703
_cell_angle_alpha   90.00000000
_cell_angle_beta   90.01037159
_cell_angle_gamma   90.00000000
_symmetry_Int_Tables_number   1
_chemical_formula_structural   Tb7Er3(Ir2Ru)2
_chemical_formula_sum   'Tb14 Er6 Ir8 Ru4'
_cell_volume   757.54958986
_cell_formula_units_Z   2
loop_
 _symmetry_equiv_pos_site_id
 _symmetry_equiv_pos_as_xyz
  1  'x, y, z'
loop_
 _atom_site_type_symbol
 _atom_site_label
 _atom_site_symmetry_multiplicity
 _atom_site_fract_x
 _atom_site_fract_y
 _atom_site_fract_z
 _atom_site_occupancy
  Tb  Tb0  1  0.292381  0.086681  0.377038  1
  Tb  Tb1  1  0.292381  0.913319  0.877038  1
  Tb  Tb2  1  0.707555  0.086364  0.877346  1
  Tb  Tb3  1  0.707555  0.913636  0.377346  1
  Tb  Tb4  1  0.586511  0.792707  0.877531  1
  Tb  Tb5  1  0.586511  0.207293  0.377531  1
  Tb  Tb6  1  0.413393  0.792744  0.377839  1
  Tb  Tb7  1  0.413393  0.207256  0.877839  1
  Tb  Tb8  1  0.206640  0.413679  0.622628  1
  Tb  Tb9  1  0.206640  0.586321  0.122628  1
  Tb  Tb10  1  0.793225  0.413266  0.122646  1
  Tb  Tb11  1  0.793225  0.586734  0.622646  1
  Tb  Tb12  1  0.914036  0.707440  0.122536  1
  Tb  Tb13  1  0.914036  0.292560  0.622536  1
  Er  Er14  1  0.086188  0.707094  0.621552  1
  Er  Er15  1  0.086188  0.292906  0.121552  1
  Er  Er16  1  0.000267  0.999658  0.499942  1
  Er  Er17  1  0.000267  0.000342  0.999942  1
  Er  Er18  1  0.499863  0.499907  0.000111  1
  Er  Er19  1  0.499863  0.500093  0.500111  1
  Ir  Ir20  1  0.849719  0.151579  0.249645  1
  Ir  Ir21  1  0.849719  0.848421  0.749645  1
  Ir  Ir22  1  0.150688  0.151741  0.751696  1
  Ir  Ir23  1  0.150688  0.848259  0.251696  1
  Ir  Ir24  1  0.651014  0.349144  0.750006  1
  Ir  Ir25  1  0.651014  0.650856  0.250006  1
  Ir  Ir26  1  0.347930  0.349131  0.249705  1
  Ir  Ir27  1  0.347930  0.650869  0.749705  1
  Ru  Ru28  1  0.499948  0.999911  0.121607  1
  Ru  Ru29  1  0.499948  0.000089  0.621607  1
  Ru  Ru30  1  0.000642  0.499777  0.878174  1
  Ru  Ru31  1  0.000642  0.500223  0.378174  1
