# generated using pymatgen
data_ReMo2Ir5
_symmetry_space_group_name_H-M   'P 1'
_cell_length_a   5.53210700
_cell_length_b   5.56386878
_cell_length_c   4.43109400
_cell_angle_alpha   90.00000000
_cell_angle_beta   90.00000000
_cell_angle_gamma   119.81133481
_symmetry_Int_Tables_number   1
_chemical_formula_structural   ReMo2Ir5
_chemical_formula_sum   'Re1 Mo2 Ir5'
_cell_volume   118.33999696
_cell_formula_units_Z   1
loop_
 _symmetry_equiv_pos_site_id
 _symmetry_equiv_pos_as_xyz
  1  'x, y, z'
loop_
 _atom_site_type_symbol
 _atom_site_label
 _atom_site_symmetry_multiplicity
 _atom_site_fract_x
 _atom_site_fract_y
 _atom_site_fract_z
 _atom_site_occupancy
  Re  Re0  1  0.166340  0.332681  0.250000  1
  Mo  Mo1  1  0.668270  0.336540  0.250000  1
  Mo  Mo2  1  0.332670  0.665342  0.750000  1
  Ir  Ir3  1  0.832189  0.165929  0.750000  1
  Ir  Ir4  1  0.333741  0.165929  0.750000  1
  Ir  Ir5  1  0.834789  0.669577  0.750000  1
  Ir  Ir6  1  0.164606  0.832001  0.250000  1
  Ir  Ir7  1  0.667394  0.832001  0.250000  1
