# generated using pymatgen
data_Ho4Hf3MgPt4
_symmetry_space_group_name_H-M   'P 1'
_cell_length_a   4.63027700
_cell_length_b   7.02762221
_cell_length_c   8.22778911
_cell_angle_alpha   92.87938153
_cell_angle_beta   90.00000000
_cell_angle_gamma   90.00000000
_symmetry_Int_Tables_number   1
_chemical_formula_structural   Ho4Hf3MgPt4
_chemical_formula_sum   'Ho4 Hf3 Mg1 Pt4'
_cell_volume   267.39290984
_cell_formula_units_Z   1
loop_
 _symmetry_equiv_pos_site_id
 _symmetry_equiv_pos_as_xyz
  1  'x, y, z'
loop_
 _atom_site_type_symbol
 _atom_site_label
 _atom_site_symmetry_multiplicity
 _atom_site_fract_x
 _atom_site_fract_y
 _atom_site_fract_z
 _atom_site_occupancy
  Ho  Ho0  1  0.250000  0.982093  0.319549  1
  Ho  Ho1  1  0.250000  0.468140  0.169552  1
  Ho  Ho2  1  0.750000  0.029176  0.688389  1
  Ho  Ho3  1  0.750000  0.514802  0.829492  1
  Hf  Hf4  1  0.250000  0.364899  0.571494  1
  Hf  Hf5  1  0.250000  0.853303  0.932732  1
  Hf  Hf6  1  0.750000  0.645951  0.423682  1
  Mg  Mg7  1  0.750000  0.145847  0.074028  1
  Pt  Pt8  1  0.250000  0.230235  0.878013  1
  Pt  Pt9  1  0.250000  0.738397  0.599018  1
  Pt  Pt10  1  0.750000  0.757968  0.106210  1
  Pt  Pt11  1  0.750000  0.269190  0.407841  1
