# generated using pymatgen
data_Hf3ZrCd(PO4)6
_symmetry_space_group_name_H-M   'P 1'
_cell_length_a   8.92530500
_cell_length_b   8.92530555
_cell_length_c   9.06507214
_cell_angle_alpha   89.99999810
_cell_angle_beta   119.49126393
_cell_angle_gamma   59.99999418
_symmetry_Int_Tables_number   1
_chemical_formula_structural   Hf3ZrCd(PO4)6
_chemical_formula_sum   'Hf3 Zr1 Cd1 P6 O24'
_cell_volume   514.51667483
_cell_formula_units_Z   1
loop_
 _symmetry_equiv_pos_site_id
 _symmetry_equiv_pos_as_xyz
  1  'x, y, z'
loop_
 _atom_site_type_symbol
 _atom_site_label
 _atom_site_symmetry_multiplicity
 _atom_site_fract_x
 _atom_site_fract_y
 _atom_site_fract_z
 _atom_site_occupancy
  Hf  Hf0  1  0.704659  0.647670  0.056987  1
  Hf  Hf1  1  0.274057  0.862971  0.411086  1
  Hf  Hf2  1  0.725912  0.137044  0.588867  1
  Zr  Zr3  1  0.295157  0.352422  0.942736  1
  Cd  Cd4  1  0.000027  0.499987  0.500040  1
  P  P5  1  0.213753  0.255605  0.260986  1
  P  P6  1  0.516591  0.530643  0.260986  1
  P  P7  1  0.791629  0.952766  0.260986  1
  P  P8  1  0.209720  0.043738  0.739755  1
  P  P9  1  0.486298  0.469965  0.739755  1
  P  P10  1  0.783494  0.746541  0.739755  1
  O  O11  1  0.581418  0.108108  0.088217  1
  O  O12  1  0.196325  0.310473  0.088217  1
  O  O13  1  0.398691  0.493200  0.088217  1
  O  O14  1  0.199190  0.091959  0.262679  1
  O  O15  1  0.354638  0.708852  0.262679  1
  O  O16  1  0.971531  0.936511  0.262679  1
  O  O17  1  0.023923  0.420862  0.255204  1
  O  O18  1  0.676066  0.555214  0.255204  1
  O  O19  1  0.810418  0.768719  0.255204  1
  O  O20  1  0.417004  0.215367  0.426478  1
  O  O21  1  0.641845  0.367629  0.426478  1
  O  O22  1  0.794108  0.990526  0.426478  1
  O  O23  1  0.205130  0.005952  0.573756  1
  O  O24  1  0.362674  0.631375  0.573756  1
  O  O25  1  0.579709  0.788917  0.573756  1
  O  O26  1  0.188712  0.229050  0.741897  1
  O  O27  1  0.324135  0.446815  0.741897  1
  O  O28  1  0.970948  0.582237  0.741897  1
  O  O29  1  0.029889  0.060136  0.738733  1
  O  O30  1  0.648708  0.291155  0.738733  1
  O  O31  1  0.798869  0.909974  0.738733  1
  O  O32  1  0.602697  0.508505  0.912387  1
  O  O33  1  0.801185  0.690310  0.912387  1
  O  O34  1  0.420892  0.888799  0.912387  1
