# generated using pymatgen
data_Nb2V2Pd(RhSe6)2
_symmetry_space_group_name_H-M   'P 1'
_cell_length_a   7.39177056
_cell_length_b   7.39176985
_cell_length_c   19.34995587
_cell_angle_alpha   70.36849423
_cell_angle_beta   70.36849661
_cell_angle_gamma   26.97014108
_symmetry_Int_Tables_number   1
_chemical_formula_structural   Nb2V2Pd(RhSe6)2
_chemical_formula_sum   'Nb2 V2 Pd1 Rh2 Se12'
_cell_volume   449.96298076
_cell_formula_units_Z   1
loop_
 _symmetry_equiv_pos_site_id
 _symmetry_equiv_pos_as_xyz
  1  'x, y, z'
loop_
 _atom_site_type_symbol
 _atom_site_label
 _atom_site_symmetry_multiplicity
 _atom_site_fract_x
 _atom_site_fract_y
 _atom_site_fract_z
 _atom_site_occupancy
  Nb  Nb0  1  0.622023  0.622023  0.847897  1
  Nb  Nb1  1  0.377977  0.377977  0.152103  1
  V  V2  1  0.746050  0.746050  0.592564  1
  V  V3  1  0.253950  0.253950  0.407436  1
  Pd  Pd4  1  0.000000  0.000000  0.000000  1
  Rh  Rh5  1  0.769919  0.769919  0.284535  1
  Rh  Rh6  1  0.230081  0.230081  0.715465  1
  Se  Se7  1  0.850760  0.850760  0.454270  1
  Se  Se8  1  0.024436  0.024436  0.120342  1
  Se  Se9  1  0.807140  0.807140  0.769413  1
  Se  Se10  1  0.394799  0.394799  0.288392  1
  Se  Se11  1  0.179458  0.179458  0.927830  1
  Se  Se12  1  0.605201  0.605201  0.711608  1
  Se  Se13  1  0.149240  0.149240  0.545730  1
  Se  Se14  1  0.820542  0.820542  0.072170  1
  Se  Se15  1  0.368440  0.368440  0.596870  1
  Se  Se16  1  0.975564  0.975564  0.879658  1
  Se  Se17  1  0.192860  0.192860  0.230587  1
  Se  Se18  1  0.631560  0.631560  0.403130  1
