# generated using pymatgen
data_Hf2Zr(TiOs)2
_symmetry_space_group_name_H-M   'P 1'
_cell_length_a   7.32264469
_cell_length_b   7.32264441
_cell_length_c   7.32264372
_cell_angle_alpha   36.94371446
_cell_angle_beta   36.94372060
_cell_angle_gamma   36.94370861
_symmetry_Int_Tables_number   1
_chemical_formula_structural   Hf2Zr(TiOs)2
_chemical_formula_sum   'Hf2 Zr1 Ti2 Os2'
_cell_volume   127.07730006
_cell_formula_units_Z   1
loop_
 _symmetry_equiv_pos_site_id
 _symmetry_equiv_pos_as_xyz
  1  'x, y, z'
loop_
 _atom_site_type_symbol
 _atom_site_label
 _atom_site_symmetry_multiplicity
 _atom_site_fract_x
 _atom_site_fract_y
 _atom_site_fract_z
 _atom_site_occupancy
  Hf  Hf0  1  0.192784  0.192784  0.192784  1
  Hf  Hf1  1  0.768297  0.768297  0.768297  1
  Zr  Zr2  1  0.342025  0.342025  0.342025  1
  Ti  Ti3  1  0.609550  0.609550  0.609550  1
  Ti  Ti4  1  0.925674  0.925674  0.925674  1
  Os  Os5  1  0.053201  0.053201  0.053201  1
  Os  Os6  1  0.483469  0.483469  0.483469  1
