# generated using pymatgen
data_Tb5Er5In4(HgPd)4
_symmetry_space_group_name_H-M   'P 1'
_cell_length_a   3.63120100
_cell_length_b   8.03254849
_cell_length_c   18.29368101
_cell_angle_alpha   89.90474425
_cell_angle_beta   90.00000000
_cell_angle_gamma   90.00000000
_symmetry_Int_Tables_number   1
_chemical_formula_structural   Tb5Er5In4(HgPd)4
_chemical_formula_sum   'Tb5 Er5 In4 Hg4 Pd4'
_cell_volume   533.58565685
_cell_formula_units_Z   1
loop_
 _symmetry_equiv_pos_site_id
 _symmetry_equiv_pos_as_xyz
  1  'x, y, z'
loop_
 _atom_site_type_symbol
 _atom_site_label
 _atom_site_symmetry_multiplicity
 _atom_site_fract_x
 _atom_site_fract_y
 _atom_site_fract_z
 _atom_site_occupancy
  Tb  Tb0  1  0.000000  0.500794  0.499841  1
  Tb  Tb1  1  0.000000  0.999464  0.000001  1
  Tb  Tb2  1  0.000000  0.744220  0.285338  1
  Tb  Tb3  1  0.000000  0.256854  0.714224  1
  Tb  Tb4  1  0.000000  0.755286  0.785731  1
  Er  Er5  1  0.000000  0.243922  0.214330  1
  Er  Er6  1  0.000000  0.609089  0.084368  1
  Er  Er7  1  0.000000  0.389368  0.917112  1
  Er  Er8  1  0.000000  0.891119  0.583758  1
  Er  Er9  1  0.000000  0.110877  0.415260  1
  In  In10  1  0.500000  0.583351  0.649830  1
  In  In11  1  0.500000  0.417105  0.349637  1
  In  In12  1  0.500000  0.918456  0.149715  1
  In  In13  1  0.500000  0.082635  0.850442  1
  Hg  Hg14  1  0.500000  0.708228  0.935492  1
  Hg  Hg15  1  0.500000  0.290126  0.065946  1
  Hg  Hg16  1  0.500000  0.792087  0.434875  1
  Hg  Hg17  1  0.500000  0.209452  0.564509  1
  Pd  Pd18  1  0.500000  0.529163  0.197534  1
  Pd  Pd19  1  0.500000  0.465994  0.803145  1
  Pd  Pd20  1  0.500000  0.967084  0.697173  1
  Pd  Pd21  1  0.500000  0.035326  0.301738  1
