# generated using pymatgen
data_GaCoAsO5
_symmetry_space_group_name_H-M   'P 1'
_cell_length_a   7.49868309
_cell_length_b   10.77010200
_cell_length_c   5.69136231
_cell_angle_alpha   90.00000000
_cell_angle_beta   99.04304003
_cell_angle_gamma   90.00000000
_symmetry_Int_Tables_number   1
_chemical_formula_structural   GaCoAsO5
_chemical_formula_sum   'Ga4 Co4 As4 O20'
_cell_volume   453.93030726
_cell_formula_units_Z   4
loop_
 _symmetry_equiv_pos_site_id
 _symmetry_equiv_pos_as_xyz
  1  'x, y, z'
loop_
 _atom_site_type_symbol
 _atom_site_label
 _atom_site_symmetry_multiplicity
 _atom_site_fract_x
 _atom_site_fract_y
 _atom_site_fract_z
 _atom_site_occupancy
  Ga  Ga0  1  0.858898  0.676323  0.047748  1
  Ga  Ga1  1  0.141101  0.176324  0.452252  1
  Ga  Ga2  1  0.858898  0.823676  0.547748  1
  Ga  Ga3  1  0.141102  0.323676  0.952252  1
  Co  Co4  1  0.516689  0.858004  0.105615  1
  Co  Co5  1  0.483310  0.358005  0.394385  1
  Co  Co6  1  0.516689  0.641995  0.605615  1
  Co  Co7  1  0.483311  0.141995  0.894385  1
  As  As8  1  0.277884  0.603403  0.061751  1
  As  As9  1  0.722115  0.103404  0.438248  1
  As  As10  1  0.277884  0.896596  0.561751  1
  As  As11  1  0.722115  0.396596  0.938248  1
  O  O12  1  0.573421  0.309829  0.074780  1
  O  O13  1  0.809017  0.512579  0.130835  1
  O  O14  1  0.108048  0.698442  0.126772  1
  O  O15  1  0.604635  0.041636  0.179203  1
  O  O16  1  0.239130  0.287314  0.261985  1
  O  O17  1  0.760869  0.787314  0.238013  1
  O  O18  1  0.395365  0.541636  0.320796  1
  O  O19  1  0.891952  0.198443  0.373229  1
  O  O20  1  0.190984  0.012579  0.369166  1
  O  O21  1  0.426580  0.809829  0.425220  1
  O  O22  1  0.573421  0.190171  0.574780  1
  O  O23  1  0.809017  0.987421  0.630835  1
  O  O24  1  0.108047  0.801557  0.626770  1
  O  O25  1  0.604636  0.458364  0.679203  1
  O  O26  1  0.239131  0.212685  0.761985  1
  O  O27  1  0.760869  0.712686  0.738013  1
  O  O28  1  0.395364  0.958364  0.820796  1
  O  O29  1  0.891952  0.301557  0.873229  1
  O  O30  1  0.190984  0.487421  0.869166  1
  O  O31  1  0.426580  0.690172  0.925220  1
