# generated using pymatgen
data_Dy4Si4OsRuRh2
_symmetry_space_group_name_H-M   'P 1'
_cell_length_a   4.31185000
_cell_length_b   6.95111756
_cell_length_c   7.22394115
_cell_angle_alpha   90.11338324
_cell_angle_beta   90.00000000
_cell_angle_gamma   90.00000000
_symmetry_Int_Tables_number   1
_chemical_formula_structural   Dy4Si4OsRuRh2
_chemical_formula_sum   'Dy4 Si4 Os1 Ru1 Rh2'
_cell_volume   216.51681343
_cell_formula_units_Z   1
loop_
 _symmetry_equiv_pos_site_id
 _symmetry_equiv_pos_as_xyz
  1  'x, y, z'
loop_
 _atom_site_type_symbol
 _atom_site_label
 _atom_site_symmetry_multiplicity
 _atom_site_fract_x
 _atom_site_fract_y
 _atom_site_fract_z
 _atom_site_occupancy
  Dy  Dy0  1  0.250000  0.494146  0.184992  1
  Dy  Dy1  1  0.750000  0.505482  0.815744  1
  Dy  Dy2  1  0.750000  0.012141  0.688062  1
  Dy  Dy3  1  0.250000  0.986802  0.311057  1
  Si  Si4  1  0.250000  0.799885  0.884254  1
  Si  Si5  1  0.750000  0.199606  0.113759  1
  Si  Si6  1  0.750000  0.698201  0.402401  1
  Si  Si7  1  0.250000  0.303472  0.599621  1
  Os  Os8  1  0.250000  0.655141  0.569199  1
  Ru  Ru9  1  0.750000  0.345846  0.431368  1
  Rh  Rh10  1  0.750000  0.845506  0.066714  1
  Rh  Rh11  1  0.250000  0.153773  0.932829  1
