# generated using pymatgen
data_Yb2ScOsO6
_symmetry_space_group_name_H-M   'P 1'
_cell_length_a   5.64820400
_cell_length_b   5.41325030
_cell_length_c   9.45560506
_cell_angle_alpha   55.34667732
_cell_angle_beta   90.00000000
_cell_angle_gamma   90.00000000
_symmetry_Int_Tables_number   1
_chemical_formula_structural   Yb2ScOsO6
_chemical_formula_sum   'Yb4 Sc2 Os2 O12'
_cell_volume   237.82116155
_cell_formula_units_Z   2
loop_
 _symmetry_equiv_pos_site_id
 _symmetry_equiv_pos_as_xyz
  1  'x, y, z'
loop_
 _atom_site_type_symbol
 _atom_site_label
 _atom_site_symmetry_multiplicity
 _atom_site_fract_x
 _atom_site_fract_y
 _atom_site_fract_z
 _atom_site_occupancy
  Yb  Yb0  1  0.938511  0.233205  0.749662  1
  Yb  Yb1  1  0.561489  0.233205  0.249662  1
  Yb  Yb2  1  0.061489  0.766795  0.250338  1
  Yb  Yb3  1  0.438511  0.766795  0.750338  1
  Sc  Sc4  1  0.000000  0.500000  0.000000  1
  Sc  Sc5  1  0.500000  0.500000  0.500000  1
  Os  Os6  1  0.000000  0.000000  0.500000  1
  Os  Os7  1  0.500000  0.000000  0.000000  1
  O  O8  1  0.535565  0.346075  0.757656  1
  O  O9  1  0.964435  0.346075  0.257656  1
  O  O10  1  0.464435  0.653925  0.242344  1
  O  O11  1  0.035565  0.653925  0.742344  1
  O  O12  1  0.694358  0.757509  0.947397  1
  O  O13  1  0.805642  0.757509  0.447397  1
  O  O14  1  0.305642  0.242491  0.052603  1
  O  O15  1  0.194358  0.242491  0.552603  1
  O  O16  1  0.791983  0.133578  0.055252  1
  O  O17  1  0.708017  0.133578  0.555252  1
  O  O18  1  0.208017  0.866422  0.944748  1
  O  O19  1  0.291983  0.866422  0.444748  1
