# generated using pymatgen
data_Y(Ga3Ni)3
_symmetry_space_group_name_H-M   'P 1'
_cell_length_a   10.11105623
_cell_length_b   10.11105626
_cell_length_c   10.11105437
_cell_angle_alpha   42.33999482
_cell_angle_beta   42.33999250
_cell_angle_gamma   42.34000004
_symmetry_Int_Tables_number   1
_chemical_formula_structural   Y(Ga3Ni)3
_chemical_formula_sum   'Y2 Ga18 Ni6'
_cell_volume   424.46386322
_cell_formula_units_Z   2
loop_
 _symmetry_equiv_pos_site_id
 _symmetry_equiv_pos_as_xyz
  1  'x, y, z'
loop_
 _atom_site_type_symbol
 _atom_site_label
 _atom_site_symmetry_multiplicity
 _atom_site_fract_x
 _atom_site_fract_y
 _atom_site_fract_z
 _atom_site_occupancy
  Y  Y0  1  0.167014  0.167014  0.167014  1
  Y  Y1  1  0.832986  0.832986  0.832986  1
  Ga  Ga2  1  0.051097  0.051097  0.051097  1
  Ga  Ga3  1  0.708306  0.500000  0.291694  1
  Ga  Ga4  1  0.666231  0.333769  0.000000  1
  Ga  Ga5  1  0.103736  0.433461  0.763188  1
  Ga  Ga6  1  0.433461  0.763188  0.103736  1
  Ga  Ga7  1  0.386030  0.386030  0.386030  1
  Ga  Ga8  1  0.333769  0.000000  0.666231  1
  Ga  Ga9  1  0.613970  0.613970  0.613970  1
  Ga  Ga10  1  0.236812  0.566539  0.896264  1
  Ga  Ga11  1  0.566539  0.896264  0.236812  1
  Ga  Ga12  1  0.500000  0.291694  0.708306  1
  Ga  Ga13  1  0.763188  0.103736  0.433461  1
  Ga  Ga14  1  0.948903  0.948903  0.948903  1
  Ga  Ga15  1  0.291694  0.708306  0.500000  1
  Ga  Ga16  1  0.000000  0.666231  0.333769  1
  Ga  Ga17  1  0.717015  0.717015  0.717015  1
  Ga  Ga18  1  0.282985  0.282985  0.282985  1
  Ga  Ga19  1  0.896264  0.236812  0.566539  1
  Ni  Ni20  1  0.242173  0.921612  0.581677  1
  Ni  Ni21  1  0.921612  0.581677  0.242173  1
  Ni  Ni22  1  0.757827  0.418323  0.078388  1
  Ni  Ni23  1  0.078388  0.757827  0.418323  1
  Ni  Ni24  1  0.418323  0.078388  0.757827  1
  Ni  Ni25  1  0.581677  0.242173  0.921612  1
