# generated using pymatgen
data_Mg2Pa2Ge6Ir7
_symmetry_space_group_name_H-M   'P 1'
_cell_length_a   7.25319412
_cell_length_b   7.25319314
_cell_length_c   7.17964801
_cell_angle_alpha   109.35962417
_cell_angle_beta   109.35963212
_cell_angle_gamma   110.10427741
_symmetry_Int_Tables_number   1
_chemical_formula_structural   Mg2Pa2Ge6Ir7
_chemical_formula_sum   'Mg2 Pa2 Ge6 Ir7'
_cell_volume   289.27108978
_cell_formula_units_Z   1
loop_
 _symmetry_equiv_pos_site_id
 _symmetry_equiv_pos_as_xyz
  1  'x, y, z'
loop_
 _atom_site_type_symbol
 _atom_site_label
 _atom_site_symmetry_multiplicity
 _atom_site_fract_x
 _atom_site_fract_y
 _atom_site_fract_z
 _atom_site_occupancy
  Mg  Mg0  1  0.000000  0.500000  0.000000  1
  Mg  Mg1  1  0.500000  0.000000  0.000000  1
  Pa  Pa2  1  0.000000  0.000000  0.500000  1
  Pa  Pa3  1  0.500000  0.500000  0.500000  1
  Ge  Ge4  1  0.687994  0.687994  0.000000  1
  Ge  Ge5  1  0.313736  0.988386  0.302122  1
  Ge  Ge6  1  0.988386  0.313736  0.302122  1
  Ge  Ge7  1  0.312006  0.312006  0.000000  1
  Ge  Ge8  1  0.686264  0.011614  0.697878  1
  Ge  Ge9  1  0.011614  0.686264  0.697878  1
  Ir  Ir10  1  0.750000  0.250000  0.500000  1
  Ir  Ir11  1  0.748675  0.501038  0.249713  1
  Ir  Ir12  1  0.498962  0.251325  0.750287  1
  Ir  Ir13  1  0.251325  0.498962  0.750287  1
  Ir  Ir14  1  0.250000  0.750000  0.500000  1
  Ir  Ir15  1  0.501038  0.748675  0.249713  1
  Ir  Ir16  1  0.000000  0.000000  0.000000  1
