# generated using pymatgen
data_Er16In6RhAu
_symmetry_space_group_name_H-M   'P 1'
_cell_length_a   10.45570900
_cell_length_b   10.45570772
_cell_length_c   6.88130600
_cell_angle_alpha   90.00000000
_cell_angle_beta   90.00000000
_cell_angle_gamma   119.99999455
_symmetry_Int_Tables_number   1
_chemical_formula_structural   Er16In6RhAu
_chemical_formula_sum   'Er16 In6 Rh1 Au1'
_cell_volume   651.49104165
_cell_formula_units_Z   1
loop_
 _symmetry_equiv_pos_site_id
 _symmetry_equiv_pos_as_xyz
  1  'x, y, z'
loop_
 _atom_site_type_symbol
 _atom_site_label
 _atom_site_symmetry_multiplicity
 _atom_site_fract_x
 _atom_site_fract_y
 _atom_site_fract_z
 _atom_site_occupancy
  Er  Er0  1  0.525063  0.050127  0.796416  1
  Er  Er1  1  0.949873  0.474937  0.796416  1
  Er  Er2  1  0.525063  0.474937  0.796416  1
  Er  Er3  1  0.468673  0.937346  0.293858  1
  Er  Er4  1  0.062654  0.531327  0.293858  1
  Er  Er5  1  0.468673  0.531327  0.293858  1
  Er  Er6  1  0.826905  0.653811  0.503888  1
  Er  Er7  1  0.346189  0.173095  0.503888  1
  Er  Er8  1  0.826905  0.173095  0.503888  1
  Er  Er9  1  0.175919  0.351836  0.005691  1
  Er  Er10  1  0.648164  0.824081  0.005691  1
  Er  Er11  1  0.175919  0.824081  0.005691  1
  Er  Er12  1  0.666667  0.333333  0.153760  1
  Er  Er13  1  0.333333  0.666667  0.673675  1
  Er  Er14  1  0.000000  0.000000  0.776091  1
  Er  Er15  1  0.000000  0.000000  0.278690  1
  In  In16  1  0.836424  0.672849  0.034698  1
  In  In17  1  0.327151  0.163576  0.034698  1
  In  In18  1  0.836424  0.163576  0.034698  1
  In  In19  1  0.162853  0.325706  0.537678  1
  In  In20  1  0.674294  0.837147  0.537678  1
  In  In21  1  0.162853  0.837147  0.537678  1
  Rh  Rh22  1  0.333333  0.666667  0.072445  1
  Au  Au23  1  0.666667  0.333333  0.564561  1
