# generated using pymatgen
data_Tb3HoGa18NiIr5
_symmetry_space_group_name_H-M   'P 1'
_cell_length_a   7.57920341
_cell_length_b   7.57990023
_cell_length_c   9.46743215
_cell_angle_alpha   90.18316990
_cell_angle_beta   90.18159759
_cell_angle_gamma   119.93360431
_symmetry_Int_Tables_number   1
_chemical_formula_structural   Tb3HoGa18NiIr5
_chemical_formula_sum   'Tb3 Ho1 Ga18 Ni1 Ir5'
_cell_volume   471.33672129
_cell_formula_units_Z   1
loop_
 _symmetry_equiv_pos_site_id
 _symmetry_equiv_pos_as_xyz
  1  'x, y, z'
loop_
 _atom_site_type_symbol
 _atom_site_label
 _atom_site_symmetry_multiplicity
 _atom_site_fract_x
 _atom_site_fract_y
 _atom_site_fract_z
 _atom_site_occupancy
  Tb  Tb0  1  0.996823  0.667214  0.250104  1
  Tb  Tb1  1  0.003178  0.332816  0.749880  1
  Tb  Tb2  1  0.667206  0.996824  0.250110  1
  Ho  Ho3  1  0.332795  0.003119  0.749861  1
  Ga  Ga4  1  0.122418  0.122389  0.245244  1
  Ga  Ga5  1  0.877918  0.877750  0.754764  1
  Ga  Ga6  1  0.999506  0.330103  0.079731  1
  Ga  Ga7  1  0.000814  0.670233  0.920113  1
  Ga  Ga8  1  0.000967  0.666888  0.580447  1
  Ga  Ga9  1  0.333426  0.999324  0.419938  1
  Ga  Ga10  1  0.999348  0.333437  0.419724  1
  Ga  Ga11  1  0.666265  0.000656  0.580434  1
  Ga  Ga12  1  0.669619  0.000487  0.920104  1
  Ga  Ga13  1  0.330072  0.999470  0.079520  1
  Ga  Ga14  1  0.332475  0.332190  0.564643  1
  Ga  Ga15  1  0.667529  0.667554  0.435529  1
  Ga  Ga16  1  0.672262  0.672267  0.064175  1
  Ga  Ga17  1  0.327752  0.327459  0.935649  1
  Ga  Ga18  1  0.338818  0.545551  0.249469  1
  Ga  Ga19  1  0.660993  0.454155  0.750520  1
  Ga  Ga20  1  0.545526  0.338780  0.249464  1
  Ga  Ga21  1  0.454391  0.661348  0.750534  1
  Ni  Ni22  1  0.000057  0.000015  0.999951  1
  Ir  Ir23  1  0.671744  0.327996  0.999868  1
  Ir  Ir24  1  0.328115  0.671932  0.999888  1
  Ir  Ir25  1  0.328322  0.671644  0.500121  1
  Ir  Ir26  1  0.671576  0.328325  0.500111  1
  Ir  Ir27  1  0.000084  0.000074  0.500105  1
