# generated using pymatgen
data_Ho13Tm7FeCo3Bi8
_symmetry_space_group_name_H-M   'P 1'
_cell_length_a   7.89232354
_cell_length_b   8.86529678
_cell_length_c   12.33589535
_cell_angle_alpha   89.97540684
_cell_angle_beta   89.99541211
_cell_angle_gamma   90.05927422
_symmetry_Int_Tables_number   1
_chemical_formula_structural   Ho13Tm7FeCo3Bi8
_chemical_formula_sum   'Ho13 Tm7 Fe1 Co3 Bi8'
_cell_volume   863.11479659
_cell_formula_units_Z   1
loop_
 _symmetry_equiv_pos_site_id
 _symmetry_equiv_pos_as_xyz
  1  'x, y, z'
loop_
 _atom_site_type_symbol
 _atom_site_label
 _atom_site_symmetry_multiplicity
 _atom_site_fract_x
 _atom_site_fract_y
 _atom_site_fract_z
 _atom_site_occupancy
  Ho  Ho0  1  0.348077  0.750174  0.700749  1
  Ho  Ho1  1  0.651055  0.249851  0.300409  1
  Ho  Ho2  1  0.849356  0.250521  0.800277  1
  Ho  Ho3  1  0.150483  0.749794  0.199524  1
  Ho  Ho4  1  0.884605  0.749321  0.812716  1
  Ho  Ho5  1  0.114808  0.250805  0.187569  1
  Ho  Ho6  1  0.384162  0.249696  0.686509  1
  Ho  Ho7  1  0.614649  0.750186  0.314131  1
  Ho  Ho8  1  0.174608  0.034024  0.937352  1
  Ho  Ho9  1  0.054432  0.750052  0.496485  1
  Ho  Ho10  1  0.946273  0.250026  0.502865  1
  Ho  Ho11  1  0.556390  0.250341  0.003598  1
  Ho  Ho12  1  0.446585  0.749439  0.996283  1
  Tm  Tm13  1  0.673630  0.536719  0.563569  1
  Tm  Tm14  1  0.326198  0.462259  0.436464  1
  Tm  Tm15  1  0.172773  0.464941  0.937562  1
  Tm  Tm16  1  0.326157  0.037699  0.436545  1
  Tm  Tm17  1  0.825704  0.539789  0.063202  1
  Tm  Tm18  1  0.673746  0.963336  0.563412  1
  Tm  Tm19  1  0.825783  0.960955  0.063118  1
  Fe  Fe20  1  0.066899  0.750034  0.991751  1
  Co  Co21  1  0.933323  0.250620  0.007855  1
  Co  Co22  1  0.563778  0.250033  0.507011  1
  Co  Co23  1  0.436153  0.749978  0.493789  1
  Bi  Bi24  1  0.570357  0.507387  0.826253  1
  Bi  Bi25  1  0.430051  0.491973  0.173141  1
  Bi  Bi26  1  0.070949  0.491921  0.672494  1
  Bi  Bi27  1  0.429337  0.007869  0.172791  1
  Bi  Bi28  1  0.928369  0.508484  0.326972  1
  Bi  Bi29  1  0.572141  0.992237  0.826348  1
  Bi  Bi30  1  0.929166  0.991750  0.326751  1
  Bi  Bi31  1  0.070000  0.007785  0.672506  1
