# generated using pymatgen
data_Sc2Mn6P7(IrRh)3
_symmetry_space_group_name_H-M   'P 1'
_cell_length_a   9.39516300
_cell_length_b   9.39516426
_cell_length_c   3.74622200
_cell_angle_alpha   90.00000000
_cell_angle_beta   90.00000000
_cell_angle_gamma   119.99999908
_symmetry_Int_Tables_number   1
_chemical_formula_structural   Sc2Mn6P7(IrRh)3
_chemical_formula_sum   'Sc2 Mn6 P7 Ir3 Rh3'
_cell_volume   286.37350997
_cell_formula_units_Z   1
loop_
 _symmetry_equiv_pos_site_id
 _symmetry_equiv_pos_as_xyz
  1  'x, y, z'
loop_
 _atom_site_type_symbol
 _atom_site_label
 _atom_site_symmetry_multiplicity
 _atom_site_fract_x
 _atom_site_fract_y
 _atom_site_fract_z
 _atom_site_occupancy
  Sc  Sc0  1  0.000000  0.000000  0.000000  1
  Sc  Sc1  1  0.666667  0.333333  0.500000  1
  Mn  Mn2  1  0.605341  0.780164  0.000000  1
  Mn  Mn3  1  0.174824  0.394659  0.000000  1
  Mn  Mn4  1  0.219836  0.825176  0.000000  1
  Mn  Mn5  1  0.433226  0.548428  0.500000  1
  Mn  Mn6  1  0.115203  0.566774  0.500000  1
  Mn  Mn7  1  0.451572  0.884797  0.500000  1
  P  P8  1  0.633874  0.555189  0.000000  1
  P  P9  1  0.921314  0.366126  0.000000  1
  P  P10  1  0.444811  0.078686  0.000000  1
  P  P11  1  0.733647  0.945221  0.500000  1
  P  P12  1  0.211575  0.266353  0.500000  1
  P  P13  1  0.054779  0.788425  0.500000  1
  P  P14  1  0.333333  0.666667  0.000000  1
  Ir  Ir15  1  0.779542  0.725099  0.500000  1
  Ir  Ir16  1  0.945557  0.220458  0.500000  1
  Ir  Ir17  1  0.274901  0.054443  0.500000  1
  Rh  Rh18  1  0.403043  0.306273  0.000000  1
  Rh  Rh19  1  0.903230  0.596957  0.000000  1
  Rh  Rh20  1  0.693727  0.096770  0.000000  1
