# generated using pymatgen
data_Zr4Al6CuPt
_symmetry_space_group_name_H-M   'P 1'
_cell_length_a   5.34372000
_cell_length_b   5.34372063
_cell_length_c   8.35638100
_cell_angle_alpha   90.00000000
_cell_angle_beta   90.00000000
_cell_angle_gamma   119.99999609
_symmetry_Int_Tables_number   1
_chemical_formula_structural   Zr4Al6CuPt
_chemical_formula_sum   'Zr4 Al6 Cu1 Pt1'
_cell_volume   206.65043362
_cell_formula_units_Z   1
loop_
 _symmetry_equiv_pos_site_id
 _symmetry_equiv_pos_as_xyz
  1  'x, y, z'
loop_
 _atom_site_type_symbol
 _atom_site_label
 _atom_site_symmetry_multiplicity
 _atom_site_fract_x
 _atom_site_fract_y
 _atom_site_fract_z
 _atom_site_occupancy
  Zr  Zr0  1  0.666667  0.333333  0.067554  1
  Zr  Zr1  1  0.666667  0.333333  0.432385  1
  Zr  Zr2  1  0.333333  0.666666  0.567616  1
  Zr  Zr3  1  0.333333  0.666666  0.932445  1
  Al  Al4  1  0.169251  0.338502  0.251351  1
  Al  Al5  1  0.169251  0.830748  0.251351  1
  Al  Al6  1  0.661497  0.830748  0.251351  1
  Al  Al7  1  0.338502  0.169251  0.748649  1
  Al  Al8  1  0.830749  0.169251  0.748649  1
  Al  Al9  1  0.830749  0.661497  0.748649  1
  Cu  Cu10  1  0.000000  0.000000  0.500001  1
  Pt  Pt11  1  0.000000  0.000000  0.000000  1
