# generated using pymatgen
data_Hf4TaNb(Si3Ni2)2
_symmetry_space_group_name_H-M   'P 1'
_cell_length_a   5.17633201
_cell_length_b   5.17633042
_cell_length_c   12.79827100
_cell_angle_alpha   90.00000000
_cell_angle_beta   90.00000000
_cell_angle_gamma   136.16353211
_symmetry_Int_Tables_number   1
_chemical_formula_structural   Hf4TaNb(Si3Ni2)2
_chemical_formula_sum   'Hf4 Ta1 Nb1 Si6 Ni4'
_cell_volume   237.50864600
_cell_formula_units_Z   1
loop_
 _symmetry_equiv_pos_site_id
 _symmetry_equiv_pos_as_xyz
  1  'x, y, z'
loop_
 _atom_site_type_symbol
 _atom_site_label
 _atom_site_symmetry_multiplicity
 _atom_site_fract_x
 _atom_site_fract_y
 _atom_site_fract_z
 _atom_site_occupancy
  Hf  Hf0  1  0.573715  0.426285  0.618685  1
  Hf  Hf1  1  0.426077  0.573923  0.381623  1
  Hf  Hf2  1  0.426077  0.573923  0.118377  1
  Hf  Hf3  1  0.573715  0.426285  0.881315  1
  Ta  Ta4  1  0.868411  0.131589  0.750000  1
  Nb  Nb5  1  0.131637  0.868363  0.250000  1
  Si  Si6  1  0.835402  0.164598  0.250000  1
  Si  Si7  1  0.164225  0.835775  0.750000  1
  Si  Si8  1  0.885177  0.114823  0.541798  1
  Si  Si9  1  0.114959  0.885041  0.458301  1
  Si  Si10  1  0.114959  0.885041  0.041699  1
  Si  Si11  1  0.885177  0.114823  0.958202  1
  Ni  Ni12  1  0.284378  0.715622  0.907600  1
  Ni  Ni13  1  0.715856  0.284144  0.091884  1
  Ni  Ni14  1  0.715856  0.284144  0.408116  1
  Ni  Ni15  1  0.284378  0.715622  0.592400  1
