# generated using pymatgen
data_Tb4Pr2Ga17Pd5
_symmetry_space_group_name_H-M   'P 1'
_cell_length_a   8.22527383
_cell_length_b   8.22527335
_cell_length_c   15.88455076
_cell_angle_alpha   76.06268005
_cell_angle_beta   76.06268140
_cell_angle_gamma   30.36766483
_symmetry_Int_Tables_number   1
_chemical_formula_structural   Tb4Pr2Ga17Pd5
_chemical_formula_sum   'Tb4 Pr2 Ga17 Pd5'
_cell_volume   526.10470101
_cell_formula_units_Z   1
loop_
 _symmetry_equiv_pos_site_id
 _symmetry_equiv_pos_as_xyz
  1  'x, y, z'
loop_
 _atom_site_type_symbol
 _atom_site_label
 _atom_site_symmetry_multiplicity
 _atom_site_fract_x
 _atom_site_fract_y
 _atom_site_fract_z
 _atom_site_occupancy
  Tb  Tb0  1  0.601045  0.601045  0.596819  1
  Tb  Tb1  1  0.090131  0.090131  0.093067  1
  Tb  Tb2  1  0.909869  0.909869  0.906933  1
  Tb  Tb3  1  0.398955  0.398955  0.403181  1
  Pr  Pr4  1  0.755002  0.755002  0.750261  1
  Pr  Pr5  1  0.244998  0.244998  0.249739  1
  Ga  Ga6  1  0.822242  0.822242  0.539205  1
  Ga  Ga7  1  0.327262  0.327262  0.042956  1
  Ga  Ga8  1  0.672738  0.672738  0.957044  1
  Ga  Ga9  1  0.177758  0.177758  0.460795  1
  Ga  Ga10  1  0.546470  0.546470  0.826979  1
  Ga  Ga11  1  0.036422  0.036422  0.323260  1
  Ga  Ga12  1  0.963578  0.963578  0.676740  1
  Ga  Ga13  1  0.453530  0.453530  0.173021  1
  Ga  Ga14  1  0.270149  0.270149  0.898761  1
  Ga  Ga15  1  0.760051  0.760051  0.396814  1
  Ga  Ga16  1  0.239949  0.239949  0.603186  1
  Ga  Ga17  1  0.729851  0.729851  0.101239  1
  Ga  Ga18  1  0.403351  0.403351  0.764747  1
  Ga  Ga19  1  0.892267  0.892267  0.266791  1
  Ga  Ga20  1  0.107733  0.107733  0.733209  1
  Ga  Ga21  1  0.596649  0.596649  0.235253  1
  Ga  Ga22  1  0.000000  0.000000  0.500000  1
  Pd  Pd23  1  0.107027  0.107027  0.895544  1
  Pd  Pd24  1  0.592642  0.592642  0.404180  1
  Pd  Pd25  1  0.407358  0.407358  0.595820  1
  Pd  Pd26  1  0.892973  0.892973  0.104456  1
  Pd  Pd27  1  0.500000  0.500000  0.000000  1
