# generated using pymatgen
data_Sr6IrRh4O15
_symmetry_space_group_name_H-M   'P 1'
_cell_length_a   7.21111614
_cell_length_b   7.21111638
_cell_length_c   7.21111681
_cell_angle_alpha   84.45932220
_cell_angle_beta   84.45931973
_cell_angle_gamma   84.45932935
_symmetry_Int_Tables_number   1
_chemical_formula_structural   Sr6IrRh4O15
_chemical_formula_sum   'Sr6 Ir1 Rh4 O15'
_cell_volume   370.04095296
_cell_formula_units_Z   1
loop_
 _symmetry_equiv_pos_site_id
 _symmetry_equiv_pos_as_xyz
  1  'x, y, z'
loop_
 _atom_site_type_symbol
 _atom_site_label
 _atom_site_symmetry_multiplicity
 _atom_site_fract_x
 _atom_site_fract_y
 _atom_site_fract_z
 _atom_site_occupancy
  Sr  Sr0  1  0.316596  0.683404  0.000000  1
  Sr  Sr1  1  0.683404  0.000000  0.316596  1
  Sr  Sr2  1  0.000000  0.316596  0.683404  1
  Sr  Sr3  1  0.142555  0.857445  0.500000  1
  Sr  Sr4  1  0.857445  0.500000  0.142555  1
  Sr  Sr5  1  0.500000  0.142555  0.857445  1
  Ir  Ir6  1  0.500000  0.500000  0.500000  1
  Rh  Rh7  1  0.903054  0.903054  0.903054  1
  Rh  Rh8  1  0.096946  0.096946  0.096946  1
  Rh  Rh9  1  0.705805  0.705805  0.705805  1
  Rh  Rh10  1  0.294195  0.294195  0.294195  1
  O  O11  1  0.275744  0.568969  0.349313  1
  O  O12  1  0.349313  0.275744  0.568969  1
  O  O13  1  0.568969  0.349313  0.275744  1
  O  O14  1  0.724256  0.650687  0.431031  1
  O  O15  1  0.431031  0.724256  0.650687  1
  O  O16  1  0.650687  0.431031  0.724256  1
  O  O17  1  0.000000  0.835277  0.164723  1
  O  O18  1  0.164723  0.000000  0.835277  1
  O  O19  1  0.835277  0.164723  0.000000  1
  O  O20  1  0.348713  0.022526  0.212683  1
  O  O21  1  0.212683  0.348713  0.022526  1
  O  O22  1  0.787317  0.977474  0.651287  1
  O  O23  1  0.977474  0.651287  0.787317  1
  O  O24  1  0.651287  0.787317  0.977474  1
  O  O25  1  0.022526  0.212683  0.348713  1
