# generated using pymatgen
data_Hf7(TiSn2)3
_symmetry_space_group_name_H-M   'P 1'
_cell_length_a   8.33661800
_cell_length_b   8.33661753
_cell_length_c   5.58634500
_cell_angle_alpha   90.00000000
_cell_angle_beta   90.00000000
_cell_angle_gamma   119.99999394
_symmetry_Int_Tables_number   1
_chemical_formula_structural   Hf7(TiSn2)3
_chemical_formula_sum   'Hf7 Ti3 Sn6'
_cell_volume   336.23133908
_cell_formula_units_Z   1
loop_
 _symmetry_equiv_pos_site_id
 _symmetry_equiv_pos_as_xyz
  1  'x, y, z'
loop_
 _atom_site_type_symbol
 _atom_site_label
 _atom_site_symmetry_multiplicity
 _atom_site_fract_x
 _atom_site_fract_y
 _atom_site_fract_z
 _atom_site_occupancy
  Hf  Hf0  1  0.761802  0.759056  0.747738  1
  Hf  Hf1  1  0.240944  0.002746  0.747738  1
  Hf  Hf2  1  0.997254  0.238198  0.747738  1
  Hf  Hf3  1  0.240944  0.238198  0.252262  1
  Hf  Hf4  1  0.761802  0.002746  0.252262  1
  Hf  Hf5  1  0.997254  0.759056  0.252262  1
  Hf  Hf6  1  0.666667  0.333333  0.500000  1
  Ti  Ti7  1  0.666667  0.333333  0.000000  1
  Ti  Ti8  1  0.333333  0.666667  0.000000  1
  Ti  Ti9  1  0.333333  0.666667  0.500000  1
  Sn  Sn10  1  0.395779  0.401132  0.754092  1
  Sn  Sn11  1  0.598868  0.994647  0.754092  1
  Sn  Sn12  1  0.005353  0.604221  0.754092  1
  Sn  Sn13  1  0.598868  0.604221  0.245908  1
  Sn  Sn14  1  0.395779  0.994647  0.245908  1
  Sn  Sn15  1  0.005353  0.401132  0.245908  1
