# generated using pymatgen
data_Ba8SmTl3(FeO5)4
_symmetry_space_group_name_H-M   'P 1'
_cell_length_a   6.09859007
_cell_length_b   8.10254443
_cell_length_c   12.81099287
_cell_angle_alpha   91.70258962
_cell_angle_beta   89.93213217
_cell_angle_gamma   89.93638663
_symmetry_Int_Tables_number   1
_chemical_formula_structural   Ba8SmTl3(FeO5)4
_chemical_formula_sum   'Ba8 Sm1 Tl3 Fe4 O20'
_cell_volume   632.76330725
_cell_formula_units_Z   1
loop_
 _symmetry_equiv_pos_site_id
 _symmetry_equiv_pos_as_xyz
  1  'x, y, z'
loop_
 _atom_site_type_symbol
 _atom_site_label
 _atom_site_symmetry_multiplicity
 _atom_site_fract_x
 _atom_site_fract_y
 _atom_site_fract_z
 _atom_site_occupancy
  Ba  Ba0  1  0.765969  0.484751  0.343005  1
  Ba  Ba1  1  0.738003  0.980743  0.841224  1
  Ba  Ba2  1  0.230390  0.514482  0.653553  1
  Ba  Ba3  1  0.267333  0.014797  0.158990  1
  Ba  Ba4  1  0.762540  0.991013  0.377539  1
  Ba  Ba5  1  0.740513  0.493189  0.878073  1
  Ba  Ba6  1  0.235096  0.008341  0.619289  1
  Ba  Ba7  1  0.263874  0.510442  0.125101  1
  Sm  Sm8  1  0.251495  0.230945  0.874702  1
  Tl  Tl9  1  0.746800  0.267429  0.625760  1
  Tl  Tl10  1  0.749824  0.768775  0.124073  1
  Tl  Tl11  1  0.249647  0.730735  0.376138  1
  Fe  Fe12  1  0.734924  0.742376  0.582527  1
  Fe  Fe13  1  0.769717  0.242160  0.083374  1
  Fe  Fe14  1  0.266273  0.258148  0.417483  1
  Fe  Fe15  1  0.235737  0.755471  0.916618  1
  O  O16  1  0.776051  0.961944  0.631188  1
  O  O17  1  0.722871  0.463417  0.132624  1
  O  O18  1  0.224848  0.037244  0.369336  1
  O  O19  1  0.269772  0.530268  0.870403  1
  O  O20  1  0.723223  0.072753  0.179861  1
  O  O21  1  0.774828  0.579493  0.681837  1
  O  O22  1  0.267933  0.934910  0.825821  1
  O  O23  1  0.225861  0.426322  0.320950  1
  O  O24  1  0.536073  0.746102  0.276129  1
  O  O25  1  0.954965  0.247258  0.770743  1
  O  O26  1  0.452510  0.253259  0.722810  1
  O  O27  1  0.036916  0.755058  0.224078  1
  O  O28  1  0.572143  0.217625  0.968775  1
  O  O29  1  0.943845  0.716551  0.470987  1
  O  O30  1  0.443831  0.781139  0.027428  1
  O  O31  1  0.057858  0.282498  0.528151  1
  O  O32  1  0.063055  0.234451  0.030982  1
  O  O33  1  0.442047  0.732721  0.529478  1
  O  O34  1  0.943790  0.765996  0.969997  1
  O  O35  1  0.559447  0.267194  0.470975  1
