# generated using pymatgen
data_La10Zn4Co5Ru
_symmetry_space_group_name_H-M   'P 1'
_cell_length_a   8.49371072
_cell_length_b   8.49371101
_cell_length_c   8.48209485
_cell_angle_alpha   109.56487641
_cell_angle_beta   109.27408959
_cell_angle_gamma   109.63018884
_symmetry_Int_Tables_number   1
_chemical_formula_structural   La10Zn4Co5Ru
_chemical_formula_sum   'La10 Zn4 Co5 Ru1'
_cell_volume   470.73320148
_cell_formula_units_Z   1
loop_
 _symmetry_equiv_pos_site_id
 _symmetry_equiv_pos_as_xyz
  1  'x, y, z'
loop_
 _atom_site_type_symbol
 _atom_site_label
 _atom_site_symmetry_multiplicity
 _atom_site_fract_x
 _atom_site_fract_y
 _atom_site_fract_z
 _atom_site_occupancy
  La  La0  1  0.248002  0.691039  0.438073  1
  La  La1  1  0.752967  0.809930  0.061928  1
  La  La2  1  0.441538  0.248775  0.691024  1
  La  La3  1  0.692681  0.442682  0.250000  1
  La  La4  1  0.057751  0.750513  0.808976  1
  La  La5  1  0.807273  0.057273  0.750000  1
  La  La6  1  0.215514  0.215511  0.215966  1
  La  La7  1  0.499546  0.999548  0.284034  1
  La  La8  1  0.285675  0.498645  0.001590  1
  La  La9  1  0.997054  0.284085  0.498411  1
  Zn  Zn10  1  0.501895  0.006304  0.916050  1
  Zn  Zn11  1  0.590254  0.585844  0.583950  1
  Zn  Zn12  1  0.911459  0.499248  0.998721  1
  Zn  Zn13  1  0.000525  0.912737  0.501280  1
  Co  Co14  1  0.250277  0.124645  0.874721  1
  Co  Co15  1  0.749923  0.375554  0.625278  1
  Co  Co16  1  0.874806  0.250773  0.123058  1
  Co  Co17  1  0.124049  0.874049  0.250001  1
  Co  Co18  1  0.627714  0.751749  0.376941  1
  Ru  Ru19  1  0.371097  0.621097  0.750000  1
