# generated using pymatgen
data_Ba6TiTc5O18
_symmetry_space_group_name_H-M   'P 1'
_cell_length_a   5.82916600
_cell_length_b   5.82916614
_cell_length_c   14.22527000
_cell_angle_alpha   90.00000000
_cell_angle_beta   90.00000000
_cell_angle_gamma   119.99999921
_symmetry_Int_Tables_number   1
_chemical_formula_structural   Ba6TiTc5O18
_chemical_formula_sum   'Ba6 Ti1 Tc5 O18'
_cell_volume   418.60461304
_cell_formula_units_Z   1
loop_
 _symmetry_equiv_pos_site_id
 _symmetry_equiv_pos_as_xyz
  1  'x, y, z'
loop_
 _atom_site_type_symbol
 _atom_site_label
 _atom_site_symmetry_multiplicity
 _atom_site_fract_x
 _atom_site_fract_y
 _atom_site_fract_z
 _atom_site_occupancy
  Ba  Ba0  1  0.333333  0.666667  0.409015  1
  Ba  Ba1  1  0.666667  0.333333  0.904042  1
  Ba  Ba2  1  0.666667  0.333333  0.595284  1
  Ba  Ba3  1  0.333333  0.666667  0.093409  1
  Ba  Ba4  1  0.000000  0.000000  0.750463  1
  Ba  Ba5  1  0.000000  0.000000  0.252332  1
  Ti  Ti6  1  0.333333  0.666667  0.848585  1
  Tc  Tc7  1  0.333333  0.666667  0.656710  1
  Tc  Tc8  1  0.666667  0.333333  0.157519  1
  Tc  Tc9  1  0.666667  0.333333  0.340791  1
  Tc  Tc10  1  0.000000  0.000000  0.500322  1
  Tc  Tc11  1  0.000000  0.000000  0.002499  1
  O  O12  1  0.834468  0.165532  0.418157  1
  O  O13  1  0.834468  0.668934  0.418157  1
  O  O14  1  0.331066  0.165532  0.418157  1
  O  O15  1  0.664848  0.832424  0.918583  1
  O  O16  1  0.164659  0.329320  0.579612  1
  O  O17  1  0.167576  0.832424  0.918583  1
  O  O18  1  0.167576  0.335152  0.918583  1
  O  O19  1  0.834044  0.165956  0.079894  1
  O  O20  1  0.331912  0.165956  0.079894  1
  O  O21  1  0.670680  0.835341  0.579612  1
  O  O22  1  0.164659  0.835341  0.579612  1
  O  O23  1  0.834044  0.668088  0.079894  1
  O  O24  1  0.510395  0.020791  0.248920  1
  O  O25  1  0.484018  0.515982  0.751177  1
  O  O26  1  0.031966  0.515982  0.751177  1
  O  O27  1  0.979209  0.489605  0.248920  1
  O  O28  1  0.510395  0.489605  0.248920  1
  O  O29  1  0.484018  0.968034  0.751177  1
