# generated using pymatgen
data_NaAl2GaBr8
_symmetry_space_group_name_H-M   'P 1'
_cell_length_a   13.99216000
_cell_length_b   7.69574900
_cell_length_c   7.74758400
_cell_angle_alpha   90.00000000
_cell_angle_beta   90.00000000
_cell_angle_gamma   90.00000000
_symmetry_Int_Tables_number   1
_chemical_formula_structural   NaAl2GaBr8
_chemical_formula_sum   'Na2 Al4 Ga2 Br16'
_cell_volume   834.26101755
_cell_formula_units_Z   2
loop_
 _symmetry_equiv_pos_site_id
 _symmetry_equiv_pos_as_xyz
  1  'x, y, z'
loop_
 _atom_site_type_symbol
 _atom_site_label
 _atom_site_symmetry_multiplicity
 _atom_site_fract_x
 _atom_site_fract_y
 _atom_site_fract_z
 _atom_site_occupancy
  Na  Na0  1  0.849820  0.750000  0.555144  1
  Na  Na1  1  0.349820  0.750000  0.944857  1
  Al  Al2  1  0.396506  0.250000  0.196260  1
  Al  Al3  1  0.896506  0.250000  0.303741  1
  Al  Al4  1  0.102787  0.750000  0.702384  1
  Al  Al5  1  0.602787  0.750000  0.797616  1
  Ga  Ga6  1  0.651999  0.250000  0.053750  1
  Ga  Ga7  1  0.151999  0.250000  0.446251  1
  Br  Br8  1  0.555952  0.750000  0.085857  1
  Br  Br9  1  0.027672  0.250000  0.122180  1
  Br  Br10  1  0.803907  0.003266  0.249461  1
  Br  Br11  1  0.803907  0.496735  0.249461  1
  Br  Br12  1  0.303907  0.003266  0.250538  1
  Br  Br13  1  0.303907  0.496735  0.250538  1
  Br  Br14  1  0.527672  0.250000  0.377821  1
  Br  Br15  1  0.055952  0.750000  0.414143  1
  Br  Br16  1  0.943107  0.250000  0.591693  1
  Br  Br17  1  0.465829  0.750000  0.630630  1
  Br  Br18  1  0.699257  0.510731  0.733840  1
  Br  Br19  1  0.699257  0.989268  0.733840  1
  Br  Br20  1  0.199257  0.510731  0.766159  1
  Br  Br21  1  0.199257  0.989268  0.766159  1
  Br  Br22  1  0.965830  0.750000  0.869371  1
  Br  Br23  1  0.443107  0.250000  0.908307  1
