# generated using pymatgen
data_YbNb(Ni7B2)3
_symmetry_space_group_name_H-M   'P 1'
_cell_length_a   7.46980708
_cell_length_b   7.46980698
_cell_length_c   7.46980700
_cell_angle_alpha   60.00000436
_cell_angle_beta   60.00000477
_cell_angle_gamma   60.00000021
_symmetry_Int_Tables_number   1
_chemical_formula_structural   YbNb(Ni7B2)3
_chemical_formula_sum   'Yb1 Nb1 Ni21 B6'
_cell_volume   294.72242309
_cell_formula_units_Z   1
loop_
 _symmetry_equiv_pos_site_id
 _symmetry_equiv_pos_as_xyz
  1  'x, y, z'
loop_
 _atom_site_type_symbol
 _atom_site_label
 _atom_site_symmetry_multiplicity
 _atom_site_fract_x
 _atom_site_fract_y
 _atom_site_fract_z
 _atom_site_occupancy
  Yb  Yb0  1  0.750000  0.750000  0.750000  1
  Nb  Nb1  1  0.250000  0.250000  0.250000  1
  Ni  Ni2  1  0.000000  0.000000  0.000000  1
  Ni  Ni3  1  0.612303  0.612303  0.163092  1
  Ni  Ni4  1  0.612303  0.163092  0.612303  1
  Ni  Ni5  1  0.163092  0.612303  0.612303  1
  Ni  Ni6  1  0.612303  0.612303  0.612303  1
  Ni  Ni7  1  0.383059  0.383059  0.850824  1
  Ni  Ni8  1  0.383059  0.850824  0.383059  1
  Ni  Ni9  1  0.850824  0.383059  0.383059  1
  Ni  Ni10  1  0.383059  0.383059  0.383059  1
  Ni  Ni11  1  0.002186  0.002186  0.336358  1
  Ni  Ni12  1  0.659269  0.002186  0.336358  1
  Ni  Ni13  1  0.002186  0.659269  0.336358  1
  Ni  Ni14  1  0.659269  0.336358  0.002186  1
  Ni  Ni15  1  0.002186  0.336358  0.002186  1
  Ni  Ni16  1  0.002186  0.336358  0.659269  1
  Ni  Ni17  1  0.336358  0.659269  0.002186  1
  Ni  Ni18  1  0.336358  0.002186  0.659269  1
  Ni  Ni19  1  0.336358  0.002186  0.002186  1
  Ni  Ni20  1  0.002186  0.002186  0.659269  1
  Ni  Ni21  1  0.002186  0.659269  0.002186  1
  Ni  Ni22  1  0.659269  0.002186  0.002186  1
  B  B23  1  0.730284  0.730284  0.269716  1
  B  B24  1  0.269716  0.730284  0.269716  1
  B  B25  1  0.730284  0.269716  0.269716  1
  B  B26  1  0.269716  0.269716  0.730284  1
  B  B27  1  0.730284  0.269716  0.730284  1
  B  B28  1  0.269716  0.730284  0.730284  1
