# generated using pymatgen
data_K11Sb5Pb2
_symmetry_space_group_name_H-M   'P 1'
_cell_length_a   10.13231685
_cell_length_b   12.33323154
_cell_length_c   13.09256824
_cell_angle_alpha   103.42466758
_cell_angle_beta   96.94366327
_cell_angle_gamma   107.62651469
_symmetry_Int_Tables_number   1
_chemical_formula_structural   K11Sb5Pb2
_chemical_formula_sum   'K22 Sb10 Pb4'
_cell_volume   1484.07272045
_cell_formula_units_Z   2
loop_
 _symmetry_equiv_pos_site_id
 _symmetry_equiv_pos_as_xyz
  1  'x, y, z'
loop_
 _atom_site_type_symbol
 _atom_site_label
 _atom_site_symmetry_multiplicity
 _atom_site_fract_x
 _atom_site_fract_y
 _atom_site_fract_z
 _atom_site_occupancy
  K  K0  1  0.850689  0.570382  0.961800  1
  K  K1  1  0.149311  0.429618  0.038200  1
  K  K2  1  0.306675  0.895390  0.775198  1
  K  K3  1  0.693325  0.104610  0.224802  1
  K  K4  1  0.630157  0.163526  0.531267  1
  K  K5  1  0.369843  0.836474  0.468733  1
  K  K6  1  0.630196  0.673066  0.557185  1
  K  K7  1  0.369804  0.326934  0.442815  1
  K  K8  1  0.194051  0.556083  0.570702  1
  K  K9  1  0.805949  0.443917  0.429298  1
  K  K10  1  0.051317  0.703671  0.263284  1
  K  K11  1  0.948683  0.296329  0.736716  1
  K  K12  1  0.197692  0.077121  0.571282  1
  K  K13  1  0.802308  0.922879  0.428718  1
  K  K14  1  0.874973  0.097596  0.984893  1
  K  K15  1  0.125027  0.902404  0.015107  1
  K  K16  1  0.582007  0.227139  0.862382  1
  K  K17  1  0.417993  0.772861  0.137618  1
  K  K18  1  0.391321  0.247250  0.142564  1
  K  K19  1  0.608679  0.752750  0.857436  1
  K  K20  1  0.353210  0.414773  0.791676  1
  K  K21  1  0.646790  0.585227  0.208324  1
  Sb  Sb22  1  0.003695  0.761837  0.536766  1
  Sb  Sb23  1  0.996305  0.238163  0.463234  1
  Sb  Sb24  1  0.656431  0.447869  0.685579  1
  Sb  Sb25  1  0.343569  0.552131  0.314421  1
  Sb  Sb26  1  0.653790  0.976016  0.699625  1
  Sb  Sb27  1  0.346210  0.023984  0.300375  1
  Sb  Sb28  1  0.196576  0.156690  0.868928  1
  Sb  Sb29  1  0.803424  0.843310  0.131072  1
  Sb  Sb30  1  0.196484  0.631041  0.867251  1
  Sb  Sb31  1  0.803516  0.368959  0.132749  1
  Pb  Pb32  1  0.939274  0.931362  0.740340  1
  Pb  Pb33  1  0.060726  0.068638  0.259660  1
  Pb  Pb34  1  0.938168  0.663782  0.737229  1
  Pb  Pb35  1  0.061832  0.336218  0.262771  1
