# generated using pymatgen
data_Ti8Co8Si11Ge3
_symmetry_space_group_name_H-M   'P 1'
_cell_length_a   4.97696247
_cell_length_b   9.23730728
_cell_length_c   9.23730814
_cell_angle_alpha   85.92832672
_cell_angle_beta   74.37174900
_cell_angle_gamma   74.37176083
_symmetry_Int_Tables_number   1
_chemical_formula_structural   Ti8Co8Si11Ge3
_chemical_formula_sum   'Ti8 Co8 Si11 Ge3'
_cell_volume   393.85293964
_cell_formula_units_Z   1
loop_
 _symmetry_equiv_pos_site_id
 _symmetry_equiv_pos_as_xyz
  1  'x, y, z'
loop_
 _atom_site_type_symbol
 _atom_site_label
 _atom_site_symmetry_multiplicity
 _atom_site_fract_x
 _atom_site_fract_y
 _atom_site_fract_z
 _atom_site_occupancy
  Ti  Ti0  1  0.138187  0.999739  0.723888  1
  Ti  Ti1  1  0.861497  0.000791  0.276216  1
  Ti  Ti2  1  0.861497  0.276216  0.000791  1
  Ti  Ti3  1  0.138187  0.723888  0.999739  1
  Ti  Ti4  1  0.500035  0.195218  0.804712  1
  Ti  Ti5  1  0.500035  0.804712  0.195218  1
  Ti  Ti6  1  0.305404  0.194596  0.194596  1
  Ti  Ti7  1  0.695322  0.804678  0.804678  1
  Co  Co8  1  0.399111  0.500275  0.201559  1
  Co  Co9  1  0.101772  0.497621  0.801977  1
  Co  Co10  1  0.101772  0.801977  0.497621  1
  Co  Co11  1  0.399111  0.201559  0.500275  1
  Co  Co12  1  0.598630  0.801977  0.497621  1
  Co  Co13  1  0.899055  0.201559  0.500275  1
  Co  Co14  1  0.899055  0.500275  0.201559  1
  Co  Co15  1  0.598630  0.497621  0.801977  1
  Si  Si16  1  0.293255  0.001491  0.412000  1
  Si  Si17  1  0.705879  0.000633  0.587608  1
  Si  Si18  1  0.705879  0.587608  0.000633  1
  Si  Si19  1  0.293255  0.412000  0.001491  1
  Si  Si20  1  0.000222  0.291907  0.707649  1
  Si  Si21  1  0.000222  0.707649  0.291907  1
  Si  Si22  1  0.705778  0.294222  0.294222  1
  Si  Si23  1  0.292662  0.707338  0.707338  1
  Si  Si24  1  0.499995  0.405103  0.594907  1
  Si  Si25  1  0.499995  0.594907  0.405103  1
  Si  Si26  1  0.098236  0.401764  0.401764  1
  Ge  Ge27  1  0.907376  0.592624  0.592624  1
  Ge  Ge28  1  0.750314  0.000026  0.000026  1
  Ge  Ge29  1  0.249634  0.000026  0.000026  1
