# generated using pymatgen
data_Sc4BeAl2FeB16
_symmetry_space_group_name_H-M   'P 1'
_cell_length_a   5.79699709
_cell_length_b   11.21009724
_cell_length_c   3.30874200
_cell_angle_alpha   90.00000000
_cell_angle_beta   90.00000000
_cell_angle_gamma   89.89239849
_symmetry_Int_Tables_number   1
_chemical_formula_structural   Sc4BeAl2FeB16
_chemical_formula_sum   'Sc4 Be1 Al2 Fe1 B16'
_cell_volume   215.01789248
_cell_formula_units_Z   1
loop_
 _symmetry_equiv_pos_site_id
 _symmetry_equiv_pos_as_xyz
  1  'x, y, z'
loop_
 _atom_site_type_symbol
 _atom_site_label
 _atom_site_symmetry_multiplicity
 _atom_site_fract_x
 _atom_site_fract_y
 _atom_site_fract_z
 _atom_site_occupancy
  Sc  Sc0  1  0.626643  0.349471  0.000000  1
  Sc  Sc1  1  0.375360  0.650290  0.000000  1
  Sc  Sc2  1  0.124852  0.151152  0.000000  1
  Sc  Sc3  1  0.872989  0.846970  0.000000  1
  Be  Be4  1  0.638533  0.091586  0.000000  1
  Al  Al5  1  0.366694  0.912114  0.000000  1
  Al  Al6  1  0.133622  0.413632  0.000000  1
  Fe  Fe7  1  0.869816  0.583762  0.000000  1
  B  B8  1  0.787391  0.184714  0.500000  1
  B  B9  1  0.206754  0.811990  0.500000  1
  B  B10  1  0.293192  0.311210  0.500000  1
  B  B11  1  0.713061  0.684778  0.500000  1
  B  B12  1  0.864975  0.032374  0.500000  1
  B  B13  1  0.130165  0.970472  0.500000  1
  B  B14  1  0.368303  0.469001  0.500000  1
  B  B15  1  0.634525  0.533352  0.500000  1
  B  B16  1  0.879613  0.453408  0.500000  1
  B  B17  1  0.112188  0.550768  0.500000  1
  B  B18  1  0.387279  0.049677  0.500000  1
  B  B19  1  0.617406  0.953130  0.500000  1
  B  B20  1  0.972951  0.304224  0.500000  1
  B  B21  1  0.018568  0.693274  0.500000  1
  B  B22  1  0.478381  0.193216  0.500000  1
  B  B23  1  0.526741  0.805435  0.500000  1
