# generated using pymatgen
data_Ta5Cr2B6Ru4W
_symmetry_space_group_name_H-M   'P 1'
_cell_length_a   3.11083400
_cell_length_b   6.36517424
_cell_length_c   10.81317899
_cell_angle_alpha   89.85258208
_cell_angle_beta   90.00000000
_cell_angle_gamma   90.00000000
_symmetry_Int_Tables_number   1
_chemical_formula_structural   Ta5Cr2B6Ru4W
_chemical_formula_sum   'Ta5 Cr2 B6 Ru4 W1'
_cell_volume   214.11105333
_cell_formula_units_Z   1
loop_
 _symmetry_equiv_pos_site_id
 _symmetry_equiv_pos_as_xyz
  1  'x, y, z'
loop_
 _atom_site_type_symbol
 _atom_site_label
 _atom_site_symmetry_multiplicity
 _atom_site_fract_x
 _atom_site_fract_y
 _atom_site_fract_z
 _atom_site_occupancy
  Ta  Ta0  1  0.000000  0.775548  0.048987  1
  Ta  Ta1  1  0.000000  0.226001  0.549233  1
  Ta  Ta2  1  0.000000  0.775656  0.450883  1
  Ta  Ta3  1  0.000000  0.140596  0.249654  1
  Ta  Ta4  1  0.000000  0.860553  0.750010  1
  Cr  Cr5  1  0.500000  0.803557  0.249216  1
  Cr  Cr6  1  0.500000  0.197842  0.752411  1
  B  B7  1  0.500000  0.052189  0.084320  1
  B  B8  1  0.500000  0.954639  0.913398  1
  B  B9  1  0.500000  0.048422  0.413686  1
  B  B10  1  0.500000  0.952704  0.586566  1
  B  B11  1  0.000000  0.564647  0.249312  1
  B  B12  1  0.000000  0.436897  0.751889  1
  Ru  Ru13  1  0.500000  0.426638  0.121550  1
  Ru  Ru14  1  0.500000  0.571597  0.877983  1
  Ru  Ru15  1  0.500000  0.426498  0.375593  1
  Ru  Ru16  1  0.500000  0.573140  0.624190  1
  W  W17  1  0.000000  0.212876  0.951118  1
