# generated using pymatgen
data_Tb3Th3Si4
_symmetry_space_group_name_H-M   'P 1'
_cell_length_a   7.65017945
_cell_length_b   7.65018026
_cell_length_c   4.23480900
_cell_angle_alpha   90.00000000
_cell_angle_beta   90.00000000
_cell_angle_gamma   90.50123460
_symmetry_Int_Tables_number   1
_chemical_formula_structural   Tb3Th3Si4
_chemical_formula_sum   'Tb3 Th3 Si4'
_cell_volume   247.83377926
_cell_formula_units_Z   1
loop_
 _symmetry_equiv_pos_site_id
 _symmetry_equiv_pos_as_xyz
  1  'x, y, z'
loop_
 _atom_site_type_symbol
 _atom_site_label
 _atom_site_symmetry_multiplicity
 _atom_site_fract_x
 _atom_site_fract_y
 _atom_site_fract_z
 _atom_site_occupancy
  Tb  Tb0  1  0.500365  0.001709  0.000000  1
  Tb  Tb1  1  0.001709  0.500365  0.000000  1
  Tb  Tb2  1  0.676450  0.676450  0.500000  1
  Th  Th3  1  0.322193  0.322193  0.500000  1
  Th  Th4  1  0.178416  0.820037  0.500000  1
  Th  Th5  1  0.820037  0.178416  0.500000  1
  Si  Si6  1  0.115642  0.115642  0.000000  1
  Si  Si7  1  0.882063  0.882063  0.000000  1
  Si  Si8  1  0.616896  0.386228  0.000000  1
  Si  Si9  1  0.386228  0.616896  0.000000  1
