# generated using pymatgen
data_ErTmMn2Fe10P7
_symmetry_space_group_name_H-M   'P 1'
_cell_length_a   8.98444608
_cell_length_b   8.97132377
_cell_length_c   3.61669600
_cell_angle_alpha   90.00000000
_cell_angle_beta   90.00000000
_cell_angle_gamma   119.95469453
_symmetry_Int_Tables_number   1
_chemical_formula_structural   ErTmMn2Fe10P7
_chemical_formula_sum   'Er1 Tm1 Mn2 Fe10 P7'
_cell_volume   252.57395285
_cell_formula_units_Z   1
loop_
 _symmetry_equiv_pos_site_id
 _symmetry_equiv_pos_as_xyz
  1  'x, y, z'
loop_
 _atom_site_type_symbol
 _atom_site_label
 _atom_site_symmetry_multiplicity
 _atom_site_fract_x
 _atom_site_fract_y
 _atom_site_fract_z
 _atom_site_occupancy
  Er  Er0  1  0.000187  0.001946  0.500000  1
  Tm  Tm1  1  0.331672  0.664019  0.000000  1
  Mn  Mn2  1  0.770791  0.551388  0.500000  1
  Mn  Mn3  1  0.449506  0.215206  0.500000  1
  Fe  Fe4  1  0.033850  0.276431  0.000000  1
  Fe  Fe5  1  0.722908  0.759809  0.000000  1
  Fe  Fe6  1  0.241375  0.964138  0.000000  1
  Fe  Fe7  1  0.546912  0.058657  0.000000  1
  Fe  Fe8  1  0.941945  0.489408  0.000000  1
  Fe  Fe9  1  0.513631  0.452623  0.000000  1
  Fe  Fe10  1  0.617307  0.899475  0.500000  1
  Fe  Fe11  1  0.101218  0.717496  0.500000  1
  Fe  Fe12  1  0.281312  0.383237  0.500000  1
  Fe  Fe13  1  0.783713  0.237446  0.500000  1
  P  P14  1  0.779050  0.034927  0.000000  1
  P  P15  1  0.968292  0.748723  0.000000  1
  P  P16  1  0.252741  0.222271  0.000000  1
  P  P17  1  0.377038  0.923674  0.500000  1
  P  P18  1  0.067021  0.443733  0.500000  1
  P  P19  1  0.549752  0.623315  0.500000  1
  P  P20  1  0.669777  0.332079  0.000000  1
