# generated using pymatgen
data_Ce2Tm(ZnNi)3
_symmetry_space_group_name_H-M   'P 1'
_cell_length_a   7.09914450
_cell_length_b   7.04388581
_cell_length_c   3.73141400
_cell_angle_alpha   90.00000000
_cell_angle_beta   90.00000000
_cell_angle_gamma   119.74284817
_symmetry_Int_Tables_number   1
_chemical_formula_structural   Ce2Tm(ZnNi)3
_chemical_formula_sum   'Ce2 Tm1 Zn3 Ni3'
_cell_volume   162.01003930
_cell_formula_units_Z   1
loop_
 _symmetry_equiv_pos_site_id
 _symmetry_equiv_pos_as_xyz
  1  'x, y, z'
loop_
 _atom_site_type_symbol
 _atom_site_label
 _atom_site_symmetry_multiplicity
 _atom_site_fract_x
 _atom_site_fract_y
 _atom_site_fract_z
 _atom_site_occupancy
  Ce  Ce0  1  0.583998  0.585087  0.500000  1
  Ce  Ce1  1  0.416002  0.001088  0.500000  1
  Tm  Tm2  1  0.000000  0.409565  0.500000  1
  Zn  Zn3  1  0.000000  0.751327  0.000000  1
  Zn  Zn4  1  0.233481  0.240777  0.000000  1
  Zn  Zn5  1  0.766519  0.007296  0.000000  1
  Ni  Ni6  1  0.342034  0.675194  0.000000  1
  Ni  Ni7  1  0.657966  0.333159  0.000000  1
  Ni  Ni8  1  0.000000  0.996507  0.500000  1
