# generated using pymatgen
data_Rb2VZn2CuAs4
_symmetry_space_group_name_H-M   'P 1'
_cell_length_a   7.78576772
_cell_length_b   7.78576773
_cell_length_c   5.79534100
_cell_angle_alpha   90.00000000
_cell_angle_beta   90.00000000
_cell_angle_gamma   136.42245786
_symmetry_Int_Tables_number   1
_chemical_formula_structural   Rb2VZn2CuAs4
_chemical_formula_sum   'Rb2 V1 Zn2 Cu1 As4'
_cell_volume   242.16569150
_cell_formula_units_Z   1
loop_
 _symmetry_equiv_pos_site_id
 _symmetry_equiv_pos_as_xyz
  1  'x, y, z'
loop_
 _atom_site_type_symbol
 _atom_site_label
 _atom_site_symmetry_multiplicity
 _atom_site_fract_x
 _atom_site_fract_y
 _atom_site_fract_z
 _atom_site_occupancy
  Rb  Rb0  1  0.500000  0.000000  0.254819  1
  Rb  Rb1  1  0.000000  0.500000  0.745181  1
  V  V2  1  0.000000  0.000000  0.000000  1
  Zn  Zn3  1  0.500000  0.500000  0.500000  1
  Zn  Zn4  1  0.500000  0.500000  0.000000  1
  Cu  Cu5  1  0.000000  0.000000  0.500000  1
  As  As6  1  0.668602  0.869023  0.761080  1
  As  As7  1  0.130977  0.331398  0.238920  1
  As  As8  1  0.869023  0.668602  0.238920  1
  As  As9  1  0.331398  0.130977  0.761080  1
