# generated using pymatgen
data_CsPu2O7
_symmetry_space_group_name_H-M   'P 1'
_cell_length_a   8.20178198
_cell_length_b   8.20178261
_cell_length_c   8.20178210
_cell_angle_alpha   127.13006523
_cell_angle_beta   127.13006850
_cell_angle_gamma   78.03858959
_symmetry_Int_Tables_number   1
_chemical_formula_structural   CsPu2O7
_chemical_formula_sum   'Cs2 Pu4 O14'
_cell_volume   339.81573544
_cell_formula_units_Z   2
loop_
 _symmetry_equiv_pos_site_id
 _symmetry_equiv_pos_as_xyz
  1  'x, y, z'
loop_
 _atom_site_type_symbol
 _atom_site_label
 _atom_site_symmetry_multiplicity
 _atom_site_fract_x
 _atom_site_fract_y
 _atom_site_fract_z
 _atom_site_occupancy
  Cs  Cs0  1  0.000000  0.000000  0.000000  1
  Cs  Cs1  1  0.750000  0.250000  0.500000  1
  Pu  Pu2  1  0.875000  0.625000  0.250000  1
  Pu  Pu3  1  0.375000  0.625000  0.250000  1
  Pu  Pu4  1  0.375000  0.125000  0.750000  1
  Pu  Pu5  1  0.375000  0.625000  0.750000  1
  O  O6  1  0.250000  0.750000  0.500000  1
  O  O7  1  0.500000  0.500000  0.000000  1
  O  O8  1  0.709607  0.709607  0.000000  1
  O  O9  1  0.459607  0.959607  0.500000  1
  O  O10  1  0.040393  0.540393  0.500000  1
  O  O11  1  0.290393  0.290393  0.000000  1
  O  O12  1  0.875000  0.378186  0.003186  1
  O  O13  1  0.128186  0.625000  0.003186  1
  O  O14  1  0.621814  0.125000  0.996814  1
  O  O15  1  0.375000  0.871814  0.996814  1
  O  O16  1  0.875000  0.871814  0.496814  1
  O  O17  1  0.621814  0.625000  0.496814  1
  O  O18  1  0.128186  0.125000  0.503186  1
  O  O19  1  0.375000  0.378186  0.503186  1
