# generated using pymatgen
data_Pr7Sc(Si3Pt)4
_symmetry_space_group_name_H-M   'P 1'
_cell_length_a   8.23360000
_cell_length_b   8.23360043
_cell_length_c   8.58640500
_cell_angle_alpha   90.00000000
_cell_angle_beta   90.00000000
_cell_angle_gamma   119.99796291
_symmetry_Int_Tables_number   1
_chemical_formula_structural   Pr7Sc(Si3Pt)4
_chemical_formula_sum   'Pr7 Sc1 Si12 Pt4'
_cell_volume   504.11598295
_cell_formula_units_Z   1
loop_
 _symmetry_equiv_pos_site_id
 _symmetry_equiv_pos_as_xyz
  1  'x, y, z'
loop_
 _atom_site_type_symbol
 _atom_site_label
 _atom_site_symmetry_multiplicity
 _atom_site_fract_x
 _atom_site_fract_y
 _atom_site_fract_z
 _atom_site_occupancy
  Pr  Pr0  1  0.500150  0.499850  0.250000  1
  Pr  Pr1  1  0.000500  0.500191  0.750000  1
  Pr  Pr2  1  0.999756  0.499888  0.250000  1
  Pr  Pr3  1  0.499809  0.999500  0.750000  1
  Pr  Pr4  1  0.500112  0.000244  0.250000  1
  Pr  Pr5  1  0.000005  0.999995  0.750000  1
  Pr  Pr6  1  0.999996  0.000004  0.250000  1
  Sc  Sc7  1  0.499715  0.500285  0.750000  1
  Si  Si8  1  0.833685  0.166315  0.000175  1
  Si  Si9  1  0.166285  0.833715  0.999735  1
  Si  Si10  1  0.332409  0.167988  0.996743  1
  Si  Si11  1  0.166285  0.833715  0.500265  1
  Si  Si12  1  0.667541  0.831856  0.995771  1
  Si  Si13  1  0.833685  0.166315  0.499825  1
  Si  Si14  1  0.832012  0.667591  0.996743  1
  Si  Si15  1  0.667541  0.831856  0.504229  1
  Si  Si16  1  0.168144  0.332459  0.995771  1
  Si  Si17  1  0.332409  0.167988  0.503257  1
  Si  Si18  1  0.168144  0.332459  0.504229  1
  Si  Si19  1  0.832012  0.667591  0.503257  1
  Pt  Pt20  1  0.664968  0.335032  0.991466  1
  Pt  Pt21  1  0.334935  0.665065  0.993295  1
  Pt  Pt22  1  0.334935  0.665065  0.506705  1
  Pt  Pt23  1  0.664968  0.335032  0.508534  1
