# generated using pymatgen
data_LaTb4(FeB3)2
_symmetry_space_group_name_H-M   'P 1'
_cell_length_a   5.44138883
_cell_length_b   5.44138812
_cell_length_c   8.30723982
_cell_angle_alpha   70.88235784
_cell_angle_beta   70.88236325
_cell_angle_gamma   59.99999353
_symmetry_Int_Tables_number   1
_chemical_formula_structural   LaTb4(FeB3)2
_chemical_formula_sum   'La1 Tb4 Fe2 B6'
_cell_volume   197.19376115
_cell_formula_units_Z   1
loop_
 _symmetry_equiv_pos_site_id
 _symmetry_equiv_pos_as_xyz
  1  'x, y, z'
loop_
 _atom_site_type_symbol
 _atom_site_label
 _atom_site_symmetry_multiplicity
 _atom_site_fract_x
 _atom_site_fract_y
 _atom_site_fract_z
 _atom_site_occupancy
  La  La0  1  0.000000  0.000000  0.000000  1
  Tb  Tb1  1  0.749653  0.749653  0.751041  1
  Tb  Tb2  1  0.250347  0.250347  0.248959  1
  Tb  Tb3  1  0.582870  0.582870  0.251391  1
  Tb  Tb4  1  0.417130  0.417130  0.748609  1
  Fe  Fe5  1  0.884288  0.884288  0.347135  1
  Fe  Fe6  1  0.115712  0.115712  0.652865  1
  B  B7  1  0.500000  0.167017  0.500000  1
  B  B8  1  0.832983  0.500000  0.500000  1
  B  B9  1  0.167017  0.832983  0.500000  1
  B  B10  1  0.167017  0.500000  0.500000  1
  B  B11  1  0.832983  0.167017  0.500000  1
  B  B12  1  0.500000  0.832983  0.500000  1
