# generated using pymatgen
data_Lu3Co6SnC2
_symmetry_space_group_name_H-M   'P 1'
_cell_length_a   5.17006600
_cell_length_b   5.17006507
_cell_length_c   13.81547400
_cell_angle_alpha   90.00000000
_cell_angle_beta   90.00000000
_cell_angle_gamma   119.99999315
_symmetry_Int_Tables_number   1
_chemical_formula_structural   Lu3Co6SnC2
_chemical_formula_sum   'Lu6 Co12 Sn2 C4'
_cell_volume   319.80742900
_cell_formula_units_Z   2
loop_
 _symmetry_equiv_pos_site_id
 _symmetry_equiv_pos_as_xyz
  1  'x, y, z'
loop_
 _atom_site_type_symbol
 _atom_site_label
 _atom_site_symmetry_multiplicity
 _atom_site_fract_x
 _atom_site_fract_y
 _atom_site_fract_z
 _atom_site_occupancy
  Lu  Lu0  1  0.333333  0.666667  0.536777  1
  Lu  Lu1  1  0.666667  0.333333  0.036777  1
  Lu  Lu2  1  0.666667  0.333333  0.463223  1
  Lu  Lu3  1  0.333333  0.666667  0.963223  1
  Lu  Lu4  1  0.333333  0.666667  0.750000  1
  Lu  Lu5  1  0.666667  0.333333  0.250000  1
  Co  Co6  1  0.167632  0.335263  0.157318  1
  Co  Co7  1  0.832368  0.664737  0.657318  1
  Co  Co8  1  0.664737  0.832368  0.157318  1
  Co  Co9  1  0.167632  0.832368  0.157318  1
  Co  Co10  1  0.832368  0.167632  0.657318  1
  Co  Co11  1  0.335263  0.167632  0.657318  1
  Co  Co12  1  0.832368  0.664737  0.842682  1
  Co  Co13  1  0.832368  0.167632  0.842682  1
  Co  Co14  1  0.335263  0.167632  0.842682  1
  Co  Co15  1  0.664737  0.832368  0.342682  1
  Co  Co16  1  0.167632  0.832368  0.342682  1
  Co  Co17  1  0.167632  0.335263  0.342682  1
  Sn  Sn18  1  0.000000  0.000000  0.000000  1
  Sn  Sn19  1  0.000000  0.000000  0.500000  1
  C  C20  1  0.333333  0.666667  0.250000  1
  C  C21  1  0.666667  0.333333  0.750000  1
  C  C22  1  0.000000  0.000000  0.250000  1
  C  C23  1  0.000000  0.000000  0.750000  1
