# generated using pymatgen
data_Dy12Zn11Si12Pd
_symmetry_space_group_name_H-M   'P 1'
_cell_length_a   4.13205800
_cell_length_b   7.17528414
_cell_length_c   24.21267600
_cell_angle_alpha   89.98864510
_cell_angle_beta   90.00000000
_cell_angle_gamma   90.00000000
_symmetry_Int_Tables_number   1
_chemical_formula_structural   Dy12Zn11Si12Pd
_chemical_formula_sum   'Dy12 Zn11 Si12 Pd1'
_cell_volume   717.87411643
_cell_formula_units_Z   1
loop_
 _symmetry_equiv_pos_site_id
 _symmetry_equiv_pos_as_xyz
  1  'x, y, z'
loop_
 _atom_site_type_symbol
 _atom_site_label
 _atom_site_symmetry_multiplicity
 _atom_site_fract_x
 _atom_site_fract_y
 _atom_site_fract_z
 _atom_site_occupancy
  Dy  Dy0  1  0.250000  0.750113  0.334162  1
  Dy  Dy1  1  0.750000  0.246515  0.664083  1
  Dy  Dy2  1  0.750000  0.250689  0.167152  1
  Dy  Dy3  1  0.250000  0.748798  0.832188  1
  Dy  Dy4  1  0.250000  0.751021  0.167174  1
  Dy  Dy5  1  0.750000  0.249377  0.832415  1
  Dy  Dy6  1  0.750000  0.251858  0.333917  1
  Dy  Dy7  1  0.250000  0.750784  0.665209  1
  Dy  Dy8  1  0.250000  0.750235  0.999396  1
  Dy  Dy9  1  0.750000  0.249524  0.999258  1
  Dy  Dy10  1  0.750000  0.247620  0.502660  1
  Dy  Dy11  1  0.250000  0.751375  0.501754  1
  Zn  Zn12  1  0.250000  0.417770  0.250291  1
  Zn  Zn13  1  0.750000  0.581679  0.750501  1
  Zn  Zn14  1  0.750000  0.917775  0.251141  1
  Zn  Zn15  1  0.250000  0.082325  0.753395  1
  Zn  Zn16  1  0.250000  0.417144  0.414434  1
  Zn  Zn17  1  0.750000  0.584726  0.588662  1
  Zn  Zn18  1  0.750000  0.917010  0.085792  1
  Zn  Zn19  1  0.250000  0.082678  0.912470  1
  Zn  Zn20  1  0.250000  0.416846  0.085650  1
  Zn  Zn21  1  0.750000  0.582933  0.913074  1
  Zn  Zn22  1  0.750000  0.917527  0.413748  1
  Si  Si23  1  0.250000  0.084195  0.080953  1
  Si  Si24  1  0.750000  0.916019  0.918596  1
  Si  Si25  1  0.750000  0.584196  0.419547  1
  Si  Si26  1  0.250000  0.418409  0.579075  1
  Si  Si27  1  0.250000  0.084941  0.250239  1
  Si  Si28  1  0.750000  0.915358  0.748659  1
  Si  Si29  1  0.750000  0.584731  0.249886  1
  Si  Si30  1  0.250000  0.414884  0.748778  1
  Si  Si31  1  0.250000  0.084292  0.418572  1
  Si  Si32  1  0.750000  0.914182  0.579597  1
  Si  Si33  1  0.750000  0.583672  0.081235  1
  Si  Si34  1  0.250000  0.415680  0.918284  1
  Pd  Pd35  1  0.250000  0.083121  0.588054  1
