# generated using pymatgen
data_Ho5SnBi2Se
_symmetry_space_group_name_H-M   'P 1'
_cell_length_a   9.18918478
_cell_length_b   9.18918442
_cell_length_c   6.62212000
_cell_angle_alpha   90.00000000
_cell_angle_beta   90.00000000
_cell_angle_gamma   120.12858882
_symmetry_Int_Tables_number   1
_chemical_formula_structural   Ho5SnBi2Se
_chemical_formula_sum   'Ho10 Sn2 Bi4 Se2'
_cell_volume   483.63468001
_cell_formula_units_Z   2
loop_
 _symmetry_equiv_pos_site_id
 _symmetry_equiv_pos_as_xyz
  1  'x, y, z'
loop_
 _atom_site_type_symbol
 _atom_site_label
 _atom_site_symmetry_multiplicity
 _atom_site_fract_x
 _atom_site_fract_y
 _atom_site_fract_z
 _atom_site_occupancy
  Ho  Ho0  1  0.667920  0.330742  0.003682  1
  Ho  Ho1  1  0.330742  0.667920  0.003682  1
  Ho  Ho2  1  0.330742  0.667920  0.496318  1
  Ho  Ho3  1  0.667920  0.330742  0.496318  1
  Ho  Ho4  1  0.746871  0.746871  0.750000  1
  Ho  Ho5  1  0.253524  0.000185  0.750000  1
  Ho  Ho6  1  0.000185  0.253524  0.750000  1
  Ho  Ho7  1  0.251210  0.251210  0.250000  1
  Ho  Ho8  1  0.747726  0.005802  0.250000  1
  Ho  Ho9  1  0.005802  0.747726  0.250000  1
  Sn  Sn10  1  0.395380  0.000748  0.250000  1
  Sn  Sn11  1  0.000748  0.395380  0.250000  1
  Bi  Bi12  1  0.395462  0.395462  0.750000  1
  Bi  Bi13  1  0.603555  0.999092  0.750000  1
  Bi  Bi14  1  0.999092  0.603555  0.750000  1
  Bi  Bi15  1  0.606121  0.606121  0.250000  1
  Se  Se16  1  0.998500  0.998500  0.999635  1
  Se  Se17  1  0.998500  0.998500  0.500365  1
