# generated using pymatgen
data_Ac3Te4Cl
_symmetry_space_group_name_H-M   'P 1'
_cell_length_a   4.53886200
_cell_length_b   14.68504700
_cell_length_c   16.86244700
_cell_angle_alpha   90.00000000
_cell_angle_beta   90.00000000
_cell_angle_gamma   90.00000000
_symmetry_Int_Tables_number   1
_chemical_formula_structural   Ac3Te4Cl
_chemical_formula_sum   'Ac12 Te16 Cl4'
_cell_volume   1123.93945516
_cell_formula_units_Z   4
loop_
 _symmetry_equiv_pos_site_id
 _symmetry_equiv_pos_as_xyz
  1  'x, y, z'
loop_
 _atom_site_type_symbol
 _atom_site_label
 _atom_site_symmetry_multiplicity
 _atom_site_fract_x
 _atom_site_fract_y
 _atom_site_fract_z
 _atom_site_occupancy
  Ac  Ac0  1  0.250000  0.907326  0.625620  1
  Ac  Ac1  1  0.250000  0.592674  0.125620  1
  Ac  Ac2  1  0.750000  0.092674  0.374380  1
  Ac  Ac3  1  0.750000  0.407326  0.874380  1
  Ac  Ac4  1  0.750000  0.250537  0.617238  1
  Ac  Ac5  1  0.750000  0.249463  0.117238  1
  Ac  Ac6  1  0.250000  0.749463  0.382762  1
  Ac  Ac7  1  0.250000  0.750537  0.882762  1
  Ac  Ac8  1  0.750000  0.579409  0.630057  1
  Ac  Ac9  1  0.750000  0.920591  0.130057  1
  Ac  Ac10  1  0.250000  0.420591  0.369943  1
  Ac  Ac11  1  0.250000  0.079409  0.869943  1
  Te  Te12  1  0.250000  0.418280  0.571932  1
  Te  Te13  1  0.250000  0.081720  0.071932  1
  Te  Te14  1  0.750000  0.581720  0.428068  1
  Te  Te15  1  0.750000  0.918280  0.928068  1
  Te  Te16  1  0.750000  0.048199  0.717212  1
  Te  Te17  1  0.750000  0.451801  0.217212  1
  Te  Te18  1  0.250000  0.951801  0.282788  1
  Te  Te19  1  0.250000  0.548199  0.782788  1
  Te  Te20  1  0.750000  0.777839  0.731305  1
  Te  Te21  1  0.750000  0.722161  0.231305  1
  Te  Te22  1  0.250000  0.222161  0.268695  1
  Te  Te23  1  0.250000  0.277839  0.768695  1
  Te  Te24  1  0.250000  0.113637  0.523722  1
  Te  Te25  1  0.250000  0.386363  0.023722  1
  Te  Te26  1  0.750000  0.886363  0.476278  1
  Te  Te27  1  0.750000  0.613637  0.976278  1
  Cl  Cl28  1  0.250000  0.701612  0.568562  1
  Cl  Cl29  1  0.250000  0.798388  0.068562  1
  Cl  Cl30  1  0.750000  0.298388  0.431438  1
  Cl  Cl31  1  0.750000  0.201612  0.931438  1
