# generated using pymatgen
data_Pr8GeAsI10
_symmetry_space_group_name_H-M   'P 1'
_cell_length_a   4.36991000
_cell_length_b   9.13827200
_cell_length_c   19.25774300
_cell_angle_alpha   90.00000000
_cell_angle_beta   90.00000000
_cell_angle_gamma   90.00000000
_symmetry_Int_Tables_number   1
_chemical_formula_structural   Pr8GeAsI10
_chemical_formula_sum   'Pr8 Ge1 As1 I10'
_cell_volume   769.02765878
_cell_formula_units_Z   1
loop_
 _symmetry_equiv_pos_site_id
 _symmetry_equiv_pos_as_xyz
  1  'x, y, z'
loop_
 _atom_site_type_symbol
 _atom_site_label
 _atom_site_symmetry_multiplicity
 _atom_site_fract_x
 _atom_site_fract_y
 _atom_site_fract_z
 _atom_site_occupancy
  Pr  Pr0  1  0.000000  0.372169  0.852025  1
  Pr  Pr1  1  0.500000  0.585467  0.000000  1
  Pr  Pr2  1  0.000000  0.372169  0.147975  1
  Pr  Pr3  1  0.000000  0.844544  0.500000  1
  Pr  Pr4  1  0.500000  0.628202  0.351035  1
  Pr  Pr5  1  0.000000  0.410710  0.500000  1
  Pr  Pr6  1  0.500000  0.628202  0.648965  1
  Pr  Pr7  1  0.500000  0.159217  0.000000  1
  Ge  Ge8  1  0.500000  0.628236  0.500000  1
  As  As9  1  0.000000  0.371211  0.000000  1
  I  I10  1  0.500000  0.116818  0.167159  1
  I  I11  1  0.000000  0.366617  0.669944  1
  I  I12  1  0.000000  0.871012  0.000000  1
  I  I13  1  0.000000  0.882657  0.332260  1
  I  I14  1  0.500000  0.116818  0.832841  1
  I  I15  1  0.500000  0.633926  0.830979  1
  I  I16  1  0.000000  0.882657  0.667740  1
  I  I17  1  0.000000  0.366617  0.330056  1
  I  I18  1  0.500000  0.633926  0.169021  1
  I  I19  1  0.500000  0.128824  0.500000  1
