# generated using pymatgen
data_Tb4Ga18NiRh5
_symmetry_space_group_name_H-M   'P 1'
_cell_length_a   7.57030729
_cell_length_b   7.57030634
_cell_length_c   9.50113061
_cell_angle_alpha   90.18314655
_cell_angle_beta   90.18314249
_cell_angle_gamma   119.84968777
_symmetry_Int_Tables_number   1
_chemical_formula_structural   Tb4Ga18NiRh5
_chemical_formula_sum   'Tb4 Ga18 Ni1 Rh5'
_cell_volume   472.25858266
_cell_formula_units_Z   1
loop_
 _symmetry_equiv_pos_site_id
 _symmetry_equiv_pos_as_xyz
  1  'x, y, z'
loop_
 _atom_site_type_symbol
 _atom_site_label
 _atom_site_symmetry_multiplicity
 _atom_site_fract_x
 _atom_site_fract_y
 _atom_site_fract_z
 _atom_site_occupancy
  Tb  Tb0  1  0.996666  0.667385  0.249681  1
  Tb  Tb1  1  0.003334  0.332615  0.750319  1
  Tb  Tb2  1  0.667385  0.996666  0.249681  1
  Tb  Tb3  1  0.332615  0.003334  0.750319  1
  Ga  Ga4  1  0.121649  0.121649  0.246295  1
  Ga  Ga5  1  0.878351  0.878351  0.753705  1
  Ga  Ga6  1  0.999997  0.330600  0.078269  1
  Ga  Ga7  1  0.000003  0.669400  0.921731  1
  Ga  Ga8  1  0.999202  0.665630  0.579338  1
  Ga  Ga9  1  0.334370  0.000798  0.420662  1
  Ga  Ga10  1  0.000798  0.334370  0.420662  1
  Ga  Ga11  1  0.665630  0.999202  0.579338  1
  Ga  Ga12  1  0.669400  0.000003  0.921731  1
  Ga  Ga13  1  0.330600  0.999997  0.078269  1
  Ga  Ga14  1  0.332612  0.332612  0.563415  1
  Ga  Ga15  1  0.667388  0.667388  0.436585  1
  Ga  Ga16  1  0.670851  0.670851  0.062382  1
  Ga  Ga17  1  0.329149  0.329149  0.937618  1
  Ga  Ga18  1  0.338118  0.546267  0.249340  1
  Ga  Ga19  1  0.661882  0.453733  0.750660  1
  Ga  Ga20  1  0.546267  0.338118  0.249340  1
  Ga  Ga21  1  0.453733  0.661882  0.750660  1
  Ni  Ni22  1  0.000000  0.000000  0.000000  1
  Rh  Rh23  1  0.671600  0.328400  0.000000  1
  Rh  Rh24  1  0.328400  0.671600  0.000000  1
  Rh  Rh25  1  0.328525  0.671475  0.500000  1
  Rh  Rh26  1  0.671475  0.328525  0.500000  1
  Rh  Rh27  1  0.000000  0.000000  0.500000  1
