# generated using pymatgen
data_Tb13Ho3(AlRh)4
_symmetry_space_group_name_H-M   'P 1'
_cell_length_a   9.55868050
_cell_length_b   9.55232643
_cell_length_c   9.55153412
_cell_angle_alpha   60.14247876
_cell_angle_beta   60.11963233
_cell_angle_gamma   60.08325090
_symmetry_Int_Tables_number   1
_chemical_formula_structural   Tb13Ho3(AlRh)4
_chemical_formula_sum   'Tb13 Ho3 Al4 Rh4'
_cell_volume   618.29571909
_cell_formula_units_Z   1
loop_
 _symmetry_equiv_pos_site_id
 _symmetry_equiv_pos_as_xyz
  1  'x, y, z'
loop_
 _atom_site_type_symbol
 _atom_site_label
 _atom_site_symmetry_multiplicity
 _atom_site_fract_x
 _atom_site_fract_y
 _atom_site_fract_z
 _atom_site_occupancy
  Tb  Tb0  1  0.644515  0.061218  0.644992  1
  Tb  Tb1  1  0.061859  0.062416  0.436614  1
  Tb  Tb2  1  0.436375  0.435688  0.062295  1
  Tb  Tb3  1  0.650321  0.649714  0.649882  1
  Tb  Tb4  1  0.808607  0.191385  0.191016  1
  Tb  Tb5  1  0.192661  0.808267  0.807613  1
  Tb  Tb6  1  0.060805  0.644478  0.645168  1
  Tb  Tb7  1  0.436911  0.062075  0.061585  1
  Tb  Tb8  1  0.436143  0.062405  0.436222  1
  Tb  Tb9  1  0.062132  0.436148  0.062237  1
  Tb  Tb10  1  0.645104  0.644907  0.060780  1
  Tb  Tb11  1  0.191463  0.808671  0.191351  1
  Tb  Tb12  1  0.062028  0.435739  0.436556  1
  Ho  Ho13  1  0.807198  0.807733  0.193128  1
  Ho  Ho14  1  0.807736  0.193120  0.807661  1
  Ho  Ho15  1  0.191487  0.191720  0.808045  1
  Al  Al16  1  0.422458  0.422484  0.422873  1
  Al  Al17  1  0.424443  0.424271  0.730851  1
  Al  Al18  1  0.424482  0.730851  0.424458  1
  Al  Al19  1  0.731115  0.424414  0.424574  1
  Rh  Rh20  1  0.859696  0.427036  0.858423  1
  Rh  Rh21  1  0.856108  0.857138  0.857181  1
  Rh  Rh22  1  0.858680  0.858415  0.427782  1
  Rh  Rh23  1  0.427670  0.859710  0.858714  1
