# generated using pymatgen
data_Ac10IrOsI15
_symmetry_space_group_name_H-M   'P 1'
_cell_length_a   10.55720891
_cell_length_b   11.57358334
_cell_length_c   12.37204239
_cell_angle_alpha   92.87209496
_cell_angle_beta   113.88196272
_cell_angle_gamma   110.38562399
_symmetry_Int_Tables_number   1
_chemical_formula_structural   Ac10IrOsI15
_chemical_formula_sum   'Ac10 Ir1 Os1 I15'
_cell_volume   1263.05071530
_cell_formula_units_Z   1
loop_
 _symmetry_equiv_pos_site_id
 _symmetry_equiv_pos_as_xyz
  1  'x, y, z'
loop_
 _atom_site_type_symbol
 _atom_site_label
 _atom_site_symmetry_multiplicity
 _atom_site_fract_x
 _atom_site_fract_y
 _atom_site_fract_z
 _atom_site_occupancy
  Ac  Ac0  1  0.219308  0.572269  0.045793  1
  Ac  Ac1  1  0.779389  0.425178  0.951901  1
  Ac  Ac2  1  0.299838  0.902158  0.272710  1
  Ac  Ac3  1  0.704108  0.099822  0.729270  1
  Ac  Ac4  1  0.090683  0.544388  0.332388  1
  Ac  Ac5  1  0.908672  0.454831  0.666364  1
  Ac  Ac6  1  0.829600  0.750450  0.178666  1
  Ac  Ac7  1  0.167503  0.250176  0.821794  1
  Ac  Ac8  1  0.973236  0.790781  0.899864  1
  Ac  Ac9  1  0.026658  0.208076  0.099927  1
  Ir  Ir10  1  0.032926  0.673650  0.120145  1
  Os  Os11  1  0.967530  0.328295  0.881194  1
  I  I12  1  0.345724  0.444623  0.305776  1
  I  I13  1  0.654139  0.555435  0.694208  1
  I  I14  1  0.214932  0.740069  0.813551  1
  I  I15  1  0.784861  0.260291  0.185944  1
  I  I16  1  0.143327  0.387465  0.582745  1
  I  I17  1  0.856447  0.613202  0.416317  1
  I  I18  1  0.391148  0.803519  0.532106  1
  I  I19  1  0.607548  0.195550  0.467266  1
  I  I20  1  0.263153  0.087620  0.054688  1
  I  I21  1  0.736795  0.911907  0.945325  1
  I  I22  1  0.567444  0.844002  0.227187  1
  I  I23  1  0.435039  0.156966  0.773514  1
  I  I24  1  0.093447  0.038085  0.336198  1
  I  I25  1  0.907418  0.960900  0.664963  1
  I  I26  1  0.499131  0.500291  0.000197  1
