# generated using pymatgen
data_La9Nd7(CdPd)4
_symmetry_space_group_name_H-M   'P 1'
_cell_length_a   10.12990482
_cell_length_b   10.12990468
_cell_length_c   10.12564800
_cell_angle_alpha   60.01390596
_cell_angle_beta   60.01390641
_cell_angle_gamma   60.11850378
_symmetry_Int_Tables_number   1
_chemical_formula_structural   La9Nd7(CdPd)4
_chemical_formula_sum   'La9 Nd7 Cd4 Pd4'
_cell_volume   735.52495145
_cell_formula_units_Z   1
loop_
 _symmetry_equiv_pos_site_id
 _symmetry_equiv_pos_as_xyz
  1  'x, y, z'
loop_
 _atom_site_type_symbol
 _atom_site_label
 _atom_site_symmetry_multiplicity
 _atom_site_fract_x
 _atom_site_fract_y
 _atom_site_fract_z
 _atom_site_occupancy
  La  La0  1  0.350857  0.350857  0.350879  1
  La  La1  1  0.350857  0.350857  0.947406  1
  La  La2  1  0.352077  0.945694  0.351114  1
  La  La3  1  0.945694  0.352077  0.351114  1
  La  La4  1  0.806809  0.192567  0.193604  1
  La  La5  1  0.192567  0.806809  0.807021  1
  La  La6  1  0.192567  0.806809  0.193604  1
  La  La7  1  0.806809  0.192567  0.807021  1
  La  La8  1  0.193320  0.193320  0.806680  1
  Nd  Nd9  1  0.806647  0.806647  0.193353  1
  Nd  Nd10  1  0.934444  0.566055  0.565943  1
  Nd  Nd11  1  0.566055  0.934444  0.933558  1
  Nd  Nd12  1  0.566055  0.934444  0.565943  1
  Nd  Nd13  1  0.934444  0.566055  0.933558  1
  Nd  Nd14  1  0.565882  0.565882  0.934118  1
  Nd  Nd15  1  0.933963  0.933963  0.566037  1
  Cd  Cd16  1  0.580824  0.580824  0.580050  1
  Cd  Cd17  1  0.580824  0.580824  0.258304  1
  Cd  Cd18  1  0.580572  0.258179  0.580625  1
  Cd  Cd19  1  0.258179  0.580572  0.580625  1
  Pd  Pd20  1  0.143292  0.143292  0.143105  1
  Pd  Pd21  1  0.143292  0.143292  0.570310  1
  Pd  Pd22  1  0.143207  0.570762  0.143015  1
  Pd  Pd23  1  0.570762  0.143207  0.143015  1
