# generated using pymatgen
data_LiYb3YFeC8
_symmetry_space_group_name_H-M   'P 1'
_cell_length_a   6.78587868
_cell_length_b   6.72382283
_cell_length_c   6.73915438
_cell_angle_alpha   134.42576744
_cell_angle_beta   111.43225868
_cell_angle_gamma   86.47472564
_symmetry_Int_Tables_number   1
_chemical_formula_structural   LiYb3YFeC8
_chemical_formula_sum   'Li1 Yb3 Y1 Fe1 C8'
_cell_volume   195.48516789
_cell_formula_units_Z   1
loop_
 _symmetry_equiv_pos_site_id
 _symmetry_equiv_pos_as_xyz
  1  'x, y, z'
loop_
 _atom_site_type_symbol
 _atom_site_label
 _atom_site_symmetry_multiplicity
 _atom_site_fract_x
 _atom_site_fract_y
 _atom_site_fract_z
 _atom_site_occupancy
  Li  Li0  1  0.003819  0.251695  0.243111  1
  Yb  Yb1  1  0.799063  0.641518  0.149281  1
  Yb  Yb2  1  0.518469  0.863298  0.669715  1
  Yb  Yb3  1  0.493757  0.152914  0.352958  1
  Y  Y4  1  0.200309  0.351003  0.840006  1
  Fe  Fe5  1  0.993767  0.737272  0.743866  1
  C  C6  1  0.810157  0.141042  0.689728  1
  C  C7  1  0.205272  0.886540  0.344533  1
  C  C8  1  0.450971  0.615149  0.819733  1
  C  C9  1  0.533409  0.375272  0.160547  1
  C  C10  1  0.911425  0.007656  0.752828  1
  C  C11  1  0.092024  0.847437  0.109096  1
  C  C12  1  0.255923  0.648783  0.742227  1
  C  C13  1  0.731639  0.480419  0.382370  1
