# generated using pymatgen
data_PrNd11Fe2I17
_symmetry_space_group_name_H-M   'P 1'
_cell_length_a   10.01673066
_cell_length_b   12.12562829
_cell_length_c   12.08356000
_cell_angle_alpha   74.00071827
_cell_angle_beta   75.15018121
_cell_angle_gamma   65.41862209
_symmetry_Int_Tables_number   1
_chemical_formula_structural   PrNd11Fe2I17
_chemical_formula_sum   'Pr1 Nd11 Fe2 I17'
_cell_volume   1265.99843627
_cell_formula_units_Z   1
loop_
 _symmetry_equiv_pos_site_id
 _symmetry_equiv_pos_as_xyz
  1  'x, y, z'
loop_
 _atom_site_type_symbol
 _atom_site_label
 _atom_site_symmetry_multiplicity
 _atom_site_fract_x
 _atom_site_fract_y
 _atom_site_fract_z
 _atom_site_occupancy
  Pr  Pr0  1  0.144955  0.713787  0.151810  1
  Nd  Nd1  1  0.452396  0.489944  0.321755  1
  Nd  Nd2  1  0.553739  0.671413  0.009968  1
  Nd  Nd3  1  0.273391  0.985246  0.108207  1
  Nd  Nd4  1  0.860189  0.287791  0.848137  1
  Nd  Nd5  1  0.408138  0.241219  0.718798  1
  Nd  Nd6  1  0.725446  0.020175  0.890614  1
  Nd  Nd7  1  0.548638  0.504089  0.679326  1
  Nd  Nd8  1  0.451800  0.326979  0.986123  1
  Nd  Nd9  1  0.583281  0.757506  0.279991  1
  Nd  Nd10  1  0.817897  0.192988  0.587159  1
  Nd  Nd11  1  0.176485  0.809390  0.417071  1
  Fe  Fe12  1  0.364770  0.738101  0.213606  1
  Fe  Fe13  1  0.634632  0.261799  0.786794  1
  I  I14  1  0.055106  0.102112  0.325550  1
  I  I15  1  0.465260  0.948258  0.844332  1
  I  I16  1  0.428000  0.810227  0.536032  1
  I  I17  1  0.571369  0.185620  0.464172  1
  I  I18  1  0.836739  0.713164  0.046379  1
  I  I19  1  0.226334  0.418978  0.239152  1
  I  I20  1  0.687720  0.370449  0.102296  1
  I  I21  1  0.534556  0.050168  0.157307  1
  I  I22  1  0.741679  0.472236  0.416452  1
  I  I23  1  0.888014  0.783571  0.370573  1
  I  I24  1  0.946606  0.899069  0.675155  1
  I  I25  1  0.159546  0.291995  0.954613  1
  I  I26  1  0.316957  0.629708  0.897647  1
  I  I27  1  0.000503  0.001435  0.000611  1
  I  I28  1  0.112442  0.215449  0.631015  1
  I  I29  1  0.776968  0.579997  0.758650  1
  I  I30  1  0.256443  0.527135  0.580706  1
