# generated using pymatgen
data_Pr4HfPb3F28
_symmetry_space_group_name_H-M   'P 1'
_cell_length_a   5.85764820
_cell_length_b   9.37788606
_cell_length_c   12.56142300
_cell_angle_alpha   62.47799695
_cell_angle_beta   90.04968933
_cell_angle_gamma   89.93664963
_symmetry_Int_Tables_number   1
_chemical_formula_structural   Pr4HfPb3F28
_chemical_formula_sum   'Pr4 Hf1 Pb3 F28'
_cell_volume   611.93930779
_cell_formula_units_Z   1
loop_
 _symmetry_equiv_pos_site_id
 _symmetry_equiv_pos_as_xyz
  1  'x, y, z'
loop_
 _atom_site_type_symbol
 _atom_site_label
 _atom_site_symmetry_multiplicity
 _atom_site_fract_x
 _atom_site_fract_y
 _atom_site_fract_z
 _atom_site_occupancy
  Pr  Pr0  1  0.758499  0.811458  0.765318  1
  Pr  Pr1  1  0.257873  0.187435  0.735721  1
  Pr  Pr2  1  0.241234  0.187096  0.232925  1
  Pr  Pr3  1  0.741392  0.816233  0.262789  1
  Hf  Hf4  1  0.754467  0.276477  0.955349  1
  Pb  Pb5  1  0.255063  0.726747  0.541858  1
  Pb  Pb6  1  0.246069  0.727607  0.041277  1
  Pb  Pb7  1  0.745262  0.274827  0.455933  1
  F  F8  1  0.449185  0.704387  0.913215  1
  F  F9  1  0.947847  0.293816  0.586722  1
  F  F10  1  0.538844  0.285723  0.076071  1
  F  F11  1  0.048823  0.704152  0.414566  1
  F  F12  1  0.443166  0.286344  0.543037  1
  F  F13  1  0.940966  0.712873  0.957691  1
  F  F14  1  0.558795  0.714382  0.456612  1
  F  F15  1  0.034555  0.284502  0.046434  1
  F  F16  1  0.767834  0.516333  0.861129  1
  F  F17  1  0.273543  0.477559  0.647734  1
  F  F18  1  0.231208  0.477922  0.142000  1
  F  F19  1  0.726560  0.524187  0.352875  1
  F  F20  1  0.761689  0.036199  0.055537  1
  F  F21  1  0.264248  0.977910  0.446367  1
  F  F22  1  0.238717  0.979063  0.947339  1
  F  F23  1  0.740474  0.023697  0.553371  1
  F  F24  1  0.962429  0.726006  0.638974  1
  F  F25  1  0.487270  0.266941  0.859030  1
  F  F26  1  0.039201  0.273658  0.360869  1
  F  F27  1  0.543438  0.732927  0.132603  1
  F  F28  1  0.056064  0.747180  0.175594  1
  F  F29  1  0.556088  0.256653  0.320090  1
  F  F30  1  0.956295  0.254360  0.833932  1
  F  F31  1  0.445107  0.744191  0.677293  1
  F  F32  1  0.406826  0.962637  0.234923  1
  F  F33  1  0.912497  0.032166  0.270361  1
  F  F34  1  0.583590  0.031043  0.766590  1
  F  F35  1  0.084883  0.965310  0.737870  1
