# generated using pymatgen
data_Th8Mg5InAu20
_symmetry_space_group_name_H-M   'P 1'
_cell_length_a   8.72540751
_cell_length_b   8.72542581
_cell_length_c   10.32710118
_cell_angle_alpha   89.85011587
_cell_angle_beta   90.14965647
_cell_angle_gamma   108.14083398
_symmetry_Int_Tables_number   1
_chemical_formula_structural   Th8Mg5InAu20
_chemical_formula_sum   'Th8 Mg5 In1 Au20'
_cell_volume   747.14783150
_cell_formula_units_Z   1
loop_
 _symmetry_equiv_pos_site_id
 _symmetry_equiv_pos_as_xyz
  1  'x, y, z'
loop_
 _atom_site_type_symbol
 _atom_site_label
 _atom_site_symmetry_multiplicity
 _atom_site_fract_x
 _atom_site_fract_y
 _atom_site_fract_z
 _atom_site_occupancy
  Th  Th0  1  0.700527  0.297262  0.998087  1
  Th  Th1  1  0.202465  0.799928  0.501077  1
  Th  Th2  1  0.801169  0.801061  0.295956  1
  Th  Th3  1  0.301062  0.301170  0.204038  1
  Th  Th4  1  0.797261  0.200531  0.501915  1
  Th  Th5  1  0.299930  0.702464  0.998923  1
  Th  Th6  1  0.699452  0.702501  0.797739  1
  Th  Th7  1  0.202506  0.199445  0.702264  1
  Mg  Mg8  1  0.510264  0.010261  0.250001  1
  Mg  Mg9  1  0.988091  0.488089  0.750000  1
  Mg  Mg10  1  0.001346  0.001325  0.001171  1
  Mg  Mg11  1  0.011253  0.511256  0.250000  1
  Mg  Mg12  1  0.501322  0.501345  0.498829  1
  In  In13  1  0.488941  0.988936  0.750003  1
  Au  Au14  1  0.154874  0.433370  0.480699  1
  Au  Au15  1  0.901961  0.902351  0.594762  1
  Au  Au16  1  0.567127  0.840462  0.513021  1
  Au  Au17  1  0.880217  0.164212  0.210069  1
  Au  Au18  1  0.377387  0.660925  0.291024  1
  Au  Au19  1  0.664211  0.380222  0.289932  1
  Au  Au20  1  0.402349  0.401960  0.905238  1
  Au  Au21  1  0.933370  0.654877  0.019300  1
  Au  Au22  1  0.334349  0.609776  0.707091  1
  Au  Au23  1  0.340467  0.067125  0.986971  1
  Au  Au24  1  0.597077  0.595899  0.095492  1
  Au  Au25  1  0.662375  0.932382  0.024625  1
  Au  Au26  1  0.095899  0.097079  0.404507  1
  Au  Au27  1  0.621739  0.345531  0.707354  1
  Au  Au28  1  0.109780  0.834351  0.792909  1
  Au  Au29  1  0.066724  0.345665  0.983720  1
  Au  Au30  1  0.845663  0.566726  0.516282  1
  Au  Au31  1  0.160927  0.877389  0.208976  1
  Au  Au32  1  0.432380  0.162379  0.475374  1
  Au  Au33  1  0.845534  0.121746  0.792648  1
