# generated using pymatgen
data_TiTcRh6
_symmetry_space_group_name_H-M   'P 1'
_cell_length_a   5.48572100
_cell_length_b   5.48572097
_cell_length_c   4.39264700
_cell_angle_alpha   90.00000000
_cell_angle_beta   90.00000000
_cell_angle_gamma   119.99999414
_symmetry_Int_Tables_number   1
_chemical_formula_structural   TiTcRh6
_chemical_formula_sum   'Ti1 Tc1 Rh6'
_cell_volume   114.47862145
_cell_formula_units_Z   1
loop_
 _symmetry_equiv_pos_site_id
 _symmetry_equiv_pos_as_xyz
  1  'x, y, z'
loop_
 _atom_site_type_symbol
 _atom_site_label
 _atom_site_symmetry_multiplicity
 _atom_site_fract_x
 _atom_site_fract_y
 _atom_site_fract_z
 _atom_site_occupancy
  Ti  Ti0  1  0.666667  0.333333  0.250000  1
  Tc  Tc1  1  0.333333  0.666667  0.750000  1
  Rh  Rh2  1  0.168718  0.337437  0.250000  1
  Rh  Rh3  1  0.662563  0.831282  0.250000  1
  Rh  Rh4  1  0.168718  0.831282  0.250000  1
  Rh  Rh5  1  0.834913  0.669826  0.750000  1
  Rh  Rh6  1  0.330174  0.165087  0.750000  1
  Rh  Rh7  1  0.834913  0.165087  0.750000  1
