# generated using pymatgen
data_MgTc3P4Rh3
_symmetry_space_group_name_H-M   'P 1'
_cell_length_a   7.08569900
_cell_length_b   7.08569796
_cell_length_c   3.58697400
_cell_angle_alpha   90.00000000
_cell_angle_beta   90.00000000
_cell_angle_gamma   119.99999086
_symmetry_Int_Tables_number   1
_chemical_formula_structural   MgTc3P4Rh3
_chemical_formula_sum   'Mg1 Tc3 P4 Rh3'
_cell_volume   155.96395357
_cell_formula_units_Z   1
loop_
 _symmetry_equiv_pos_site_id
 _symmetry_equiv_pos_as_xyz
  1  'x, y, z'
loop_
 _atom_site_type_symbol
 _atom_site_label
 _atom_site_symmetry_multiplicity
 _atom_site_fract_x
 _atom_site_fract_y
 _atom_site_fract_z
 _atom_site_occupancy
  Mg  Mg0  1  0.000000  0.000000  0.000000  1
  Tc  Tc1  1  0.536789  0.073578  0.000000  1
  Tc  Tc2  1  0.926422  0.463211  0.000000  1
  Tc  Tc3  1  0.536789  0.463211  0.000000  1
  P  P4  1  0.812770  0.187230  0.500000  1
  P  P5  1  0.374460  0.187230  0.500000  1
  P  P6  1  0.333333  0.666667  0.000000  1
  P  P7  1  0.812770  0.625540  0.500000  1
  Rh  Rh8  1  0.191177  0.808823  0.500000  1
  Rh  Rh9  1  0.191177  0.382355  0.500000  1
  Rh  Rh10  1  0.617645  0.808823  0.500000  1
