# generated using pymatgen
data_Be2Fe3Si3W4
_symmetry_space_group_name_H-M   'P 1'
_cell_length_a   4.64273886
_cell_length_b   4.64273801
_cell_length_c   7.65286600
_cell_angle_alpha   90.00000000
_cell_angle_beta   90.00000000
_cell_angle_gamma   119.54913073
_symmetry_Int_Tables_number   1
_chemical_formula_structural   Be2Fe3Si3W4
_chemical_formula_sum   'Be2 Fe3 Si3 W4'
_cell_volume   143.50215116
_cell_formula_units_Z   1
loop_
 _symmetry_equiv_pos_site_id
 _symmetry_equiv_pos_as_xyz
  1  'x, y, z'
loop_
 _atom_site_type_symbol
 _atom_site_label
 _atom_site_symmetry_multiplicity
 _atom_site_fract_x
 _atom_site_fract_y
 _atom_site_fract_z
 _atom_site_occupancy
  Be  Be0  1  0.350926  0.183352  0.750000  1
  Be  Be1  1  0.816648  0.649074  0.750000  1
  Fe  Fe2  1  0.170174  0.328418  0.250000  1
  Fe  Fe3  1  0.671582  0.829826  0.250000  1
  Fe  Fe4  1  0.831163  0.168837  0.750000  1
  Si  Si5  1  0.995539  0.004461  0.991021  1
  Si  Si6  1  0.995539  0.004461  0.508979  1
  Si  Si7  1  0.178761  0.821239  0.250000  1
  W  W8  1  0.330432  0.669568  0.929553  1
  W  W9  1  0.664403  0.335597  0.442320  1
  W  W10  1  0.664403  0.335597  0.057680  1
  W  W11  1  0.330432  0.669568  0.570447  1
