# generated using pymatgen
data_Sr2Zn2CuAu6
_symmetry_space_group_name_H-M   'P 1'
_cell_length_a   8.86155221
_cell_length_b   8.86308553
_cell_length_c   8.86308514
_cell_angle_alpha   57.45455026
_cell_angle_beta   57.44853870
_cell_angle_gamma   57.44854360
_symmetry_Int_Tables_number   1
_chemical_formula_structural   Sr2Zn2CuAu6
_chemical_formula_sum   'Sr4 Zn4 Cu2 Au12'
_cell_volume   463.35652844
_cell_formula_units_Z   2
loop_
 _symmetry_equiv_pos_site_id
 _symmetry_equiv_pos_as_xyz
  1  'x, y, z'
loop_
 _atom_site_type_symbol
 _atom_site_label
 _atom_site_symmetry_multiplicity
 _atom_site_fract_x
 _atom_site_fract_y
 _atom_site_fract_z
 _atom_site_occupancy
  Sr  Sr0  1  0.907104  0.906520  0.906907  1
  Sr  Sr1  1  0.406574  0.409294  0.407505  1
  Sr  Sr2  1  0.093426  0.092495  0.090706  1
  Sr  Sr3  1  0.592896  0.593093  0.593480  1
  Zn  Zn4  1  0.750000  0.929225  0.570775  1
  Zn  Zn5  1  0.438938  0.251254  0.060635  1
  Zn  Zn6  1  0.061062  0.439365  0.248746  1
  Zn  Zn7  1  0.250000  0.060366  0.439634  1
  Cu  Cu8  1  0.571600  0.749362  0.929195  1
  Cu  Cu9  1  0.928400  0.570805  0.750638  1
  Au  Au10  1  0.479600  0.861527  0.203733  1
  Au  Au11  1  0.203553  0.479781  0.861690  1
  Au  Au12  1  0.862306  0.204786  0.478521  1
  Au  Au13  1  0.704404  0.367017  0.979232  1
  Au  Au14  1  0.980525  0.702237  0.366482  1
  Au  Au15  1  0.364221  0.978517  0.705988  1
  Au  Au16  1  0.519475  0.133518  0.797763  1
  Au  Au17  1  0.795596  0.520768  0.132983  1
  Au  Au18  1  0.135779  0.794012  0.521483  1
  Au  Au19  1  0.296447  0.638310  0.020219  1
  Au  Au20  1  0.020400  0.296267  0.638473  1
  Au  Au21  1  0.637694  0.021479  0.295214  1
