# generated using pymatgen
data_Tm16Cd4Ru3Pt
_symmetry_space_group_name_H-M   'P 1'
_cell_length_a   9.48504330
_cell_length_b   9.54075254
_cell_length_c   9.54075300
_cell_angle_alpha   60.00000187
_cell_angle_beta   59.80552117
_cell_angle_gamma   59.80551926
_symmetry_Int_Tables_number   1
_chemical_formula_structural   Tm16Cd4Ru3Pt
_chemical_formula_sum   'Tm16 Cd4 Ru3 Pt1'
_cell_volume   608.70476391
_cell_formula_units_Z   1
loop_
 _symmetry_equiv_pos_site_id
 _symmetry_equiv_pos_as_xyz
  1  'x, y, z'
loop_
 _atom_site_type_symbol
 _atom_site_label
 _atom_site_symmetry_multiplicity
 _atom_site_fract_x
 _atom_site_fract_y
 _atom_site_fract_z
 _atom_site_occupancy
  Tm  Tm0  1  0.346437  0.350251  0.350251  1
  Tm  Tm1  1  0.346437  0.350251  0.953062  1
  Tm  Tm2  1  0.346437  0.953062  0.350251  1
  Tm  Tm3  1  0.962920  0.345694  0.345694  1
  Tm  Tm4  1  0.815325  0.189047  0.189047  1
  Tm  Tm5  1  0.186528  0.812184  0.812184  1
  Tm  Tm6  1  0.186528  0.812184  0.189104  1
  Tm  Tm7  1  0.815325  0.189047  0.806582  1
  Tm  Tm8  1  0.186528  0.189104  0.812184  1
  Tm  Tm9  1  0.815325  0.806582  0.189047  1
  Tm  Tm10  1  0.936348  0.562512  0.562512  1
  Tm  Tm11  1  0.559179  0.937546  0.937546  1
  Tm  Tm12  1  0.559179  0.937546  0.565729  1
  Tm  Tm13  1  0.936348  0.562512  0.938629  1
  Tm  Tm14  1  0.559179  0.565729  0.937546  1
  Tm  Tm15  1  0.936348  0.938629  0.562512  1
  Cd  Cd16  1  0.579784  0.580002  0.580002  1
  Cd  Cd17  1  0.579784  0.580002  0.260212  1
  Cd  Cd18  1  0.579784  0.260212  0.580002  1
  Cd  Cd19  1  0.255948  0.581351  0.581351  1
  Ru  Ru20  1  0.145274  0.139558  0.139558  1
  Ru  Ru21  1  0.145274  0.139558  0.575610  1
  Ru  Ru22  1  0.145274  0.575610  0.139558  1
  Pt  Pt23  1  0.574511  0.141830  0.141830  1
