# generated using pymatgen
data_Ba8CePuS12
_symmetry_space_group_name_H-M   'P 1'
_cell_length_a   8.75039167
_cell_length_b   8.75039088
_cell_length_c   8.75039236
_cell_angle_alpha   89.51608037
_cell_angle_beta   89.51608540
_cell_angle_gamma   89.51608845
_symmetry_Int_Tables_number   1
_chemical_formula_structural   Ba8CePuS12
_chemical_formula_sum   'Ba8 Ce1 Pu1 S12'
_cell_volume   669.94054337
_cell_formula_units_Z   1
loop_
 _symmetry_equiv_pos_site_id
 _symmetry_equiv_pos_as_xyz
  1  'x, y, z'
loop_
 _atom_site_type_symbol
 _atom_site_label
 _atom_site_symmetry_multiplicity
 _atom_site_fract_x
 _atom_site_fract_y
 _atom_site_fract_z
 _atom_site_occupancy
  Ba  Ba0  1  0.878105  0.622516  0.249357  1
  Ba  Ba1  1  0.249357  0.878105  0.622516  1
  Ba  Ba2  1  0.622516  0.249357  0.878105  1
  Ba  Ba3  1  0.750643  0.121895  0.377484  1
  Ba  Ba4  1  0.377484  0.750643  0.121895  1
  Ba  Ba5  1  0.121895  0.377484  0.750643  1
  Ba  Ba6  1  0.249826  0.249826  0.249826  1
  Ba  Ba7  1  0.750174  0.750174  0.750174  1
  Ce  Ce8  1  0.500000  0.500000  0.500000  1
  Pu  Pu9  1  0.000000  0.000000  0.000000  1
  S  S10  1  0.203919  0.562081  0.421253  1
  S  S11  1  0.421253  0.203919  0.562081  1
  S  S12  1  0.562081  0.421253  0.203919  1
  S  S13  1  0.926093  0.059631  0.706550  1
  S  S14  1  0.706550  0.926093  0.059631  1
  S  S15  1  0.059631  0.706550  0.926093  1
  S  S16  1  0.796081  0.437919  0.578747  1
  S  S17  1  0.578747  0.796081  0.437919  1
  S  S18  1  0.437919  0.578747  0.796081  1
  S  S19  1  0.073907  0.940369  0.293450  1
  S  S20  1  0.293450  0.073907  0.940369  1
  S  S21  1  0.940369  0.293450  0.073907  1
