# generated using pymatgen
data_Tb9ErIrPt5
_symmetry_space_group_name_H-M   'P 1'
_cell_length_a   11.08494500
_cell_length_b   11.08230200
_cell_length_c   6.43782400
_cell_angle_alpha   90.00000000
_cell_angle_beta   90.00000000
_cell_angle_gamma   90.00000000
_symmetry_Int_Tables_number   1
_chemical_formula_structural   Tb9ErIrPt5
_chemical_formula_sum   'Tb18 Er2 Ir2 Pt10'
_cell_volume   790.86548601
_cell_formula_units_Z   2
loop_
 _symmetry_equiv_pos_site_id
 _symmetry_equiv_pos_as_xyz
  1  'x, y, z'
loop_
 _atom_site_type_symbol
 _atom_site_label
 _atom_site_symmetry_multiplicity
 _atom_site_fract_x
 _atom_site_fract_y
 _atom_site_fract_z
 _atom_site_occupancy
  Tb  Tb0  1  0.292753  0.088596  0.375540  1
  Tb  Tb1  1  0.292753  0.911404  0.875540  1
  Tb  Tb2  1  0.707247  0.088596  0.875540  1
  Tb  Tb3  1  0.707247  0.911404  0.375540  1
  Tb  Tb4  1  0.588358  0.791707  0.876075  1
  Tb  Tb5  1  0.588358  0.208293  0.376075  1
  Tb  Tb6  1  0.411642  0.791707  0.376075  1
  Tb  Tb7  1  0.411642  0.208293  0.876075  1
  Tb  Tb8  1  0.205903  0.412546  0.624168  1
  Tb  Tb9  1  0.205903  0.587454  0.124168  1
  Tb  Tb10  1  0.794097  0.412546  0.124168  1
  Tb  Tb11  1  0.794097  0.587454  0.624168  1
  Tb  Tb12  1  0.912373  0.704585  0.124774  1
  Tb  Tb13  1  0.912373  0.295415  0.624774  1
  Tb  Tb14  1  0.087627  0.704585  0.624774  1
  Tb  Tb15  1  0.087627  0.295415  0.124774  1
  Tb  Tb16  1  0.000000  0.000000  0.500762  1
  Tb  Tb17  1  0.000000  0.000000  0.000762  1
  Er  Er18  1  0.500000  0.500000  0.000625  1
  Er  Er19  1  0.500000  0.500000  0.500625  1
  Ir  Ir20  1  0.000000  0.500000  0.880092  1
  Ir  Ir21  1  0.000000  0.500000  0.380092  1
  Pt  Pt22  1  0.845676  0.152908  0.250156  1
  Pt  Pt23  1  0.845676  0.847092  0.750156  1
  Pt  Pt24  1  0.154324  0.152908  0.750156  1
  Pt  Pt25  1  0.154324  0.847092  0.250156  1
  Pt  Pt26  1  0.650764  0.347826  0.750235  1
  Pt  Pt27  1  0.650764  0.652174  0.250235  1
  Pt  Pt28  1  0.349236  0.347826  0.250235  1
  Pt  Pt29  1  0.349236  0.652174  0.750235  1
  Pt  Pt30  1  0.500000  0.000000  0.116619  1
  Pt  Pt31  1  0.500000  0.000000  0.616619  1
