# generated using pymatgen
data_La2Tb3Sn3(BRh6)2
_symmetry_space_group_name_H-M   'P 1'
_cell_length_a   5.87505900
_cell_length_b   5.87505709
_cell_length_c   13.75994800
_cell_angle_alpha   90.00000000
_cell_angle_beta   90.00000000
_cell_angle_gamma   119.99999388
_symmetry_Int_Tables_number   1
_chemical_formula_structural   La2Tb3Sn3(BRh6)2
_chemical_formula_sum   'La2 Tb3 Sn3 B2 Rh12'
_cell_volume   411.31237338
_cell_formula_units_Z   1
loop_
 _symmetry_equiv_pos_site_id
 _symmetry_equiv_pos_as_xyz
  1  'x, y, z'
loop_
 _atom_site_type_symbol
 _atom_site_label
 _atom_site_symmetry_multiplicity
 _atom_site_fract_x
 _atom_site_fract_y
 _atom_site_fract_z
 _atom_site_occupancy
  La  La0  1  0.000000  0.000000  0.749816  1
  La  La1  1  0.333333  0.666667  0.103270  1
  Tb  Tb2  1  0.333333  0.666667  0.411444  1
  Tb  Tb3  1  0.666667  0.333333  0.915431  1
  Tb  Tb4  1  0.666667  0.333333  0.581730  1
  Sn  Sn5  1  0.000000  0.000000  0.250609  1
  Sn  Sn6  1  0.333333  0.666667  0.749343  1
  Sn  Sn7  1  0.666667  0.333333  0.250005  1
  B  B8  1  0.000000  0.000000  0.496959  1
  B  B9  1  0.000000  0.000000  0.000917  1
  Rh  Rh10  1  0.337872  0.168937  0.405750  1
  Rh  Rh11  1  0.831063  0.168937  0.405750  1
  Rh  Rh12  1  0.831063  0.662128  0.405750  1
  Rh  Rh13  1  0.172119  0.344237  0.915374  1
  Rh  Rh14  1  0.655760  0.827879  0.583048  1
  Rh  Rh15  1  0.655763  0.827881  0.915374  1
  Rh  Rh16  1  0.337552  0.168776  0.092653  1
  Rh  Rh17  1  0.172121  0.344240  0.583048  1
  Rh  Rh18  1  0.172121  0.827879  0.583048  1
  Rh  Rh19  1  0.831224  0.168776  0.092653  1
  Rh  Rh20  1  0.831224  0.662448  0.092653  1
  Rh  Rh21  1  0.172119  0.827881  0.915374  1
