# generated using pymatgen
data_Ac4Si7
_symmetry_space_group_name_H-M   'P 1'
_cell_length_a   8.41507311
_cell_length_b   8.41507393
_cell_length_c   9.06320600
_cell_angle_alpha   90.00000000
_cell_angle_beta   90.00000000
_cell_angle_gamma   119.91189464
_symmetry_Int_Tables_number   1
_chemical_formula_structural   Ac4Si7
_chemical_formula_sum   'Ac8 Si14'
_cell_volume   556.30530096
_cell_formula_units_Z   2
loop_
 _symmetry_equiv_pos_site_id
 _symmetry_equiv_pos_as_xyz
  1  'x, y, z'
loop_
 _atom_site_type_symbol
 _atom_site_label
 _atom_site_symmetry_multiplicity
 _atom_site_fract_x
 _atom_site_fract_y
 _atom_site_fract_z
 _atom_site_occupancy
  Ac  Ac0  1  0.252196  0.252196  0.000000  1
  Ac  Ac1  1  0.747804  0.747804  0.000000  1
  Ac  Ac2  1  0.747804  0.747804  0.500000  1
  Ac  Ac3  1  0.252196  0.252196  0.500000  1
  Ac  Ac4  1  0.250136  0.749864  0.499164  1
  Ac  Ac5  1  0.749864  0.250136  0.500836  1
  Ac  Ac6  1  0.749864  0.250136  0.999164  1
  Ac  Ac7  1  0.250136  0.749864  0.000836  1
  Si  Si8  1  0.081073  0.409647  0.250000  1
  Si  Si9  1  0.918927  0.590353  0.750000  1
  Si  Si10  1  0.583109  0.416891  0.250000  1
  Si  Si11  1  0.416891  0.583109  0.750000  1
  Si  Si12  1  0.413040  0.586960  0.250000  1
  Si  Si13  1  0.586960  0.413040  0.750000  1
  Si  Si14  1  0.080421  0.919579  0.250000  1
  Si  Si15  1  0.919579  0.080421  0.750000  1
  Si  Si16  1  0.590353  0.918927  0.250000  1
  Si  Si17  1  0.409647  0.081073  0.750000  1
  Si  Si18  1  0.923928  0.585050  0.250000  1
  Si  Si19  1  0.076072  0.414950  0.750000  1
  Si  Si20  1  0.414950  0.076072  0.250000  1
  Si  Si21  1  0.585050  0.923928  0.750000  1
