# generated using pymatgen
data_SmErLuRuO7
_symmetry_space_group_name_H-M   'P 1'
_cell_length_a   6.36399745
_cell_length_b   6.36199619
_cell_length_c   7.41939400
_cell_angle_alpha   90.00000000
_cell_angle_beta   90.00000000
_cell_angle_gamma   109.73598569
_symmetry_Int_Tables_number   1
_chemical_formula_structural   SmErLuRuO7
_chemical_formula_sum   'Sm2 Er2 Lu2 Ru2 O14'
_cell_volume   282.74882727
_cell_formula_units_Z   2
loop_
 _symmetry_equiv_pos_site_id
 _symmetry_equiv_pos_as_xyz
  1  'x, y, z'
loop_
 _atom_site_type_symbol
 _atom_site_label
 _atom_site_symmetry_multiplicity
 _atom_site_fract_x
 _atom_site_fract_y
 _atom_site_fract_z
 _atom_site_occupancy
  Sm  Sm0  1  0.000000  0.000000  0.500000  1
  Sm  Sm1  1  0.000000  0.000000  0.000000  1
  Er  Er2  1  0.484278  0.934329  0.750000  1
  Er  Er3  1  0.515722  0.065671  0.250000  1
  Lu  Lu4  1  0.937889  0.485267  0.750000  1
  Lu  Lu5  1  0.062111  0.514733  0.250000  1
  Ru  Ru6  1  0.500000  0.500000  0.500000  1
  Ru  Ru7  1  0.500000  0.500000  0.000000  1
  O  O8  1  0.594254  0.591799  0.750000  1
  O  O9  1  0.405746  0.408201  0.250000  1
  O  O10  1  0.840895  0.123046  0.750000  1
  O  O11  1  0.159105  0.876954  0.250000  1
  O  O12  1  0.116255  0.836818  0.750000  1
  O  O13  1  0.883745  0.163182  0.250000  1
  O  O14  1  0.436922  0.178326  0.963001  1
  O  O15  1  0.563078  0.821674  0.463001  1
  O  O16  1  0.178140  0.440585  0.963481  1
  O  O17  1  0.821860  0.559415  0.463481  1
  O  O18  1  0.436922  0.178326  0.536999  1
  O  O19  1  0.563078  0.821674  0.036999  1
  O  O20  1  0.821860  0.559415  0.036519  1
  O  O21  1  0.178140  0.440585  0.536519  1
