# generated using pymatgen
data_Gd7Dy3Si6C
_symmetry_space_group_name_H-M   'P 1'
_cell_length_a   8.47771000
_cell_length_b   8.47771154
_cell_length_c   6.38486500
_cell_angle_alpha   90.00000000
_cell_angle_beta   90.00000000
_cell_angle_gamma   119.99999401
_symmetry_Int_Tables_number   1
_chemical_formula_structural   Gd7Dy3Si6C
_chemical_formula_sum   'Gd7 Dy3 Si6 C1'
_cell_volume   397.41071150
_cell_formula_units_Z   1
loop_
 _symmetry_equiv_pos_site_id
 _symmetry_equiv_pos_as_xyz
  1  'x, y, z'
loop_
 _atom_site_type_symbol
 _atom_site_label
 _atom_site_symmetry_multiplicity
 _atom_site_fract_x
 _atom_site_fract_y
 _atom_site_fract_z
 _atom_site_occupancy
  Gd  Gd0  1  0.333333  0.666667  0.000000  1
  Gd  Gd1  1  0.999923  0.762092  0.270235  1
  Gd  Gd2  1  0.237908  0.237832  0.270235  1
  Gd  Gd3  1  0.762168  0.000077  0.270235  1
  Gd  Gd4  1  0.999923  0.237832  0.729765  1
  Gd  Gd5  1  0.762168  0.762092  0.729765  1
  Gd  Gd6  1  0.237908  0.000077  0.729765  1
  Dy  Dy7  1  0.333333  0.666667  0.500000  1
  Dy  Dy8  1  0.666667  0.333333  0.500000  1
  Dy  Dy9  1  0.666667  0.333333  0.000000  1
  Si  Si10  1  0.999299  0.399059  0.254137  1
  Si  Si11  1  0.600941  0.600240  0.254137  1
  Si  Si12  1  0.399760  0.000701  0.254137  1
  Si  Si13  1  0.999299  0.600240  0.745863  1
  Si  Si14  1  0.399760  0.399059  0.745863  1
  Si  Si15  1  0.600941  0.000701  0.745863  1
  C  C16  1  0.000000  0.000000  0.500000  1
