# generated using pymatgen
data_HoTm5MgCo17P12
_symmetry_space_group_name_H-M   'P 1'
_cell_length_a   3.68704700
_cell_length_b   10.50620900
_cell_length_c   12.14713600
_cell_angle_alpha   90.00000000
_cell_angle_beta   90.00000000
_cell_angle_gamma   90.00000000
_symmetry_Int_Tables_number   1
_chemical_formula_structural   HoTm5MgCo17P12
_chemical_formula_sum   'Ho1 Tm5 Mg1 Co17 P12'
_cell_volume   470.54222701
_cell_formula_units_Z   1
loop_
 _symmetry_equiv_pos_site_id
 _symmetry_equiv_pos_as_xyz
  1  'x, y, z'
loop_
 _atom_site_type_symbol
 _atom_site_label
 _atom_site_symmetry_multiplicity
 _atom_site_fract_x
 _atom_site_fract_y
 _atom_site_fract_z
 _atom_site_occupancy
  Ho  Ho0  1  0.500000  0.000000  0.477388  1
  Tm  Tm1  1  0.000000  0.500000  0.525782  1
  Tm  Tm2  1  0.500000  0.822277  0.207544  1
  Tm  Tm3  1  0.500000  0.177723  0.207544  1
  Tm  Tm4  1  0.000000  0.682020  0.794434  1
  Tm  Tm5  1  0.000000  0.317980  0.794434  1
  Mg  Mg6  1  0.500000  0.500000  0.154318  1
  Co  Co7  1  0.000000  0.000000  0.837634  1
  Co  Co8  1  0.500000  0.500000  0.704331  1
  Co  Co9  1  0.000000  0.000000  0.295753  1
  Co  Co10  1  0.000000  0.500000  0.986247  1
  Co  Co11  1  0.500000  0.000000  0.012206  1
  Co  Co12  1  0.500000  0.329060  0.992860  1
  Co  Co13  1  0.500000  0.670940  0.992860  1
  Co  Co14  1  0.000000  0.163388  0.001743  1
  Co  Co15  1  0.000000  0.836612  0.001743  1
  Co  Co16  1  0.500000  0.296015  0.433313  1
  Co  Co17  1  0.500000  0.703985  0.433313  1
  Co  Co18  1  0.000000  0.202400  0.570317  1
  Co  Co19  1  0.000000  0.797600  0.570317  1
  Co  Co20  1  0.500000  0.879220  0.708130  1
  Co  Co21  1  0.500000  0.120780  0.708130  1
  Co  Co22  1  0.000000  0.623616  0.293583  1
  Co  Co23  1  0.000000  0.376384  0.293583  1
  P  P24  1  0.500000  0.500000  0.882902  1
  P  P25  1  0.000000  0.000000  0.116828  1
  P  P26  1  0.500000  0.500000  0.355509  1
  P  P27  1  0.000000  0.000000  0.653907  1
  P  P28  1  0.500000  0.310927  0.617754  1
  P  P29  1  0.500000  0.689073  0.617754  1
  P  P30  1  0.000000  0.188364  0.385215  1
  P  P31  1  0.000000  0.811636  0.385215  1
  P  P32  1  0.500000  0.848987  0.889163  1
  P  P33  1  0.500000  0.151013  0.889163  1
  P  P34  1  0.000000  0.663709  0.104541  1
  P  P35  1  0.000000  0.336291  0.104541  1
