# generated using pymatgen
data_Er2Ni2Ag
_symmetry_space_group_name_H-M   'P 1'
_cell_length_a   3.63350800
_cell_length_b   3.84405776
_cell_length_c   7.16528656
_cell_angle_alpha   74.44034354
_cell_angle_beta   90.00000000
_cell_angle_gamma   90.00000000
_symmetry_Int_Tables_number   1
_chemical_formula_structural   Er2Ni2Ag
_chemical_formula_sum   'Er2 Ni2 Ag1'
_cell_volume   96.41274512
_cell_formula_units_Z   1
loop_
 _symmetry_equiv_pos_site_id
 _symmetry_equiv_pos_as_xyz
  1  'x, y, z'
loop_
 _atom_site_type_symbol
 _atom_site_label
 _atom_site_symmetry_multiplicity
 _atom_site_fract_x
 _atom_site_fract_y
 _atom_site_fract_z
 _atom_site_occupancy
  Er  Er0  1  0.499999  0.363648  0.272702  1
  Er  Er1  1  0.499999  0.636352  0.727299  1
  Ni  Ni2  1  0.000000  0.803058  0.393885  1
  Ni  Ni3  1  0.000000  0.196942  0.606116  1
  Ag  Ag4  1  0.000000  0.000000  0.000000  1
