# generated using pymatgen
data_Sr2Co18Si3P7
_symmetry_space_group_name_H-M   'P 1'
_cell_length_a   6.70593800
_cell_length_b   6.70593742
_cell_length_c   9.92620400
_cell_angle_alpha   90.00000000
_cell_angle_beta   90.00000000
_cell_angle_gamma   120.00000284
_symmetry_Int_Tables_number   1
_chemical_formula_structural   Sr2Co18Si3P7
_chemical_formula_sum   'Sr2 Co18 Si3 P7'
_cell_volume   386.57418246
_cell_formula_units_Z   1
loop_
 _symmetry_equiv_pos_site_id
 _symmetry_equiv_pos_as_xyz
  1  'x, y, z'
loop_
 _atom_site_type_symbol
 _atom_site_label
 _atom_site_symmetry_multiplicity
 _atom_site_fract_x
 _atom_site_fract_y
 _atom_site_fract_z
 _atom_site_occupancy
  Sr  Sr0  1  0.000000  0.000000  0.000631  1
  Sr  Sr1  1  0.000000  0.000000  0.500528  1
  Co  Co2  1  0.538979  0.077958  0.117417  1
  Co  Co3  1  0.459217  0.540783  0.614597  1
  Co  Co4  1  0.081567  0.540783  0.614597  1
  Co  Co5  1  0.922042  0.461021  0.117417  1
  Co  Co6  1  0.538979  0.461021  0.117417  1
  Co  Co7  1  0.460674  0.921347  0.882204  1
  Co  Co8  1  0.460674  0.539326  0.882204  1
  Co  Co9  1  0.459217  0.918433  0.614597  1
  Co  Co10  1  0.078653  0.539326  0.882204  1
  Co  Co11  1  0.923710  0.461855  0.383900  1
  Co  Co12  1  0.538145  0.076290  0.383900  1
  Co  Co13  1  0.538145  0.461855  0.383900  1
  Co  Co14  1  0.202624  0.405246  0.253217  1
  Co  Co15  1  0.797982  0.202018  0.748478  1
  Co  Co16  1  0.404034  0.202018  0.748478  1
  Co  Co17  1  0.594754  0.797376  0.253217  1
  Co  Co18  1  0.202624  0.797376  0.253217  1
  Co  Co19  1  0.797982  0.595966  0.748478  1
  Si  Si20  1  0.333333  0.666667  0.066954  1
  Si  Si21  1  0.666667  0.333333  0.566040  1
  Si  Si22  1  0.666667  0.333333  0.932872  1
  P  P23  1  0.834409  0.668819  0.250333  1
  P  P24  1  0.165389  0.834611  0.749747  1
  P  P25  1  0.669221  0.834611  0.749747  1
  P  P26  1  0.331181  0.165591  0.250333  1
  P  P27  1  0.834409  0.165591  0.250333  1
  P  P28  1  0.165389  0.330779  0.749747  1
  P  P29  1  0.333333  0.666667  0.433297  1
