# generated using pymatgen
data_Ho3In4NiRu
_symmetry_space_group_name_H-M   'P 1'
_cell_length_a   7.92197700
_cell_length_b   7.92197696
_cell_length_c   3.67312100
_cell_angle_alpha   90.00000000
_cell_angle_beta   90.00000000
_cell_angle_gamma   120.00000433
_symmetry_Int_Tables_number   1
_chemical_formula_structural   Ho3In4NiRu
_chemical_formula_sum   'Ho3 In4 Ni1 Ru1'
_cell_volume   199.63330662
_cell_formula_units_Z   1
loop_
 _symmetry_equiv_pos_site_id
 _symmetry_equiv_pos_as_xyz
  1  'x, y, z'
loop_
 _atom_site_type_symbol
 _atom_site_label
 _atom_site_symmetry_multiplicity
 _atom_site_fract_x
 _atom_site_fract_y
 _atom_site_fract_z
 _atom_site_occupancy
  Ho  Ho0  1  0.047749  0.295254  0.500000  1
  Ho  Ho1  1  0.704746  0.752494  0.500000  1
  Ho  Ho2  1  0.247506  0.952251  0.500000  1
  In  In3  1  0.666839  0.082391  0.000000  1
  In  In4  1  0.917609  0.584449  0.000000  1
  In  In5  1  0.415551  0.333161  0.000000  1
  In  In6  1  0.333333  0.666667  0.000000  1
  Ni  Ni7  1  0.666667  0.333333  0.500000  1
  Ru  Ru8  1  0.000000  0.000000  0.000000  1
