# generated using pymatgen
data_Er3Sc3Sn6PdRh5
_symmetry_space_group_name_H-M   'P 1'
_cell_length_a   7.60148300
_cell_length_b   7.60148205
_cell_length_c   7.24654300
_cell_angle_alpha   90.00000000
_cell_angle_beta   90.00000000
_cell_angle_gamma   120.00000848
_symmetry_Int_Tables_number   1
_chemical_formula_structural   Er3Sc3Sn6PdRh5
_chemical_formula_sum   'Er3 Sc3 Sn6 Pd1 Rh5'
_cell_volume   362.62527497
_cell_formula_units_Z   1
loop_
 _symmetry_equiv_pos_site_id
 _symmetry_equiv_pos_as_xyz
  1  'x, y, z'
loop_
 _atom_site_type_symbol
 _atom_site_label
 _atom_site_symmetry_multiplicity
 _atom_site_fract_x
 _atom_site_fract_y
 _atom_site_fract_z
 _atom_site_occupancy
  Er  Er0  1  0.399055  0.994202  0.249589  1
  Er  Er1  1  0.595147  0.600945  0.249589  1
  Er  Er2  1  0.005798  0.404853  0.249589  1
  Sc  Sc3  1  0.391306  0.992245  0.751869  1
  Sc  Sc4  1  0.600939  0.608694  0.751869  1
  Sc  Sc5  1  0.007755  0.399061  0.751869  1
  Sn  Sn6  1  0.279653  0.276258  0.990913  1
  Sn  Sn7  1  0.996607  0.720347  0.990913  1
  Sn  Sn8  1  0.000341  0.737516  0.507793  1
  Sn  Sn9  1  0.737173  0.999659  0.507793  1
  Sn  Sn10  1  0.262484  0.262827  0.507793  1
  Sn  Sn11  1  0.723742  0.003393  0.990913  1
  Pd  Pd12  1  0.666667  0.333333  0.521484  1
  Rh  Rh13  1  0.000000  0.000000  0.767327  1
  Rh  Rh14  1  0.000000  0.000000  0.231273  1
  Rh  Rh15  1  0.666667  0.333333  0.979810  1
  Rh  Rh16  1  0.333333  0.666667  0.520257  1
  Rh  Rh17  1  0.333333  0.666667  0.979356  1
