# generated using pymatgen
data_NaNd2As4(PPd10)2
_symmetry_space_group_name_H-M   'P 1'
_cell_length_a   8.82756938
_cell_length_b   8.82871389
_cell_length_c   8.90302806
_cell_angle_alpha   59.71320719
_cell_angle_beta   59.72623306
_cell_angle_gamma   60.56992239
_symmetry_Int_Tables_number   1
_chemical_formula_structural   NaNd2As4(PPd10)2
_chemical_formula_sum   'Na1 Nd2 As4 P2 Pd20'
_cell_volume   490.60043228
_cell_formula_units_Z   1
loop_
 _symmetry_equiv_pos_site_id
 _symmetry_equiv_pos_as_xyz
  1  'x, y, z'
loop_
 _atom_site_type_symbol
 _atom_site_label
 _atom_site_symmetry_multiplicity
 _atom_site_fract_x
 _atom_site_fract_y
 _atom_site_fract_z
 _atom_site_occupancy
  Na  Na0  1  0.000000  0.000000  0.000000  1
  Nd  Nd1  1  0.249996  0.249995  0.250005  1
  Nd  Nd2  1  0.750004  0.750005  0.749995  1
  As  As3  1  0.740028  0.259976  0.260025  1
  As  As4  1  0.259972  0.740024  0.739975  1
  As  As5  1  0.260006  0.739993  0.260052  1
  As  As6  1  0.739994  0.260007  0.739948  1
  P  P7  1  0.262679  0.262677  0.737323  1
  P  P8  1  0.737321  0.737323  0.262677  1
  Pd  Pd9  1  0.382944  0.382955  0.390999  1
  Pd  Pd10  1  0.617056  0.617045  0.609001  1
  Pd  Pd11  1  0.382958  0.382943  0.843105  1
  Pd  Pd12  1  0.391004  0.843087  0.382947  1
  Pd  Pd13  1  0.617042  0.617057  0.156895  1
  Pd  Pd14  1  0.608996  0.156913  0.617053  1
  Pd  Pd15  1  0.843087  0.391005  0.382963  1
  Pd  Pd16  1  0.156913  0.608995  0.617037  1
  Pd  Pd17  1  0.348579  0.010274  0.989721  1
  Pd  Pd18  1  0.651421  0.989726  0.010279  1
  Pd  Pd19  1  0.010274  0.348577  0.651432  1
  Pd  Pd20  1  0.989726  0.651423  0.348568  1
  Pd  Pd21  1  0.010297  0.348578  0.989701  1
  Pd  Pd22  1  0.651425  0.989704  0.348567  1
  Pd  Pd23  1  0.989703  0.651422  0.010299  1
  Pd  Pd24  1  0.348575  0.010296  0.651433  1
  Pd  Pd25  1  0.000004  0.999994  0.350969  1
  Pd  Pd26  1  0.999996  0.000006  0.649031  1
  Pd  Pd27  1  0.649053  0.350948  0.999995  1
  Pd  Pd28  1  0.350947  0.649052  0.000005  1
