# generated using pymatgen
data_SmTh3(CdNi2)2
_symmetry_space_group_name_H-M   'P 1'
_cell_length_a   7.63377843
_cell_length_b   7.63377896
_cell_length_c   3.69674400
_cell_angle_alpha   90.00000000
_cell_angle_beta   90.00000000
_cell_angle_gamma   88.72464355
_symmetry_Int_Tables_number   1
_chemical_formula_structural   SmTh3(CdNi2)2
_chemical_formula_sum   'Sm1 Th3 Cd2 Ni4'
_cell_volume   215.37282699
_cell_formula_units_Z   1
loop_
 _symmetry_equiv_pos_site_id
 _symmetry_equiv_pos_as_xyz
  1  'x, y, z'
loop_
 _atom_site_type_symbol
 _atom_site_label
 _atom_site_symmetry_multiplicity
 _atom_site_fract_x
 _atom_site_fract_y
 _atom_site_fract_z
 _atom_site_occupancy
  Sm  Sm0  1  0.672355  0.172355  0.500000  1
  Th  Th1  1  0.329107  0.829107  0.500000  1
  Th  Th2  1  0.826286  0.672177  0.500000  1
  Th  Th3  1  0.172177  0.326286  0.500000  1
  Cd  Cd4  1  0.994750  0.002179  0.000000  1
  Cd  Cd5  1  0.502179  0.494750  0.000000  1
  Ni  Ni6  1  0.368486  0.118826  0.000000  1
  Ni  Ni7  1  0.888322  0.388322  0.000000  1
  Ni  Ni8  1  0.127510  0.627510  0.000000  1
  Ni  Ni9  1  0.618826  0.868486  0.000000  1
