# generated using pymatgen
data_Y4TmZr3(Ni4P3)4
_symmetry_space_group_name_H-M   'P 1'
_cell_length_a   12.37122104
_cell_length_b   12.37122074
_cell_length_c   3.80891900
_cell_angle_alpha   90.00000000
_cell_angle_beta   90.00000000
_cell_angle_gamma   120.00934058
_symmetry_Int_Tables_number   1
_chemical_formula_structural   Y4TmZr3(Ni4P3)4
_chemical_formula_sum   'Y4 Tm1 Zr3 Ni16 P12'
_cell_volume   504.79681642
_cell_formula_units_Z   1
loop_
 _symmetry_equiv_pos_site_id
 _symmetry_equiv_pos_as_xyz
  1  'x, y, z'
loop_
 _atom_site_type_symbol
 _atom_site_label
 _atom_site_symmetry_multiplicity
 _atom_site_fract_x
 _atom_site_fract_y
 _atom_site_fract_z
 _atom_site_occupancy
  Y  Y0  1  0.815801  0.000242  0.500000  1
  Y  Y1  1  0.000242  0.815801  0.500000  1
  Y  Y2  1  0.333204  0.666549  0.000000  1
  Y  Y3  1  0.666549  0.333204  0.000000  1
  Tm  Tm4  1  0.184700  0.184700  0.500000  1
  Zr  Zr5  1  0.561100  0.561100  0.000000  1
  Zr  Zr6  1  0.438209  0.000173  0.000000  1
  Zr  Zr7  1  0.000173  0.438209  0.000000  1
  Ni  Ni8  1  0.726555  0.726555  0.500000  1
  Ni  Ni9  1  0.273276  0.001089  0.500000  1
  Ni  Ni10  1  0.001089  0.273276  0.500000  1
  Ni  Ni11  1  0.185404  0.375477  0.000000  1
  Ni  Ni12  1  0.623219  0.808925  0.000000  1
  Ni  Ni13  1  0.191116  0.814457  0.000000  1
  Ni  Ni14  1  0.808925  0.623219  0.000000  1
  Ni  Ni15  1  0.814457  0.191116  0.000000  1
  Ni  Ni16  1  0.375477  0.185404  0.000000  1
  Ni  Ni17  1  0.360086  0.484223  0.500000  1
  Ni  Ni18  1  0.515179  0.875676  0.500000  1
  Ni  Ni19  1  0.124184  0.639476  0.500000  1
  Ni  Ni20  1  0.875676  0.515179  0.500000  1
  Ni  Ni21  1  0.639476  0.124184  0.500000  1
  Ni  Ni22  1  0.484223  0.360086  0.500000  1
  Ni  Ni23  1  0.000923  0.000923  0.000000  1
  P  P24  1  0.822328  0.822328  0.000000  1
  P  P25  1  0.178221  0.001252  0.000000  1
  P  P26  1  0.001252  0.178221  0.000000  1
  P  P27  1  0.170878  0.475774  0.500000  1
  P  P28  1  0.524380  0.695091  0.500000  1
  P  P29  1  0.304716  0.829436  0.500000  1
  P  P30  1  0.695091  0.524380  0.500000  1
  P  P31  1  0.829436  0.304716  0.500000  1
  P  P32  1  0.475774  0.170878  0.500000  1
  P  P33  1  0.355268  0.355268  0.000000  1
  P  P34  1  0.643362  0.000052  0.000000  1
  P  P35  1  0.000052  0.643362  0.000000  1
