# generated using pymatgen
data_LaPr9(Bi3C)2
_symmetry_space_group_name_H-M   'P 1'
_cell_length_a   9.53935961
_cell_length_b   9.53936095
_cell_length_c   6.79379600
_cell_angle_alpha   90.00000000
_cell_angle_beta   90.00000000
_cell_angle_gamma   120.04097336
_symmetry_Int_Tables_number   1
_chemical_formula_structural   LaPr9(Bi3C)2
_chemical_formula_sum   'La1 Pr9 Bi6 C2'
_cell_volume   535.18283940
_cell_formula_units_Z   1
loop_
 _symmetry_equiv_pos_site_id
 _symmetry_equiv_pos_as_xyz
  1  'x, y, z'
loop_
 _atom_site_type_symbol
 _atom_site_label
 _atom_site_symmetry_multiplicity
 _atom_site_fract_x
 _atom_site_fract_y
 _atom_site_fract_z
 _atom_site_occupancy
  La  La0  1  0.787634  0.787634  0.750000  1
  Pr  Pr1  1  0.666546  0.333099  0.000003  1
  Pr  Pr2  1  0.333099  0.666546  0.000003  1
  Pr  Pr3  1  0.333099  0.666546  0.499997  1
  Pr  Pr4  1  0.666546  0.333099  0.499997  1
  Pr  Pr5  1  0.212336  0.000192  0.750000  1
  Pr  Pr6  1  0.000192  0.212336  0.750000  1
  Pr  Pr7  1  0.212595  0.212595  0.250000  1
  Pr  Pr8  1  0.788203  0.000324  0.250000  1
  Pr  Pr9  1  0.000324  0.788203  0.250000  1
  Bi  Bi10  1  0.401589  0.401589  0.750000  1
  Bi  Bi11  1  0.597720  0.000490  0.750000  1
  Bi  Bi12  1  0.000490  0.597720  0.750000  1
  Bi  Bi13  1  0.597985  0.597985  0.250000  1
  Bi  Bi14  1  0.401983  0.000047  0.250000  1
  Bi  Bi15  1  0.000047  0.401983  0.250000  1
  C  C16  1  0.999806  0.999806  0.999960  1
  C  C17  1  0.999806  0.999806  0.500040  1
