# generated using pymatgen
data_NdDyNi7B2Pt
_symmetry_space_group_name_H-M   'P 1'
_cell_length_a   5.07493602
_cell_length_b   5.07376068
_cell_length_c   7.09837500
_cell_angle_alpha   90.00000000
_cell_angle_beta   90.00000000
_cell_angle_gamma   119.99523903
_symmetry_Int_Tables_number   1
_chemical_formula_structural   NdDyNi7B2Pt
_chemical_formula_sum   'Nd1 Dy1 Ni7 B2 Pt1'
_cell_volume   158.29636936
_cell_formula_units_Z   1
loop_
 _symmetry_equiv_pos_site_id
 _symmetry_equiv_pos_as_xyz
  1  'x, y, z'
loop_
 _atom_site_type_symbol
 _atom_site_label
 _atom_site_symmetry_multiplicity
 _atom_site_fract_x
 _atom_site_fract_y
 _atom_site_fract_z
 _atom_site_occupancy
  Nd  Nd0  1  0.500101  0.000202  0.000000  1
  Dy  Dy1  1  0.499993  0.999980  0.500000  1
  Ni  Ni2  1  0.166652  0.333297  0.000000  1
  Ni  Ni3  1  0.000867  0.001730  0.697876  1
  Ni  Ni4  1  0.498205  0.499083  0.697858  1
  Ni  Ni5  1  0.000874  0.499089  0.697949  1
  Ni  Ni6  1  0.000867  0.001730  0.302124  1
  Ni  Ni7  1  0.498205  0.499083  0.302142  1
  Ni  Ni8  1  0.000874  0.499089  0.302051  1
  B  B9  1  0.833265  0.666539  0.500000  1
  B  B10  1  0.166708  0.333404  0.500000  1
  Pt  Pt11  1  0.833389  0.666776  0.000000  1
