# generated using pymatgen
data_K2VCrH10
_symmetry_space_group_name_H-M   'P 1'
_cell_length_a   4.54395700
_cell_length_b   5.39349184
_cell_length_c   12.10812600
_cell_angle_alpha   89.90875787
_cell_angle_beta   90.00000000
_cell_angle_gamma   90.00000000
_symmetry_Int_Tables_number   1
_chemical_formula_structural   K2VCrH10
_chemical_formula_sum   'K4 V2 Cr2 H20'
_cell_volume   296.74309352
_cell_formula_units_Z   2
loop_
 _symmetry_equiv_pos_site_id
 _symmetry_equiv_pos_as_xyz
  1  'x, y, z'
loop_
 _atom_site_type_symbol
 _atom_site_label
 _atom_site_symmetry_multiplicity
 _atom_site_fract_x
 _atom_site_fract_y
 _atom_site_fract_z
 _atom_site_occupancy
  K  K0  1  0.287408  0.249149  0.660559  1
  K  K1  1  0.787408  0.250851  0.339441  1
  K  K2  1  0.217765  0.749470  0.155064  1
  K  K3  1  0.717765  0.750530  0.844936  1
  V  V4  1  0.260976  0.749659  0.453993  1
  V  V5  1  0.760976  0.750341  0.546007  1
  Cr  Cr6  1  0.245148  0.249306  0.964249  1
  Cr  Cr7  1  0.745148  0.250694  0.035751  1
  H  H8  1  0.531106  0.525051  0.483037  1
  H  H9  1  0.031106  0.974949  0.516963  1
  H  H10  1  0.992745  0.475221  0.983229  1
  H  H11  1  0.492745  0.024779  0.016771  1
  H  H12  1  0.220528  0.070944  0.858357  1
  H  H13  1  0.720528  0.429056  0.141643  1
  H  H14  1  0.259093  0.951745  0.346621  1
  H  H15  1  0.759093  0.548255  0.653379  1
  H  H16  1  0.220312  0.424370  0.857129  1
  H  H17  1  0.720312  0.075630  0.142871  1
  H  H18  1  0.259960  0.546596  0.347220  1
  H  H19  1  0.759960  0.953404  0.652780  1
  H  H20  1  0.593848  0.248591  0.903188  1
  H  H21  1  0.093848  0.251409  0.096812  1
  H  H22  1  0.887773  0.749386  0.405409  1
  H  H23  1  0.387773  0.750614  0.594591  1
  H  H24  1  0.992248  0.024169  0.984998  1
  H  H25  1  0.492248  0.475831  0.015002  1
  H  H26  1  0.531089  0.974583  0.481997  1
  H  H27  1  0.031089  0.525417  0.518003  1
