# generated using pymatgen
data_Tb3IrAu3
_symmetry_space_group_name_H-M   'P 1'
_cell_length_a   8.07241109
_cell_length_b   8.07241093
_cell_length_c   8.07241131
_cell_angle_alpha   114.19592499
_cell_angle_beta   114.19592389
_cell_angle_gamma   114.19590130
_symmetry_Int_Tables_number   1
_chemical_formula_structural   Tb3IrAu3
_chemical_formula_sum   'Tb6 Ir2 Au6'
_cell_volume   314.89351645
_cell_formula_units_Z   2
loop_
 _symmetry_equiv_pos_site_id
 _symmetry_equiv_pos_as_xyz
  1  'x, y, z'
loop_
 _atom_site_type_symbol
 _atom_site_label
 _atom_site_symmetry_multiplicity
 _atom_site_fract_x
 _atom_site_fract_y
 _atom_site_fract_z
 _atom_site_occupancy
  Tb  Tb0  1  0.041866  0.392492  0.280799  1
  Tb  Tb1  1  0.392492  0.280799  0.041866  1
  Tb  Tb2  1  0.719201  0.958134  0.607508  1
  Tb  Tb3  1  0.280799  0.041866  0.392492  1
  Tb  Tb4  1  0.607508  0.719201  0.958134  1
  Tb  Tb5  1  0.958134  0.607508  0.719201  1
  Ir  Ir6  1  0.000000  0.000000  0.000000  1
  Ir  Ir7  1  0.500000  0.500000  0.500000  1
  Au  Au8  1  0.435573  0.938231  0.772629  1
  Au  Au9  1  0.938231  0.772629  0.435573  1
  Au  Au10  1  0.227371  0.564427  0.061769  1
  Au  Au11  1  0.772629  0.435573  0.938231  1
  Au  Au12  1  0.061769  0.227371  0.564427  1
  Au  Au13  1  0.564427  0.061769  0.227371  1
