# generated using pymatgen
data_Nd2Si3(PPd7)3
_symmetry_space_group_name_H-M   'P 1'
_cell_length_a   8.69087292
_cell_length_b   8.69087217
_cell_length_c   8.67944276
_cell_angle_alpha   59.95643391
_cell_angle_beta   59.95643298
_cell_angle_gamma   59.99999288
_symmetry_Int_Tables_number   1
_chemical_formula_structural   Nd2Si3(PPd7)3
_chemical_formula_sum   'Nd2 Si3 P3 Pd21'
_cell_volume   463.25197945
_cell_formula_units_Z   1
loop_
 _symmetry_equiv_pos_site_id
 _symmetry_equiv_pos_as_xyz
  1  'x, y, z'
loop_
 _atom_site_type_symbol
 _atom_site_label
 _atom_site_symmetry_multiplicity
 _atom_site_fract_x
 _atom_site_fract_y
 _atom_site_fract_z
 _atom_site_occupancy
  Nd  Nd0  1  0.749449  0.749449  0.751654  1
  Nd  Nd1  1  0.249459  0.249459  0.251624  1
  Si  Si2  1  0.261316  0.261316  0.740165  1
  Si  Si3  1  0.737203  0.261316  0.740165  1
  Si  Si4  1  0.261316  0.737203  0.740165  1
  P  P5  1  0.737647  0.737647  0.264211  1
  P  P6  1  0.260495  0.737647  0.264211  1
  P  P7  1  0.737647  0.260495  0.264211  1
  Pd  Pd8  1  0.001930  0.001930  0.994210  1
  Pd  Pd9  1  0.613202  0.613202  0.160396  1
  Pd  Pd10  1  0.614897  0.157098  0.613109  1
  Pd  Pd11  1  0.157098  0.614897  0.613109  1
  Pd  Pd12  1  0.614897  0.614897  0.613109  1
  Pd  Pd13  1  0.385310  0.385310  0.844069  1
  Pd  Pd14  1  0.386672  0.841432  0.385224  1
  Pd  Pd15  1  0.841432  0.386672  0.385224  1
  Pd  Pd16  1  0.386672  0.386672  0.385224  1
  Pd  Pd17  1  0.001142  0.001142  0.341362  1
  Pd  Pd18  1  0.656354  0.001142  0.341362  1
  Pd  Pd19  1  0.001142  0.656354  0.341362  1
  Pd  Pd20  1  0.656344  0.345900  0.001391  1
  Pd  Pd21  1  0.996365  0.345900  0.001391  1
  Pd  Pd22  1  0.000961  0.345582  0.652496  1
  Pd  Pd23  1  0.345900  0.656344  0.001391  1
  Pd  Pd24  1  0.345582  0.000961  0.652496  1
  Pd  Pd25  1  0.345900  0.996365  0.001391  1
  Pd  Pd26  1  0.000961  0.000961  0.652496  1
  Pd  Pd27  1  0.996365  0.656344  0.001391  1
  Pd  Pd28  1  0.656344  0.996365  0.001391  1
