# generated using pymatgen
data_LaSn6Ru3Pt
_symmetry_space_group_name_H-M   'P 1'
_cell_length_a   7.02270331
_cell_length_b   7.01836971
_cell_length_c   6.97945924
_cell_angle_alpha   119.67573417
_cell_angle_beta   119.69651281
_cell_angle_gamma   90.87659605
_symmetry_Int_Tables_number   1
_chemical_formula_structural   LaSn6Ru3Pt
_chemical_formula_sum   'La1 Sn6 Ru3 Pt1'
_cell_volume   243.66480700
_cell_formula_units_Z   1
loop_
 _symmetry_equiv_pos_site_id
 _symmetry_equiv_pos_as_xyz
  1  'x, y, z'
loop_
 _atom_site_type_symbol
 _atom_site_label
 _atom_site_symmetry_multiplicity
 _atom_site_fract_x
 _atom_site_fract_y
 _atom_site_fract_z
 _atom_site_occupancy
  La  La0  1  0.996426  0.002520  0.000000  1
  Sn  Sn1  1  0.470043  0.131703  0.000000  1
  Sn  Sn2  1  0.122630  0.466391  0.000000  1
  Sn  Sn3  1  0.887442  0.873967  0.354978  1
  Sn  Sn4  1  0.532464  0.518989  0.645022  1
  Sn  Sn5  1  0.989510  0.487864  0.490873  1
  Sn  Sn6  1  0.498637  0.996991  0.509127  1
  Ru  Ru7  1  0.758152  0.403341  0.000000  1
  Ru  Ru8  1  0.249016  0.253839  0.653700  1
  Ru  Ru9  1  0.595317  0.600139  0.346300  1
  Pt  Pt10  1  0.400364  0.764257  0.000000  1
