# generated using pymatgen
data_La4Dy3ThTe12
_symmetry_space_group_name_H-M   'P 1'
_cell_length_a   4.48522500
_cell_length_b   11.94636770
_cell_length_c   12.26876000
_cell_angle_alpha   90.32711387
_cell_angle_beta   90.00000000
_cell_angle_gamma   90.00000000
_symmetry_Int_Tables_number   1
_chemical_formula_structural   La4Dy3ThTe12
_chemical_formula_sum   'La4 Dy3 Th1 Te12'
_cell_volume   657.37578867
_cell_formula_units_Z   1
loop_
 _symmetry_equiv_pos_site_id
 _symmetry_equiv_pos_as_xyz
  1  'x, y, z'
loop_
 _atom_site_type_symbol
 _atom_site_label
 _atom_site_symmetry_multiplicity
 _atom_site_fract_x
 _atom_site_fract_y
 _atom_site_fract_z
 _atom_site_occupancy
  La  La0  1  0.750000  0.506473  0.698718  1
  La  La1  1  0.750000  0.994715  0.196875  1
  La  La2  1  0.250000  0.500383  0.300129  1
  La  La3  1  0.250000  0.000067  0.805976  1
  Dy  Dy4  1  0.250000  0.311988  0.986050  1
  Dy  Dy5  1  0.750000  0.809862  0.513867  1
  Dy  Dy6  1  0.750000  0.688462  0.014091  1
  Th  Th7  1  0.250000  0.188917  0.486671  1
  Te  Te8  1  0.250000  0.630756  0.541482  1
  Te  Te9  1  0.250000  0.868369  0.041890  1
  Te  Te10  1  0.750000  0.374159  0.455441  1
  Te  Te11  1  0.750000  0.131507  0.958572  1
  Te  Te12  1  0.250000  0.297375  0.728236  1
  Te  Te13  1  0.250000  0.202831  0.228251  1
  Te  Te14  1  0.750000  0.703910  0.270966  1
  Te  Te15  1  0.750000  0.796301  0.770816  1
  Te  Te16  1  0.750000  0.052810  0.615859  1
  Te  Te17  1  0.750000  0.445018  0.111514  1
  Te  Te18  1  0.250000  0.941691  0.386555  1
  Te  Te19  1  0.250000  0.554406  0.888042  1
