# generated using pymatgen
data_Zr10Cu2Sn5Bi
_symmetry_space_group_name_H-M   'P 1'
_cell_length_a   8.72303045
_cell_length_b   8.72303045
_cell_length_c   5.88145200
_cell_angle_alpha   90.00000000
_cell_angle_beta   90.00000000
_cell_angle_gamma   119.96304754
_symmetry_Int_Tables_number   1
_chemical_formula_structural   Zr10Cu2Sn5Bi
_chemical_formula_sum   'Zr10 Cu2 Sn5 Bi1'
_cell_volume   387.71406696
_cell_formula_units_Z   1
loop_
 _symmetry_equiv_pos_site_id
 _symmetry_equiv_pos_as_xyz
  1  'x, y, z'
loop_
 _atom_site_type_symbol
 _atom_site_label
 _atom_site_symmetry_multiplicity
 _atom_site_fract_x
 _atom_site_fract_y
 _atom_site_fract_z
 _atom_site_occupancy
  Zr  Zr0  1  0.669030  0.333068  0.501546  1
  Zr  Zr1  1  0.333068  0.669030  0.501546  1
  Zr  Zr2  1  0.333068  0.669030  0.998454  1
  Zr  Zr3  1  0.669030  0.333068  0.998454  1
  Zr  Zr4  1  0.738499  0.738499  0.250000  1
  Zr  Zr5  1  0.262581  0.995080  0.250000  1
  Zr  Zr6  1  0.995080  0.262581  0.250000  1
  Zr  Zr7  1  0.263700  0.263700  0.750000  1
  Zr  Zr8  1  0.735246  0.000343  0.750000  1
  Zr  Zr9  1  0.000343  0.735246  0.750000  1
  Cu  Cu10  1  0.999824  0.999824  0.501659  1
  Cu  Cu11  1  0.999824  0.999824  0.998341  1
  Sn  Sn12  1  0.613934  0.999543  0.250000  1
  Sn  Sn13  1  0.999543  0.613934  0.250000  1
  Sn  Sn14  1  0.616156  0.616156  0.750000  1
  Sn  Sn15  1  0.385363  0.000691  0.750000  1
  Sn  Sn16  1  0.000691  0.385363  0.750000  1
  Bi  Bi17  1  0.385022  0.385022  0.250000  1
