# generated using pymatgen
data_HoTm5(Sc2Sn3)2
_symmetry_space_group_name_H-M   'P 1'
_cell_length_a   6.23688400
_cell_length_b   8.71873206
_cell_length_c   8.72452957
_cell_angle_alpha   119.97801812
_cell_angle_beta   89.99994619
_cell_angle_gamma   90.00011270
_symmetry_Int_Tables_number   1
_chemical_formula_structural   HoTm5(Sc2Sn3)2
_chemical_formula_sum   'Ho1 Tm5 Sc4 Sn6'
_cell_volume   410.95077535
_cell_formula_units_Z   1
loop_
 _symmetry_equiv_pos_site_id
 _symmetry_equiv_pos_as_xyz
  1  'x, y, z'
loop_
 _atom_site_type_symbol
 _atom_site_label
 _atom_site_symmetry_multiplicity
 _atom_site_fract_x
 _atom_site_fract_y
 _atom_site_fract_z
 _atom_site_occupancy
  Ho  Ho0  1  0.750003  0.238391  0.000000  1
  Tm  Tm1  1  0.750004  0.761262  0.761349  1
  Tm  Tm2  1  0.750004  0.999912  0.238651  1
  Tm  Tm3  1  0.250002  0.761681  0.000000  1
  Tm  Tm4  1  0.249998  0.238609  0.238772  1
  Tm  Tm5  1  0.249998  0.999837  0.761228  1
  Sc  Sc6  1  0.499953  0.333390  0.666702  1
  Sc  Sc7  1  0.499953  0.666687  0.333298  1
  Sc  Sc8  1  0.000043  0.666687  0.333296  1
  Sc  Sc9  1  0.000043  0.333391  0.666704  1
  Sn  Sn10  1  0.749996  0.601416  0.000000  1
  Sn  Sn11  1  0.750002  0.399039  0.399388  1
  Sn  Sn12  1  0.750002  0.999650  0.600612  1
  Sn  Sn13  1  0.249999  0.398918  0.000000  1
  Sn  Sn14  1  0.249997  0.601134  0.601140  1
  Sn  Sn15  1  0.249997  0.999994  0.398860  1
