# generated using pymatgen
data_LaAlSnAu2
_symmetry_space_group_name_H-M   'P 1'
_cell_length_a   4.58377900
_cell_length_b   4.58377900
_cell_length_c   10.92373000
_cell_angle_alpha   90.00000000
_cell_angle_beta   90.00000000
_cell_angle_gamma   90.00000000
_symmetry_Int_Tables_number   1
_chemical_formula_structural   LaAlSnAu2
_chemical_formula_sum   'La2 Al2 Sn2 Au4'
_cell_volume   229.51881788
_cell_formula_units_Z   2
loop_
 _symmetry_equiv_pos_site_id
 _symmetry_equiv_pos_as_xyz
  1  'x, y, z'
loop_
 _atom_site_type_symbol
 _atom_site_label
 _atom_site_symmetry_multiplicity
 _atom_site_fract_x
 _atom_site_fract_y
 _atom_site_fract_z
 _atom_site_occupancy
  La  La0  1  0.000000  0.500000  0.252443  1
  La  La1  1  0.500000  0.000000  0.747557  1
  Al  Al2  1  0.000000  0.000000  0.500000  1
  Al  Al3  1  0.500000  0.500000  0.500000  1
  Sn  Sn4  1  0.000000  0.500000  0.856591  1
  Sn  Sn5  1  0.500000  0.000000  0.143409  1
  Au  Au6  1  0.000000  0.000000  0.000000  1
  Au  Au7  1  0.500000  0.500000  0.000000  1
  Au  Au8  1  0.000000  0.500000  0.610998  1
  Au  Au9  1  0.500000  0.000000  0.389002  1
