# generated using pymatgen
data_CeNdHf2F14
_symmetry_space_group_name_H-M   'P 1'
_cell_length_a   5.90565557
_cell_length_b   6.26346456
_cell_length_c   8.51071249
_cell_angle_alpha   102.30361975
_cell_angle_beta   89.96677635
_cell_angle_gamma   90.02614758
_symmetry_Int_Tables_number   1
_chemical_formula_structural   CeNdHf2F14
_chemical_formula_sum   'Ce1 Nd1 Hf2 F14'
_cell_volume   307.57950835
_cell_formula_units_Z   1
loop_
 _symmetry_equiv_pos_site_id
 _symmetry_equiv_pos_as_xyz
  1  'x, y, z'
loop_
 _atom_site_type_symbol
 _atom_site_label
 _atom_site_symmetry_multiplicity
 _atom_site_fract_x
 _atom_site_fract_y
 _atom_site_fract_z
 _atom_site_occupancy
  Ce  Ce0  1  0.700439  0.658515  0.686651  1
  Nd  Nd1  1  0.200084  0.340033  0.310815  1
  Hf  Hf2  1  0.708560  0.810203  0.223582  1
  Hf  Hf3  1  0.209495  0.190145  0.776373  1
  F  F4  1  0.891250  0.447874  0.476157  1
  F  F5  1  0.388347  0.550892  0.522181  1
  F  F6  1  0.424320  0.939476  0.772749  1
  F  F7  1  0.927520  0.058961  0.229380  1
  F  F8  1  0.957781  0.967710  0.758176  1
  F  F9  1  0.457361  0.034238  0.240002  1
  F  F10  1  0.996938  0.442996  0.789994  1
  F  F11  1  0.493646  0.557550  0.212575  1
  F  F12  1  0.701363  0.758202  0.983663  1
  F  F13  1  0.201449  0.242460  0.017622  1
  F  F14  1  0.711827  0.861770  0.464126  1
  F  F15  1  0.213763  0.143254  0.535189  1
  F  F16  1  0.485814  0.380984  0.785987  1
  F  F17  1  0.982767  0.614738  0.214779  1
