# generated using pymatgen
data_YbEuAl4
_symmetry_space_group_name_H-M   'P 1'
_cell_length_a   5.71799704
_cell_length_b   5.71799741
_cell_length_c   5.71799800
_cell_angle_alpha   60.00000814
_cell_angle_beta   60.00000604
_cell_angle_gamma   60.00001280
_symmetry_Int_Tables_number   1
_chemical_formula_structural   YbEuAl4
_chemical_formula_sum   'Yb1 Eu1 Al4'
_cell_volume   132.19559088
_cell_formula_units_Z   1
loop_
 _symmetry_equiv_pos_site_id
 _symmetry_equiv_pos_as_xyz
  1  'x, y, z'
loop_
 _atom_site_type_symbol
 _atom_site_label
 _atom_site_symmetry_multiplicity
 _atom_site_fract_x
 _atom_site_fract_y
 _atom_site_fract_z
 _atom_site_occupancy
  Yb  Yb0  1  0.000000  0.000000  0.000000  1
  Eu  Eu1  1  0.250000  0.250000  0.250000  1
  Al  Al2  1  0.625010  0.625010  0.124972  1
  Al  Al3  1  0.625010  0.124972  0.625010  1
  Al  Al4  1  0.124972  0.625010  0.625010  1
  Al  Al5  1  0.625010  0.625010  0.625010  1
