# generated using pymatgen
data_Ta3Nb2Si2Ge
_symmetry_space_group_name_H-M   'P 1'
_cell_length_a   7.59679371
_cell_length_b   7.58223511
_cell_length_c   7.58171910
_cell_angle_alpha   128.09882632
_cell_angle_beta   128.14964693
_cell_angle_gamma   76.39767594
_symmetry_Int_Tables_number   1
_chemical_formula_structural   Ta3Nb2Si2Ge
_chemical_formula_sum   'Ta6 Nb4 Si4 Ge2'
_cell_volume   262.63701089
_cell_formula_units_Z   2
loop_
 _symmetry_equiv_pos_site_id
 _symmetry_equiv_pos_as_xyz
  1  'x, y, z'
loop_
 _atom_site_type_symbol
 _atom_site_label
 _atom_site_symmetry_multiplicity
 _atom_site_fract_x
 _atom_site_fract_y
 _atom_site_fract_z
 _atom_site_occupancy
  Ta  Ta0  1  0.687721  0.515590  0.500475  1
  Ta  Ta1  1  0.984461  0.811750  0.499758  1
  Ta  Ta2  1  0.311215  0.484304  0.499709  1
  Ta  Ta3  1  0.811724  0.312107  0.827016  1
  Ta  Ta4  1  0.500851  0.500341  0.000455  1
  Ta  Ta5  1  0.999914  0.000340  0.999520  1
  Nb  Nb6  1  0.017076  0.188316  0.500474  1
  Nb  Nb7  1  0.516480  0.016314  0.829008  1
  Nb  Nb8  1  0.187915  0.687724  0.171343  1
  Nb  Nb9  1  0.483208  0.983588  0.172044  1
  Si  Si10  1  0.130161  0.630362  0.760587  1
  Si  Si11  1  0.630690  0.869384  0.500148  1
  Si  Si12  1  0.369548  0.130432  0.500232  1
  Si  Si13  1  0.869277  0.369453  0.239010  1
  Ge  Ge14  1  0.749882  0.749928  0.000028  1
  Ge  Ge15  1  0.249876  0.250068  0.000194  1
