# generated using pymatgen
data_Dy5Th8InAu20
_symmetry_space_group_name_H-M   'P 1'
_cell_length_a   8.94354251
_cell_length_b   8.94356130
_cell_length_c   10.58527900
_cell_angle_alpha   89.85011635
_cell_angle_beta   90.14965333
_cell_angle_gamma   108.14083446
_symmetry_Int_Tables_number   1
_chemical_formula_structural   Dy5Th8InAu20
_chemical_formula_sum   'Dy5 Th8 In1 Au20'
_cell_volume   804.59648405
_cell_formula_units_Z   1
loop_
 _symmetry_equiv_pos_site_id
 _symmetry_equiv_pos_as_xyz
  1  'x, y, z'
loop_
 _atom_site_type_symbol
 _atom_site_label
 _atom_site_symmetry_multiplicity
 _atom_site_fract_x
 _atom_site_fract_y
 _atom_site_fract_z
 _atom_site_occupancy
  Dy  Dy0  1  0.503025  0.003034  0.250001  1
  Dy  Dy1  1  0.991478  0.491474  0.749997  1
  Dy  Dy2  1  0.004465  0.002108  0.004203  1
  Dy  Dy3  1  0.003956  0.503959  0.250006  1
  Dy  Dy4  1  0.502109  0.504468  0.495801  1
  Th  Th5  1  0.689079  0.303087  0.995073  1
  Th  Th6  1  0.198075  0.809175  0.500967  1
  Th  Th7  1  0.806807  0.810396  0.303198  1
  Th  Th8  1  0.310383  0.306814  0.196798  1
  Th  Th9  1  0.803106  0.189101  0.504917  1
  Th  Th10  1  0.309172  0.698100  0.999033  1
  Th  Th11  1  0.694012  0.698984  0.803356  1
  Th  Th12  1  0.199010  0.194001  0.696655  1
  In  In13  1  0.494549  0.994447  0.749976  1
  Au  Au14  1  0.145853  0.439288  0.500621  1
  Au  Au15  1  0.903243  0.895557  0.591451  1
  Au  Au16  1  0.563497  0.851680  0.504493  1
  Au  Au17  1  0.858016  0.153071  0.209732  1
  Au  Au18  1  0.358327  0.649627  0.292959  1
  Au  Au19  1  0.653057  0.358022  0.290267  1
  Au  Au20  1  0.395547  0.403241  0.908546  1
  Au  Au21  1  0.939278  0.645855  0.999389  1
  Au  Au22  1  0.346625  0.633306  0.707829  1
  Au  Au23  1  0.351683  0.063501  0.995485  1
  Au  Au24  1  0.601634  0.600047  0.096038  1
  Au  Au25  1  0.655185  0.939599  0.007512  1
  Au  Au26  1  0.100041  0.101635  0.403958  1
  Au  Au27  1  0.629811  0.354384  0.706060  1
  Au  Au28  1  0.133318  0.846647  0.792181  1
  Au  Au29  1  0.059077  0.352947  0.002340  1
  Au  Au30  1  0.852940  0.559078  0.497666  1
  Au  Au31  1  0.149611  0.858338  0.207046  1
  Au  Au32  1  0.439612  0.155198  0.492492  1
  Au  Au33  1  0.854420  0.129832  0.793949  1
