# generated using pymatgen
data_HoUMnGe2Ru
_symmetry_space_group_name_H-M   'P 1'
_cell_length_a   4.46539500
_cell_length_b   6.93894031
_cell_length_c   7.12897809
_cell_angle_alpha   95.63271086
_cell_angle_beta   90.00000000
_cell_angle_gamma   90.00000000
_symmetry_Int_Tables_number   1
_chemical_formula_structural   HoUMnGe2Ru
_chemical_formula_sum   'Ho2 U2 Mn2 Ge4 Ru2'
_cell_volume   219.82559376
_cell_formula_units_Z   2
loop_
 _symmetry_equiv_pos_site_id
 _symmetry_equiv_pos_as_xyz
  1  'x, y, z'
loop_
 _atom_site_type_symbol
 _atom_site_label
 _atom_site_symmetry_multiplicity
 _atom_site_fract_x
 _atom_site_fract_y
 _atom_site_fract_z
 _atom_site_occupancy
  Ho  Ho0  1  0.250000  0.981178  0.285194  1
  Ho  Ho1  1  0.750000  0.018822  0.714806  1
  U  U2  1  0.250000  0.478138  0.185321  1
  U  U3  1  0.750000  0.521862  0.814679  1
  Mn  Mn4  1  0.750000  0.738781  0.040303  1
  Mn  Mn5  1  0.250000  0.261219  0.959697  1
  Ge  Ge6  1  0.250000  0.812966  0.895080  1
  Ge  Ge7  1  0.750000  0.187034  0.104920  1
  Ge  Ge8  1  0.250000  0.288223  0.607164  1
  Ge  Ge9  1  0.750000  0.711777  0.392836  1
  Ru  Ru10  1  0.750000  0.349292  0.459495  1
  Ru  Ru11  1  0.250000  0.650708  0.540505  1
