# generated using pymatgen
data_Ho2Fe6Ni3P7Ir3
_symmetry_space_group_name_H-M   'P 1'
_cell_length_a   9.18474000
_cell_length_b   9.18473899
_cell_length_c   3.74947400
_cell_angle_alpha   90.00000000
_cell_angle_beta   90.00000000
_cell_angle_gamma   120.00000364
_symmetry_Int_Tables_number   1
_chemical_formula_structural   Ho2Fe6Ni3P7Ir3
_chemical_formula_sum   'Ho2 Fe6 Ni3 P7 Ir3'
_cell_volume   273.92687823
_cell_formula_units_Z   1
loop_
 _symmetry_equiv_pos_site_id
 _symmetry_equiv_pos_as_xyz
  1  'x, y, z'
loop_
 _atom_site_type_symbol
 _atom_site_label
 _atom_site_symmetry_multiplicity
 _atom_site_fract_x
 _atom_site_fract_y
 _atom_site_fract_z
 _atom_site_occupancy
  Ho  Ho0  1  0.000000  0.000000  0.000000  1
  Ho  Ho1  1  0.333333  0.666667  0.500000  1
  Fe  Fe2  1  0.780682  0.178015  0.000000  1
  Fe  Fe3  1  0.397332  0.219318  0.000000  1
  Fe  Fe4  1  0.821985  0.602668  0.000000  1
  Fe  Fe5  1  0.547332  0.124212  0.500000  1
  Fe  Fe6  1  0.576880  0.452668  0.500000  1
  Fe  Fe7  1  0.875788  0.423120  0.500000  1
  Ni  Ni8  1  0.301505  0.903859  0.000000  1
  Ni  Ni9  1  0.602355  0.698495  0.000000  1
  Ni  Ni10  1  0.096141  0.397645  0.000000  1
  P  P11  1  0.550511  0.926106  0.000000  1
  P  P12  1  0.375595  0.449489  0.000000  1
  P  P13  1  0.073894  0.624405  0.000000  1
  P  P14  1  0.946810  0.222394  0.500000  1
  P  P15  1  0.275584  0.053190  0.500000  1
  P  P16  1  0.777606  0.724416  0.500000  1
  P  P17  1  0.666667  0.333333  0.000000  1
  Ir  Ir18  1  0.713301  0.943226  0.500000  1
  Ir  Ir19  1  0.229927  0.286699  0.500000  1
  Ir  Ir20  1  0.056774  0.770073  0.500000  1
