# generated using pymatgen
data_Tm2Si3(PPd7)3
_symmetry_space_group_name_H-M   'P 1'
_cell_length_a   8.69087249
_cell_length_b   8.69087203
_cell_length_c   8.67944300
_cell_angle_alpha   59.95643168
_cell_angle_beta   59.95643344
_cell_angle_gamma   59.99999310
_symmetry_Int_Tables_number   1
_chemical_formula_structural   Tm2Si3(PPd7)3
_chemical_formula_sum   'Tm2 Si3 P3 Pd21'
_cell_volume   463.25195592
_cell_formula_units_Z   1
loop_
 _symmetry_equiv_pos_site_id
 _symmetry_equiv_pos_as_xyz
  1  'x, y, z'
loop_
 _atom_site_type_symbol
 _atom_site_label
 _atom_site_symmetry_multiplicity
 _atom_site_fract_x
 _atom_site_fract_y
 _atom_site_fract_z
 _atom_site_occupancy
  Tm  Tm0  1  0.749224  0.749224  0.752328  1
  Tm  Tm1  1  0.249273  0.249273  0.252182  1
  Si  Si2  1  0.261390  0.261390  0.740225  1
  Si  Si3  1  0.736996  0.261390  0.740225  1
  Si  Si4  1  0.261390  0.736996  0.740225  1
  P  P5  1  0.737144  0.737144  0.264883  1
  P  P6  1  0.260830  0.737144  0.264883  1
  P  P7  1  0.737144  0.260830  0.264883  1
  Pd  Pd8  1  0.002323  0.002323  0.993030  1
  Pd  Pd9  1  0.614357  0.614357  0.156932  1
  Pd  Pd10  1  0.616131  0.152984  0.614756  1
  Pd  Pd11  1  0.152984  0.616131  0.614756  1
  Pd  Pd12  1  0.616131  0.616131  0.614756  1
  Pd  Pd13  1  0.383828  0.383828  0.848514  1
  Pd  Pd14  1  0.385280  0.845200  0.384239  1
  Pd  Pd15  1  0.845200  0.385280  0.384239  1
  Pd  Pd16  1  0.385280  0.385280  0.384239  1
  Pd  Pd17  1  0.001359  0.001359  0.341065  1
  Pd  Pd18  1  0.656217  0.001359  0.341065  1
  Pd  Pd19  1  0.001359  0.656217  0.341065  1
  Pd  Pd20  1  0.656226  0.346474  0.001170  1
  Pd  Pd21  1  0.996130  0.346474  0.001170  1
  Pd  Pd22  1  0.001161  0.346181  0.651497  1
  Pd  Pd23  1  0.346474  0.656226  0.001170  1
  Pd  Pd24  1  0.346181  0.001161  0.651497  1
  Pd  Pd25  1  0.346474  0.996130  0.001170  1
  Pd  Pd26  1  0.001161  0.001161  0.651497  1
  Pd  Pd27  1  0.996130  0.656226  0.001170  1
  Pd  Pd28  1  0.656226  0.996130  0.001170  1
