# generated using pymatgen
data_Tb2Tm7LuBi6
_symmetry_space_group_name_H-M   'P 1'
_cell_length_a   8.19370500
_cell_length_b   9.43612800
_cell_length_c   11.93611600
_cell_angle_alpha   90.00000000
_cell_angle_beta   90.00000000
_cell_angle_gamma   90.00000000
_symmetry_Int_Tables_number   1
_chemical_formula_structural   Tb2Tm7LuBi6
_chemical_formula_sum   'Tb4 Tm14 Lu2 Bi12'
_cell_volume   922.86288050
_cell_formula_units_Z   2
loop_
 _symmetry_equiv_pos_site_id
 _symmetry_equiv_pos_as_xyz
  1  'x, y, z'
loop_
 _atom_site_type_symbol
 _atom_site_label
 _atom_site_symmetry_multiplicity
 _atom_site_fract_x
 _atom_site_fract_y
 _atom_site_fract_z
 _atom_site_occupancy
  Tb  Tb0  1  0.313383  0.250000  0.218121  1
  Tb  Tb1  1  0.813383  0.250000  0.281879  1
  Tb  Tb2  1  0.686621  0.750000  0.781937  1
  Tb  Tb3  1  0.186621  0.750000  0.718063  1
  Tm  Tm4  1  0.352715  0.750000  0.217911  1
  Tm  Tm5  1  0.852715  0.750000  0.282089  1
  Tm  Tm6  1  0.647264  0.250000  0.782268  1
  Tm  Tm7  1  0.147264  0.250000  0.717732  1
  Tm  Tm8  1  0.692576  0.566207  0.059843  1
  Tm  Tm9  1  0.192576  0.933793  0.440157  1
  Tm  Tm10  1  0.307604  0.066141  0.940189  1
  Tm  Tm11  1  0.807604  0.433859  0.559811  1
  Tm  Tm12  1  0.307604  0.433859  0.940189  1
  Tm  Tm13  1  0.807604  0.066141  0.559811  1
  Tm  Tm14  1  0.692576  0.933793  0.059843  1
  Tm  Tm15  1  0.192576  0.566207  0.440157  1
  Tm  Tm16  1  0.476199  0.250000  0.488789  1
  Tm  Tm17  1  0.976199  0.250000  0.011211  1
  Lu  Lu18  1  0.523595  0.750000  0.510974  1
  Lu  Lu19  1  0.023595  0.750000  0.989026  1
  Bi  Bi20  1  0.403861  0.750000  0.959528  1
  Bi  Bi21  1  0.903861  0.750000  0.540472  1
  Bi  Bi22  1  0.595549  0.250000  0.040483  1
  Bi  Bi23  1  0.095549  0.250000  0.459517  1
  Bi  Bi24  1  0.565781  0.994028  0.326374  1
  Bi  Bi25  1  0.065781  0.505972  0.173626  1
  Bi  Bi26  1  0.434445  0.494567  0.673631  1
  Bi  Bi27  1  0.934445  0.005433  0.826369  1
  Bi  Bi28  1  0.434445  0.005433  0.673631  1
  Bi  Bi29  1  0.934445  0.494567  0.826369  1
  Bi  Bi30  1  0.565781  0.505972  0.326374  1
  Bi  Bi31  1  0.065781  0.994028  0.173626  1
