# generated using pymatgen
data_GaFe9Ge2(Mo3N)4
_symmetry_space_group_name_H-M   'P 1'
_cell_length_a   7.89673452
_cell_length_b   7.92579984
_cell_length_c   7.92579884
_cell_angle_alpha   59.90652225
_cell_angle_beta   59.82490133
_cell_angle_gamma   59.82489683
_symmetry_Int_Tables_number   1
_chemical_formula_structural   GaFe9Ge2(Mo3N)4
_chemical_formula_sum   'Ga1 Fe9 Ge2 Mo12 N4'
_cell_volume   349.58924087
_cell_formula_units_Z   1
loop_
 _symmetry_equiv_pos_site_id
 _symmetry_equiv_pos_as_xyz
  1  'x, y, z'
loop_
 _atom_site_type_symbol
 _atom_site_label
 _atom_site_symmetry_multiplicity
 _atom_site_fract_x
 _atom_site_fract_y
 _atom_site_fract_z
 _atom_site_occupancy
  Ga  Ga0  1  0.625000  0.625000  0.625000  1
  Fe  Fe1  1  0.125000  0.625000  0.625000  1
  Fe  Fe2  1  0.745360  0.417725  0.417725  1
  Fe  Fe3  1  0.411341  0.745486  0.420918  1
  Fe  Fe4  1  0.411341  0.420918  0.745486  1
  Fe  Fe5  1  0.411650  0.421141  0.421141  1
  Fe  Fe6  1  0.504640  0.832275  0.832275  1
  Fe  Fe7  1  0.838659  0.504514  0.829082  1
  Fe  Fe8  1  0.838659  0.829082  0.504514  1
  Fe  Fe9  1  0.838350  0.828859  0.828859  1
  Ge  Ge10  1  0.625000  0.125000  0.625000  1
  Ge  Ge11  1  0.625000  0.625000  0.125000  1
  Mo  Mo12  1  0.806908  0.806441  0.193538  1
  Mo  Mo13  1  0.192024  0.196299  0.805724  1
  Mo  Mo14  1  0.806908  0.193538  0.806441  1
  Mo  Mo15  1  0.192024  0.805724  0.196299  1
  Mo  Mo16  1  0.193257  0.804534  0.804534  1
  Mo  Mo17  1  0.807213  0.192918  0.192918  1
  Mo  Mo18  1  0.443092  0.443559  0.056462  1
  Mo  Mo19  1  0.057976  0.053701  0.444276  1
  Mo  Mo20  1  0.443092  0.056462  0.443559  1
  Mo  Mo21  1  0.057976  0.444276  0.053701  1
  Mo  Mo22  1  0.056743  0.445466  0.445466  1
  Mo  Mo23  1  0.442787  0.057082  0.057082  1
  N  N24  1  0.625000  0.125000  0.125000  1
  N  N25  1  0.125000  0.625000  0.125000  1
  N  N26  1  0.125000  0.125000  0.625000  1
  N  N27  1  0.125000  0.125000  0.125000  1
