# generated using pymatgen
data_Sm5Te9
_symmetry_space_group_name_H-M   'P 1'
_cell_length_a   13.35629778
_cell_length_b   13.35629840
_cell_length_c   10.99009400
_cell_angle_alpha   80.40625691
_cell_angle_beta   80.40626082
_cell_angle_gamma   26.83403643
_symmetry_Int_Tables_number   1
_chemical_formula_structural   Sm5Te9
_chemical_formula_sum   'Sm10 Te18'
_cell_volume   871.91159766
_cell_formula_units_Z   2
loop_
 _symmetry_equiv_pos_site_id
 _symmetry_equiv_pos_as_xyz
  1  'x, y, z'
loop_
 _atom_site_type_symbol
 _atom_site_label
 _atom_site_symmetry_multiplicity
 _atom_site_fract_x
 _atom_site_fract_y
 _atom_site_fract_z
 _atom_site_occupancy
  Sm  Sm0  1  0.946542  0.044616  0.241345  1
  Sm  Sm1  1  0.146877  0.247567  0.842177  1
  Sm  Sm2  1  0.344957  0.450114  0.437346  1
  Sm  Sm3  1  0.539298  0.652515  0.037257  1
  Sm  Sm4  1  0.753955  0.836393  0.637270  1
  Sm  Sm5  1  0.347486  0.460701  0.962743  1
  Sm  Sm6  1  0.549886  0.655043  0.562654  1
  Sm  Sm7  1  0.752433  0.853123  0.157823  1
  Sm  Sm8  1  0.955384  0.053458  0.758655  1
  Sm  Sm9  1  0.163607  0.246045  0.362731  1
  Te  Te10  1  0.473790  0.571626  0.821371  1
  Te  Te11  1  0.071669  0.177736  0.621028  1
  Te  Te12  1  0.869081  0.979865  0.019812  1
  Te  Te13  1  0.681626  0.762723  0.422215  1
  Te  Te14  1  0.273362  0.375553  0.221315  1
  Te  Te15  1  0.020135  0.130919  0.980188  1
  Te  Te16  1  0.624446  0.726638  0.778685  1
  Te  Te17  1  0.428374  0.526210  0.178629  1
  Te  Te18  1  0.237277  0.318373  0.577785  1
  Te  Te19  1  0.822264  0.928331  0.378972  1
  Te  Te20  1  0.699504  0.300496  0.500000  1
  Te  Te21  1  0.298939  0.901065  0.300477  1
  Te  Te22  1  0.098935  0.701061  0.699523  1
  Te  Te23  1  0.894162  0.493347  0.112939  1
  Te  Te24  1  0.506653  0.105838  0.887061  1
  Te  Te25  1  0.002327  0.602143  0.895168  1
  Te  Te26  1  0.199172  0.800828  0.500000  1
  Te  Te27  1  0.397857  0.997673  0.104832  1
