# generated using pymatgen
data_Nb12Al4Zn8C3N
_symmetry_space_group_name_H-M   'P 1'
_cell_length_a   8.34097929
_cell_length_b   8.34098058
_cell_length_c   8.34097891
_cell_angle_alpha   60.07813513
_cell_angle_beta   60.07813019
_cell_angle_gamma   60.07813944
_symmetry_Int_Tables_number   1
_chemical_formula_structural   Nb12Al4Zn8C3N
_chemical_formula_sum   'Nb12 Al4 Zn8 C3 N1'
_cell_volume   411.05929872
_cell_formula_units_Z   1
loop_
 _symmetry_equiv_pos_site_id
 _symmetry_equiv_pos_as_xyz
  1  'x, y, z'
loop_
 _atom_site_type_symbol
 _atom_site_label
 _atom_site_symmetry_multiplicity
 _atom_site_fract_x
 _atom_site_fract_y
 _atom_site_fract_z
 _atom_site_occupancy
  Nb  Nb0  1  0.817214  0.182108  0.817214  1
  Nb  Nb1  1  0.067892  0.432786  0.432786  1
  Nb  Nb2  1  0.432016  0.067380  0.067380  1
  Nb  Nb3  1  0.067380  0.432016  0.067380  1
  Nb  Nb4  1  0.432786  0.432786  0.067892  1
  Nb  Nb5  1  0.067380  0.067380  0.432016  1
  Nb  Nb6  1  0.817214  0.817214  0.182108  1
  Nb  Nb7  1  0.182108  0.817214  0.817214  1
  Nb  Nb8  1  0.817984  0.182620  0.182620  1
  Nb  Nb9  1  0.182620  0.182620  0.817984  1
  Nb  Nb10  1  0.432786  0.067892  0.432786  1
  Nb  Nb11  1  0.182620  0.817984  0.182620  1
  Al  Al12  1  0.625000  0.625000  0.625000  1
  Al  Al13  1  0.125000  0.625000  0.625000  1
  Al  Al14  1  0.625000  0.125000  0.625000  1
  Al  Al15  1  0.625000  0.625000  0.125000  1
  Zn  Zn16  1  0.416235  0.416235  0.416235  1
  Zn  Zn17  1  0.498990  0.833644  0.833644  1
  Zn  Zn18  1  0.833644  0.498990  0.833644  1
  Zn  Zn19  1  0.833644  0.833644  0.498990  1
  Zn  Zn20  1  0.416356  0.751010  0.416356  1
  Zn  Zn21  1  0.416356  0.416356  0.751010  1
  Zn  Zn22  1  0.751010  0.416356  0.416356  1
  Zn  Zn23  1  0.833765  0.833765  0.833765  1
  C  C24  1  0.625000  0.125000  0.125000  1
  C  C25  1  0.125000  0.625000  0.125000  1
  C  C26  1  0.125000  0.125000  0.625000  1
  N  N27  1  0.125000  0.125000  0.125000  1
