# generated using pymatgen
data_TbCo4P3Rh
_symmetry_space_group_name_H-M   'P 1'
_cell_length_a   3.70612500
_cell_length_b   10.42970500
_cell_length_c   11.85405000
_cell_angle_alpha   90.00000000
_cell_angle_beta   90.00000000
_cell_angle_gamma   90.00000000
_symmetry_Int_Tables_number   1
_chemical_formula_structural   TbCo4P3Rh
_chemical_formula_sum   'Tb4 Co16 P12 Rh4'
_cell_volume   458.20396460
_cell_formula_units_Z   4
loop_
 _symmetry_equiv_pos_site_id
 _symmetry_equiv_pos_as_xyz
  1  'x, y, z'
loop_
 _atom_site_type_symbol
 _atom_site_label
 _atom_site_symmetry_multiplicity
 _atom_site_fract_x
 _atom_site_fract_y
 _atom_site_fract_z
 _atom_site_occupancy
  Tb  Tb0  1  0.250000  0.584721  0.703966  1
  Tb  Tb1  1  0.250000  0.915279  0.203966  1
  Tb  Tb2  1  0.750000  0.415279  0.296034  1
  Tb  Tb3  1  0.750000  0.084721  0.796034  1
  Co  Co4  1  0.250000  0.408777  0.488242  1
  Co  Co5  1  0.250000  0.091223  0.988242  1
  Co  Co6  1  0.750000  0.591223  0.511758  1
  Co  Co7  1  0.750000  0.908777  0.011758  1
  Co  Co8  1  0.250000  0.221341  0.176085  1
  Co  Co9  1  0.250000  0.278659  0.676085  1
  Co  Co10  1  0.750000  0.778659  0.823915  1
  Co  Co11  1  0.750000  0.721341  0.323915  1
  Co  Co12  1  0.250000  0.884909  0.701391  1
  Co  Co13  1  0.250000  0.615091  0.201391  1
  Co  Co14  1  0.750000  0.115091  0.298609  1
  Co  Co15  1  0.750000  0.384909  0.798609  1
  Co  Co16  1  0.250000  0.464937  0.930616  1
  Co  Co17  1  0.250000  0.035063  0.430616  1
  Co  Co18  1  0.750000  0.535063  0.069384  1
  Co  Co19  1  0.750000  0.964937  0.569384  1
  P  P20  1  0.250000  0.421614  0.112372  1
  P  P21  1  0.250000  0.078386  0.612372  1
  P  P22  1  0.750000  0.578386  0.887628  1
  P  P23  1  0.750000  0.921614  0.387628  1
  P  P24  1  0.250000  0.271915  0.865443  1
  P  P25  1  0.250000  0.228085  0.365443  1
  P  P26  1  0.750000  0.728085  0.134557  1
  P  P27  1  0.750000  0.771915  0.634557  1
  P  P28  1  0.250000  0.595685  0.389480  1
  P  P29  1  0.250000  0.904315  0.889480  1
  P  P30  1  0.750000  0.404315  0.610520  1
  P  P31  1  0.750000  0.095685  0.110520  1
  Rh  Rh32  1  0.250000  0.716593  0.990929  1
  Rh  Rh33  1  0.250000  0.783407  0.490929  1
  Rh  Rh34  1  0.750000  0.283407  0.009071  1
  Rh  Rh35  1  0.750000  0.216593  0.509071  1
