# generated using pymatgen
data_Ca2TiMn2O8
_symmetry_space_group_name_H-M   'P 1'
_cell_length_a   6.35594829
_cell_length_b   6.35594837
_cell_length_c   5.01868636
_cell_angle_alpha   72.31584042
_cell_angle_beta   72.31583807
_cell_angle_gamma   56.87034025
_symmetry_Int_Tables_number   1
_chemical_formula_structural   Ca2TiMn2O8
_chemical_formula_sum   'Ca2 Ti1 Mn2 O8'
_cell_volume   159.33394907
_cell_formula_units_Z   1
loop_
 _symmetry_equiv_pos_site_id
 _symmetry_equiv_pos_as_xyz
  1  'x, y, z'
loop_
 _atom_site_type_symbol
 _atom_site_label
 _atom_site_symmetry_multiplicity
 _atom_site_fract_x
 _atom_site_fract_y
 _atom_site_fract_z
 _atom_site_occupancy
  Ca  Ca0  1  0.727131  0.721651  0.338684  1
  Ca  Ca1  1  0.278349  0.272869  0.661316  1
  Ti  Ti2  1  0.717077  0.282923  0.000000  1
  Mn  Mn3  1  0.006170  0.993830  0.500000  1
  Mn  Mn4  1  0.246834  0.753166  0.000000  1
  O  O5  1  0.387334  0.400304  0.959362  1
  O  O6  1  0.599696  0.612666  0.040638  1
  O  O7  1  0.913246  0.891289  0.902473  1
  O  O8  1  0.108711  0.086754  0.097527  1
  O  O9  1  0.324456  0.879846  0.606430  1
  O  O10  1  0.887548  0.316707  0.604347  1
  O  O11  1  0.120154  0.675544  0.393570  1
  O  O12  1  0.683293  0.112452  0.395653  1
