# generated using pymatgen
data_Lu6C2I7
_symmetry_space_group_name_H-M   'P 1'
_cell_length_a   10.80118450
_cell_length_b   10.80118467
_cell_length_c   12.61454413
_cell_angle_alpha   58.23962613
_cell_angle_beta   58.23962606
_cell_angle_gamma   20.74483339
_symmetry_Int_Tables_number   1
_chemical_formula_structural   Lu6C2I7
_chemical_formula_sum   'Lu6 C2 I7'
_cell_volume   440.36738366
_cell_formula_units_Z   1
loop_
 _symmetry_equiv_pos_site_id
 _symmetry_equiv_pos_as_xyz
  1  'x, y, z'
loop_
 _atom_site_type_symbol
 _atom_site_label
 _atom_site_symmetry_multiplicity
 _atom_site_fract_x
 _atom_site_fract_y
 _atom_site_fract_z
 _atom_site_occupancy
  Lu  Lu0  1  0.238021  0.238021  0.803855  1
  Lu  Lu1  1  0.306162  0.306162  0.378600  1
  Lu  Lu2  1  0.138242  0.138242  0.445506  1
  Lu  Lu3  1  0.861758  0.861758  0.554494  1
  Lu  Lu4  1  0.693838  0.693838  0.621400  1
  Lu  Lu5  1  0.761979  0.761979  0.196145  1
  C  C6  1  0.280687  0.280687  0.594530  1
  C  C7  1  0.719313  0.719313  0.405470  1
  I  I8  1  0.159772  0.159772  0.178672  1
  I  I9  1  0.840228  0.840228  0.821328  1
  I  I10  1  0.058979  0.058979  0.719898  1
  I  I11  1  0.941021  0.941021  0.280102  1
  I  I12  1  0.500000  0.500000  0.500000  1
  I  I13  1  0.386097  0.386097  0.073964  1
  I  I14  1  0.613903  0.613903  0.926036  1
