# generated using pymatgen
data_Lu8Co(TcB8)3
_symmetry_space_group_name_H-M   'P 1'
_cell_length_a   3.58837100
_cell_length_b   9.03824968
_cell_length_c   11.40923191
_cell_angle_alpha   90.21976154
_cell_angle_beta   90.00000000
_cell_angle_gamma   90.00000000
_symmetry_Int_Tables_number   1
_chemical_formula_structural   Lu8Co(TcB8)3
_chemical_formula_sum   'Lu8 Co1 Tc3 B24'
_cell_volume   370.02825349
_cell_formula_units_Z   1
loop_
 _symmetry_equiv_pos_site_id
 _symmetry_equiv_pos_as_xyz
  1  'x, y, z'
loop_
 _atom_site_type_symbol
 _atom_site_label
 _atom_site_symmetry_multiplicity
 _atom_site_fract_x
 _atom_site_fract_y
 _atom_site_fract_z
 _atom_site_occupancy
  Lu  Lu0  1  0.000000  0.823541  0.086556  1
  Lu  Lu1  1  0.000000  0.174070  0.917774  1
  Lu  Lu2  1  0.000000  0.323008  0.411912  1
  Lu  Lu3  1  0.000000  0.678626  0.584813  1
  Lu  Lu4  1  0.000000  0.443444  0.128890  1
  Lu  Lu5  1  0.000000  0.555902  0.868335  1
  Lu  Lu6  1  0.000000  0.944637  0.371224  1
  Lu  Lu7  1  0.000000  0.059055  0.630663  1
  Co  Co8  1  0.000000  0.361160  0.679324  1
  Tc  Tc9  1  0.000000  0.139054  0.179422  1
  Tc  Tc10  1  0.000000  0.861066  0.819519  1
  Tc  Tc11  1  0.000000  0.638561  0.321882  1
  B  B12  1  0.500000  0.052904  0.066625  1
  B  B13  1  0.500000  0.946499  0.933738  1
  B  B14  1  0.500000  0.553177  0.434289  1
  B  B15  1  0.500000  0.445318  0.566825  1
  B  B16  1  0.500000  0.249720  0.080102  1
  B  B17  1  0.500000  0.748881  0.919027  1
  B  B18  1  0.500000  0.750762  0.420032  1
  B  B19  1  0.500000  0.252428  0.581362  1
  B  B20  1  0.500000  0.293673  0.235140  1
  B  B21  1  0.500000  0.705358  0.763105  1
  B  B22  1  0.500000  0.793321  0.265072  1
  B  B23  1  0.500000  0.209297  0.735622  1
  B  B24  1  0.500000  0.132329  0.315939  1
  B  B25  1  0.500000  0.868467  0.683357  1
  B  B26  1  0.500000  0.630847  0.184766  1
  B  B27  1  0.500000  0.367367  0.815682  1
  B  B28  1  0.500000  0.481188  0.287823  1
  B  B29  1  0.500000  0.513728  0.711016  1
  B  B30  1  0.500000  0.981516  0.212897  1
  B  B31  1  0.500000  0.018357  0.787917  1
  B  B32  1  0.500000  0.104399  0.473019  1
  B  B33  1  0.500000  0.899764  0.528677  1
  B  B34  1  0.500000  0.600971  0.026937  1
  B  B35  1  0.500000  0.397605  0.970713  1
