# generated using pymatgen
data_TbDy2Er(Mo2O7)2
_symmetry_space_group_name_H-M   'P 1'
_cell_length_a   7.34992521
_cell_length_b   7.34690288
_cell_length_c   7.37716933
_cell_angle_alpha   60.13561998
_cell_angle_beta   60.16855018
_cell_angle_gamma   60.01359246
_symmetry_Int_Tables_number   1
_chemical_formula_structural   TbDy2Er(Mo2O7)2
_chemical_formula_sum   'Tb1 Dy2 Er1 Mo4 O14'
_cell_volume   282.35873253
_cell_formula_units_Z   1
loop_
 _symmetry_equiv_pos_site_id
 _symmetry_equiv_pos_as_xyz
  1  'x, y, z'
loop_
 _atom_site_type_symbol
 _atom_site_label
 _atom_site_symmetry_multiplicity
 _atom_site_fract_x
 _atom_site_fract_y
 _atom_site_fract_z
 _atom_site_occupancy
  Tb  Tb0  1  0.625000  0.125000  0.125000  1
  Dy  Dy1  1  0.125000  0.625000  0.125000  1
  Dy  Dy2  1  0.125000  0.125000  0.125000  1
  Er  Er3  1  0.125000  0.125000  0.625000  1
  Mo  Mo4  1  0.125000  0.625000  0.625000  1
  Mo  Mo5  1  0.625000  0.125000  0.625000  1
  Mo  Mo6  1  0.625000  0.625000  0.125000  1
  Mo  Mo7  1  0.625000  0.625000  0.625000  1
  O  O8  1  0.722283  0.707870  0.281999  1
  O  O9  1  0.288767  0.282427  0.708292  1
  O  O10  1  0.699673  0.286267  0.727794  1
  O  O11  1  0.279113  0.714393  0.292100  1
  O  O12  1  0.288767  0.720513  0.708292  1
  O  O13  1  0.722283  0.287849  0.281999  1
  O  O14  1  0.527717  0.542130  0.968001  1
  O  O15  1  0.961233  0.967573  0.541708  1
  O  O16  1  0.550327  0.963733  0.522206  1
  O  O17  1  0.970887  0.535607  0.957900  1
  O  O18  1  0.961233  0.529487  0.541708  1
  O  O19  1  0.527717  0.962151  0.968001  1
  O  O20  1  0.246882  0.248802  0.255513  1
  O  O21  1  0.003118  0.001198  0.994487  1
