# generated using pymatgen
data_Nd3Mg2CdIrPb2
_symmetry_space_group_name_H-M   'P 1'
_cell_length_a   7.63656901
_cell_length_b   7.68397630
_cell_length_c   4.65992500
_cell_angle_alpha   90.00000000
_cell_angle_beta   90.00000000
_cell_angle_gamma   120.20559091
_symmetry_Int_Tables_number   1
_chemical_formula_structural   Nd3Mg2CdIrPb2
_chemical_formula_sum   'Nd3 Mg2 Cd1 Ir1 Pb2'
_cell_volume   236.31452066
_cell_formula_units_Z   1
loop_
 _symmetry_equiv_pos_site_id
 _symmetry_equiv_pos_as_xyz
  1  'x, y, z'
loop_
 _atom_site_type_symbol
 _atom_site_label
 _atom_site_symmetry_multiplicity
 _atom_site_fract_x
 _atom_site_fract_y
 _atom_site_fract_z
 _atom_site_occupancy
  Nd  Nd0  1  0.382874  0.385416  0.000000  1
  Nd  Nd1  1  0.617126  0.002541  0.000000  1
  Nd  Nd2  1  0.000000  0.609367  0.000000  1
  Mg  Mg3  1  0.779262  0.779072  0.500000  1
  Mg  Mg4  1  0.220738  0.999810  0.500000  1
  Cd  Cd5  1  0.000000  0.228206  0.500000  1
  Ir  Ir6  1  0.000000  0.987072  0.000000  1
  Pb  Pb7  1  0.661266  0.334891  0.500000  1
  Pb  Pb8  1  0.338734  0.673626  0.500000  1
