# generated using pymatgen
data_LiPr4Co17(P6Ru)2
_symmetry_space_group_name_H-M   'P 1'
_cell_length_a   3.72790100
_cell_length_b   10.48913852
_cell_length_c   11.92485474
_cell_angle_alpha   89.93823540
_cell_angle_beta   90.00000000
_cell_angle_gamma   90.00000000
_symmetry_Int_Tables_number   1
_chemical_formula_structural   LiPr4Co17(P6Ru)2
_chemical_formula_sum   'Li1 Pr4 Co17 P12 Ru2'
_cell_volume   466.29100339
_cell_formula_units_Z   1
loop_
 _symmetry_equiv_pos_site_id
 _symmetry_equiv_pos_as_xyz
  1  'x, y, z'
loop_
 _atom_site_type_symbol
 _atom_site_label
 _atom_site_symmetry_multiplicity
 _atom_site_fract_x
 _atom_site_fract_y
 _atom_site_fract_z
 _atom_site_occupancy
  Li  Li0  1  0.750000  0.298557  0.008535  1
  Pr  Pr1  1  0.250000  0.583138  0.700702  1
  Pr  Pr2  1  0.250000  0.917799  0.202170  1
  Pr  Pr3  1  0.750000  0.414296  0.297792  1
  Pr  Pr4  1  0.750000  0.084828  0.797059  1
  Co  Co5  1  0.750000  0.213004  0.508846  1
  Co  Co6  1  0.250000  0.405951  0.488811  1
  Co  Co7  1  0.250000  0.089449  0.990710  1
  Co  Co8  1  0.750000  0.593607  0.507359  1
  Co  Co9  1  0.750000  0.902895  0.008409  1
  Co  Co10  1  0.250000  0.218869  0.177925  1
  Co  Co11  1  0.250000  0.280682  0.671536  1
  Co  Co12  1  0.750000  0.777515  0.824725  1
  Co  Co13  1  0.750000  0.721050  0.324857  1
  Co  Co14  1  0.250000  0.885591  0.701038  1
  Co  Co15  1  0.250000  0.615500  0.200856  1
  Co  Co16  1  0.750000  0.115005  0.304033  1
  Co  Co17  1  0.750000  0.383412  0.800704  1
  Co  Co18  1  0.250000  0.465436  0.934207  1
  Co  Co19  1  0.250000  0.033637  0.434532  1
  Co  Co20  1  0.750000  0.533872  0.068012  1
  Co  Co21  1  0.750000  0.968190  0.568266  1
  P  P22  1  0.250000  0.419035  0.112469  1
  P  P23  1  0.250000  0.083352  0.609612  1
  P  P24  1  0.750000  0.577453  0.889295  1
  P  P25  1  0.750000  0.920543  0.390560  1
  P  P26  1  0.250000  0.277735  0.860921  1
  P  P27  1  0.250000  0.223040  0.368589  1
  P  P28  1  0.750000  0.724430  0.133770  1
  P  P29  1  0.750000  0.777486  0.634009  1
  P  P30  1  0.250000  0.599704  0.392643  1
  P  P31  1  0.250000  0.899222  0.893555  1
  P  P32  1  0.750000  0.393835  0.604388  1
  P  P33  1  0.750000  0.105997  0.107059  1
  Ru  Ru34  1  0.250000  0.708460  0.990741  1
  Ru  Ru35  1  0.250000  0.787427  0.491302  1
