# generated using pymatgen
data_Tm5B4Rh13Au2
_symmetry_space_group_name_H-M   'P 1'
_cell_length_a   4.17624300
_cell_length_b   4.17624300
_cell_length_c   20.80089200
_cell_angle_alpha   90.00000000
_cell_angle_beta   90.00000000
_cell_angle_gamma   90.00000000
_symmetry_Int_Tables_number   1
_chemical_formula_structural   Tm5B4Rh13Au2
_chemical_formula_sum   'Tm5 B4 Rh13 Au2'
_cell_volume   362.78847375
_cell_formula_units_Z   1
loop_
 _symmetry_equiv_pos_site_id
 _symmetry_equiv_pos_as_xyz
  1  'x, y, z'
loop_
 _atom_site_type_symbol
 _atom_site_label
 _atom_site_symmetry_multiplicity
 _atom_site_fract_x
 _atom_site_fract_y
 _atom_site_fract_z
 _atom_site_occupancy
  Tm  Tm0  1  0.000000  0.000000  0.894594  1
  Tm  Tm1  1  0.000000  0.000000  0.105406  1
  Tm  Tm2  1  0.000000  0.000000  0.300450  1
  Tm  Tm3  1  0.000000  0.000000  0.500000  1
  Tm  Tm4  1  0.000000  0.000000  0.699550  1
  B  B5  1  0.500000  0.500000  0.194409  1
  B  B6  1  0.500000  0.500000  0.398858  1
  B  B7  1  0.500000  0.500000  0.601142  1
  B  B8  1  0.500000  0.500000  0.805591  1
  Rh  Rh9  1  0.500000  0.500000  0.903416  1
  Rh  Rh10  1  0.500000  0.500000  0.096584  1
  Rh  Rh11  1  0.500000  0.500000  0.298917  1
  Rh  Rh12  1  0.500000  0.500000  0.500000  1
  Rh  Rh13  1  0.500000  0.500000  0.701083  1
  Rh  Rh14  1  0.500000  0.000000  0.201071  1
  Rh  Rh15  1  0.500000  0.000000  0.400088  1
  Rh  Rh16  1  0.500000  0.000000  0.599912  1
  Rh  Rh17  1  0.500000  0.000000  0.798929  1
  Rh  Rh18  1  0.000000  0.500000  0.201071  1
  Rh  Rh19  1  0.000000  0.500000  0.400088  1
  Rh  Rh20  1  0.000000  0.500000  0.599912  1
  Rh  Rh21  1  0.000000  0.500000  0.798929  1
  Au  Au22  1  0.500000  0.000000  0.000000  1
  Au  Au23  1  0.000000  0.500000  0.000000  1
