# generated using pymatgen
data_V6Si6Tc5Os7
_symmetry_space_group_name_H-M   'P 1'
_cell_length_a   4.23987900
_cell_length_b   5.97620020
_cell_length_c   12.64598543
_cell_angle_alpha   89.97033096
_cell_angle_beta   90.00124167
_cell_angle_gamma   89.99486318
_symmetry_Int_Tables_number   1
_chemical_formula_structural   V6Si6Tc5Os7
_chemical_formula_sum   'V6 Si6 Tc5 Os7'
_cell_volume   320.42856003
_cell_formula_units_Z   1
loop_
 _symmetry_equiv_pos_site_id
 _symmetry_equiv_pos_as_xyz
  1  'x, y, z'
loop_
 _atom_site_type_symbol
 _atom_site_label
 _atom_site_symmetry_multiplicity
 _atom_site_fract_x
 _atom_site_fract_y
 _atom_site_fract_z
 _atom_site_occupancy
  V  V0  1  0.999990  0.500194  0.004145  1
  V  V1  1  0.499831  0.001561  0.165022  1
  V  V2  1  0.999826  0.495465  0.327767  1
  V  V3  1  0.499984  0.004675  0.495528  1
  V  V4  1  0.000174  0.499988  0.667095  1
  V  V5  1  0.500271  0.999753  0.840619  1
  Si  Si6  1  0.000009  0.999225  0.001277  1
  Si  Si7  1  0.499817  0.499843  0.166161  1
  Si  Si8  1  0.999801  0.999320  0.332243  1
  Si  Si9  1  0.499997  0.501140  0.500144  1
  Si  Si10  1  0.000190  0.999105  0.666582  1
  Si  Si11  1  0.500189  0.500966  0.833548  1
  Tc  Tc12  1  0.500000  0.250329  0.997170  1
  Tc  Tc13  1  0.500000  0.750150  0.997819  1
  Tc  Tc14  1  0.999848  0.249803  0.167152  1
  Tc  Tc15  1  0.999861  0.748732  0.168108  1
  Tc  Tc16  1  0.499854  0.249511  0.336414  1
  Os  Os17  1  0.499851  0.749177  0.336402  1
  Os  Os18  1  0.999987  0.249901  0.502500  1
  Os  Os19  1  0.999996  0.750779  0.501309  1
  Os  Os20  1  0.500126  0.249711  0.666626  1
  Os  Os21  1  0.500126  0.750558  0.665641  1
  Os  Os22  1  0.000130  0.249660  0.830448  1
  Os  Os23  1  0.000145  0.750458  0.830281  1
