# generated using pymatgen
data_La4CuSn12Pd7
_symmetry_space_group_name_H-M   'P 1'
_cell_length_a   6.22853600
_cell_length_b   6.39121248
_cell_length_c   14.15538600
_cell_angle_alpha   89.97784804
_cell_angle_beta   90.00000000
_cell_angle_gamma   90.00000000
_symmetry_Int_Tables_number   1
_chemical_formula_structural   La4CuSn12Pd7
_chemical_formula_sum   'La4 Cu1 Sn12 Pd7'
_cell_volume   563.49610578
_cell_formula_units_Z   1
loop_
 _symmetry_equiv_pos_site_id
 _symmetry_equiv_pos_as_xyz
  1  'x, y, z'
loop_
 _atom_site_type_symbol
 _atom_site_label
 _atom_site_symmetry_multiplicity
 _atom_site_fract_x
 _atom_site_fract_y
 _atom_site_fract_z
 _atom_site_occupancy
  La  La0  1  0.250000  0.515788  0.799948  1
  La  La1  1  0.750000  0.486063  0.200217  1
  La  La2  1  0.750000  0.986672  0.800091  1
  La  La3  1  0.250000  0.013618  0.200834  1
  Cu  Cu4  1  0.250000  0.013320  0.883058  1
  Sn  Sn5  1  0.250000  0.018400  0.697231  1
  Sn  Sn6  1  0.750000  0.983132  0.305215  1
  Sn  Sn7  1  0.750000  0.480571  0.694027  1
  Sn  Sn8  1  0.250000  0.517031  0.305620  1
  Sn  Sn9  1  0.250000  0.894591  0.440251  1
  Sn  Sn10  1  0.750000  0.106570  0.560344  1
  Sn  Sn11  1  0.750000  0.606536  0.440358  1
  Sn  Sn12  1  0.250000  0.397543  0.560405  1
  Sn  Sn13  1  0.498444  0.750759  0.994562  1
  Sn  Sn14  1  0.002233  0.246164  0.002644  1
  Sn  Sn15  1  0.497767  0.246164  0.002644  1
  Sn  Sn16  1  0.001556  0.750759  0.994562  1
  Pd  Pd17  1  0.750000  0.983785  0.115262  1
  Pd  Pd18  1  0.750000  0.482416  0.883482  1
  Pd  Pd19  1  0.250000  0.515183  0.115320  1
  Pd  Pd20  1  0.500685  0.752322  0.594499  1
  Pd  Pd21  1  0.999718  0.250148  0.407465  1
  Pd  Pd22  1  0.500282  0.250148  0.407465  1
  Pd  Pd23  1  0.999315  0.752322  0.594499  1
