# generated using pymatgen
data_NaNb(VS3)2
_symmetry_space_group_name_H-M   'P 1'
_cell_length_a   5.65709000
_cell_length_b   5.65708944
_cell_length_c   15.02226500
_cell_angle_alpha   90.00000000
_cell_angle_beta   90.00000000
_cell_angle_gamma   119.99999317
_symmetry_Int_Tables_number   1
_chemical_formula_structural   NaNb(VS3)2
_chemical_formula_sum   'Na2 Nb2 V4 S12'
_cell_volume   416.34390698
_cell_formula_units_Z   2
loop_
 _symmetry_equiv_pos_site_id
 _symmetry_equiv_pos_as_xyz
  1  'x, y, z'
loop_
 _atom_site_type_symbol
 _atom_site_label
 _atom_site_symmetry_multiplicity
 _atom_site_fract_x
 _atom_site_fract_y
 _atom_site_fract_z
 _atom_site_occupancy
  Na  Na0  1  0.333333  0.666667  0.246203  1
  Na  Na1  1  0.666667  0.333333  0.750998  1
  Nb  Nb2  1  0.000000  0.000000  0.500429  1
  Nb  Nb3  1  0.666667  0.333333  0.500265  1
  V  V4  1  0.333333  0.666667  0.999233  1
  V  V5  1  0.000000  0.000000  0.999781  1
  V  V6  1  0.666667  0.333333  0.000487  1
  V  V7  1  0.333333  0.666667  0.500909  1
  S  S8  1  0.655206  0.666681  0.397332  1
  S  S9  1  0.654225  0.667956  0.603606  1
  S  S10  1  0.000339  0.666932  0.902334  1
  S  S11  1  0.666593  0.999661  0.902334  1
  S  S12  1  0.667045  0.000031  0.097293  1
  S  S13  1  0.333319  0.988525  0.397332  1
  S  S14  1  0.013731  0.345775  0.603606  1
  S  S15  1  0.332044  0.986269  0.603606  1
  S  S16  1  0.999969  0.667014  0.097293  1
  S  S17  1  0.333068  0.333407  0.902334  1
  S  S18  1  0.011475  0.344794  0.397332  1
  S  S19  1  0.332986  0.332955  0.097293  1
