# generated using pymatgen
data_Pr3Nd7(CoSn2)2
_symmetry_space_group_name_H-M   'P 1'
_cell_length_a   8.13435747
_cell_length_b   9.16942020
_cell_length_c   12.65912653
_cell_angle_alpha   89.97843052
_cell_angle_beta   89.90792920
_cell_angle_gamma   90.00178598
_symmetry_Int_Tables_number   1
_chemical_formula_structural   Pr3Nd7(CoSn2)2
_chemical_formula_sum   'Pr6 Nd14 Co4 Sn8'
_cell_volume   944.20930889
_cell_formula_units_Z   2
loop_
 _symmetry_equiv_pos_site_id
 _symmetry_equiv_pos_as_xyz
  1  'x, y, z'
loop_
 _atom_site_type_symbol
 _atom_site_label
 _atom_site_symmetry_multiplicity
 _atom_site_fract_x
 _atom_site_fract_y
 _atom_site_fract_z
 _atom_site_occupancy
  Pr  Pr0  1  0.177288  0.967784  0.930814  1
  Pr  Pr1  1  0.322669  0.532086  0.428824  1
  Pr  Pr2  1  0.822712  0.032216  0.069186  1
  Pr  Pr3  1  0.677331  0.467914  0.571176  1
  Pr  Pr4  1  0.821844  0.468966  0.068911  1
  Pr  Pr5  1  0.178156  0.531034  0.931089  1
  Nd  Nd6  1  0.843665  0.749875  0.789808  1
  Nd  Nd7  1  0.156335  0.250125  0.210192  1
  Nd  Nd8  1  0.344807  0.249410  0.708288  1
  Nd  Nd9  1  0.655193  0.750590  0.291712  1
  Nd  Nd10  1  0.375656  0.751281  0.694029  1
  Nd  Nd11  1  0.624344  0.248719  0.305971  1
  Nd  Nd12  1  0.874470  0.250330  0.802471  1
  Nd  Nd13  1  0.125530  0.749670  0.197529  1
  Nd  Nd14  1  0.949172  0.749754  0.502475  1
  Nd  Nd15  1  0.050828  0.250246  0.497525  1
  Nd  Nd16  1  0.448055  0.249296  0.998112  1
  Nd  Nd17  1  0.551945  0.750704  0.001888  1
  Nd  Nd18  1  0.677524  0.031515  0.570951  1
  Nd  Nd19  1  0.322476  0.968485  0.429049  1
  Co  Co20  1  0.579673  0.751032  0.508857  1
  Co  Co21  1  0.420327  0.248968  0.491143  1
  Co  Co22  1  0.080554  0.249627  0.989681  1
  Co  Co23  1  0.919446  0.750373  0.010319  1
  Sn  Sn24  1  0.568070  0.495277  0.828956  1
  Sn  Sn25  1  0.431930  0.504723  0.171044  1
  Sn  Sn26  1  0.071214  0.505378  0.670496  1
  Sn  Sn27  1  0.430783  0.994925  0.171736  1
  Sn  Sn28  1  0.928786  0.494622  0.329504  1
  Sn  Sn29  1  0.569217  0.005075  0.828264  1
  Sn  Sn30  1  0.930243  0.005069  0.329935  1
  Sn  Sn31  1  0.069757  0.994931  0.670065  1
