# generated using pymatgen
data_Ho4TcRu3F28
_symmetry_space_group_name_H-M   'P 1'
_cell_length_a   5.56865814
_cell_length_b   8.94468774
_cell_length_c   11.99158300
_cell_angle_alpha   63.10245789
_cell_angle_beta   89.98704618
_cell_angle_gamma   89.99809838
_symmetry_Int_Tables_number   1
_chemical_formula_structural   Ho4TcRu3F28
_chemical_formula_sum   'Ho4 Tc1 Ru3 F28'
_cell_volume   532.68192793
_cell_formula_units_Z   1
loop_
 _symmetry_equiv_pos_site_id
 _symmetry_equiv_pos_as_xyz
  1  'x, y, z'
loop_
 _atom_site_type_symbol
 _atom_site_label
 _atom_site_symmetry_multiplicity
 _atom_site_fract_x
 _atom_site_fract_y
 _atom_site_fract_z
 _atom_site_occupancy
  Ho  Ho0  1  0.257936  0.813350  0.270069  1
  Ho  Ho1  1  0.741738  0.185386  0.734244  1
  Ho  Ho2  1  0.757819  0.191578  0.230704  1
  Ho  Ho3  1  0.241274  0.812323  0.765740  1
  Tc  Tc4  1  0.756264  0.727510  0.044016  1
  Ru  Ru5  1  0.243837  0.273293  0.954801  1
  Ru  Ru6  1  0.255887  0.272516  0.456380  1
  Ru  Ru7  1  0.744471  0.726595  0.544618  1
  F  F8  1  0.949000  0.706941  0.417559  1
  F  F9  1  0.049755  0.292494  0.582121  1
  F  F10  1  0.447696  0.293886  0.081253  1
  F  F11  1  0.546847  0.705475  0.921041  1
  F  F12  1  0.476275  0.733734  0.142437  1
  F  F13  1  0.527756  0.270974  0.857478  1
  F  F14  1  0.972213  0.266363  0.360213  1
  F  F15  1  0.030015  0.731602  0.640525  1
  F  F16  1  0.963271  0.749792  0.169754  1
  F  F17  1  0.042960  0.252885  0.826189  1
  F  F18  1  0.458711  0.249744  0.329179  1
  F  F19  1  0.543050  0.748524  0.673002  1
  F  F20  1  0.768986  0.482192  0.141868  1
  F  F21  1  0.232067  0.512926  0.859883  1
  F  F22  1  0.267136  0.511794  0.360506  1
  F  F23  1  0.733374  0.487772  0.639396  1
  F  F24  1  0.951671  0.279887  0.046684  1
  F  F25  1  0.046371  0.718211  0.952077  1
  F  F26  1  0.451548  0.718419  0.452993  1
  F  F27  1  0.546607  0.280345  0.549035  1
  F  F28  1  0.744596  0.964091  0.452131  1
  F  F29  1  0.256050  0.034140  0.549032  1
  F  F30  1  0.244320  0.035505  0.048139  1
  F  F31  1  0.756583  0.971436  0.947039  1
  F  F32  1  0.572859  0.975308  0.233995  1
  F  F33  1  0.423985  0.024214  0.766719  1
  F  F34  1  0.072751  0.026562  0.266563  1
  F  F35  1  0.924321  0.972229  0.732618  1
