# generated using pymatgen
data_Pr4V3RuF28
_symmetry_space_group_name_H-M   'P 1'
_cell_length_a   5.67282339
_cell_length_b   9.19130855
_cell_length_c   12.23729000
_cell_angle_alpha   62.35126224
_cell_angle_beta   89.86227563
_cell_angle_gamma   89.87276735
_symmetry_Int_Tables_number   1
_chemical_formula_structural   Pr4V3RuF28
_chemical_formula_sum   'Pr4 V3 Ru1 F28'
_cell_volume   565.19776580
_cell_formula_units_Z   1
loop_
 _symmetry_equiv_pos_site_id
 _symmetry_equiv_pos_as_xyz
  1  'x, y, z'
loop_
 _atom_site_type_symbol
 _atom_site_label
 _atom_site_symmetry_multiplicity
 _atom_site_fract_x
 _atom_site_fract_y
 _atom_site_fract_z
 _atom_site_occupancy
  Pr  Pr0  1  0.762104  0.807991  0.767633  1
  Pr  Pr1  1  0.257969  0.195370  0.733822  1
  Pr  Pr2  1  0.240159  0.189303  0.234787  1
  Pr  Pr3  1  0.737770  0.809253  0.264283  1
  V  V4  1  0.752803  0.275876  0.957627  1
  V  V5  1  0.257857  0.724818  0.543010  1
  V  V6  1  0.245404  0.725276  0.042972  1
  Ru  Ru7  1  0.744940  0.272981  0.457415  1
  F  F8  1  0.445016  0.709528  0.924314  1
  F  F9  1  0.930391  0.293776  0.584879  1
  F  F10  1  0.552232  0.290478  0.076029  1
  F  F11  1  0.065963  0.708205  0.428311  1
  F  F12  1  0.451472  0.283465  0.539356  1
  F  F13  1  0.972060  0.712960  0.956233  1
  F  F14  1  0.531606  0.713487  0.456123  1
  F  F15  1  0.024713  0.288082  0.045047  1
  F  F16  1  0.757668  0.501807  0.866041  1
  F  F17  1  0.267147  0.492607  0.636941  1
  F  F18  1  0.236508  0.500345  0.134994  1
  F  F19  1  0.742132  0.508407  0.362952  1
  F  F20  1  0.760895  0.050600  0.046987  1
  F  F21  1  0.260498  0.956033  0.449130  1
  F  F22  1  0.238906  0.950042  0.952963  1
  F  F23  1  0.737746  0.038751  0.547803  1
  F  F24  1  0.992896  0.730403  0.636637  1
  F  F25  1  0.486257  0.266850  0.867725  1
  F  F26  1  0.034166  0.269972  0.370324  1
  F  F27  1  0.513137  0.734186  0.132520  1
  F  F28  1  0.046650  0.744866  0.162360  1
  F  F29  1  0.560918  0.257000  0.326783  1
  F  F30  1  0.951725  0.257814  0.838646  1
  F  F31  1  0.449963  0.741594  0.660057  1
  F  F32  1  0.402727  0.967292  0.225336  1
  F  F33  1  0.905885  0.028549  0.272342  1
  F  F34  1  0.590389  0.031449  0.769497  1
  F  F35  1  0.091326  0.970585  0.728121  1
