# generated using pymatgen
data_Pr8Dy11Sc(Si3Ge)4
_symmetry_space_group_name_H-M   'P 1'
_cell_length_a   7.52131480
_cell_length_b   7.83446098
_cell_length_c   14.89457805
_cell_angle_alpha   90.03055734
_cell_angle_beta   90.56471247
_cell_angle_gamma   90.01160665
_symmetry_Int_Tables_number   1
_chemical_formula_structural   Pr8Dy11Sc(Si3Ge)4
_chemical_formula_sum   'Pr8 Dy11 Sc1 Si12 Ge4'
_cell_volume   877.62690186
_cell_formula_units_Z   1
loop_
 _symmetry_equiv_pos_site_id
 _symmetry_equiv_pos_as_xyz
  1  'x, y, z'
loop_
 _atom_site_type_symbol
 _atom_site_label
 _atom_site_symmetry_multiplicity
 _atom_site_fract_x
 _atom_site_fract_y
 _atom_site_fract_z
 _atom_site_occupancy
  Pr  Pr0  1  0.017516  0.179241  0.402652  1
  Pr  Pr1  1  0.519233  0.320484  0.401830  1
  Pr  Pr2  1  0.486252  0.679027  0.898760  1
  Pr  Pr3  1  0.483191  0.679277  0.600502  1
  Pr  Pr4  1  0.982309  0.820107  0.599563  1
  Pr  Pr5  1  0.985888  0.820348  0.899655  1
  Pr  Pr6  1  0.515370  0.319512  0.098753  1
  Pr  Pr7  1  0.013278  0.179646  0.097713  1
  Dy  Dy8  1  0.326646  0.176747  0.625098  1
  Dy  Dy9  1  0.672815  0.821735  0.377135  1
  Dy  Dy10  1  0.661420  0.990983  0.750661  1
  Dy  Dy11  1  0.171466  0.679959  0.377753  1
  Dy  Dy12  1  0.832015  0.324441  0.875039  1
  Dy  Dy13  1  0.827245  0.323146  0.624031  1
  Dy  Dy14  1  0.837266  0.490491  0.250985  1
  Dy  Dy15  1  0.337529  0.009811  0.250962  1
  Dy  Dy16  1  0.331884  0.175721  0.874114  1
  Dy  Dy17  1  0.167170  0.675883  0.122936  1
  Dy  Dy18  1  0.668090  0.825437  0.123511  1
  Sc  Sc19  1  0.162339  0.508599  0.750395  1
  Si  Si20  1  0.277860  0.871218  0.749374  1
  Si  Si21  1  0.462344  0.613400  0.250604  1
  Si  Si22  1  0.034316  0.110794  0.749068  1
  Si  Si23  1  0.530129  0.391697  0.749188  1
  Si  Si24  1  0.964544  0.888800  0.250555  1
  Si  Si25  1  0.722843  0.120347  0.250530  1
  Si  Si26  1  0.649474  0.032952  0.539591  1
  Si  Si27  1  0.351940  0.967494  0.462188  1
  Si  Si28  1  0.845443  0.533634  0.460901  1
  Si  Si29  1  0.784685  0.621203  0.749225  1
  Si  Si30  1  0.221723  0.380783  0.250599  1
  Si  Si31  1  0.661608  0.035174  0.959232  1
  Ge  Ge32  1  0.156270  0.466315  0.541658  1
  Ge  Ge33  1  0.833446  0.536779  0.039631  1
  Ge  Ge34  1  0.338689  0.964236  0.038455  1
  Ge  Ge35  1  0.165769  0.464577  0.957156  1
