# generated using pymatgen
data_Li8Nd8SnBiSb6
_symmetry_space_group_name_H-M   'P 1'
_cell_length_a   9.59585900
_cell_length_b   9.59504452
_cell_length_c   7.43562941
_cell_angle_alpha   90.03302666
_cell_angle_beta   90.00000000
_cell_angle_gamma   120.00280458
_symmetry_Int_Tables_number   1
_chemical_formula_structural   Li8Nd8SnBiSb6
_chemical_formula_sum   'Li8 Nd8 Sn1 Bi1 Sb6'
_cell_volume   592.88006783
_cell_formula_units_Z   1
loop_
 _symmetry_equiv_pos_site_id
 _symmetry_equiv_pos_as_xyz
  1  'x, y, z'
loop_
 _atom_site_type_symbol
 _atom_site_label
 _atom_site_symmetry_multiplicity
 _atom_site_fract_x
 _atom_site_fract_y
 _atom_site_fract_z
 _atom_site_occupancy
  Li  Li0  1  0.166825  0.333652  0.267429  1
  Li  Li1  1  0.167245  0.833259  0.267897  1
  Li  Li2  1  0.666014  0.833259  0.267897  1
  Li  Li3  1  0.833083  0.666166  0.768295  1
  Li  Li4  1  0.830037  0.165367  0.769015  1
  Li  Li5  1  0.335330  0.165367  0.769015  1
  Li  Li6  1  0.334885  0.669771  0.693450  1
  Li  Li7  1  0.666467  0.332932  0.196644  1
  Nd  Nd8  1  0.508530  0.017061  0.496428  1
  Nd  Nd9  1  0.512448  0.493505  0.494809  1
  Nd  Nd10  1  0.981056  0.493505  0.494809  1
  Nd  Nd11  1  0.493331  0.986662  0.994663  1
  Nd  Nd12  1  0.497732  0.509009  0.996657  1
  Nd  Nd13  1  0.011278  0.509009  0.996657  1
  Nd  Nd14  1  0.997811  0.995621  0.499832  1
  Nd  Nd15  1  0.998058  0.996116  0.002554  1
  Sn  Sn16  1  0.666760  0.333519  0.760310  1
  Bi  Bi17  1  0.166603  0.333205  0.740712  1
  Sb  Sb18  1  0.166247  0.833226  0.741071  1
  Sb  Sb19  1  0.666979  0.833226  0.741071  1
  Sb  Sb20  1  0.833474  0.666948  0.240965  1
  Sb  Sb21  1  0.833483  0.166492  0.240861  1
  Sb  Sb22  1  0.333009  0.166492  0.240861  1
  Sb  Sb23  1  0.333314  0.666630  0.260070  1
