# generated using pymatgen
data_HfZrZnB2Ru5
_symmetry_space_group_name_H-M   'P 1'
_cell_length_a   9.35857065
_cell_length_b   9.35857065
_cell_length_c   3.09088600
_cell_angle_alpha   90.00000000
_cell_angle_beta   90.00000000
_cell_angle_gamma   90.20278223
_symmetry_Int_Tables_number   1
_chemical_formula_structural   HfZrZnB2Ru5
_chemical_formula_sum   'Hf2 Zr2 Zn2 B4 Ru10'
_cell_volume   270.70689298
_cell_formula_units_Z   2
loop_
 _symmetry_equiv_pos_site_id
 _symmetry_equiv_pos_as_xyz
  1  'x, y, z'
loop_
 _atom_site_type_symbol
 _atom_site_label
 _atom_site_symmetry_multiplicity
 _atom_site_fract_x
 _atom_site_fract_y
 _atom_site_fract_z
 _atom_site_occupancy
  Hf  Hf0  1  0.674907  0.174907  0.000000  1
  Hf  Hf1  1  0.325093  0.825093  0.000000  1
  Zr  Zr2  1  0.175842  0.324158  0.000000  1
  Zr  Zr3  1  0.824158  0.675842  0.000000  1
  Zn  Zn4  1  0.000000  0.000000  0.000000  1
  Zn  Zn5  1  0.500000  0.500000  0.000000  1
  B  B6  1  0.126067  0.626067  0.000000  1
  B  B7  1  0.873933  0.373933  0.000000  1
  B  B8  1  0.624880  0.875120  0.000000  1
  B  B9  1  0.375120  0.124880  0.000000  1
  Ru  Ru10  1  0.215852  0.070286  0.500000  1
  Ru  Ru11  1  0.784148  0.929714  0.500000  1
  Ru  Ru12  1  0.073815  0.785376  0.500000  1
  Ru  Ru13  1  0.714624  0.426185  0.500000  1
  Ru  Ru14  1  0.926185  0.214624  0.500000  1
  Ru  Ru15  1  0.285376  0.573815  0.500000  1
  Ru  Ru16  1  0.570286  0.715852  0.500000  1
  Ru  Ru17  1  0.429714  0.284148  0.500000  1
  Ru  Ru18  1  0.500000  0.000000  0.500000  1
  Ru  Ru19  1  0.000000  0.500000  0.500000  1
