# generated using pymatgen
data_Lu4Si2B8Ir
_symmetry_space_group_name_H-M   'P 1'
_cell_length_a   7.01143400
_cell_length_b   7.01143400
_cell_length_c   7.37869200
_cell_angle_alpha   90.00000000
_cell_angle_beta   90.00000000
_cell_angle_gamma   90.00000000
_symmetry_Int_Tables_number   1
_chemical_formula_structural   Lu4Si2B8Ir
_chemical_formula_sum   'Lu8 Si4 B16 Ir2'
_cell_volume   362.73802416
_cell_formula_units_Z   2
loop_
 _symmetry_equiv_pos_site_id
 _symmetry_equiv_pos_as_xyz
  1  'x, y, z'
loop_
 _atom_site_type_symbol
 _atom_site_label
 _atom_site_symmetry_multiplicity
 _atom_site_fract_x
 _atom_site_fract_y
 _atom_site_fract_z
 _atom_site_occupancy
  Lu  Lu0  1  0.677444  0.177444  0.236869  1
  Lu  Lu1  1  0.322556  0.822556  0.763131  1
  Lu  Lu2  1  0.322556  0.822556  0.236869  1
  Lu  Lu3  1  0.822556  0.677444  0.236869  1
  Lu  Lu4  1  0.822556  0.677444  0.763131  1
  Lu  Lu5  1  0.677444  0.177444  0.763131  1
  Lu  Lu6  1  0.177444  0.322556  0.763131  1
  Lu  Lu7  1  0.177444  0.322556  0.236869  1
  Si  Si8  1  0.121742  0.621742  0.500000  1
  Si  Si9  1  0.878258  0.378258  0.500000  1
  Si  Si10  1  0.378258  0.121742  0.500000  1
  Si  Si11  1  0.621742  0.878258  0.500000  1
  B  B12  1  0.172612  0.041598  0.000000  1
  B  B13  1  0.827388  0.958402  0.000000  1
  B  B14  1  0.958402  0.172612  0.000000  1
  B  B15  1  0.327388  0.541598  0.000000  1
  B  B16  1  0.041598  0.827388  0.000000  1
  B  B17  1  0.672612  0.458402  0.000000  1
  B  B18  1  0.541598  0.672612  0.000000  1
  B  B19  1  0.458402  0.327388  0.000000  1
  B  B20  1  0.089226  0.589226  0.000000  1
  B  B21  1  0.910774  0.410774  0.000000  1
  B  B22  1  0.410774  0.089226  0.000000  1
  B  B23  1  0.589226  0.910774  0.000000  1
  B  B24  1  0.000000  0.000000  0.179066  1
  B  B25  1  0.000000  0.000000  0.820934  1
  B  B26  1  0.500000  0.500000  0.820934  1
  B  B27  1  0.500000  0.500000  0.179066  1
  Ir  Ir28  1  0.000000  0.000000  0.500000  1
  Ir  Ir29  1  0.500000  0.500000  0.500000  1
