# generated using pymatgen
data_Li2SnPd5
_symmetry_space_group_name_H-M   'P 1'
_cell_length_a   4.15632000
_cell_length_b   5.49581600
_cell_length_c   10.81845900
_cell_angle_alpha   90.00000000
_cell_angle_beta   90.00000000
_cell_angle_gamma   90.00000000
_symmetry_Int_Tables_number   1
_chemical_formula_structural   Li2SnPd5
_chemical_formula_sum   'Li4 Sn2 Pd10'
_cell_volume   247.11924284
_cell_formula_units_Z   2
loop_
 _symmetry_equiv_pos_site_id
 _symmetry_equiv_pos_as_xyz
  1  'x, y, z'
loop_
 _atom_site_type_symbol
 _atom_site_label
 _atom_site_symmetry_multiplicity
 _atom_site_fract_x
 _atom_site_fract_y
 _atom_site_fract_z
 _atom_site_occupancy
  Li  Li0  1  0.500000  0.178449  0.137896  1
  Li  Li1  1  0.500000  0.821551  0.862104  1
  Li  Li2  1  0.500000  0.321551  0.637896  1
  Li  Li3  1  0.500000  0.678449  0.362104  1
  Sn  Sn4  1  0.000000  0.000000  0.500000  1
  Sn  Sn5  1  0.000000  0.500000  0.000000  1
  Pd  Pd6  1  0.500000  0.200541  0.382512  1
  Pd  Pd7  1  0.500000  0.799459  0.617488  1
  Pd  Pd8  1  0.500000  0.299459  0.882512  1
  Pd  Pd9  1  0.500000  0.700541  0.117488  1
  Pd  Pd10  1  0.000000  0.418277  0.243769  1
  Pd  Pd11  1  0.000000  0.581723  0.756231  1
  Pd  Pd12  1  0.000000  0.081723  0.743769  1
  Pd  Pd13  1  0.000000  0.918277  0.256231  1
  Pd  Pd14  1  0.000000  0.000000  0.000000  1
  Pd  Pd15  1  0.000000  0.500000  0.500000  1
