# generated using pymatgen
data_Ba3RuN3
_symmetry_space_group_name_H-M   'P 1'
_cell_length_a   8.26821400
_cell_length_b   8.26803311
_cell_length_c   5.64798000
_cell_angle_alpha   90.00000000
_cell_angle_beta   90.00000000
_cell_angle_gamma   119.99630208
_symmetry_Int_Tables_number   1
_chemical_formula_structural   Ba3RuN3
_chemical_formula_sum   'Ba6 Ru2 N6'
_cell_volume   334.39046078
_cell_formula_units_Z   2
loop_
 _symmetry_equiv_pos_site_id
 _symmetry_equiv_pos_as_xyz
  1  'x, y, z'
loop_
 _atom_site_type_symbol
 _atom_site_label
 _atom_site_symmetry_multiplicity
 _atom_site_fract_x
 _atom_site_fract_y
 _atom_site_fract_z
 _atom_site_occupancy
  Ba  Ba0  1  0.905800  0.637937  0.250000  1
  Ba  Ba1  1  0.732127  0.094185  0.250000  1
  Ba  Ba2  1  0.362086  0.267855  0.250000  1
  Ba  Ba3  1  0.094200  0.362063  0.750000  1
  Ba  Ba4  1  0.267873  0.905815  0.750000  1
  Ba  Ba5  1  0.637914  0.732145  0.750000  1
  Ru  Ru6  1  0.666658  0.333334  0.750000  1
  Ru  Ru7  1  0.333342  0.666666  0.250000  1
  N  N8  1  0.881156  0.566703  0.750000  1
  N  N9  1  0.685530  0.118794  0.750000  1
  N  N10  1  0.433252  0.314471  0.750000  1
  N  N11  1  0.118844  0.433297  0.250000  1
  N  N12  1  0.314470  0.881206  0.250000  1
  N  N13  1  0.566748  0.685529  0.250000  1
