# generated using pymatgen
data_Y4LuZr3Pt4
_symmetry_space_group_name_H-M   'P 1'
_cell_length_a   4.72724900
_cell_length_b   7.13903727
_cell_length_c   8.35927101
_cell_angle_alpha   88.83022656
_cell_angle_beta   90.00000000
_cell_angle_gamma   90.00000000
_symmetry_Int_Tables_number   1
_chemical_formula_structural   Y4LuZr3Pt4
_chemical_formula_sum   'Y4 Lu1 Zr3 Pt4'
_cell_volume   282.04994150
_cell_formula_units_Z   1
loop_
 _symmetry_equiv_pos_site_id
 _symmetry_equiv_pos_as_xyz
  1  'x, y, z'
loop_
 _atom_site_type_symbol
 _atom_site_label
 _atom_site_symmetry_multiplicity
 _atom_site_fract_x
 _atom_site_fract_y
 _atom_site_fract_z
 _atom_site_occupancy
  Y  Y0  1  0.250000  0.016097  0.674777  1
  Y  Y1  1  0.250000  0.519504  0.826510  1
  Y  Y2  1  0.750000  0.979496  0.320604  1
  Y  Y3  1  0.750000  0.482033  0.179838  1
  Lu  Lu4  1  0.750000  0.353641  0.578615  1
  Zr  Zr5  1  0.250000  0.142132  0.076783  1
  Zr  Zr6  1  0.250000  0.647341  0.424017  1
  Zr  Zr7  1  0.750000  0.853201  0.920862  1
  Pt  Pt8  1  0.250000  0.268295  0.393374  1
  Pt  Pt9  1  0.250000  0.768588  0.094952  1
  Pt  Pt10  1  0.750000  0.740398  0.596909  1
  Pt  Pt11  1  0.750000  0.229273  0.912760  1
