# generated using pymatgen
data_Zr10Al2SiSb5
_symmetry_space_group_name_H-M   'P 1'
_cell_length_a   8.67062402
_cell_length_b   8.67062369
_cell_length_c   5.84383734
_cell_angle_alpha   89.94885732
_cell_angle_beta   89.94885502
_cell_angle_gamma   120.24396890
_symmetry_Int_Tables_number   1
_chemical_formula_structural   Zr10Al2SiSb5
_chemical_formula_sum   'Zr10 Al2 Si1 Sb5'
_cell_volume   379.53848684
_cell_formula_units_Z   1
loop_
 _symmetry_equiv_pos_site_id
 _symmetry_equiv_pos_as_xyz
  1  'x, y, z'
loop_
 _atom_site_type_symbol
 _atom_site_label
 _atom_site_symmetry_multiplicity
 _atom_site_fract_x
 _atom_site_fract_y
 _atom_site_fract_z
 _atom_site_occupancy
  Zr  Zr0  1  0.271501  0.271501  0.744054  1
  Zr  Zr1  1  0.738690  0.738690  0.256981  1
  Zr  Zr2  1  0.728299  0.992902  0.743636  1
  Zr  Zr3  1  0.001628  0.261703  0.256593  1
  Zr  Zr4  1  0.335909  0.666302  0.503089  1
  Zr  Zr5  1  0.666302  0.335909  0.503089  1
  Zr  Zr6  1  0.992902  0.728299  0.743636  1
  Zr  Zr7  1  0.335140  0.666288  0.997360  1
  Zr  Zr8  1  0.261703  0.001628  0.256593  1
  Zr  Zr9  1  0.666288  0.335140  0.997360  1
  Al  Al10  1  0.610788  0.610788  0.752784  1
  Al  Al11  1  0.999021  0.999021  0.990991  1
  Si  Si12  1  0.999456  0.999456  0.508061  1
  Sb  Sb13  1  0.387219  0.999314  0.752987  1
  Sb  Sb14  1  0.607292  0.999787  0.246802  1
  Sb  Sb15  1  0.398762  0.398762  0.246195  1
  Sb  Sb16  1  0.999314  0.387219  0.752987  1
  Sb  Sb17  1  0.999787  0.607292  0.246802  1
