# generated using pymatgen
data_Ca20IrAu3
_symmetry_space_group_name_H-M   'P 1'
_cell_length_a   6.89675682
_cell_length_b   7.82349983
_cell_length_c   16.00943500
_cell_angle_alpha   90.00000000
_cell_angle_beta   90.00000000
_cell_angle_gamma   89.94554425
_symmetry_Int_Tables_number   1
_chemical_formula_structural   Ca20IrAu3
_chemical_formula_sum   'Ca20 Ir1 Au3'
_cell_volume   863.81710585
_cell_formula_units_Z   1
loop_
 _symmetry_equiv_pos_site_id
 _symmetry_equiv_pos_as_xyz
  1  'x, y, z'
loop_
 _atom_site_type_symbol
 _atom_site_label
 _atom_site_symmetry_multiplicity
 _atom_site_fract_x
 _atom_site_fract_y
 _atom_site_fract_z
 _atom_site_occupancy
  Ca  Ca0  1  0.141197  0.090207  0.250000  1
  Ca  Ca1  1  0.847801  0.186775  0.557746  1
  Ca  Ca2  1  0.853726  0.897590  0.750000  1
  Ca  Ca3  1  0.832881  0.474381  0.143042  1
  Ca  Ca4  1  0.167313  0.540438  0.636950  1
  Ca  Ca5  1  0.353347  0.311835  0.061894  1
  Ca  Ca6  1  0.337271  0.603299  0.250000  1
  Ca  Ca7  1  0.832881  0.474381  0.356958  1
  Ca  Ca8  1  0.331720  0.039868  0.862811  1
  Ca  Ca9  1  0.148251  0.813309  0.066460  1
  Ca  Ca10  1  0.651228  0.684459  0.558904  1
  Ca  Ca11  1  0.678578  0.952803  0.357162  1
  Ca  Ca12  1  0.651228  0.684459  0.941096  1
  Ca  Ca13  1  0.331720  0.039868  0.637189  1
  Ca  Ca14  1  0.148251  0.813309  0.433540  1
  Ca  Ca15  1  0.644252  0.395579  0.750000  1
  Ca  Ca16  1  0.167313  0.540438  0.863050  1
  Ca  Ca17  1  0.353347  0.311835  0.438106  1
  Ca  Ca18  1  0.678578  0.952803  0.142838  1
  Ca  Ca19  1  0.847801  0.186775  0.942254  1
  Ir  Ir20  1  0.961764  0.764546  0.250000  1
  Au  Au21  1  0.046574  0.240769  0.750000  1
  Au  Au22  1  0.453705  0.740076  0.750000  1
  Au  Au23  1  0.539274  0.260198  0.250000  1
