# generated using pymatgen
data_Yb3Ho3(Ni7B2)2
_symmetry_space_group_name_H-M   'P 1'
_cell_length_a   5.02865700
_cell_length_b   5.00962176
_cell_length_c   14.16146819
_cell_angle_alpha   90.01619348
_cell_angle_beta   90.00000000
_cell_angle_gamma   120.12576745
_symmetry_Int_Tables_number   1
_chemical_formula_structural   Yb3Ho3(Ni7B2)2
_chemical_formula_sum   'Yb3 Ho3 Ni14 B4'
_cell_volume   308.56314708
_cell_formula_units_Z   1
loop_
 _symmetry_equiv_pos_site_id
 _symmetry_equiv_pos_as_xyz
  1  'x, y, z'
loop_
 _atom_site_type_symbol
 _atom_site_label
 _atom_site_symmetry_multiplicity
 _atom_site_fract_x
 _atom_site_fract_y
 _atom_site_fract_z
 _atom_site_occupancy
  Yb  Yb0  1  0.333279  0.666560  0.248992  1
  Yb  Yb1  1  0.666704  0.333406  0.754118  1
  Yb  Yb2  1  0.666617  0.333232  0.964514  1
  Ho  Ho3  1  0.333381  0.666763  0.032047  1
  Ho  Ho4  1  0.333368  0.666736  0.464749  1
  Ho  Ho5  1  0.666670  0.333339  0.536525  1
  Ni  Ni6  1  0.000109  0.000219  0.999380  1
  Ni  Ni7  1  0.834542  0.669083  0.149691  1
  Ni  Ni8  1  0.330780  0.165125  0.149805  1
  Ni  Ni9  1  0.834345  0.165125  0.149805  1
  Ni  Ni10  1  0.331887  0.165887  0.350333  1
  Ni  Ni11  1  0.833999  0.165887  0.350333  1
  Ni  Ni12  1  0.833975  0.667949  0.350298  1
  Ni  Ni13  1  0.000135  0.000269  0.499880  1
  Ni  Ni14  1  0.165870  0.331741  0.650078  1
  Ni  Ni15  1  0.165961  0.834219  0.650057  1
  Ni  Ni16  1  0.668258  0.834219  0.650057  1
  Ni  Ni17  1  0.165600  0.834412  0.849991  1
  Ni  Ni18  1  0.668812  0.834412  0.849991  1
  Ni  Ni19  1  0.165780  0.331561  0.849923  1
  B  B20  1  0.999969  0.999939  0.249756  1
  B  B21  1  0.666606  0.333210  0.249664  1
  B  B22  1  0.999978  0.999955  0.749934  1
  B  B23  1  0.333379  0.666756  0.750080  1
