# generated using pymatgen
data_Pr2Sm6Be3Si12Pt
_symmetry_space_group_name_H-M   'P 1'
_cell_length_a   8.00795200
_cell_length_b   8.00795248
_cell_length_c   8.47544300
_cell_angle_alpha   90.00000000
_cell_angle_beta   90.00000000
_cell_angle_gamma   119.99998974
_symmetry_Int_Tables_number   1
_chemical_formula_structural   Pr2Sm6Be3Si12Pt
_chemical_formula_sum   'Pr2 Sm6 Be3 Si12 Pt1'
_cell_volume   470.69115017
_cell_formula_units_Z   1
loop_
 _symmetry_equiv_pos_site_id
 _symmetry_equiv_pos_as_xyz
  1  'x, y, z'
loop_
 _atom_site_type_symbol
 _atom_site_label
 _atom_site_symmetry_multiplicity
 _atom_site_fract_x
 _atom_site_fract_y
 _atom_site_fract_z
 _atom_site_occupancy
  Pr  Pr0  1  0.000000  0.000000  0.750062  1
  Pr  Pr1  1  0.000000  0.000000  0.249996  1
  Sm  Sm2  1  0.498521  0.501479  0.752318  1
  Sm  Sm3  1  0.498613  0.501387  0.247748  1
  Sm  Sm4  1  0.002958  0.501479  0.752318  1
  Sm  Sm5  1  0.002775  0.501387  0.247748  1
  Sm  Sm6  1  0.498521  0.997042  0.752318  1
  Sm  Sm7  1  0.498613  0.997225  0.247748  1
  Be  Be8  1  0.666667  0.333333  0.999005  1
  Be  Be9  1  0.333333  0.666667  0.001004  1
  Be  Be10  1  0.333333  0.666667  0.499487  1
  Si  Si11  1  0.826806  0.173194  0.000123  1
  Si  Si12  1  0.173150  0.826850  0.999998  1
  Si  Si13  1  0.346387  0.173194  0.000123  1
  Si  Si14  1  0.171426  0.828574  0.499885  1
  Si  Si15  1  0.653700  0.826850  0.999998  1
  Si  Si16  1  0.833307  0.166693  0.500106  1
  Si  Si17  1  0.826806  0.653613  0.000123  1
  Si  Si18  1  0.657148  0.828574  0.499885  1
  Si  Si19  1  0.173150  0.346300  0.999998  1
  Si  Si20  1  0.333385  0.166693  0.500106  1
  Si  Si21  1  0.171426  0.342852  0.499885  1
  Si  Si22  1  0.833307  0.666615  0.500106  1
  Pt  Pt23  1  0.666667  0.333333  0.499914  1
