# generated using pymatgen
data_Tm3PaReB12W
_symmetry_space_group_name_H-M   'P 1'
_cell_length_a   3.67651800
_cell_length_b   9.15382481
_cell_length_c   11.51812332
_cell_angle_alpha   90.19236512
_cell_angle_beta   90.00000000
_cell_angle_gamma   90.00000000
_symmetry_Int_Tables_number   1
_chemical_formula_structural   Tm3PaReB12W
_chemical_formula_sum   'Tm6 Pa2 Re2 B24 W2'
_cell_volume   387.63106064
_cell_formula_units_Z   2
loop_
 _symmetry_equiv_pos_site_id
 _symmetry_equiv_pos_as_xyz
  1  'x, y, z'
loop_
 _atom_site_type_symbol
 _atom_site_label
 _atom_site_symmetry_multiplicity
 _atom_site_fract_x
 _atom_site_fract_y
 _atom_site_fract_z
 _atom_site_occupancy
  Tm  Tm0  1  0.000000  0.824184  0.085562  1
  Tm  Tm1  1  0.000000  0.175816  0.914438  1
  Tm  Tm2  1  0.000000  0.945301  0.372145  1
  Tm  Tm3  1  0.000000  0.054699  0.627855  1
  Tm  Tm4  1  0.000000  0.442752  0.126586  1
  Tm  Tm5  1  0.000000  0.557248  0.873414  1
  Pa  Pa6  1  0.000000  0.320088  0.413495  1
  Pa  Pa7  1  0.000000  0.679912  0.586505  1
  Re  Re8  1  0.000000  0.140263  0.180599  1
  Re  Re9  1  0.000000  0.859737  0.819401  1
  B  B10  1  0.500000  0.552323  0.433346  1
  B  B11  1  0.500000  0.447677  0.566654  1
  B  B12  1  0.500000  0.053289  0.066489  1
  B  B13  1  0.500000  0.946711  0.933511  1
  B  B14  1  0.500000  0.750754  0.419970  1
  B  B15  1  0.500000  0.249246  0.580030  1
  B  B16  1  0.500000  0.248578  0.080009  1
  B  B17  1  0.500000  0.751422  0.919991  1
  B  B18  1  0.500000  0.794698  0.263978  1
  B  B19  1  0.500000  0.205302  0.736022  1
  B  B20  1  0.500000  0.291546  0.233382  1
  B  B21  1  0.500000  0.708454  0.766618  1
  B  B22  1  0.500000  0.631539  0.182754  1
  B  B23  1  0.500000  0.368461  0.817246  1
  B  B24  1  0.500000  0.130909  0.313469  1
  B  B25  1  0.500000  0.869091  0.686531  1
  B  B26  1  0.500000  0.982076  0.211511  1
  B  B27  1  0.500000  0.017924  0.788489  1
  B  B28  1  0.500000  0.479906  0.286023  1
  B  B29  1  0.500000  0.520094  0.713977  1
  B  B30  1  0.500000  0.602335  0.028425  1
  B  B31  1  0.500000  0.397665  0.971575  1
  B  B32  1  0.500000  0.107436  0.469614  1
  B  B33  1  0.500000  0.892564  0.530386  1
  W  W34  1  0.000000  0.636760  0.322511  1
  W  W35  1  0.000000  0.363240  0.677489  1
