# generated using pymatgen
data_Lu16Sc4Ir11Os
_symmetry_space_group_name_H-M   'P 1'
_cell_length_a   10.63613400
_cell_length_b   10.63613400
_cell_length_c   6.23460200
_cell_angle_alpha   90.00000000
_cell_angle_beta   90.00000000
_cell_angle_gamma   90.00000000
_symmetry_Int_Tables_number   1
_chemical_formula_structural   Lu16Sc4Ir11Os
_chemical_formula_sum   'Lu16 Sc4 Ir11 Os1'
_cell_volume   705.30398053
_cell_formula_units_Z   1
loop_
 _symmetry_equiv_pos_site_id
 _symmetry_equiv_pos_as_xyz
  1  'x, y, z'
loop_
 _atom_site_type_symbol
 _atom_site_label
 _atom_site_symmetry_multiplicity
 _atom_site_fract_x
 _atom_site_fract_y
 _atom_site_fract_z
 _atom_site_occupancy
  Lu  Lu0  1  0.290153  0.084872  0.374509  1
  Lu  Lu1  1  0.290738  0.915116  0.878513  1
  Lu  Lu2  1  0.709262  0.084884  0.878513  1
  Lu  Lu3  1  0.709847  0.915128  0.374509  1
  Lu  Lu4  1  0.584884  0.790738  0.878513  1
  Lu  Lu5  1  0.584872  0.209847  0.374509  1
  Lu  Lu6  1  0.415128  0.790153  0.374509  1
  Lu  Lu7  1  0.415116  0.209262  0.878513  1
  Lu  Lu8  1  0.211270  0.414043  0.623410  1
  Lu  Lu9  1  0.211187  0.585447  0.123052  1
  Lu  Lu10  1  0.788813  0.414553  0.123052  1
  Lu  Lu11  1  0.788730  0.585957  0.623410  1
  Lu  Lu12  1  0.914553  0.711187  0.123052  1
  Lu  Lu13  1  0.914043  0.288730  0.623410  1
  Lu  Lu14  1  0.085957  0.711270  0.623410  1
  Lu  Lu15  1  0.085447  0.288813  0.123052  1
  Sc  Sc16  1  0.000000  0.000000  0.499582  1
  Sc  Sc17  1  0.000000  0.000000  0.999328  1
  Sc  Sc18  1  0.500000  0.500000  0.999328  1
  Sc  Sc19  1  0.500000  0.500000  0.499582  1
  Ir  Ir20  1  0.851295  0.150005  0.250190  1
  Ir  Ir21  1  0.851301  0.850230  0.749473  1
  Ir  Ir22  1  0.148699  0.149770  0.749473  1
  Ir  Ir23  1  0.148705  0.849995  0.250190  1
  Ir  Ir24  1  0.649770  0.351301  0.749473  1
  Ir  Ir25  1  0.650005  0.648705  0.250190  1
  Ir  Ir26  1  0.349995  0.351295  0.250190  1
  Ir  Ir27  1  0.350230  0.648699  0.749473  1
  Ir  Ir28  1  0.500000  0.000000  0.623364  1
  Ir  Ir29  1  0.000000  0.500000  0.877883  1
  Ir  Ir30  1  0.000000  0.500000  0.378567  1
  Os  Os31  1  0.500000  0.000000  0.125779  1
