# generated using pymatgen
data_Cs8ZnHg3H16
_symmetry_space_group_name_H-M   'P 1'
_cell_length_a   6.51030500
_cell_length_b   8.95060720
_cell_length_c   11.47481180
_cell_angle_alpha   90.08022503
_cell_angle_beta   90.00000000
_cell_angle_gamma   90.00000000
_symmetry_Int_Tables_number   1
_chemical_formula_structural   Cs8ZnHg3H16
_chemical_formula_sum   'Cs8 Zn1 Hg3 H16'
_cell_volume   668.65020084
_cell_formula_units_Z   1
loop_
 _symmetry_equiv_pos_site_id
 _symmetry_equiv_pos_as_xyz
  1  'x, y, z'
loop_
 _atom_site_type_symbol
 _atom_site_label
 _atom_site_symmetry_multiplicity
 _atom_site_fract_x
 _atom_site_fract_y
 _atom_site_fract_z
 _atom_site_occupancy
  Cs  Cs0  1  0.250000  0.663866  0.086588  1
  Cs  Cs1  1  0.250000  0.161907  0.408890  1
  Cs  Cs2  1  0.750000  0.347267  0.908682  1
  Cs  Cs3  1  0.750000  0.835978  0.598796  1
  Cs  Cs4  1  0.250000  0.981484  0.816272  1
  Cs  Cs5  1  0.250000  0.489024  0.688474  1
  Cs  Cs6  1  0.750000  0.009968  0.180500  1
  Cs  Cs7  1  0.750000  0.515241  0.313618  1
  Zn  Zn8  1  0.750000  0.756000  0.915729  1
  Hg  Hg9  1  0.250000  0.741478  0.415228  1
  Hg  Hg10  1  0.250000  0.242131  0.084175  1
  Hg  Hg11  1  0.750000  0.258070  0.584377  1
  H  H12  1  0.020648  0.817342  0.345134  1
  H  H13  1  0.479477  0.317364  0.154468  1
  H  H14  1  0.520535  0.182879  0.655318  1
  H  H15  1  0.961272  0.687589  0.850040  1
  H  H16  1  0.979465  0.182879  0.655318  1
  H  H17  1  0.538728  0.687589  0.850040  1
  H  H18  1  0.479352  0.817342  0.345134  1
  H  H19  1  0.020523  0.317364  0.154468  1
  H  H20  1  0.250000  0.539396  0.406637  1
  H  H21  1  0.250000  0.039675  0.093331  1
  H  H22  1  0.750000  0.460538  0.593881  1
  H  H23  1  0.750000  0.942389  0.907082  1
  H  H24  1  0.250000  0.307540  0.932214  1
  H  H25  1  0.250000  0.807268  0.567599  1
  H  H26  1  0.750000  0.697607  0.055526  1
  H  H27  1  0.750000  0.192824  0.432483  1
