# generated using pymatgen
data_Na2Fe3NiAs4
_symmetry_space_group_name_H-M   'P 1'
_cell_length_a   5.39443700
_cell_length_b   6.57799270
_cell_length_c   5.39440243
_cell_angle_alpha   65.77965380
_cell_angle_beta   89.99991503
_cell_angle_gamma   89.99994783
_symmetry_Int_Tables_number   1
_chemical_formula_structural   Na2Fe3NiAs4
_chemical_formula_sum   'Na2 Fe3 Ni1 As4'
_cell_volume   174.56836553
_cell_formula_units_Z   1
loop_
 _symmetry_equiv_pos_site_id
 _symmetry_equiv_pos_as_xyz
  1  'x, y, z'
loop_
 _atom_site_type_symbol
 _atom_site_label
 _atom_site_symmetry_multiplicity
 _atom_site_fract_x
 _atom_site_fract_y
 _atom_site_fract_z
 _atom_site_occupancy
  Na  Na0  1  0.495402  0.000000  0.500000  1
  Na  Na1  1  0.004799  0.000000  0.999999  1
  Fe  Fe2  1  0.749948  0.500000  0.000000  1
  Fe  Fe3  1  0.749935  0.500001  0.500000  1
  Fe  Fe4  1  0.250098  0.499999  0.500001  1
  Ni  Ni5  1  0.249928  0.500001  0.000000  1
  As  As6  1  0.505809  0.719753  0.145022  1
  As  As7  1  0.994136  0.719620  0.635078  1
  As  As8  1  0.994136  0.280379  0.364922  1
  As  As9  1  0.505809  0.280247  0.854978  1
