# generated using pymatgen
data_Rb2Rh5F17
_symmetry_space_group_name_H-M   'P 1'
_cell_length_a   14.12486100
_cell_length_b   14.12486072
_cell_length_c   15.47091300
_cell_angle_alpha   90.00000000
_cell_angle_beta   90.00000000
_cell_angle_gamma   147.78443926
_symmetry_Int_Tables_number   1
_chemical_formula_structural   Rb2Rh5F17
_chemical_formula_sum   'Rb8 Rh20 F68'
_cell_volume   1645.50016008
_cell_formula_units_Z   4
loop_
 _symmetry_equiv_pos_site_id
 _symmetry_equiv_pos_as_xyz
  1  'x, y, z'
loop_
 _atom_site_type_symbol
 _atom_site_label
 _atom_site_symmetry_multiplicity
 _atom_site_fract_x
 _atom_site_fract_y
 _atom_site_fract_z
 _atom_site_occupancy
  Rb  Rb0  1  0.000000  0.000000  0.000000  1
  Rb  Rb1  1  0.750176  0.249824  0.968514  1
  Rb  Rb2  1  0.750176  0.249824  0.531486  1
  Rb  Rb3  1  0.249824  0.750176  0.468514  1
  Rb  Rb4  1  0.249824  0.750176  0.031486  1
  Rb  Rb5  1  0.747163  0.252837  0.250000  1
  Rb  Rb6  1  0.000000  0.000000  0.500000  1
  Rb  Rb7  1  0.252837  0.747163  0.750000  1
  Rh  Rh8  1  0.372663  0.131457  0.125586  1
  Rh  Rh9  1  0.627337  0.868543  0.625586  1
  Rh  Rh10  1  0.127266  0.372129  0.126621  1
  Rh  Rh11  1  0.627871  0.872734  0.373379  1
  Rh  Rh12  1  0.250085  0.251810  0.250000  1
  Rh  Rh13  1  0.127266  0.372129  0.373379  1
  Rh  Rh14  1  0.372663  0.131457  0.374414  1
  Rh  Rh15  1  0.872734  0.627871  0.626621  1
  Rh  Rh16  1  0.748190  0.749915  0.250000  1
  Rh  Rh17  1  0.868543  0.627337  0.374414  1
  Rh  Rh18  1  0.131457  0.372663  0.874414  1
  Rh  Rh19  1  0.372129  0.127266  0.626621  1
  Rh  Rh20  1  0.627337  0.868543  0.874414  1
  Rh  Rh21  1  0.627871  0.872734  0.126621  1
  Rh  Rh22  1  0.131457  0.372663  0.625586  1
  Rh  Rh23  1  0.251810  0.250085  0.750000  1
  Rh  Rh24  1  0.749915  0.748190  0.750000  1
  Rh  Rh25  1  0.868543  0.627337  0.125586  1
  Rh  Rh26  1  0.872734  0.627871  0.873379  1
  Rh  Rh27  1  0.372129  0.127266  0.873379  1
  F  F28  1  0.440727  0.152230  0.750000  1
  F  F29  1  0.555123  0.835513  0.750000  1
  F  F30  1  0.246405  0.151728  0.347871  1
  F  F31  1  0.101424  0.303452  0.499194  1
  F  F32  1  0.102859  0.483003  0.902089  1
  F  F33  1  0.021222  0.978778  0.750000  1
  F  F34  1  0.890635  0.109365  0.345237  1
  F  F35  1  0.520860  0.479140  0.250000  1
  F  F36  1  0.848272  0.753595  0.152129  1
  F  F37  1  0.444877  0.164487  0.250000  1
  F  F38  1  0.400782  0.016023  0.897782  1
  F  F39  1  0.753595  0.848272  0.847871  1
  F  F40  1  0.101424  0.303452  0.000806  1
  F  F41  1  0.898576  0.696548  0.999194  1
  F  F42  1  0.152230  0.440727  0.250000  1
  F  F43  1  0.860019  0.139981  0.642963  1
  F  F44  1  0.344103  0.246975  0.849364  1
  F  F45  1  0.398860  0.601140  0.606032  1
  F  F46  1  0.400782  0.016023  0.602218  1
  F  F47  1  0.898576  0.696548  0.500806  1
  F  F48  1  0.860019  0.139981  0.857037  1
  F  F49  1  0.848272  0.753595  0.347871  1
  F  F50  1  0.753025  0.655897  0.849364  1
  F  F51  1  0.696548  0.898576  0.499194  1
  F  F52  1  0.398860  0.601140  0.893968  1
  F  F53  1  0.753025  0.655897  0.650636  1
  F  F54  1  0.102859  0.483003  0.597911  1
  F  F55  1  0.151728  0.246405  0.652129  1
  F  F56  1  0.599218  0.983977  0.397782  1
  F  F57  1  0.246405  0.151728  0.152129  1
  F  F58  1  0.983977  0.599218  0.897782  1
  F  F59  1  0.696548  0.898576  0.000806  1
  F  F60  1  0.601140  0.398860  0.106032  1
  F  F61  1  0.897141  0.516997  0.402089  1
  F  F62  1  0.303452  0.101424  0.500806  1
  F  F63  1  0.847770  0.559273  0.750000  1
  F  F64  1  0.344103  0.246975  0.650636  1
  F  F65  1  0.599218  0.983977  0.102218  1
  F  F66  1  0.109365  0.890635  0.845237  1
  F  F67  1  0.109365  0.890635  0.654763  1
  F  F68  1  0.635173  0.364827  0.595800  1
  F  F69  1  0.559273  0.847770  0.250000  1
  F  F70  1  0.479140  0.520860  0.750000  1
  F  F71  1  0.016023  0.400782  0.102218  1
  F  F72  1  0.516997  0.897141  0.597911  1
  F  F73  1  0.139981  0.860019  0.357037  1
  F  F74  1  0.635173  0.364827  0.904200  1
  F  F75  1  0.978778  0.021222  0.250000  1
  F  F76  1  0.246975  0.344103  0.150636  1
  F  F77  1  0.483003  0.102859  0.097911  1
  F  F78  1  0.364827  0.635173  0.404200  1
  F  F79  1  0.655897  0.753025  0.150636  1
  F  F80  1  0.151728  0.246405  0.847871  1
  F  F81  1  0.655897  0.753025  0.349364  1
  F  F82  1  0.364827  0.635173  0.095800  1
  F  F83  1  0.483003  0.102859  0.402089  1
  F  F84  1  0.983977  0.599218  0.602218  1
  F  F85  1  0.246975  0.344103  0.349364  1
  F  F86  1  0.139981  0.860019  0.142963  1
  F  F87  1  0.164487  0.444877  0.750000  1
  F  F88  1  0.016023  0.400782  0.397782  1
  F  F89  1  0.516997  0.897141  0.902089  1
  F  F90  1  0.835513  0.555123  0.250000  1
  F  F91  1  0.890635  0.109365  0.154763  1
  F  F92  1  0.303452  0.101424  0.999194  1
  F  F93  1  0.897141  0.516997  0.097911  1
  F  F94  1  0.753595  0.848272  0.652129  1
  F  F95  1  0.601140  0.398860  0.393968  1
