# generated using pymatgen
data_Tb6Dy14Ir7Ru5
_symmetry_space_group_name_H-M   'P 1'
_cell_length_a   10.86041691
_cell_length_b   10.86047476
_cell_length_c   6.40515306
_cell_angle_alpha   89.96234075
_cell_angle_beta   89.96176990
_cell_angle_gamma   90.01438417
_symmetry_Int_Tables_number   1
_chemical_formula_structural   Tb6Dy14Ir7Ru5
_chemical_formula_sum   'Tb6 Dy14 Ir7 Ru5'
_cell_volume   755.48286023
_cell_formula_units_Z   1
loop_
 _symmetry_equiv_pos_site_id
 _symmetry_equiv_pos_as_xyz
  1  'x, y, z'
loop_
 _atom_site_type_symbol
 _atom_site_label
 _atom_site_symmetry_multiplicity
 _atom_site_fract_x
 _atom_site_fract_y
 _atom_site_fract_z
 _atom_site_occupancy
  Tb  Tb0  1  0.293117  0.086656  0.379039  1
  Tb  Tb1  1  0.292489  0.913194  0.879133  1
  Tb  Tb2  1  0.707752  0.087263  0.879578  1
  Tb  Tb3  1  0.707383  0.913437  0.378235  1
  Tb  Tb4  1  0.586733  0.793127  0.879114  1
  Tb  Tb5  1  0.587683  0.207131  0.379335  1
  Dy  Dy6  1  0.413096  0.793095  0.379413  1
  Dy  Dy7  1  0.413002  0.206687  0.878693  1
  Dy  Dy8  1  0.206317  0.413374  0.620760  1
  Dy  Dy9  1  0.206448  0.586694  0.120729  1
  Dy  Dy10  1  0.793494  0.412555  0.120453  1
  Dy  Dy11  1  0.793784  0.586734  0.621323  1
  Dy  Dy12  1  0.913517  0.706374  0.120724  1
  Dy  Dy13  1  0.913103  0.292805  0.620304  1
  Dy  Dy14  1  0.086620  0.707010  0.620586  1
  Dy  Dy15  1  0.086286  0.293155  0.121515  1
  Dy  Dy16  1  0.999534  0.001065  0.499455  1
  Dy  Dy17  1  0.998941  0.000483  0.000622  1
  Dy  Dy18  1  0.500092  0.500006  0.000203  1
  Dy  Dy19  1  0.499843  0.499933  0.499861  1
  Ir  Ir20  1  0.847444  0.846369  0.749947  1
  Ir  Ir21  1  0.153179  0.153376  0.750592  1
  Ir  Ir22  1  0.152833  0.846672  0.250348  1
  Ir  Ir23  1  0.652020  0.348413  0.750349  1
  Ir  Ir24  1  0.653062  0.652279  0.250103  1
  Ir  Ir25  1  0.347169  0.347339  0.249981  1
  Ir  Ir26  1  0.347303  0.652238  0.749737  1
  Ru  Ru27  1  0.848224  0.152343  0.250098  1
  Ru  Ru28  1  0.500029  0.000221  0.123478  1
  Ru  Ru29  1  0.499706  0.999990  0.623543  1
  Ru  Ru30  1  0.999953  0.500176  0.876345  1
  Ru  Ru31  1  0.999843  0.499810  0.376403  1
