# generated using pymatgen
data_Li2Sm2Ni15
_symmetry_space_group_name_H-M   'P 1'
_cell_length_a   6.28000781
_cell_length_b   6.28000688
_cell_length_c   6.28000807
_cell_angle_alpha   83.40102998
_cell_angle_beta   83.40104100
_cell_angle_gamma   83.40103716
_symmetry_Int_Tables_number   1
_chemical_formula_structural   Li2Sm2Ni15
_chemical_formula_sum   'Li2 Sm2 Ni15'
_cell_volume   243.10139496
_cell_formula_units_Z   1
loop_
 _symmetry_equiv_pos_site_id
 _symmetry_equiv_pos_as_xyz
  1  'x, y, z'
loop_
 _atom_site_type_symbol
 _atom_site_label
 _atom_site_symmetry_multiplicity
 _atom_site_fract_x
 _atom_site_fract_y
 _atom_site_fract_z
 _atom_site_occupancy
  Li  Li0  1  0.906425  0.906425  0.906425  1
  Li  Li1  1  0.093575  0.093575  0.093575  1
  Sm  Sm2  1  0.657276  0.657276  0.657276  1
  Sm  Sm3  1  0.342724  0.342724  0.342724  1
  Ni  Ni4  1  0.000000  0.000000  0.500000  1
  Ni  Ni5  1  0.500000  0.000000  0.000000  1
  Ni  Ni6  1  0.000000  0.500000  0.000000  1
  Ni  Ni7  1  0.698743  0.301257  0.000000  1
  Ni  Ni8  1  0.000000  0.698743  0.301257  1
  Ni  Ni9  1  0.301257  0.000000  0.698743  1
  Ni  Ni10  1  0.000000  0.301257  0.698743  1
  Ni  Ni11  1  0.698743  0.000000  0.301257  1
  Ni  Ni12  1  0.301257  0.698743  0.000000  1
  Ni  Ni13  1  0.342991  0.342991  0.843210  1
  Ni  Ni14  1  0.843210  0.342991  0.342991  1
  Ni  Ni15  1  0.342991  0.843210  0.342991  1
  Ni  Ni16  1  0.657009  0.657009  0.156790  1
  Ni  Ni17  1  0.156790  0.657009  0.657009  1
  Ni  Ni18  1  0.657009  0.156790  0.657009  1
