# generated using pymatgen
data_La7Pr(CdNi)2
_symmetry_space_group_name_H-M   'P 1'
_cell_length_a   10.03349730
_cell_length_b   10.03349839
_cell_length_c   10.02770400
_cell_angle_alpha   60.01910186
_cell_angle_beta   60.01909826
_cell_angle_gamma   59.96180280
_symmetry_Int_Tables_number   1
_chemical_formula_structural   La7Pr(CdNi)2
_chemical_formula_sum   'La14 Pr2 Cd4 Ni4'
_cell_volume   713.82368126
_cell_formula_units_Z   2
loop_
 _symmetry_equiv_pos_site_id
 _symmetry_equiv_pos_as_xyz
  1  'x, y, z'
loop_
 _atom_site_type_symbol
 _atom_site_label
 _atom_site_symmetry_multiplicity
 _atom_site_fract_x
 _atom_site_fract_y
 _atom_site_fract_z
 _atom_site_occupancy
  La  La0  1  0.347267  0.347267  0.346955  1
  La  La1  1  0.347267  0.347267  0.958510  1
  La  La2  1  0.346955  0.958510  0.347267  1
  La  La3  1  0.958510  0.346955  0.347267  1
  La  La4  1  0.807125  0.192875  0.192875  1
  La  La5  1  0.192875  0.807125  0.807125  1
  La  La6  1  0.192875  0.807125  0.192875  1
  La  La7  1  0.807125  0.192875  0.807125  1
  La  La8  1  0.192789  0.192789  0.807211  1
  La  La9  1  0.807211  0.807211  0.192789  1
  La  La10  1  0.936902  0.563098  0.563098  1
  La  La11  1  0.563098  0.936902  0.936902  1
  La  La12  1  0.563098  0.936902  0.563098  1
  La  La13  1  0.936902  0.563098  0.936902  1
  Pr  Pr14  1  0.561367  0.561367  0.938633  1
  Pr  Pr15  1  0.938633  0.938633  0.561367  1
  Cd  Cd16  1  0.579077  0.579077  0.579902  1
  Cd  Cd17  1  0.579077  0.579077  0.261943  1
  Cd  Cd18  1  0.579902  0.261943  0.579077  1
  Cd  Cd19  1  0.261943  0.579902  0.579077  1
  Ni  Ni20  1  0.141603  0.141603  0.142214  1
  Ni  Ni21  1  0.141603  0.141603  0.574580  1
  Ni  Ni22  1  0.142214  0.574580  0.141603  1
  Ni  Ni23  1  0.574580  0.142214  0.141603  1
