# generated using pymatgen
data_Dy2YAl2ZnSi2Ir
_symmetry_space_group_name_H-M   'P 1'
_cell_length_a   6.92720300
_cell_length_b   6.92720289
_cell_length_c   4.21229200
_cell_angle_alpha   90.00000000
_cell_angle_beta   90.00000000
_cell_angle_gamma   119.92799064
_symmetry_Int_Tables_number   1
_chemical_formula_structural   Dy2YAl2ZnSi2Ir
_chemical_formula_sum   'Dy2 Y1 Al2 Zn1 Si2 Ir1'
_cell_volume   175.17801335
_cell_formula_units_Z   1
loop_
 _symmetry_equiv_pos_site_id
 _symmetry_equiv_pos_as_xyz
  1  'x, y, z'
loop_
 _atom_site_type_symbol
 _atom_site_label
 _atom_site_symmetry_multiplicity
 _atom_site_fract_x
 _atom_site_fract_y
 _atom_site_fract_z
 _atom_site_occupancy
  Dy  Dy0  1  0.421375  0.999780  0.000000  1
  Dy  Dy1  1  0.996678  0.412082  0.000000  1
  Y  Y2  1  0.583780  0.586715  0.000000  1
  Al  Al3  1  0.227652  0.230062  0.500001  1
  Al  Al4  1  0.997495  0.770314  0.500001  1
  Zn  Zn5  1  0.759957  0.000100  0.500001  1
  Si  Si6  1  0.666177  0.335840  0.500001  1
  Si  Si7  1  0.329156  0.663688  0.500001  1
  Ir  Ir8  1  0.017731  0.001419  0.000000  1
