# generated using pymatgen
data_YbPr9Os3Ru
_symmetry_space_group_name_H-M   'P 1'
_cell_length_a   8.90036011
_cell_length_b   8.84919342
_cell_length_c   7.49130458
_cell_angle_alpha   83.32942953
_cell_angle_beta   83.52412366
_cell_angle_gamma   44.08512083
_symmetry_Int_Tables_number   1
_chemical_formula_structural   YbPr9Os3Ru
_chemical_formula_sum   'Yb1 Pr9 Os3 Ru1'
_cell_volume   407.34761197
_cell_formula_units_Z   1
loop_
 _symmetry_equiv_pos_site_id
 _symmetry_equiv_pos_as_xyz
  1  'x, y, z'
loop_
 _atom_site_type_symbol
 _atom_site_label
 _atom_site_symmetry_multiplicity
 _atom_site_fract_x
 _atom_site_fract_y
 _atom_site_fract_z
 _atom_site_occupancy
  Yb  Yb0  1  0.014170  0.800279  0.915136  1
  Pr  Pr1  1  0.201179  0.980402  0.585642  1
  Pr  Pr2  1  0.982423  0.200999  0.084124  1
  Pr  Pr3  1  0.797185  0.017573  0.413928  1
  Pr  Pr4  1  0.359715  0.210290  0.815634  1
  Pr  Pr5  1  0.795658  0.638397  0.687560  1
  Pr  Pr6  1  0.642172  0.790466  0.186372  1
  Pr  Pr7  1  0.206440  0.359912  0.314750  1
  Pr  Pr8  1  0.568361  0.430008  0.751878  1
  Pr  Pr9  1  0.425113  0.574382  0.248281  1
  Os  Os10  1  0.179965  0.599143  0.570297  1
  Os  Os11  1  0.403724  0.826513  0.923857  1
  Os  Os12  1  0.821193  0.396969  0.425568  1
  Ru  Ru13  1  0.602703  0.174665  0.076975  1
