# generated using pymatgen
data_Er8Tm2Sn5Bi
_symmetry_space_group_name_H-M   'P 1'
_cell_length_a   8.90498200
_cell_length_b   8.90840595
_cell_length_c   6.45802902
_cell_angle_alpha   89.99266208
_cell_angle_beta   90.00000000
_cell_angle_gamma   119.98728659
_symmetry_Int_Tables_number   1
_chemical_formula_structural   Er8Tm2Sn5Bi
_chemical_formula_sum   'Er8 Tm2 Sn5 Bi1'
_cell_volume   443.73050618
_cell_formula_units_Z   1
loop_
 _symmetry_equiv_pos_site_id
 _symmetry_equiv_pos_as_xyz
  1  'x, y, z'
loop_
 _atom_site_type_symbol
 _atom_site_label
 _atom_site_symmetry_multiplicity
 _atom_site_fract_x
 _atom_site_fract_y
 _atom_site_fract_z
 _atom_site_occupancy
  Er  Er0  1  0.993478  0.757617  0.749992  1
  Er  Er1  1  0.000651  0.238966  0.249994  1
  Er  Er2  1  0.761685  0.761034  0.250006  1
  Er  Er3  1  0.765131  0.000000  0.750000  1
  Er  Er4  1  0.235861  0.242383  0.750008  1
  Er  Er5  1  0.237589  0.000000  0.250000  1
  Er  Er6  1  0.670582  0.337737  0.498243  1
  Er  Er7  1  0.332843  0.662263  0.001757  1
  Tm  Tm8  1  0.332807  0.662162  0.498150  1
  Tm  Tm9  1  0.670646  0.337838  0.001850  1
  Sn  Sn10  1  0.395548  0.393143  0.249994  1
  Sn  Sn11  1  0.002406  0.606857  0.250006  1
  Sn  Sn12  1  0.999140  0.395759  0.749993  1
  Sn  Sn13  1  0.603381  0.604241  0.750007  1
  Sn  Sn14  1  0.605329  0.000000  0.250000  1
  Bi  Bi15  1  0.392921  0.000000  0.750000  1
