# generated using pymatgen
data_Hf4Co6Si6Tc
_symmetry_space_group_name_H-M   'P 1'
_cell_length_a   6.70155006
_cell_length_b   6.70154819
_cell_length_c   6.70154900
_cell_angle_alpha   109.47122611
_cell_angle_beta   109.47122044
_cell_angle_gamma   109.47121795
_symmetry_Int_Tables_number   1
_chemical_formula_structural   Hf4Co6Si6Tc
_chemical_formula_sum   'Hf4 Co6 Si6 Tc1'
_cell_volume   231.68808703
_cell_formula_units_Z   1
loop_
 _symmetry_equiv_pos_site_id
 _symmetry_equiv_pos_as_xyz
  1  'x, y, z'
loop_
 _atom_site_type_symbol
 _atom_site_label
 _atom_site_symmetry_multiplicity
 _atom_site_fract_x
 _atom_site_fract_y
 _atom_site_fract_z
 _atom_site_occupancy
  Hf  Hf0  1  0.500000  0.500000  0.500000  1
  Hf  Hf1  1  0.000000  0.000000  0.500000  1
  Hf  Hf2  1  0.000000  0.500000  0.000000  1
  Hf  Hf3  1  0.500000  0.000000  0.000000  1
  Co  Co4  1  0.500000  0.750000  0.250000  1
  Co  Co5  1  0.250000  0.500000  0.750000  1
  Co  Co6  1  0.750000  0.250000  0.500000  1
  Co  Co7  1  0.750000  0.500000  0.250000  1
  Co  Co8  1  0.500000  0.250000  0.750000  1
  Co  Co9  1  0.250000  0.750000  0.500000  1
  Si  Si10  1  0.000000  0.328326  0.328326  1
  Si  Si11  1  0.328326  0.000000  0.328326  1
  Si  Si12  1  0.328326  0.328326  0.000000  1
  Si  Si13  1  0.000000  0.671674  0.671674  1
  Si  Si14  1  0.671674  0.000000  0.671674  1
  Si  Si15  1  0.671674  0.671674  0.000000  1
  Tc  Tc16  1  0.000000  0.000000  0.000000  1
