# generated using pymatgen
data_ScBe9Tc2
_symmetry_space_group_name_H-M   'P 1'
_cell_length_a   7.53338487
_cell_length_b   7.53338446
_cell_length_c   7.53338511
_cell_angle_alpha   34.01586985
_cell_angle_beta   34.01586063
_cell_angle_gamma   34.01586652
_symmetry_Int_Tables_number   1
_chemical_formula_structural   ScBe9Tc2
_chemical_formula_sum   'Sc1 Be9 Tc2'
_cell_volume   119.26766246
_cell_formula_units_Z   1
loop_
 _symmetry_equiv_pos_site_id
 _symmetry_equiv_pos_as_xyz
  1  'x, y, z'
loop_
 _atom_site_type_symbol
 _atom_site_label
 _atom_site_symmetry_multiplicity
 _atom_site_fract_x
 _atom_site_fract_y
 _atom_site_fract_z
 _atom_site_occupancy
  Sc  Sc0  1  0.000000  0.000000  0.000000  1
  Be  Be1  1  0.500000  0.500000  0.500000  1
  Be  Be2  1  0.333210  0.333210  0.333211  1
  Be  Be3  1  0.666790  0.666790  0.666789  1
  Be  Be4  1  0.079846  0.586956  0.586956  1
  Be  Be5  1  0.586956  0.586956  0.079846  1
  Be  Be6  1  0.586956  0.079846  0.586956  1
  Be  Be7  1  0.413044  0.920154  0.413044  1
  Be  Be8  1  0.920154  0.413044  0.413044  1
  Be  Be9  1  0.413044  0.413044  0.920154  1
  Tc  Tc10  1  0.146562  0.146562  0.146562  1
  Tc  Tc11  1  0.853438  0.853438  0.853438  1
