# generated using pymatgen
data_Zr8V7Si16Mo5
_symmetry_space_group_name_H-M   'P 1'
_cell_length_a   6.68576904
_cell_length_b   6.68842332
_cell_length_c   12.38963970
_cell_angle_alpha   90.11142903
_cell_angle_beta   90.00987789
_cell_angle_gamma   90.00209176
_symmetry_Int_Tables_number   1
_chemical_formula_structural   Zr8V7Si16Mo5
_chemical_formula_sum   'Zr8 V7 Si16 Mo5'
_cell_volume   554.02960338
_cell_formula_units_Z   1
loop_
 _symmetry_equiv_pos_site_id
 _symmetry_equiv_pos_as_xyz
  1  'x, y, z'
loop_
 _atom_site_type_symbol
 _atom_site_label
 _atom_site_symmetry_multiplicity
 _atom_site_fract_x
 _atom_site_fract_y
 _atom_site_fract_z
 _atom_site_occupancy
  Zr  Zr0  1  0.003192  0.663329  0.030482  1
  Zr  Zr1  1  0.836000  0.502471  0.280927  1
  Zr  Zr2  1  0.164345  0.497622  0.779434  1
  Zr  Zr3  1  0.502952  0.836315  0.720064  1
  Zr  Zr4  1  0.495927  0.163372  0.219575  1
  Zr  Zr5  1  0.997494  0.336558  0.530517  1
  Zr  Zr6  1  0.662545  0.002230  0.969064  1
  Zr  Zr7  1  0.336896  0.996399  0.470437  1
  V  V8  1  0.336634  0.500274  0.377786  1
  V  V9  1  0.663556  0.500474  0.876132  1
  V  V10  1  0.501758  0.336439  0.623293  1
  V  V11  1  0.499142  0.664415  0.122384  1
  V  V12  1  0.998827  0.836487  0.627282  1
  V  V13  1  0.163778  0.001930  0.872872  1
  V  V14  1  0.838367  0.998746  0.372645  1
  Si  Si15  1  0.290793  0.959552  0.063582  1
  Si  Si16  1  0.538772  0.789020  0.314441  1
  Si  Si17  1  0.461160  0.211067  0.813467  1
  Si  Si18  1  0.789580  0.539451  0.685897  1
  Si  Si19  1  0.213363  0.463401  0.187127  1
  Si  Si20  1  0.711061  0.038444  0.563597  1
  Si  Si21  1  0.960219  0.291858  0.933934  1
  Si  Si22  1  0.038915  0.710258  0.436797  1
  Si  Si23  1  0.702945  0.379831  0.069394  1
  Si  Si24  1  0.124897  0.207876  0.323489  1
  Si  Si25  1  0.877548  0.792785  0.821287  1
  Si  Si26  1  0.207682  0.123017  0.678713  1
  Si  Si27  1  0.790415  0.872532  0.179761  1
  Si  Si28  1  0.292897  0.623006  0.571611  1
  Si  Si29  1  0.376266  0.707552  0.928067  1
  Si  Si30  1  0.623512  0.291301  0.428776  1
  Mo  Mo31  1  0.334462  0.334651  0.998780  1
  Mo  Mo32  1  0.167378  0.831369  0.251707  1
  Mo  Mo33  1  0.833707  0.165984  0.749386  1
  Mo  Mo34  1  0.666078  0.665247  0.500044  1
  Mo  Mo35  1  0.996941  0.164732  0.127247  1
