# generated using pymatgen
data_Ho9Er(BiPd2)2
_symmetry_space_group_name_H-M   'P 1'
_cell_length_a   8.81111174
_cell_length_b   8.81111197
_cell_length_c   8.81111119
_cell_angle_alpha   127.50878530
_cell_angle_beta   127.50878397
_cell_angle_gamma   77.42213679
_symmetry_Int_Tables_number   1
_chemical_formula_structural   Ho9Er(BiPd2)2
_chemical_formula_sum   'Ho9 Er1 Bi2 Pd4'
_cell_volume   417.53769396
_cell_formula_units_Z   1
loop_
 _symmetry_equiv_pos_site_id
 _symmetry_equiv_pos_as_xyz
  1  'x, y, z'
loop_
 _atom_site_type_symbol
 _atom_site_label
 _atom_site_symmetry_multiplicity
 _atom_site_fract_x
 _atom_site_fract_y
 _atom_site_fract_z
 _atom_site_occupancy
  Ho  Ho0  1  0.500000  0.500000  0.000000  1
  Ho  Ho1  1  0.796165  0.295909  0.811214  1
  Ho  Ho2  1  0.203835  0.704091  0.188786  1
  Ho  Ho3  1  0.484695  0.984951  0.188786  1
  Ho  Ho4  1  0.295909  0.484695  0.499744  1
  Ho  Ho5  1  0.015049  0.203835  0.499744  1
  Ho  Ho6  1  0.515305  0.015049  0.811214  1
  Ho  Ho7  1  0.704091  0.515305  0.500256  1
  Ho  Ho8  1  0.984951  0.796165  0.500256  1
  Er  Er9  1  0.000000  0.000000  0.000000  1
  Bi  Bi10  1  0.249973  0.249973  0.000000  1
  Bi  Bi11  1  0.750027  0.750027  0.000000  1
  Pd  Pd12  1  0.136096  0.636420  0.772515  1
  Pd  Pd13  1  0.863904  0.363580  0.227485  1
  Pd  Pd14  1  0.636420  0.863904  0.500324  1
  Pd  Pd15  1  0.363580  0.136096  0.499676  1
