# generated using pymatgen
data_Pr(TlCl2)3
_symmetry_space_group_name_H-M   'P 1'
_cell_length_a   8.03348057
_cell_length_b   8.03348050
_cell_length_c   8.03348000
_cell_angle_alpha   61.20449047
_cell_angle_beta   61.20449075
_cell_angle_gamma   61.20448968
_symmetry_Int_Tables_number   1
_chemical_formula_structural   Pr(TlCl2)3
_chemical_formula_sum   'Pr1 Tl3 Cl6'
_cell_volume   376.53561718
_cell_formula_units_Z   1
loop_
 _symmetry_equiv_pos_site_id
 _symmetry_equiv_pos_as_xyz
  1  'x, y, z'
loop_
 _atom_site_type_symbol
 _atom_site_label
 _atom_site_symmetry_multiplicity
 _atom_site_fract_x
 _atom_site_fract_y
 _atom_site_fract_z
 _atom_site_occupancy
  Pr  Pr0  1  0.000000  0.000000  0.000000  1
  Tl  Tl1  1  0.219252  0.219252  0.219252  1
  Tl  Tl2  1  0.500000  0.500000  0.500000  1
  Tl  Tl3  1  0.780748  0.780748  0.780748  1
  Cl  Cl4  1  0.797640  0.338831  0.120098  1
  Cl  Cl5  1  0.661169  0.879901  0.202360  1
  Cl  Cl6  1  0.120098  0.797639  0.338832  1
  Cl  Cl7  1  0.879902  0.202360  0.661168  1
  Cl  Cl8  1  0.338831  0.120099  0.797640  1
  Cl  Cl9  1  0.202360  0.661168  0.879902  1
