# generated using pymatgen
data_ErSc11Ni4
_symmetry_space_group_name_H-M   'P 1'
_cell_length_a   5.96789619
_cell_length_b   6.34007104
_cell_length_c   8.92577200
_cell_angle_alpha   90.00000000
_cell_angle_beta   90.00000000
_cell_angle_gamma   90.25519719
_symmetry_Int_Tables_number   1
_chemical_formula_structural   ErSc11Ni4
_chemical_formula_sum   'Er1 Sc11 Ni4'
_cell_volume   337.72006592
_cell_formula_units_Z   1
loop_
 _symmetry_equiv_pos_site_id
 _symmetry_equiv_pos_as_xyz
  1  'x, y, z'
loop_
 _atom_site_type_symbol
 _atom_site_label
 _atom_site_symmetry_multiplicity
 _atom_site_fract_x
 _atom_site_fract_y
 _atom_site_fract_z
 _atom_site_occupancy
  Er  Er0  1  0.375653  0.977152  0.750000  1
  Sc  Sc1  1  0.315171  0.678412  0.063349  1
  Sc  Sc2  1  0.184931  0.183891  0.435016  1
  Sc  Sc3  1  0.688316  0.320397  0.556317  1
  Sc  Sc4  1  0.818403  0.818087  0.941621  1
  Sc  Sc5  1  0.688316  0.320397  0.943683  1
  Sc  Sc6  1  0.818403  0.818087  0.558379  1
  Sc  Sc7  1  0.315171  0.678412  0.436651  1
  Sc  Sc8  1  0.184931  0.183891  0.064984  1
  Sc  Sc9  1  0.877533  0.527341  0.250000  1
  Sc  Sc10  1  0.623034  0.025498  0.250000  1
  Sc  Sc11  1  0.121807  0.472231  0.750000  1
  Ni  Ni12  1  0.042027  0.902015  0.250000  1
  Ni  Ni13  1  0.459988  0.401593  0.250000  1
  Ni  Ni14  1  0.940714  0.102883  0.750000  1
  Ni  Ni15  1  0.545604  0.589712  0.750000  1
