# generated using pymatgen
data_La8Cd2FeNi
_symmetry_space_group_name_H-M   'P 1'
_cell_length_a   9.97359975
_cell_length_b   9.97359986
_cell_length_c   10.09107800
_cell_angle_alpha   59.60958581
_cell_angle_beta   59.60958544
_cell_angle_gamma   59.80006067
_symmetry_Int_Tables_number   1
_chemical_formula_structural   La8Cd2FeNi
_chemical_formula_sum   'La16 Cd4 Fe2 Ni2'
_cell_volume   704.50739466
_cell_formula_units_Z   2
loop_
 _symmetry_equiv_pos_site_id
 _symmetry_equiv_pos_as_xyz
  1  'x, y, z'
loop_
 _atom_site_type_symbol
 _atom_site_label
 _atom_site_symmetry_multiplicity
 _atom_site_fract_x
 _atom_site_fract_y
 _atom_site_fract_z
 _atom_site_occupancy
  La  La0  1  0.593292  0.593292  0.601234  1
  La  La1  1  0.593292  0.593292  0.212182  1
  La  La2  1  0.593125  0.215133  0.595872  1
  La  La3  1  0.215133  0.593125  0.595872  1
  La  La4  1  0.069104  0.437432  0.439421  1
  La  La5  1  0.437432  0.069104  0.054042  1
  La  La6  1  0.437432  0.069104  0.439421  1
  La  La7  1  0.069104  0.437432  0.054042  1
  La  La8  1  0.437553  0.437553  0.062447  1
  La  La9  1  0.055020  0.055020  0.444980  1
  La  La10  1  0.190573  0.807089  0.812572  1
  La  La11  1  0.807089  0.190573  0.189765  1
  La  La12  1  0.807089  0.190573  0.812572  1
  La  La13  1  0.190573  0.807089  0.189765  1
  La  La14  1  0.810061  0.810061  0.189939  1
  La  La15  1  0.191090  0.191090  0.808910  1
  Cd  Cd16  1  0.827880  0.827880  0.829978  1
  Cd  Cd17  1  0.827880  0.827880  0.514264  1
  Cd  Cd18  1  0.829457  0.512336  0.829103  1
  Cd  Cd19  1  0.512336  0.829457  0.829103  1
  Fe  Fe20  1  0.390545  0.390545  0.385701  1
  Fe  Fe21  1  0.390545  0.390545  0.833210  1
  Ni  Ni22  1  0.394975  0.829423  0.387802  1
  Ni  Ni23  1  0.829423  0.394975  0.387802  1
