# generated using pymatgen
data_PrNdGd4(RuO7)2
_symmetry_space_group_name_H-M   'P 1'
_cell_length_a   6.53048757
_cell_length_b   6.53048808
_cell_length_c   7.57269608
_cell_angle_alpha   90.00937299
_cell_angle_beta   90.00937318
_cell_angle_gamma   110.76507557
_symmetry_Int_Tables_number   1
_chemical_formula_structural   PrNdGd4(RuO7)2
_chemical_formula_sum   'Pr1 Nd1 Gd4 Ru2 O14'
_cell_volume   301.97629773
_cell_formula_units_Z   1
loop_
 _symmetry_equiv_pos_site_id
 _symmetry_equiv_pos_as_xyz
  1  'x, y, z'
loop_
 _atom_site_type_symbol
 _atom_site_label
 _atom_site_symmetry_multiplicity
 _atom_site_fract_x
 _atom_site_fract_y
 _atom_site_fract_z
 _atom_site_occupancy
  Pr  Pr0  1  0.000000  0.000000  0.500000  1
  Nd  Nd1  1  0.000000  0.000000  0.000000  1
  Gd  Gd2  1  0.478650  0.926332  0.750273  1
  Gd  Gd3  1  0.521350  0.073668  0.249727  1
  Gd  Gd4  1  0.926332  0.478650  0.750273  1
  Gd  Gd5  1  0.073668  0.521350  0.249727  1
  Ru  Ru6  1  0.500000  0.500000  0.500000  1
  Ru  Ru7  1  0.500000  0.500000  0.000000  1
  O  O8  1  0.586265  0.586265  0.749980  1
  O  O9  1  0.413735  0.413735  0.250020  1
  O  O10  1  0.838601  0.112254  0.751352  1
  O  O11  1  0.161399  0.887746  0.248648  1
  O  O12  1  0.112254  0.838601  0.751352  1
  O  O13  1  0.887746  0.161399  0.248648  1
  O  O14  1  0.438961  0.183834  0.962205  1
  O  O15  1  0.560432  0.816195  0.462157  1
  O  O16  1  0.183834  0.438961  0.962205  1
  O  O17  1  0.816195  0.560432  0.462157  1
  O  O18  1  0.439568  0.183805  0.537843  1
  O  O19  1  0.561039  0.816166  0.037795  1
  O  O20  1  0.816166  0.561039  0.037795  1
  O  O21  1  0.183805  0.439568  0.537843  1
