# generated using pymatgen
data_Ho10Sn6P
_symmetry_space_group_name_H-M   'P 1'
_cell_length_a   6.54133400
_cell_length_b   9.02815595
_cell_length_c   9.02777100
_cell_angle_alpha   120.00116013
_cell_angle_beta   90.00136954
_cell_angle_gamma   89.99821944
_symmetry_Int_Tables_number   1
_chemical_formula_structural   Ho10Sn6P
_chemical_formula_sum   'Ho10 Sn6 P1'
_cell_volume   461.71232260
_cell_formula_units_Z   1
loop_
 _symmetry_equiv_pos_site_id
 _symmetry_equiv_pos_as_xyz
  1  'x, y, z'
loop_
 _atom_site_type_symbol
 _atom_site_label
 _atom_site_symmetry_multiplicity
 _atom_site_fract_x
 _atom_site_fract_y
 _atom_site_fract_z
 _atom_site_occupancy
  Ho  Ho0  1  0.499999  0.333336  0.666689  1
  Ho  Ho1  1  0.499998  0.666665  0.333310  1
  Ho  Ho2  1  0.000002  0.666669  0.333329  1
  Ho  Ho3  1  0.999999  0.333330  0.666668  1
  Ho  Ho4  1  0.747776  0.244816  0.999983  1
  Ho  Ho5  1  0.747786  0.755183  0.755188  1
  Ho  Ho6  1  0.747784  0.000005  0.244819  1
  Ho  Ho7  1  0.252223  0.755175  0.000000  1
  Ho  Ho8  1  0.252216  0.244807  0.244819  1
  Ho  Ho9  1  0.252215  0.000015  0.755192  1
  Sn  Sn10  1  0.749950  0.605541  0.999993  1
  Sn  Sn11  1  0.749964  0.394457  0.394462  1
  Sn  Sn12  1  0.749958  0.000014  0.605548  1
  Sn  Sn13  1  0.250050  0.394451  0.999989  1
  Sn  Sn14  1  0.250040  0.605536  0.605550  1
  Sn  Sn15  1  0.250040  0.000002  0.394460  1
  P  P16  1  0.499998  0.000001  0.000001  1
