# generated using pymatgen
data_TbU3(TaN2)4
_symmetry_space_group_name_H-M   'P 1'
_cell_length_a   3.25486500
_cell_length_b   5.67253105
_cell_length_c   10.96285611
_cell_angle_alpha   89.98425478
_cell_angle_beta   90.00000000
_cell_angle_gamma   90.00000000
_symmetry_Int_Tables_number   1
_chemical_formula_structural   TbU3(TaN2)4
_chemical_formula_sum   'Tb1 U3 Ta4 N8'
_cell_volume   202.41074327
_cell_formula_units_Z   1
loop_
 _symmetry_equiv_pos_site_id
 _symmetry_equiv_pos_as_xyz
  1  'x, y, z'
loop_
 _atom_site_type_symbol
 _atom_site_label
 _atom_site_symmetry_multiplicity
 _atom_site_fract_x
 _atom_site_fract_y
 _atom_site_fract_z
 _atom_site_occupancy
  Tb  Tb0  1  0.250000  0.579746  0.856469  1
  U  U1  1  0.750000  0.422277  0.140049  1
  U  U2  1  0.750000  0.922168  0.357786  1
  U  U3  1  0.250000  0.079869  0.642627  1
  Ta  Ta4  1  0.250000  0.922162  0.103372  1
  Ta  Ta5  1  0.750000  0.074650  0.899203  1
  Ta  Ta6  1  0.750000  0.577186  0.603162  1
  Ta  Ta7  1  0.250000  0.423769  0.397684  1
  N  N8  1  0.250000  0.661397  0.245686  1
  N  N9  1  0.750000  0.331833  0.752003  1
  N  N10  1  0.750000  0.843019  0.743163  1
  N  N11  1  0.250000  0.162060  0.255423  1
  N  N12  1  0.250000  0.757652  0.505757  1
  N  N13  1  0.750000  0.241719  0.495226  1
  N  N14  1  0.750000  0.742000  0.005688  1
  N  N15  1  0.250000  0.258493  0.996702  1
