# generated using pymatgen
data_La4CrGe3F28
_symmetry_space_group_name_H-M   'P 1'
_cell_length_a   5.68172578
_cell_length_b   9.15657781
_cell_length_c   12.22191600
_cell_angle_alpha   62.10520218
_cell_angle_beta   89.96995910
_cell_angle_gamma   89.95261881
_symmetry_Int_Tables_number   1
_chemical_formula_structural   La4CrGe3F28
_chemical_formula_sum   'La4 Cr1 Ge3 F28'
_cell_volume   561.96670319
_cell_formula_units_Z   1
loop_
 _symmetry_equiv_pos_site_id
 _symmetry_equiv_pos_as_xyz
  1  'x, y, z'
loop_
 _atom_site_type_symbol
 _atom_site_label
 _atom_site_symmetry_multiplicity
 _atom_site_fract_x
 _atom_site_fract_y
 _atom_site_fract_z
 _atom_site_occupancy
  La  La0  1  0.759992  0.805957  0.265474  1
  La  La1  1  0.259900  0.191034  0.235777  1
  La  La2  1  0.240583  0.195789  0.733337  1
  La  La3  1  0.739865  0.806879  0.764763  1
  Cr  Cr4  1  0.255545  0.725513  0.042855  1
  Ge  Ge5  1  0.243399  0.725906  0.542662  1
  Ge  Ge6  1  0.743535  0.274157  0.957437  1
  Ge  Ge7  1  0.756217  0.274412  0.456902  1
  F  F8  1  0.976899  0.713426  0.462003  1
  F  F9  1  0.477393  0.286263  0.038928  1
  F  F10  1  0.022922  0.286633  0.538022  1
  F  F11  1  0.528161  0.715116  0.959048  1
  F  F12  1  0.064567  0.708795  0.926236  1
  F  F13  1  0.567583  0.291947  0.571536  1
  F  F14  1  0.933404  0.291588  0.071567  1
  F  F15  1  0.432033  0.708364  0.428386  1
  F  F16  1  0.736088  0.499371  0.865191  1
  F  F17  1  0.236509  0.500367  0.634456  1
  F  F18  1  0.265039  0.497650  0.135292  1
  F  F19  1  0.763192  0.499659  0.365716  1
  F  F20  1  0.739127  0.049487  0.045518  1
  F  F21  1  0.238733  0.950776  0.454626  1
  F  F22  1  0.259575  0.951711  0.955042  1
  F  F23  1  0.760533  0.049868  0.545097  1
  F  F24  1  0.056491  0.740073  0.660728  1
  F  F25  1  0.555308  0.259040  0.839810  1
  F  F26  1  0.944055  0.260148  0.338903  1
  F  F27  1  0.444639  0.740561  0.163233  1
  F  F28  1  0.003057  0.268261  0.870157  1
  F  F29  1  0.503452  0.731431  0.629520  1
  F  F30  1  0.987818  0.730366  0.130785  1
  F  F31  1  0.496186  0.269079  0.370000  1
  F  F32  1  0.097402  0.967348  0.227881  1
  F  F33  1  0.597456  0.031922  0.272485  1
  F  F34  1  0.908053  0.030953  0.772124  1
  F  F35  1  0.405286  0.970152  0.728505  1
