# generated using pymatgen
data_DyErV6O18
_symmetry_space_group_name_H-M   'P 1'
_cell_length_a   7.42249766
_cell_length_b   8.46545839
_cell_length_c   9.55259447
_cell_angle_alpha   105.91014823
_cell_angle_beta   112.88533659
_cell_angle_gamma   64.04312964
_symmetry_Int_Tables_number   1
_chemical_formula_structural   DyErV6O18
_chemical_formula_sum   'Dy1 Er1 V6 O18'
_cell_volume   493.27698195
_cell_formula_units_Z   1
loop_
 _symmetry_equiv_pos_site_id
 _symmetry_equiv_pos_as_xyz
  1  'x, y, z'
loop_
 _atom_site_type_symbol
 _atom_site_label
 _atom_site_symmetry_multiplicity
 _atom_site_fract_x
 _atom_site_fract_y
 _atom_site_fract_z
 _atom_site_occupancy
  Dy  Dy0  1  0.202185  0.857459  0.742438  1
  Er  Er1  1  0.681974  0.357917  0.242716  1
  V  V2  1  0.749323  0.607434  0.008632  1
  V  V3  1  0.991637  0.908186  0.074739  1
  V  V4  1  0.418868  0.807690  0.416314  1
  V  V5  1  0.650213  0.108795  0.506136  1
  V  V6  1  0.172523  0.406341  0.573143  1
  V  V7  1  0.192910  0.308483  0.918115  1
  O  O8  1  0.370022  0.384285  0.060473  1
  O  O9  1  0.833901  0.124402  0.091621  1
  O  O10  1  0.863948  0.773615  0.082163  1
  O  O11  1  0.686433  0.566829  0.143299  1
  O  O12  1  0.223817  0.874468  0.237935  1
  O  O13  1  0.647463  0.177985  0.355046  1
  O  O14  1  0.999236  0.347437  0.412726  1
  O  O15  1  0.532621  0.584605  0.399906  1
  O  O16  1  0.609049  0.903271  0.451732  1
  O  O17  1  0.309486  0.883212  0.559119  1
  O  O18  1  0.130615  0.622390  0.588280  1
  O  O19  1  0.441417  0.272413  0.578803  1
  O  O20  1  0.887518  0.070562  0.641656  1
  O  O21  1  0.141555  0.374234  0.738905  1
  O  O22  1  0.531968  0.675352  0.857138  1
  O  O23  1  0.059582  0.849864  0.912804  1
  O  O24  1  0.285293  0.085559  0.902176  1
  O  O25  1  0.943238  0.403814  0.954187  1
