# generated using pymatgen
data_Gd3Mg3Ru2Rh
_symmetry_space_group_name_H-M   'P 1'
_cell_length_a   7.31623400
_cell_length_b   7.31623356
_cell_length_c   4.09928300
_cell_angle_alpha   90.00000000
_cell_angle_beta   90.00000000
_cell_angle_gamma   120.00000197
_symmetry_Int_Tables_number   1
_chemical_formula_structural   Gd3Mg3Ru2Rh
_chemical_formula_sum   'Gd3 Mg3 Ru2 Rh1'
_cell_volume   190.02628297
_cell_formula_units_Z   1
loop_
 _symmetry_equiv_pos_site_id
 _symmetry_equiv_pos_as_xyz
  1  'x, y, z'
loop_
 _atom_site_type_symbol
 _atom_site_label
 _atom_site_symmetry_multiplicity
 _atom_site_fract_x
 _atom_site_fract_y
 _atom_site_fract_z
 _atom_site_occupancy
  Gd  Gd0  1  0.583274  0.000000  0.000000  1
  Gd  Gd1  1  0.000000  0.583274  0.000000  1
  Gd  Gd2  1  0.416726  0.416726  0.000000  1
  Mg  Mg3  1  0.244730  0.000000  0.500000  1
  Mg  Mg4  1  0.000000  0.244730  0.500000  1
  Mg  Mg5  1  0.755270  0.755270  0.500000  1
  Ru  Ru6  1  0.333333  0.666667  0.500000  1
  Ru  Ru7  1  0.666667  0.333333  0.500000  1
  Rh  Rh8  1  0.000000  0.000000  0.000000  1
