# generated using pymatgen
data_Ho4AlRu3F28
_symmetry_space_group_name_H-M   'P 1'
_cell_length_a   5.50552948
_cell_length_b   8.81087443
_cell_length_c   11.82857719
_cell_angle_alpha   63.14738152
_cell_angle_beta   89.60549417
_cell_angle_gamma   90.24060073
_symmetry_Int_Tables_number   1
_chemical_formula_structural   Ho4AlRu3F28
_chemical_formula_sum   'Ho4 Al1 Ru3 F28'
_cell_volume   511.88691096
_cell_formula_units_Z   1
loop_
 _symmetry_equiv_pos_site_id
 _symmetry_equiv_pos_as_xyz
  1  'x, y, z'
loop_
 _atom_site_type_symbol
 _atom_site_label
 _atom_site_symmetry_multiplicity
 _atom_site_fract_x
 _atom_site_fract_y
 _atom_site_fract_z
 _atom_site_occupancy
  Ho  Ho0  1  0.761964  0.794430  0.776106  1
  Ho  Ho1  1  0.262398  0.185945  0.746026  1
  Ho  Ho2  1  0.242844  0.199432  0.211626  1
  Ho  Ho3  1  0.740994  0.834334  0.252319  1
  Al  Al4  1  0.757364  0.275542  0.953351  1
  Ru  Ru5  1  0.258767  0.728813  0.541419  1
  Ru  Ru6  1  0.244732  0.726738  0.046590  1
  Ru  Ru7  1  0.743187  0.274687  0.453410  1
  F  F8  1  0.435706  0.698055  0.919429  1
  F  F9  1  0.944630  0.296244  0.577926  1
  F  F10  1  0.546701  0.289858  0.070218  1
  F  F11  1  0.057157  0.706688  0.416740  1
  F  F12  1  0.452650  0.278769  0.547143  1
  F  F13  1  0.942238  0.717289  0.964269  1
  F  F14  1  0.553964  0.724425  0.450409  1
  F  F15  1  0.024832  0.286610  0.042977  1
  F  F16  1  0.770522  0.508850  0.862819  1
  F  F17  1  0.271920  0.486260  0.636742  1
  F  F18  1  0.229796  0.486163  0.142233  1
  F  F19  1  0.728421  0.516661  0.358570  1
  F  F20  1  0.760878  0.040981  0.053689  1
  F  F21  1  0.258222  0.968062  0.452938  1
  F  F22  1  0.250030  0.967017  0.958882  1
  F  F23  1  0.748409  0.034303  0.544767  1
  F  F24  1  0.968543  0.729782  0.635801  1
  F  F25  1  0.502484  0.263360  0.858870  1
  F  F26  1  0.028675  0.274410  0.357059  1
  F  F27  1  0.539457  0.726397  0.136501  1
  F  F28  1  0.054781  0.744739  0.179590  1
  F  F29  1  0.540834  0.254366  0.325960  1
  F  F30  1  0.963298  0.249518  0.839035  1
  F  F31  1  0.454843  0.747481  0.671554  1
  F  F32  1  0.400108  0.966211  0.231480  1
  F  F33  1  0.919004  0.033323  0.275395  1
  F  F34  1  0.568904  0.013931  0.768560  1
  F  F35  1  0.070743  0.970325  0.739597  1
