# generated using pymatgen
data_Ta6Al3Ga(IrC)2
_symmetry_space_group_name_H-M   'P 1'
_cell_length_a   8.31593341
_cell_length_b   8.32065794
_cell_length_c   8.32065673
_cell_angle_alpha   60.04073309
_cell_angle_beta   60.01878479
_cell_angle_gamma   60.01877955
_symmetry_Int_Tables_number   1
_chemical_formula_structural   Ta6Al3Ga(IrC)2
_chemical_formula_sum   'Ta12 Al6 Ga2 Ir4 C4'
_cell_volume   407.35036066
_cell_formula_units_Z   2
loop_
 _symmetry_equiv_pos_site_id
 _symmetry_equiv_pos_as_xyz
  1  'x, y, z'
loop_
 _atom_site_type_symbol
 _atom_site_label
 _atom_site_symmetry_multiplicity
 _atom_site_fract_x
 _atom_site_fract_y
 _atom_site_fract_z
 _atom_site_occupancy
  Ta  Ta0  1  0.563872  0.935711  0.564853  1
  Ta  Ta1  1  0.314288  0.686040  0.686040  1
  Ta  Ta2  1  0.685655  0.313516  0.313516  1
  Ta  Ta3  1  0.314436  0.685147  0.314289  1
  Ta  Ta4  1  0.686279  0.686976  0.313666  1
  Ta  Ta5  1  0.314436  0.314289  0.685147  1
  Ta  Ta6  1  0.563872  0.564853  0.935711  1
  Ta  Ta7  1  0.936369  0.563960  0.563960  1
  Ta  Ta8  1  0.562687  0.936484  0.936484  1
  Ta  Ta9  1  0.936921  0.936334  0.563024  1
  Ta  Ta10  1  0.686279  0.313666  0.686976  1
  Ta  Ta11  1  0.936921  0.563024  0.936334  1
  Al  Al12  1  0.333288  0.999691  0.333591  1
  Al  Al13  1  0.333288  0.333591  0.999691  1
  Al  Al14  1  0.916572  0.250309  0.916409  1
  Al  Al15  1  0.916572  0.916409  0.250309  1
  Al  Al16  1  0.249771  0.916663  0.916663  1
  Al  Al17  1  0.333096  0.333337  0.333337  1
  Ga  Ga18  1  0.914333  0.914443  0.914443  1
  Ga  Ga19  1  0.993217  0.335557  0.335557  1
  Ir  Ir20  1  0.126341  0.123420  0.123420  1
  Ir  Ir21  1  0.623182  0.126580  0.126580  1
  Ir  Ir22  1  0.128249  0.625000  0.125000  1
  Ir  Ir23  1  0.128249  0.125000  0.625000  1
  C  C24  1  0.625526  0.624672  0.624672  1
  C  C25  1  0.124869  0.625328  0.625328  1
  C  C26  1  0.625716  0.125000  0.625000  1
  C  C27  1  0.625716  0.625000  0.125000  1
