# generated using pymatgen
data_Dy3Y3(Tm2Sb3)2
_symmetry_space_group_name_H-M   'P 1'
_cell_length_a   6.25373900
_cell_length_b   8.95890481
_cell_length_c   8.95905500
_cell_angle_alpha   119.99944559
_cell_angle_beta   90.00000000
_cell_angle_gamma   90.00000000
_symmetry_Int_Tables_number   1
_chemical_formula_structural   Dy3Y3(Tm2Sb3)2
_chemical_formula_sum   'Dy3 Y3 Tm4 Sb6'
_cell_volume   434.70029491
_cell_formula_units_Z   1
loop_
 _symmetry_equiv_pos_site_id
 _symmetry_equiv_pos_as_xyz
  1  'x, y, z'
loop_
 _atom_site_type_symbol
 _atom_site_label
 _atom_site_symmetry_multiplicity
 _atom_site_fract_x
 _atom_site_fract_y
 _atom_site_fract_z
 _atom_site_occupancy
  Dy  Dy0  1  0.249999  0.753253  0.000000  1
  Dy  Dy1  1  0.250001  0.246784  0.246786  1
  Dy  Dy2  1  0.250001  0.999998  0.753214  1
  Y  Y3  1  0.749999  0.246759  0.000000  1
  Y  Y4  1  0.750001  0.753200  0.753198  1
  Y  Y5  1  0.750001  0.000002  0.246802  1
  Tm  Tm6  1  0.499929  0.333337  0.666677  1
  Tm  Tm7  1  0.499929  0.666660  0.333323  1
  Tm  Tm8  1  0.000069  0.666664  0.333323  1
  Tm  Tm9  1  0.000069  0.333341  0.666677  1
  Sb  Sb10  1  0.749999  0.610382  0.000000  1
  Sb  Sb11  1  0.750001  0.389622  0.389629  1
  Sb  Sb12  1  0.750001  0.999993  0.610371  1
  Sb  Sb13  1  0.249999  0.389621  0.000000  1
  Sb  Sb14  1  0.250001  0.610376  0.610368  1
  Sb  Sb15  1  0.250001  0.000008  0.389632  1
