# generated using pymatgen
data_La12Tl2OsRhI12
_symmetry_space_group_name_H-M   'P 1'
_cell_length_a   11.42099137
_cell_length_b   11.40195734
_cell_length_c   11.06439187
_cell_angle_alpha   109.46910339
_cell_angle_beta   109.53426881
_cell_angle_gamma   110.65736610
_symmetry_Int_Tables_number   1
_chemical_formula_structural   La12Tl2OsRhI12
_chemical_formula_sum   'La12 Tl2 Os1 Rh1 I12'
_cell_volume   1091.63141933
_cell_formula_units_Z   1
loop_
 _symmetry_equiv_pos_site_id
 _symmetry_equiv_pos_as_xyz
  1  'x, y, z'
loop_
 _atom_site_type_symbol
 _atom_site_label
 _atom_site_symmetry_multiplicity
 _atom_site_fract_x
 _atom_site_fract_y
 _atom_site_fract_z
 _atom_site_occupancy
  La  La0  1  0.458658  0.492077  0.214104  1
  La  La1  1  0.772901  0.243387  0.280810  1
  La  La2  1  0.774359  0.031637  0.499622  1
  La  La3  1  0.225266  0.467985  0.499690  1
  La  La4  1  0.255497  0.722013  0.214061  1
  La  La5  1  0.033106  0.276123  0.999856  1
  La  La6  1  0.007852  0.037463  0.280756  1
  La  La7  1  0.466773  0.723704  0.999899  1
  La  La8  1  0.493252  0.243269  0.486499  1
  La  La9  1  0.024103  0.482120  0.756049  1
  La  La10  1  0.256259  0.006271  0.012540  1
  La  La11  1  0.231956  0.273904  0.756096  1
  Tl  Tl12  1  0.249407  0.250369  0.251093  1
  Tl  Tl13  1  0.501690  0.000748  0.251068  1
  Os  Os14  1  0.246501  0.496467  0.992997  1
  Rh  Rh15  1  0.002073  0.252062  0.504149  1
  I  I16  1  0.251134  0.760753  0.741332  1
  I  I17  1  0.518709  0.508789  0.757422  1
  I  I18  1  0.993841  0.749030  0.999276  1
  I  I19  1  0.738833  0.248770  0.757414  1
  I  I20  1  0.990031  0.980512  0.741390  1
  I  I21  1  0.249620  0.995857  0.501257  1
  I  I22  1  0.751786  0.505618  0.501509  1
  I  I23  1  0.505474  0.250137  0.999237  1
  I  I24  1  0.755650  0.746633  0.251328  1
  I  I25  1  0.746292  0.996324  0.992938  1
  I  I26  1  0.995817  0.504732  0.251322  1
  I  I27  1  0.503160  0.753248  0.506286  1
