# generated using pymatgen
data_Ho12GaCo4Bi
_symmetry_space_group_name_H-M   'P 1'
_cell_length_a   8.30794826
_cell_length_b   8.30794797
_cell_length_c   8.30794792
_cell_angle_alpha   112.01823774
_cell_angle_beta   109.31032919
_cell_angle_gamma   107.12237970
_symmetry_Int_Tables_number   1
_chemical_formula_structural   Ho12GaCo4Bi
_chemical_formula_sum   'Ho12 Ga1 Co4 Bi1'
_cell_volume   440.61673901
_cell_formula_units_Z   1
loop_
 _symmetry_equiv_pos_site_id
 _symmetry_equiv_pos_as_xyz
  1  'x, y, z'
loop_
 _atom_site_type_symbol
 _atom_site_label
 _atom_site_symmetry_multiplicity
 _atom_site_fract_x
 _atom_site_fract_y
 _atom_site_fract_z
 _atom_site_occupancy
  Ho  Ho0  1  0.972249  0.269058  0.703190  1
  Ho  Ho1  1  0.027751  0.730942  0.296810  1
  Ho  Ho2  1  0.676831  0.860782  0.183951  1
  Ho  Ho3  1  0.323169  0.507121  0.183951  1
  Ho  Ho4  1  0.323169  0.139218  0.816049  1
  Ho  Ho5  1  0.676831  0.492879  0.816049  1
  Ho  Ho6  1  0.565868  0.269058  0.296810  1
  Ho  Ho7  1  0.434132  0.730942  0.703190  1
  Ho  Ho8  1  0.178659  0.778990  0.957649  1
  Ho  Ho9  1  0.821341  0.778990  0.600331  1
  Ho  Ho10  1  0.178659  0.221010  0.399669  1
  Ho  Ho11  1  0.821341  0.221010  0.042351  1
  Ga  Ga12  1  0.000000  0.500000  0.500000  1
  Co  Co13  1  0.113941  0.113941  0.000000  1
  Co  Co14  1  0.886059  0.886059  0.000000  1
  Co  Co15  1  0.659111  0.500000  0.159111  1
  Co  Co16  1  0.340889  0.500000  0.840889  1
  Bi  Bi17  1  0.500000  0.000000  0.500000  1
