# generated using pymatgen
data_Hf10Cu2SnSb5
_symmetry_space_group_name_H-M   'P 1'
_cell_length_a   8.59552440
_cell_length_b   8.59552470
_cell_length_c   5.75733000
_cell_angle_alpha   90.00000000
_cell_angle_beta   90.00000000
_cell_angle_gamma   120.15039096
_symmetry_Int_Tables_number   1
_chemical_formula_structural   Hf10Cu2SnSb5
_chemical_formula_sum   'Hf10 Cu2 Sn1 Sb5'
_cell_volume   367.82088204
_cell_formula_units_Z   1
loop_
 _symmetry_equiv_pos_site_id
 _symmetry_equiv_pos_as_xyz
  1  'x, y, z'
loop_
 _atom_site_type_symbol
 _atom_site_label
 _atom_site_symmetry_multiplicity
 _atom_site_fract_x
 _atom_site_fract_y
 _atom_site_fract_z
 _atom_site_occupancy
  Hf  Hf0  1  0.666935  0.333194  0.999428  1
  Hf  Hf1  1  0.333194  0.666935  0.999428  1
  Hf  Hf2  1  0.333194  0.666935  0.500572  1
  Hf  Hf3  1  0.666935  0.333194  0.500572  1
  Hf  Hf4  1  0.735325  0.735325  0.750000  1
  Hf  Hf5  1  0.265874  0.999802  0.750000  1
  Hf  Hf6  1  0.999802  0.265874  0.750000  1
  Hf  Hf7  1  0.264031  0.264031  0.250000  1
  Hf  Hf8  1  0.734518  0.000352  0.250000  1
  Hf  Hf9  1  0.000352  0.734518  0.250000  1
  Cu  Cu10  1  0.000873  0.000873  0.500869  1
  Cu  Cu11  1  0.000873  0.000873  0.999131  1
  Sn  Sn12  1  0.384242  0.384242  0.750000  1
  Sb  Sb13  1  0.614503  0.999887  0.750000  1
  Sb  Sb14  1  0.999887  0.614503  0.750000  1
  Sb  Sb15  1  0.613888  0.613888  0.250000  1
  Sb  Sb16  1  0.385167  0.000406  0.250000  1
  Sb  Sb17  1  0.000406  0.385167  0.250000  1
