# generated using pymatgen
data_Cs8Er2O7
_symmetry_space_group_name_H-M   'P 1'
_cell_length_a   19.49848800
_cell_length_b   7.47407149
_cell_length_c   7.64899581
_cell_angle_alpha   61.17085226
_cell_angle_beta   90.00000000
_cell_angle_gamma   90.00000000
_symmetry_Int_Tables_number   1
_chemical_formula_structural   Cs8Er2O7
_chemical_formula_sum   'Cs16 Er4 O14'
_cell_volume   976.55609445
_cell_formula_units_Z   2
loop_
 _symmetry_equiv_pos_site_id
 _symmetry_equiv_pos_as_xyz
  1  'x, y, z'
loop_
 _atom_site_type_symbol
 _atom_site_label
 _atom_site_symmetry_multiplicity
 _atom_site_fract_x
 _atom_site_fract_y
 _atom_site_fract_z
 _atom_site_occupancy
  Cs  Cs0  1  0.706491  0.544894  0.232235  1
  Cs  Cs1  1  0.589159  0.004283  0.639573  1
  Cs  Cs2  1  0.793509  0.044894  0.232235  1
  Cs  Cs3  1  0.293509  0.455106  0.767765  1
  Cs  Cs4  1  0.692200  0.455705  0.780913  1
  Cs  Cs5  1  0.410841  0.995717  0.360427  1
  Cs  Cs6  1  0.307800  0.544295  0.219087  1
  Cs  Cs7  1  0.505347  0.522417  0.241379  1
  Cs  Cs8  1  0.807800  0.955705  0.780913  1
  Cs  Cs9  1  0.994653  0.022417  0.241379  1
  Cs  Cs10  1  0.089159  0.495717  0.360427  1
  Cs  Cs11  1  0.005347  0.977583  0.758621  1
  Cs  Cs12  1  0.494653  0.477583  0.758621  1
  Cs  Cs13  1  0.910841  0.504283  0.639573  1
  Cs  Cs14  1  0.192200  0.044295  0.219087  1
  Cs  Cs15  1  0.206491  0.955106  0.767765  1
  Er  Er16  1  0.096201  0.498995  0.854785  1
  Er  Er17  1  0.403799  0.998995  0.854785  1
  Er  Er18  1  0.596201  0.001005  0.145215  1
  Er  Er19  1  0.903799  0.501005  0.145215  1
  O  O20  1  0.322879  0.007142  0.039852  1
  O  O21  1  0.400192  0.264507  0.568809  1
  O  O22  1  0.900192  0.235493  0.431191  1
  O  O23  1  0.099808  0.764507  0.568809  1
  O  O24  1  0.177121  0.507142  0.039852  1
  O  O25  1  0.392516  0.724958  0.834463  1
  O  O26  1  0.892516  0.775042  0.165537  1
  O  O27  1  0.599808  0.735493  0.431191  1
  O  O28  1  0.000000  0.500000  0.000000  1
  O  O29  1  0.607484  0.275042  0.165537  1
  O  O30  1  0.677121  0.992858  0.960148  1
  O  O31  1  0.822879  0.492858  0.960148  1
  O  O32  1  0.500000  0.000000  0.000000  1
  O  O33  1  0.107484  0.224958  0.834463  1
