# generated using pymatgen
data_Ta14Si5P3
_symmetry_space_group_name_H-M   'P 1'
_cell_length_a   3.47491800
_cell_length_b   7.76877430
_cell_length_c   13.97715450
_cell_angle_alpha   103.86691854
_cell_angle_beta   90.00000000
_cell_angle_gamma   102.92329889
_symmetry_Int_Tables_number   1
_chemical_formula_structural   Ta14Si5P3
_chemical_formula_sum   'Ta14 Si5 P3'
_cell_volume   356.47583560
_cell_formula_units_Z   1
loop_
 _symmetry_equiv_pos_site_id
 _symmetry_equiv_pos_as_xyz
  1  'x, y, z'
loop_
 _atom_site_type_symbol
 _atom_site_label
 _atom_site_symmetry_multiplicity
 _atom_site_fract_x
 _atom_site_fract_y
 _atom_site_fract_z
 _atom_site_occupancy
  Ta  Ta0  1  0.999330  0.998659  0.999666  1
  Ta  Ta1  1  0.500778  0.001556  0.500433  1
  Ta  Ta2  1  0.429182  0.858365  0.825576  1
  Ta  Ta3  1  0.569612  0.139222  0.171718  1
  Ta  Ta4  1  0.198264  0.396527  0.308385  1
  Ta  Ta5  1  0.800973  0.601945  0.690918  1
  Ta  Ta6  1  0.207263  0.414527  0.798183  1
  Ta  Ta7  1  0.791189  0.582380  0.199941  1
  Ta  Ta8  1  0.335628  0.671256  0.031066  1
  Ta  Ta9  1  0.663901  0.327804  0.967745  1
  Ta  Ta10  1  0.002623  0.005245  0.666686  1
  Ta  Ta11  1  0.000254  0.000508  0.334497  1
  Ta  Ta12  1  0.176183  0.352364  0.548031  1
  Ta  Ta13  1  0.823859  0.647718  0.455097  1
  Si  Si14  1  0.175215  0.350429  0.108591  1
  Si  Si15  1  0.824041  0.648083  0.890413  1
  Si  Si16  1  0.372293  0.744587  0.600687  1
  Si  Si17  1  0.629585  0.259169  0.400998  1
  Si  Si18  1  0.373325  0.746650  0.333482  1
  P  P19  1  0.626869  0.253740  0.666928  1
  P  P20  1  0.062015  0.124031  0.849275  1
  P  P21  1  0.937618  0.875234  0.151685  1
