# generated using pymatgen
data_Er8Th4OsRu3
_symmetry_space_group_name_H-M   'P 1'
_cell_length_a   6.30631752
_cell_length_b   7.21271756
_cell_length_c   9.47593600
_cell_angle_alpha   90.00000000
_cell_angle_beta   90.00000000
_cell_angle_gamma   89.98639534
_symmetry_Int_Tables_number   1
_chemical_formula_structural   Er8Th4OsRu3
_chemical_formula_sum   'Er8 Th4 Os1 Ru3'
_cell_volume   431.01944778
_cell_formula_units_Z   1
loop_
 _symmetry_equiv_pos_site_id
 _symmetry_equiv_pos_as_xyz
  1  'x, y, z'
loop_
 _atom_site_type_symbol
 _atom_site_label
 _atom_site_symmetry_multiplicity
 _atom_site_fract_x
 _atom_site_fract_y
 _atom_site_fract_z
 _atom_site_occupancy
  Er  Er0  1  0.334721  0.675877  0.063867  1
  Er  Er1  1  0.165908  0.176009  0.433802  1
  Er  Er2  1  0.665320  0.324697  0.565640  1
  Er  Er3  1  0.832162  0.823233  0.933859  1
  Er  Er4  1  0.665320  0.324697  0.934360  1
  Er  Er5  1  0.832162  0.823233  0.566141  1
  Er  Er6  1  0.334721  0.675877  0.436133  1
  Er  Er7  1  0.165908  0.176009  0.066198  1
  Th  Th8  1  0.852803  0.545654  0.250000  1
  Th  Th9  1  0.647821  0.045412  0.250000  1
  Th  Th10  1  0.145426  0.454070  0.750000  1
  Th  Th11  1  0.351869  0.958903  0.750000  1
  Os  Os12  1  0.540090  0.626315  0.750000  1
  Ru  Ru13  1  0.033729  0.869978  0.250000  1
  Ru  Ru14  1  0.466423  0.370369  0.250000  1
  Ru  Ru15  1  0.965616  0.129666  0.750000  1
