# generated using pymatgen
data_PrNd5(P2Rh3)6
_symmetry_space_group_name_H-M   'P 1'
_cell_length_a   3.97291000
_cell_length_b   11.32738300
_cell_length_c   12.95037300
_cell_angle_alpha   90.00000000
_cell_angle_beta   90.00000000
_cell_angle_gamma   90.00000000
_symmetry_Int_Tables_number   1
_chemical_formula_structural   PrNd5(P2Rh3)6
_chemical_formula_sum   'Pr1 Nd5 P12 Rh18'
_cell_volume   582.80140387
_cell_formula_units_Z   1
loop_
 _symmetry_equiv_pos_site_id
 _symmetry_equiv_pos_as_xyz
  1  'x, y, z'
loop_
 _atom_site_type_symbol
 _atom_site_label
 _atom_site_symmetry_multiplicity
 _atom_site_fract_x
 _atom_site_fract_y
 _atom_site_fract_z
 _atom_site_occupancy
  Pr  Pr0  1  0.500000  0.000000  0.480371  1
  Nd  Nd1  1  0.000000  0.500000  0.519728  1
  Nd  Nd2  1  0.500000  0.815226  0.204442  1
  Nd  Nd3  1  0.500000  0.184774  0.204442  1
  Nd  Nd4  1  0.000000  0.684674  0.795520  1
  Nd  Nd5  1  0.000000  0.315326  0.795520  1
  P  P6  1  0.500000  0.500000  0.881178  1
  P  P7  1  0.000000  0.000000  0.118666  1
  P  P8  1  0.500000  0.500000  0.347057  1
  P  P9  1  0.000000  0.000000  0.654228  1
  P  P10  1  0.500000  0.313117  0.617019  1
  P  P11  1  0.500000  0.686883  0.617019  1
  P  P12  1  0.000000  0.187702  0.382592  1
  P  P13  1  0.000000  0.812298  0.382592  1
  P  P14  1  0.500000  0.847205  0.893940  1
  P  P15  1  0.500000  0.152795  0.893940  1
  P  P16  1  0.000000  0.652579  0.106110  1
  P  P17  1  0.000000  0.347421  0.106110  1
  Rh  Rh18  1  0.500000  0.500000  0.168286  1
  Rh  Rh19  1  0.000000  0.000000  0.832695  1
  Rh  Rh20  1  0.500000  0.500000  0.702393  1
  Rh  Rh21  1  0.000000  0.000000  0.297098  1
  Rh  Rh22  1  0.000000  0.500000  0.981992  1
  Rh  Rh23  1  0.500000  0.000000  0.017802  1
  Rh  Rh24  1  0.500000  0.334863  0.995435  1
  Rh  Rh25  1  0.500000  0.665137  0.995435  1
  Rh  Rh26  1  0.000000  0.165359  0.004937  1
  Rh  Rh27  1  0.000000  0.834641  0.004937  1
  Rh  Rh28  1  0.500000  0.293676  0.429941  1
  Rh  Rh29  1  0.500000  0.706324  0.429941  1
  Rh  Rh30  1  0.000000  0.208412  0.569570  1
  Rh  Rh31  1  0.000000  0.791588  0.569570  1
  Rh  Rh32  1  0.500000  0.874894  0.711232  1
  Rh  Rh33  1  0.500000  0.125106  0.711232  1
  Rh  Rh34  1  0.000000  0.624903  0.288512  1
  Rh  Rh35  1  0.000000  0.375097  0.288512  1
