# generated using pymatgen
data_Ho3Tm5(HgRh)2
_symmetry_space_group_name_H-M   'P 1'
_cell_length_a   9.49399525
_cell_length_b   9.48962260
_cell_length_c   9.49976490
_cell_angle_alpha   59.96289232
_cell_angle_beta   59.92430317
_cell_angle_gamma   59.88475313
_symmetry_Int_Tables_number   1
_chemical_formula_structural   Ho3Tm5(HgRh)2
_chemical_formula_sum   'Ho6 Tm10 Hg4 Rh4'
_cell_volume   604.15155346
_cell_formula_units_Z   2
loop_
 _symmetry_equiv_pos_site_id
 _symmetry_equiv_pos_as_xyz
  1  'x, y, z'
loop_
 _atom_site_type_symbol
 _atom_site_label
 _atom_site_symmetry_multiplicity
 _atom_site_fract_x
 _atom_site_fract_y
 _atom_site_fract_z
 _atom_site_occupancy
  Ho  Ho0  1  0.063734  0.063663  0.436637  1
  Ho  Ho1  1  0.436527  0.062657  0.436425  1
  Ho  Ho2  1  0.063292  0.436984  0.063477  1
  Ho  Ho3  1  0.055813  0.647188  0.647459  1
  Ho  Ho4  1  0.436709  0.436777  0.062497  1
  Ho  Ho5  1  0.647186  0.055708  0.647954  1
  Tm  Tm6  1  0.188250  0.812687  0.187790  1
  Tm  Tm7  1  0.187844  0.187768  0.812871  1
  Tm  Tm8  1  0.811866  0.811888  0.188658  1
  Tm  Tm9  1  0.437523  0.062629  0.062861  1
  Tm  Tm10  1  0.812672  0.188176  0.187829  1
  Tm  Tm11  1  0.062036  0.437206  0.437146  1
  Tm  Tm12  1  0.812155  0.188708  0.812052  1
  Tm  Tm13  1  0.188715  0.812195  0.812063  1
  Tm  Tm14  1  0.647563  0.647983  0.055113  1
  Tm  Tm15  1  0.648701  0.648437  0.648719  1
  Hg  Hg16  1  0.415463  0.416209  0.415453  1
  Hg  Hg17  1  0.754014  0.416390  0.415496  1
  Hg  Hg18  1  0.416402  0.754084  0.414743  1
  Hg  Hg19  1  0.415979  0.415243  0.754280  1
  Rh  Rh20  1  0.856470  0.855977  0.428312  1
  Rh  Rh21  1  0.856344  0.856743  0.858239  1
  Rh  Rh22  1  0.429130  0.855605  0.857161  1
  Rh  Rh23  1  0.855615  0.429095  0.856765  1
