# generated using pymatgen
data_Bi2PtO6
_symmetry_space_group_name_H-M   'P 1'
_cell_length_a   9.27881100
_cell_length_b   9.27881541
_cell_length_c   5.22111400
_cell_angle_alpha   90.00001568
_cell_angle_beta   90.00000000
_cell_angle_gamma   119.99996741
_symmetry_Int_Tables_number   1
_chemical_formula_structural   Bi2PtO6
_chemical_formula_sum   'Bi6 Pt3 O18'
_cell_volume   389.29498934
_cell_formula_units_Z   3
loop_
 _symmetry_equiv_pos_site_id
 _symmetry_equiv_pos_as_xyz
  1  'x, y, z'
loop_
 _atom_site_type_symbol
 _atom_site_label
 _atom_site_symmetry_multiplicity
 _atom_site_fract_x
 _atom_site_fract_y
 _atom_site_fract_z
 _atom_site_occupancy
  Bi  Bi0  1  0.999998  0.373185  0.499989  1
  Bi  Bi1  1  0.293832  0.293830  0.000014  1
  Bi  Bi2  1  0.999999  0.706168  0.000014  1
  Bi  Bi3  1  0.626815  0.626813  0.499989  1
  Bi  Bi4  1  0.373187  0.000002  0.499989  1
  Bi  Bi5  1  0.706169  0.000002  0.000014  1
  Pt  Pt6  1  0.000000  0.000000  0.500009  1
  Pt  Pt7  1  0.333333  0.666667  0.001668  1
  Pt  Pt8  1  0.666667  0.333333  0.998327  1
  O  O9  1  0.086894  0.204557  0.717378  1
  O  O10  1  0.224514  0.457615  0.215150  1
  O  O11  1  0.130144  0.592776  0.787038  1
  O  O12  1  0.407224  0.537367  0.787037  1
  O  O13  1  0.233101  0.775486  0.215150  1
  O  O14  1  0.117662  0.913105  0.717378  1
  O  O15  1  0.542385  0.766899  0.215151  1
  O  O16  1  0.204553  0.086895  0.282642  1
  O  O17  1  0.462633  0.869856  0.787038  1
  O  O18  1  0.795444  0.882338  0.717378  1
  O  O19  1  0.457666  0.224515  0.784900  1
  O  O20  1  0.592787  0.130207  0.212888  1
  O  O21  1  0.537420  0.407213  0.212889  1
  O  O22  1  0.775485  0.233151  0.784900  1
  O  O23  1  0.913105  0.117658  0.282642  1
  O  O24  1  0.766849  0.542333  0.784900  1
  O  O25  1  0.869793  0.462580  0.212887  1
  O  O26  1  0.882342  0.795448  0.282642  1
