# generated using pymatgen
data_Dy16MgCd3Ir3Ru
_symmetry_space_group_name_H-M   'P 1'
_cell_length_a   9.67304391
_cell_length_b   9.67304391
_cell_length_c   9.67304416
_cell_angle_alpha   59.69989765
_cell_angle_beta   59.69989666
_cell_angle_gamma   59.69990406
_symmetry_Int_Tables_number   1
_chemical_formula_structural   Dy16MgCd3Ir3Ru
_chemical_formula_sum   'Dy16 Mg1 Cd3 Ir3 Ru1'
_cell_volume   635.62925073
_cell_formula_units_Z   1
loop_
 _symmetry_equiv_pos_site_id
 _symmetry_equiv_pos_as_xyz
  1  'x, y, z'
loop_
 _atom_site_type_symbol
 _atom_site_label
 _atom_site_symmetry_multiplicity
 _atom_site_fract_x
 _atom_site_fract_y
 _atom_site_fract_z
 _atom_site_occupancy
  Dy  Dy0  1  0.599034  0.599034  0.599034  1
  Dy  Dy1  1  0.597176  0.597176  0.208750  1
  Dy  Dy2  1  0.597176  0.208750  0.597176  1
  Dy  Dy3  1  0.208750  0.597176  0.597176  1
  Dy  Dy4  1  0.061607  0.439013  0.439013  1
  Dy  Dy5  1  0.437153  0.061297  0.061297  1
  Dy  Dy6  1  0.439013  0.061607  0.439013  1
  Dy  Dy7  1  0.061297  0.437153  0.061297  1
  Dy  Dy8  1  0.439013  0.439013  0.061607  1
  Dy  Dy9  1  0.061297  0.061297  0.437153  1
  Dy  Dy10  1  0.189571  0.812004  0.812004  1
  Dy  Dy11  1  0.810486  0.187963  0.187963  1
  Dy  Dy12  1  0.812004  0.189571  0.812004  1
  Dy  Dy13  1  0.187963  0.810486  0.187963  1
  Dy  Dy14  1  0.812004  0.812004  0.189571  1
  Dy  Dy15  1  0.187963  0.187963  0.810486  1
  Mg  Mg16  1  0.825518  0.825518  0.825518  1
  Cd  Cd17  1  0.831416  0.831416  0.505532  1
  Cd  Cd18  1  0.831416  0.505532  0.831416  1
  Cd  Cd19  1  0.505532  0.831416  0.831416  1
  Ir  Ir20  1  0.393624  0.393624  0.826401  1
  Ir  Ir21  1  0.393624  0.826401  0.393624  1
  Ir  Ir22  1  0.826401  0.393624  0.393624  1
  Ru  Ru23  1  0.390957  0.390957  0.390957  1
