# generated using pymatgen
data_Li3Ta4NbH16
_symmetry_space_group_name_H-M   'P 1'
_cell_length_a   6.42555053
_cell_length_b   6.18680603
_cell_length_c   6.42555017
_cell_angle_alpha   61.22166803
_cell_angle_beta   57.55667458
_cell_angle_gamma   61.22166780
_symmetry_Int_Tables_number   1
_chemical_formula_structural   Li3Ta4NbH16
_chemical_formula_sum   'Li3 Ta4 Nb1 H16'
_cell_volume   180.14165452
_cell_formula_units_Z   1
loop_
 _symmetry_equiv_pos_site_id
 _symmetry_equiv_pos_as_xyz
  1  'x, y, z'
loop_
 _atom_site_type_symbol
 _atom_site_label
 _atom_site_symmetry_multiplicity
 _atom_site_fract_x
 _atom_site_fract_y
 _atom_site_fract_z
 _atom_site_occupancy
  Li  Li0  1  0.500000  0.000000  0.500000  1
  Li  Li1  1  0.000000  0.500000  0.000000  1
  Li  Li2  1  0.500000  0.500000  0.500000  1
  Ta  Ta3  1  0.000000  0.000000  0.500000  1
  Ta  Ta4  1  0.000000  0.500000  0.500000  1
  Ta  Ta5  1  0.500000  0.500000  0.000000  1
  Ta  Ta6  1  0.500000  0.000000  0.000000  1
  Nb  Nb7  1  0.000000  0.000000  0.000000  1
  H  H8  1  0.864471  0.878068  0.379395  1
  H  H9  1  0.878068  0.379395  0.878068  1
  H  H10  1  0.379395  0.878068  0.864471  1
  H  H11  1  0.878068  0.864471  0.878068  1
  H  H12  1  0.135529  0.121932  0.620605  1
  H  H13  1  0.121932  0.620605  0.121932  1
  H  H14  1  0.620605  0.121932  0.135529  1
  H  H15  1  0.121932  0.135529  0.121932  1
  H  H16  1  0.621969  0.627287  0.123457  1
  H  H17  1  0.627287  0.123457  0.627287  1
  H  H18  1  0.123457  0.627287  0.621969  1
  H  H19  1  0.627287  0.621969  0.627287  1
  H  H20  1  0.378031  0.372713  0.876543  1
  H  H21  1  0.372713  0.876543  0.372713  1
  H  H22  1  0.876543  0.372713  0.378031  1
  H  H23  1  0.372713  0.378031  0.372713  1
