# generated using pymatgen
data_Ho12Si12AgOs3
_symmetry_space_group_name_H-M   'P 1'
_cell_length_a   4.17954000
_cell_length_b   10.70733028
_cell_length_c   12.31178500
_cell_angle_alpha   90.02803431
_cell_angle_beta   90.00000000
_cell_angle_gamma   90.00000000
_symmetry_Int_Tables_number   1
_chemical_formula_structural   Ho12Si12AgOs3
_chemical_formula_sum   'Ho12 Si12 Ag1 Os3'
_cell_volume   550.97343004
_cell_formula_units_Z   1
loop_
 _symmetry_equiv_pos_site_id
 _symmetry_equiv_pos_as_xyz
  1  'x, y, z'
loop_
 _atom_site_type_symbol
 _atom_site_label
 _atom_site_symmetry_multiplicity
 _atom_site_fract_x
 _atom_site_fract_y
 _atom_site_fract_z
 _atom_site_occupancy
  Ho  Ho0  1  0.250000  0.881118  0.024904  1
  Ho  Ho1  1  0.250000  0.619770  0.518278  1
  Ho  Ho2  1  0.750000  0.124693  0.982435  1
  Ho  Ho3  1  0.750000  0.381956  0.477360  1
  Ho  Ho4  1  0.250000  0.919570  0.602847  1
  Ho  Ho5  1  0.250000  0.578845  0.105602  1
  Ho  Ho6  1  0.750000  0.078857  0.395701  1
  Ho  Ho7  1  0.750000  0.421382  0.897998  1
  Ho  Ho8  1  0.250000  0.655508  0.799637  1
  Ho  Ho9  1  0.250000  0.839941  0.299420  1
  Ho  Ho10  1  0.750000  0.339676  0.200527  1
  Ho  Ho11  1  0.750000  0.166881  0.696797  1
  Si  Si12  1  0.250000  0.027165  0.824302  1
  Si  Si13  1  0.250000  0.489777  0.320351  1
  Si  Si14  1  0.750000  0.991344  0.177939  1
  Si  Si15  1  0.750000  0.505240  0.679242  1
  Si  Si16  1  0.250000  0.252635  0.840223  1
  Si  Si17  1  0.250000  0.250549  0.340675  1
  Si  Si18  1  0.750000  0.750198  0.161020  1
  Si  Si19  1  0.750000  0.740433  0.649570  1
  Si  Si20  1  0.250000  0.204365  0.542046  1
  Si  Si21  1  0.250000  0.298393  0.045768  1
  Si  Si22  1  0.750000  0.797835  0.452824  1
  Si  Si23  1  0.750000  0.687414  0.964003  1
  Ag  Ag24  1  0.750000  0.887168  0.818598  1
  Os  Os25  1  0.250000  0.389295  0.680023  1
  Os  Os26  1  0.250000  0.110175  0.181739  1
  Os  Os27  1  0.750000  0.609818  0.320166  1
