# generated using pymatgen
data_Mn2VIO7
_symmetry_space_group_name_H-M   'P 1'
_cell_length_a   10.51370100
_cell_length_b   5.44068459
_cell_length_c   5.70957505
_cell_angle_alpha   78.01703412
_cell_angle_beta   90.00000000
_cell_angle_gamma   90.00000000
_symmetry_Int_Tables_number   1
_chemical_formula_structural   Mn2VIO7
_chemical_formula_sum   'Mn4 V2 I2 O14'
_cell_volume   319.48080939
_cell_formula_units_Z   2
loop_
 _symmetry_equiv_pos_site_id
 _symmetry_equiv_pos_as_xyz
  1  'x, y, z'
loop_
 _atom_site_type_symbol
 _atom_site_label
 _atom_site_symmetry_multiplicity
 _atom_site_fract_x
 _atom_site_fract_y
 _atom_site_fract_z
 _atom_site_occupancy
  Mn  Mn0  1  0.562733  0.239142  0.586517  1
  Mn  Mn1  1  0.437267  0.239142  0.086517  1
  Mn  Mn2  1  0.862126  0.605012  0.634581  1
  Mn  Mn3  1  0.137874  0.605012  0.134581  1
  V  V4  1  0.646571  0.741824  0.110068  1
  V  V5  1  0.353429  0.741824  0.610068  1
  I  I6  1  0.873363  0.181089  0.316502  1
  I  I7  1  0.126637  0.181089  0.816502  1
  O  O8  1  0.749784  0.620729  0.932332  1
  O  O9  1  0.250216  0.620729  0.432332  1
  O  O10  1  0.737416  0.841194  0.338566  1
  O  O11  1  0.262584  0.841194  0.838566  1
  O  O12  1  0.565850  0.006899  0.942261  1
  O  O13  1  0.434150  0.006899  0.442261  1
  O  O14  1  0.456468  0.496331  0.743389  1
  O  O15  1  0.543532  0.496331  0.243389  1
  O  O16  1  0.762117  0.277646  0.538166  1
  O  O17  1  0.237883  0.277646  0.038166  1
  O  O18  1  0.980616  0.443532  0.361027  1
  O  O19  1  0.019384  0.443532  0.861027  1
  O  O20  1  0.962639  0.950002  0.535522  1
  O  O21  1  0.037361  0.950002  0.035522  1
