# generated using pymatgen
data_La3SmDy(Sn5Ir2)2
_symmetry_space_group_name_H-M   'P 1'
_cell_length_a   14.21657952
_cell_length_b   14.21657922
_cell_length_c   4.66762900
_cell_angle_alpha   90.00000000
_cell_angle_beta   90.00000000
_cell_angle_gamma   89.91230265
_symmetry_Int_Tables_number   1
_chemical_formula_structural   La3SmDy(Sn5Ir2)2
_chemical_formula_sum   'La6 Sm2 Dy2 Sn20 Ir8'
_cell_volume   943.37866164
_cell_formula_units_Z   2
loop_
 _symmetry_equiv_pos_site_id
 _symmetry_equiv_pos_as_xyz
  1  'x, y, z'
loop_
 _atom_site_type_symbol
 _atom_site_label
 _atom_site_symmetry_multiplicity
 _atom_site_fract_x
 _atom_site_fract_y
 _atom_site_fract_z
 _atom_site_occupancy
  La  La0  1  0.500000  0.500000  0.000000  1
  La  La1  1  0.000000  0.000000  0.000000  1
  La  La2  1  0.886639  0.386639  0.500000  1
  La  La3  1  0.113361  0.613361  0.500000  1
  La  La4  1  0.386884  0.113116  0.500000  1
  La  La5  1  0.613116  0.886884  0.500000  1
  Sm  Sm6  1  0.175886  0.324114  0.500000  1
  Sm  Sm7  1  0.824114  0.675886  0.500000  1
  Dy  Dy8  1  0.675451  0.175451  0.500000  1
  Dy  Dy9  1  0.324549  0.824549  0.500000  1
  Sn  Sn10  1  0.569897  0.069897  0.000000  1
  Sn  Sn11  1  0.430103  0.930103  0.000000  1
  Sn  Sn12  1  0.069576  0.430424  0.000000  1
  Sn  Sn13  1  0.930424  0.569576  0.000000  1
  Sn  Sn14  1  0.654885  0.698739  0.000000  1
  Sn  Sn15  1  0.345115  0.301261  0.000000  1
  Sn  Sn16  1  0.155571  0.801523  0.000000  1
  Sn  Sn17  1  0.844429  0.198477  0.000000  1
  Sn  Sn18  1  0.301523  0.655571  0.000000  1
  Sn  Sn19  1  0.698477  0.344429  0.000000  1
  Sn  Sn20  1  0.198739  0.154885  0.000000  1
  Sn  Sn21  1  0.801261  0.845115  0.000000  1
  Sn  Sn22  1  0.663101  0.506241  0.500000  1
  Sn  Sn23  1  0.336899  0.493759  0.500000  1
  Sn  Sn24  1  0.163295  0.993364  0.500000  1
  Sn  Sn25  1  0.836705  0.006636  0.500000  1
  Sn  Sn26  1  0.493364  0.663295  0.500000  1
  Sn  Sn27  1  0.506636  0.336705  0.500000  1
  Sn  Sn28  1  0.006241  0.163101  0.500000  1
  Sn  Sn29  1  0.993759  0.836899  0.500000  1
  Ir  Ir30  1  0.747228  0.528964  0.000000  1
  Ir  Ir31  1  0.252772  0.471036  0.000000  1
  Ir  Ir32  1  0.247546  0.970224  0.000000  1
  Ir  Ir33  1  0.752454  0.029776  0.000000  1
  Ir  Ir34  1  0.470224  0.747546  0.000000  1
  Ir  Ir35  1  0.529776  0.252454  0.000000  1
  Ir  Ir36  1  0.028964  0.247228  0.000000  1
  Ir  Ir37  1  0.971036  0.752772  0.000000  1
