# generated using pymatgen
data_YbTm2Lu5(B6Ru)4
_symmetry_space_group_name_H-M   'P 1'
_cell_length_a   3.60213400
_cell_length_b   9.04416462
_cell_length_c   11.42225902
_cell_angle_alpha   89.93915810
_cell_angle_beta   90.00000000
_cell_angle_gamma   90.00000000
_symmetry_Int_Tables_number   1
_chemical_formula_structural   YbTm2Lu5(B6Ru)4
_chemical_formula_sum   'Yb1 Tm2 Lu5 B24 Ru4'
_cell_volume   372.11748960
_cell_formula_units_Z   1
loop_
 _symmetry_equiv_pos_site_id
 _symmetry_equiv_pos_as_xyz
  1  'x, y, z'
loop_
 _atom_site_type_symbol
 _atom_site_label
 _atom_site_symmetry_multiplicity
 _atom_site_fract_x
 _atom_site_fract_y
 _atom_site_fract_z
 _atom_site_occupancy
  Yb  Yb0  1  0.000000  0.322917  0.413656  1
  Tm  Tm1  1  0.000000  0.676667  0.585088  1
  Tm  Tm2  1  0.000000  0.821803  0.086300  1
  Lu  Lu3  1  0.000000  0.178977  0.914671  1
  Lu  Lu4  1  0.000000  0.944131  0.371576  1
  Lu  Lu5  1  0.000000  0.057572  0.627825  1
  Lu  Lu6  1  0.000000  0.443152  0.128806  1
  Lu  Lu7  1  0.000000  0.555906  0.872543  1
  B  B8  1  0.500000  0.554227  0.432972  1
  B  B9  1  0.500000  0.446052  0.567320  1
  B  B10  1  0.500000  0.053269  0.065812  1
  B  B11  1  0.500000  0.946262  0.933119  1
  B  B12  1  0.500000  0.749460  0.419713  1
  B  B13  1  0.500000  0.250895  0.581026  1
  B  B14  1  0.500000  0.248645  0.079673  1
  B  B15  1  0.500000  0.750725  0.919971  1
  B  B16  1  0.500000  0.792420  0.265570  1
  B  B17  1  0.500000  0.208421  0.735075  1
  B  B18  1  0.500000  0.290805  0.233606  1
  B  B19  1  0.500000  0.708282  0.765876  1
  B  B20  1  0.500000  0.631415  0.184858  1
  B  B21  1  0.500000  0.368884  0.816183  1
  B  B22  1  0.500000  0.130418  0.314582  1
  B  B23  1  0.500000  0.869092  0.684474  1
  B  B24  1  0.500000  0.982115  0.212045  1
  B  B25  1  0.500000  0.018103  0.787243  1
  B  B26  1  0.500000  0.482956  0.287093  1
  B  B27  1  0.500000  0.517678  0.713150  1
  B  B28  1  0.500000  0.605778  0.029286  1
  B  B29  1  0.500000  0.394004  0.971046  1
  B  B30  1  0.500000  0.102158  0.471779  1
  B  B31  1  0.500000  0.896120  0.528688  1
  Ru  Ru32  1  0.000000  0.639999  0.320024  1
  Ru  Ru33  1  0.000000  0.361665  0.680897  1
  Ru  Ru34  1  0.000000  0.136840  0.177717  1
  Ru  Ru35  1  0.000000  0.862185  0.820733  1
