# generated using pymatgen
data_Tm3LuAl18(NiRh)3
_symmetry_space_group_name_H-M   'P 1'
_cell_length_a   7.49556287
_cell_length_b   7.49558068
_cell_length_c   9.29620100
_cell_angle_alpha   89.89418305
_cell_angle_beta   89.89289171
_cell_angle_gamma   119.84154813
_symmetry_Int_Tables_number   1
_chemical_formula_structural   Tm3LuAl18(NiRh)3
_chemical_formula_sum   'Tm3 Lu1 Al18 Ni3 Rh3'
_cell_volume   453.03723519
_cell_formula_units_Z   1
loop_
 _symmetry_equiv_pos_site_id
 _symmetry_equiv_pos_as_xyz
  1  'x, y, z'
loop_
 _atom_site_type_symbol
 _atom_site_label
 _atom_site_symmetry_multiplicity
 _atom_site_fract_x
 _atom_site_fract_y
 _atom_site_fract_z
 _atom_site_occupancy
  Tm  Tm0  1  0.006947  0.332757  0.750188  1
  Tm  Tm1  1  0.667248  0.993051  0.249814  1
  Tm  Tm2  1  0.330944  0.005074  0.750055  1
  Lu  Lu3  1  0.994949  0.669062  0.249959  1
  Al  Al4  1  0.120030  0.119847  0.249639  1
  Al  Al5  1  0.880097  0.879944  0.750361  1
  Al  Al6  1  0.994457  0.331588  0.074317  1
  Al  Al7  1  0.998705  0.666908  0.925938  1
  Al  Al8  1  0.000356  0.667610  0.574447  1
  Al  Al9  1  0.332339  0.999594  0.425484  1
  Al  Al10  1  0.998609  0.331226  0.425373  1
  Al  Al11  1  0.668818  0.001390  0.574601  1
  Al  Al12  1  0.668457  0.005541  0.925708  1
  Al  Al13  1  0.333038  0.001244  0.074131  1
  Al  Al14  1  0.330085  0.329481  0.550991  1
  Al  Al15  1  0.670563  0.669914  0.448977  1
  Al  Al16  1  0.669962  0.669147  0.051042  1
  Al  Al17  1  0.330849  0.330079  0.948988  1
  Al  Al18  1  0.338808  0.546100  0.249773  1
  Al  Al19  1  0.661770  0.449556  0.752692  1
  Al  Al20  1  0.550509  0.338274  0.247307  1
  Al  Al21  1  0.453913  0.661163  0.750227  1
  Ni  Ni22  1  0.671403  0.328614  0.000009  1
  Ni  Ni23  1  0.999542  0.000446  0.000012  1
  Ni  Ni24  1  0.000241  0.999748  0.499989  1
  Rh  Rh25  1  0.327136  0.672839  0.000027  1
  Rh  Rh26  1  0.328006  0.671972  0.499975  1
  Rh  Rh27  1  0.672218  0.327831  0.499974  1
