# generated using pymatgen
data_U4Mn(AsRu)6
_symmetry_space_group_name_H-M   'P 1'
_cell_length_a   7.18475962
_cell_length_b   7.18475922
_cell_length_c   7.18475918
_cell_angle_alpha   109.50412293
_cell_angle_beta   109.40544308
_cell_angle_gamma   109.50411975
_symmetry_Int_Tables_number   1
_chemical_formula_structural   U4Mn(AsRu)6
_chemical_formula_sum   'U4 Mn1 As6 Ru6'
_cell_volume   285.50540643
_cell_formula_units_Z   1
loop_
 _symmetry_equiv_pos_site_id
 _symmetry_equiv_pos_as_xyz
  1  'x, y, z'
loop_
 _atom_site_type_symbol
 _atom_site_label
 _atom_site_symmetry_multiplicity
 _atom_site_fract_x
 _atom_site_fract_y
 _atom_site_fract_z
 _atom_site_occupancy
  U  U0  1  0.997036  0.994072  0.497036  1
  U  U1  1  0.502964  0.005928  0.002964  1
  U  U2  1  0.997036  0.500000  0.002964  1
  U  U3  1  0.502964  0.500000  0.497036  1
  Mn  Mn4  1  0.750000  0.500000  0.250000  1
  As  As5  1  0.306937  0.000000  0.306937  1
  As  As6  1  0.996664  0.309821  0.306486  1
  As  As7  1  0.996664  0.690179  0.686843  1
  As  As8  1  0.313157  0.309821  0.003336  1
  As  As9  1  0.693514  0.690179  0.003336  1
  As  As10  1  0.693063  0.000000  0.693063  1
  Ru  Ru11  1  0.500964  0.749286  0.250250  1
  Ru  Ru12  1  0.500964  0.250714  0.751678  1
  Ru  Ru13  1  0.749750  0.250714  0.499036  1
  Ru  Ru14  1  0.248322  0.749286  0.499036  1
  Ru  Ru15  1  0.250000  0.500000  0.750000  1
  Ru  Ru16  1  0.000000  0.000000  0.000000  1
