# generated using pymatgen
data_Tb3Y3Al21Si3Os8
_symmetry_space_group_name_H-M   'P 1'
_cell_length_a   8.73690202
_cell_length_b   8.73751161
_cell_length_c   9.67188000
_cell_angle_alpha   89.99977721
_cell_angle_beta   90.00171808
_cell_angle_gamma   119.99024197
_symmetry_Int_Tables_number   1
_chemical_formula_structural   Tb3Y3Al21Si3Os8
_chemical_formula_sum   'Tb3 Y3 Al21 Si3 Os8'
_cell_volume   639.48366791
_cell_formula_units_Z   1
loop_
 _symmetry_equiv_pos_site_id
 _symmetry_equiv_pos_as_xyz
  1  'x, y, z'
loop_
 _atom_site_type_symbol
 _atom_site_label
 _atom_site_symmetry_multiplicity
 _atom_site_fract_x
 _atom_site_fract_y
 _atom_site_fract_z
 _atom_site_occupancy
  Tb  Tb0  1  0.389912  0.195050  0.752898  1
  Tb  Tb1  1  0.194427  0.805503  0.247467  1
  Tb  Tb2  1  0.805090  0.194992  0.752902  1
  Y  Y3  1  0.194721  0.389377  0.247439  1
  Y  Y4  1  0.804770  0.609627  0.752909  1
  Y  Y5  1  0.610642  0.805259  0.247444  1
  Al  Al6  1  0.333398  0.666561  0.476884  1
  Al  Al7  1  0.164298  0.328536  0.573770  1
  Al  Al8  1  0.834875  0.669855  0.424101  1
  Al  Al9  1  0.671478  0.835670  0.573745  1
  Al  Al10  1  0.834788  0.669653  0.076394  1
  Al  Al11  1  0.330104  0.165124  0.424100  1
  Al  Al12  1  0.165531  0.331006  0.923166  1
  Al  Al13  1  0.164206  0.835718  0.573744  1
  Al  Al14  1  0.330319  0.165222  0.076414  1
  Al  Al15  1  0.834984  0.165057  0.424121  1
  Al  Al16  1  0.668997  0.834424  0.923196  1
  Al  Al17  1  0.834867  0.165182  0.076383  1
  Al  Al18  1  0.165442  0.834466  0.923189  1
  Al  Al19  1  0.563681  0.127283  0.248745  1
  Al  Al20  1  0.436682  0.873338  0.748742  1
  Al  Al21  1  0.872738  0.436337  0.248743  1
  Al  Al22  1  0.126507  0.563290  0.748740  1
  Al  Al23  1  0.563565  0.436451  0.248761  1
  Al  Al24  1  0.436810  0.563290  0.748722  1
  Al  Al25  1  0.000064  0.999942  0.248823  1
  Al  Al26  1  0.000060  0.000104  0.749520  1
  Si  Si27  1  0.333422  0.666566  0.038528  1
  Si  Si28  1  0.666763  0.333529  0.962663  1
  Si  Si29  1  0.666733  0.333547  0.538656  1
  Os  Os30  1  0.499980  0.999825  0.998863  1
  Os  Os31  1  0.000172  0.500089  0.998893  1
  Os  Os32  1  0.504332  0.008523  0.501357  1
  Os  Os33  1  0.499982  0.500165  0.998876  1
  Os  Os34  1  0.991500  0.495737  0.501332  1
  Os  Os35  1  0.504342  0.495788  0.501364  1
  Os  Os36  1  0.999915  0.999948  0.999142  1
  Os  Os37  1  0.999908  0.999962  0.499254  1
