# generated using pymatgen
data_YBi3(Rh2O7)2
_symmetry_space_group_name_H-M   'P 1'
_cell_length_a   7.29033692
_cell_length_b   7.29033774
_cell_length_c   7.29033712
_cell_angle_alpha   60.45753498
_cell_angle_beta   60.45752993
_cell_angle_gamma   60.45754261
_symmetry_Int_Tables_number   1
_chemical_formula_structural   YBi3(Rh2O7)2
_chemical_formula_sum   'Y1 Bi3 Rh4 O14'
_cell_volume   276.81954564
_cell_formula_units_Z   1
loop_
 _symmetry_equiv_pos_site_id
 _symmetry_equiv_pos_as_xyz
  1  'x, y, z'
loop_
 _atom_site_type_symbol
 _atom_site_label
 _atom_site_symmetry_multiplicity
 _atom_site_fract_x
 _atom_site_fract_y
 _atom_site_fract_z
 _atom_site_occupancy
  Y  Y0  1  0.500000  0.500000  0.500000  1
  Bi  Bi1  1  0.500000  0.000000  0.500000  1
  Bi  Bi2  1  0.000000  0.500000  0.500000  1
  Bi  Bi3  1  0.500000  0.500000  0.000000  1
  Rh  Rh4  1  0.000000  0.000000  0.000000  1
  Rh  Rh5  1  0.000000  0.500000  0.000000  1
  Rh  Rh6  1  0.500000  0.000000  0.000000  1
  Rh  Rh7  1  0.000000  0.000000  0.500000  1
  O  O8  1  0.623431  0.623431  0.623431  1
  O  O9  1  0.376569  0.376569  0.376569  1
  O  O10  1  0.917774  0.917774  0.332013  1
  O  O11  1  0.332013  0.917774  0.917774  1
  O  O12  1  0.917774  0.332013  0.917774  1
  O  O13  1  0.336326  0.336326  0.909813  1
  O  O14  1  0.909813  0.336326  0.336326  1
  O  O15  1  0.336326  0.909813  0.336326  1
  O  O16  1  0.082226  0.082226  0.667987  1
  O  O17  1  0.667987  0.082226  0.082226  1
  O  O18  1  0.082226  0.667987  0.082226  1
  O  O19  1  0.663674  0.663674  0.090187  1
  O  O20  1  0.090187  0.663674  0.663674  1
  O  O21  1  0.663674  0.090187  0.663674  1
