# generated using pymatgen
data_Ce6Al24Os7Pd
_symmetry_space_group_name_H-M   'P 1'
_cell_length_a   8.90808610
_cell_length_b   8.90808745
_cell_length_c   9.54069113
_cell_angle_alpha   89.76831824
_cell_angle_beta   90.23168072
_cell_angle_gamma   119.79022856
_symmetry_Int_Tables_number   1
_chemical_formula_structural   Ce6Al24Os7Pd
_chemical_formula_sum   'Ce6 Al24 Os7 Pd1'
_cell_volume   657.03534958
_cell_formula_units_Z   1
loop_
 _symmetry_equiv_pos_site_id
 _symmetry_equiv_pos_as_xyz
  1  'x, y, z'
loop_
 _atom_site_type_symbol
 _atom_site_label
 _atom_site_symmetry_multiplicity
 _atom_site_fract_x
 _atom_site_fract_y
 _atom_site_fract_z
 _atom_site_occupancy
  Ce  Ce0  1  0.188620  0.386118  0.253264  1
  Ce  Ce1  1  0.811380  0.613882  0.746736  1
  Ce  Ce2  1  0.613882  0.811380  0.253264  1
  Ce  Ce3  1  0.386118  0.188620  0.746736  1
  Ce  Ce4  1  0.194591  0.805409  0.252336  1
  Ce  Ce5  1  0.805409  0.194591  0.747664  1
  Al  Al6  1  0.331758  0.668242  0.016987  1
  Al  Al7  1  0.668242  0.331758  0.983013  1
  Al  Al8  1  0.666388  0.333612  0.512878  1
  Al  Al9  1  0.333612  0.666388  0.487122  1
  Al  Al10  1  0.162688  0.324662  0.577895  1
  Al  Al11  1  0.837312  0.675338  0.422105  1
  Al  Al12  1  0.675338  0.837312  0.577895  1
  Al  Al13  1  0.842820  0.677040  0.077890  1
  Al  Al14  1  0.324662  0.162688  0.422105  1
  Al  Al15  1  0.157180  0.322960  0.922110  1
  Al  Al16  1  0.163098  0.836902  0.576863  1
  Al  Al17  1  0.322960  0.157180  0.077890  1
  Al  Al18  1  0.836902  0.163098  0.423137  1
  Al  Al19  1  0.677040  0.842820  0.922110  1
  Al  Al20  1  0.836888  0.163112  0.076876  1
  Al  Al21  1  0.163112  0.836888  0.923124  1
  Al  Al22  1  0.561782  0.125445  0.249329  1
  Al  Al23  1  0.438218  0.874555  0.750671  1
  Al  Al24  1  0.874555  0.438218  0.249329  1
  Al  Al25  1  0.125445  0.561782  0.750671  1
  Al  Al26  1  0.561340  0.438660  0.251463  1
  Al  Al27  1  0.438660  0.561340  0.748537  1
  Al  Al28  1  0.000026  0.999974  0.250179  1
  Al  Al29  1  0.999974  0.000026  0.749821  1
  Os  Os30  1  0.500000  0.000000  0.000000  1
  Os  Os31  1  0.000000  0.500000  0.000000  1
  Os  Os32  1  0.500000  0.000000  0.500000  1
  Os  Os33  1  0.000000  0.500000  0.500000  1
  Os  Os34  1  0.500000  0.500000  0.500000  1
  Os  Os35  1  0.000000  0.000000  0.000000  1
  Os  Os36  1  0.000000  0.000000  0.500000  1
  Pd  Pd37  1  0.500000  0.500000  0.000000  1
