# generated using pymatgen
data_Ho4ReTc2Ru5
_symmetry_space_group_name_H-M   'P 1'
_cell_length_a   5.50304100
_cell_length_b   5.13625831
_cell_length_c   9.08199200
_cell_angle_alpha   90.00000000
_cell_angle_beta   90.00000000
_cell_angle_gamma   121.26578383
_symmetry_Int_Tables_number   1
_chemical_formula_structural   Ho4ReTc2Ru5
_chemical_formula_sum   'Ho4 Re1 Tc2 Ru5'
_cell_volume   219.42163461
_cell_formula_units_Z   1
loop_
 _symmetry_equiv_pos_site_id
 _symmetry_equiv_pos_as_xyz
  1  'x, y, z'
loop_
 _atom_site_type_symbol
 _atom_site_label
 _atom_site_symmetry_multiplicity
 _atom_site_fract_x
 _atom_site_fract_y
 _atom_site_fract_z
 _atom_site_occupancy
  Ho  Ho0  1  0.673109  0.343811  0.566481  1
  Ho  Ho1  1  0.329853  0.665045  0.435226  1
  Ho  Ho2  1  0.329853  0.665045  0.064774  1
  Ho  Ho3  1  0.673109  0.343811  0.933519  1
  Re  Re4  1  0.162303  0.319788  0.750000  1
  Tc  Tc5  1  0.833925  0.653954  0.250000  1
  Tc  Tc6  1  0.835828  0.172539  0.250000  1
  Ru  Ru7  1  0.997188  0.013330  0.500822  1
  Ru  Ru8  1  0.997188  0.013330  0.999178  1
  Ru  Ru9  1  0.171560  0.817068  0.750000  1
  Ru  Ru10  1  0.651733  0.819278  0.750000  1
  Ru  Ru11  1  0.344349  0.173000  0.250000  1
