# generated using pymatgen
data_BeNb4Fe(B2Ru5)2
_symmetry_space_group_name_H-M   'P 1'
_cell_length_a   9.24444800
_cell_length_b   9.24444800
_cell_length_c   2.97502600
_cell_angle_alpha   90.00000000
_cell_angle_beta   90.00000000
_cell_angle_gamma   90.00000000
_symmetry_Int_Tables_number   1
_chemical_formula_structural   BeNb4Fe(B2Ru5)2
_chemical_formula_sum   'Be1 Nb4 Fe1 B4 Ru10'
_cell_volume   254.24518296
_cell_formula_units_Z   1
loop_
 _symmetry_equiv_pos_site_id
 _symmetry_equiv_pos_as_xyz
  1  'x, y, z'
loop_
 _atom_site_type_symbol
 _atom_site_label
 _atom_site_symmetry_multiplicity
 _atom_site_fract_x
 _atom_site_fract_y
 _atom_site_fract_z
 _atom_site_occupancy
  Be  Be0  1  0.500000  0.500000  0.000000  1
  Nb  Nb1  1  0.820446  0.675364  0.000000  1
  Nb  Nb2  1  0.179554  0.324636  0.000000  1
  Nb  Nb3  1  0.324636  0.820446  0.000000  1
  Nb  Nb4  1  0.675364  0.179554  0.000000  1
  Fe  Fe5  1  0.000000  0.000000  0.000000  1
  B  B6  1  0.618668  0.867203  0.000000  1
  B  B7  1  0.381332  0.132797  0.000000  1
  B  B8  1  0.132797  0.618668  0.000000  1
  B  B9  1  0.867203  0.381332  0.000000  1
  Ru  Ru10  1  0.564534  0.707685  0.500000  1
  Ru  Ru11  1  0.435466  0.292315  0.500000  1
  Ru  Ru12  1  0.071005  0.785583  0.500000  1
  Ru  Ru13  1  0.928995  0.214417  0.500000  1
  Ru  Ru14  1  0.292315  0.564534  0.500000  1
  Ru  Ru15  1  0.707685  0.435466  0.500000  1
  Ru  Ru16  1  0.214417  0.071005  0.500000  1
  Ru  Ru17  1  0.785583  0.928995  0.500000  1
  Ru  Ru18  1  0.500000  0.000000  0.500000  1
  Ru  Ru19  1  0.000000  0.500000  0.500000  1
