# generated using pymatgen
data_V8GaSiSe16
_symmetry_space_group_name_H-M   'P 1'
_cell_length_a   7.20425300
_cell_length_b   7.20425300
_cell_length_c   10.18874300
_cell_angle_alpha   90.00000000
_cell_angle_beta   90.00000000
_cell_angle_gamma   90.00000000
_symmetry_Int_Tables_number   1
_chemical_formula_structural   V8GaSiSe16
_chemical_formula_sum   'V8 Ga1 Si1 Se16'
_cell_volume   528.80861264
_cell_formula_units_Z   1
loop_
 _symmetry_equiv_pos_site_id
 _symmetry_equiv_pos_as_xyz
  1  'x, y, z'
loop_
 _atom_site_type_symbol
 _atom_site_label
 _atom_site_symmetry_multiplicity
 _atom_site_fract_x
 _atom_site_fract_y
 _atom_site_fract_z
 _atom_site_occupancy
  V  V0  1  0.000000  0.797088  0.602424  1
  V  V1  1  0.500000  0.293943  0.103367  1
  V  V2  1  0.797088  0.000000  0.397576  1
  V  V3  1  0.293943  0.500000  0.896633  1
  V  V4  1  0.202912  0.000000  0.397576  1
  V  V5  1  0.706057  0.500000  0.896633  1
  V  V6  1  0.000000  0.202912  0.602424  1
  V  V7  1  0.500000  0.706057  0.103367  1
  Ga  Ga8  1  0.000000  0.000000  0.000000  1
  Si  Si9  1  0.500000  0.500000  0.500000  1
  Se  Se10  1  0.000000  0.265030  0.369451  1
  Se  Se11  1  0.500000  0.764563  0.868879  1
  Se  Se12  1  0.265030  0.000000  0.630549  1
  Se  Se13  1  0.764563  0.500000  0.131121  1
  Se  Se14  1  0.734970  0.000000  0.630549  1
  Se  Se15  1  0.235437  0.500000  0.131121  1
  Se  Se16  1  0.000000  0.734970  0.369451  1
  Se  Se17  1  0.500000  0.235437  0.868879  1
  Se  Se18  1  0.000000  0.276676  0.859801  1
  Se  Se19  1  0.500000  0.767223  0.366759  1
  Se  Se20  1  0.767223  0.500000  0.633241  1
  Se  Se21  1  0.276676  0.000000  0.140199  1
  Se  Se22  1  0.232777  0.500000  0.633241  1
  Se  Se23  1  0.723324  0.000000  0.140199  1
  Se  Se24  1  0.000000  0.723324  0.859801  1
  Se  Se25  1  0.500000  0.232777  0.366759  1
