# generated using pymatgen
data_Dy10IrPt3Rh2
_symmetry_space_group_name_H-M   'P 1'
_cell_length_a   11.02438336
_cell_length_b   11.02705600
_cell_length_c   6.34391429
_cell_angle_alpha   90.00000000
_cell_angle_beta   90.03204031
_cell_angle_gamma   90.00000000
_symmetry_Int_Tables_number   1
_chemical_formula_structural   Dy10IrPt3Rh2
_chemical_formula_sum   'Dy20 Ir2 Pt6 Rh4'
_cell_volume   771.20728981
_cell_formula_units_Z   2
loop_
 _symmetry_equiv_pos_site_id
 _symmetry_equiv_pos_as_xyz
  1  'x, y, z'
loop_
 _atom_site_type_symbol
 _atom_site_label
 _atom_site_symmetry_multiplicity
 _atom_site_fract_x
 _atom_site_fract_y
 _atom_site_fract_z
 _atom_site_occupancy
  Dy  Dy0  1  0.293968  0.091806  0.376787  1
  Dy  Dy1  1  0.293968  0.908194  0.876787  1
  Dy  Dy2  1  0.705884  0.088577  0.875996  1
  Dy  Dy3  1  0.705884  0.911423  0.375996  1
  Dy  Dy4  1  0.585750  0.791879  0.876788  1
  Dy  Dy5  1  0.585750  0.208121  0.376788  1
  Dy  Dy6  1  0.409655  0.792067  0.381584  1
  Dy  Dy7  1  0.409655  0.207933  0.881584  1
  Dy  Dy8  1  0.210083  0.412564  0.619827  1
  Dy  Dy9  1  0.210083  0.587436  0.119827  1
  Dy  Dy10  1  0.794416  0.411107  0.121867  1
  Dy  Dy11  1  0.794416  0.588893  0.621867  1
  Dy  Dy12  1  0.912262  0.706233  0.123007  1
  Dy  Dy13  1  0.912262  0.293767  0.623007  1
  Dy  Dy14  1  0.092423  0.705804  0.623943  1
  Dy  Dy15  1  0.092423  0.294196  0.123943  1
  Dy  Dy16  1  0.999737  0.999610  0.500048  1
  Dy  Dy17  1  0.999737  0.000390  0.000048  1
  Dy  Dy18  1  0.497491  0.499666  0.000074  1
  Dy  Dy19  1  0.497491  0.500334  0.500074  1
  Ir  Ir20  1  0.345547  0.344867  0.249939  1
  Ir  Ir21  1  0.345547  0.655133  0.749939  1
  Pt  Pt22  1  0.844817  0.154225  0.250546  1
  Pt  Pt23  1  0.844817  0.845775  0.750546  1
  Pt  Pt24  1  0.153636  0.154426  0.749490  1
  Pt  Pt25  1  0.153636  0.845574  0.249490  1
  Pt  Pt26  1  0.654964  0.345677  0.749959  1
  Pt  Pt27  1  0.654964  0.654323  0.249959  1
  Rh  Rh28  1  0.500195  0.999809  0.123474  1
  Rh  Rh29  1  0.500195  0.000191  0.623474  1
  Rh  Rh30  1  0.999174  0.500143  0.876671  1
  Rh  Rh31  1  0.999174  0.499857  0.376671  1
