# generated using pymatgen
data_Ir8W
_symmetry_space_group_name_H-M   'P 1'
_cell_length_a   6.15015696
_cell_length_b   6.15015712
_cell_length_c   6.15015702
_cell_angle_alpha   95.72496839
_cell_angle_beta   95.72496777
_cell_angle_gamma   143.17724717
_symmetry_Int_Tables_number   1
_chemical_formula_structural   Ir8W
_chemical_formula_sum   'Ir8 W1'
_cell_volume   132.28595101
_cell_formula_units_Z   1
loop_
 _symmetry_equiv_pos_site_id
 _symmetry_equiv_pos_as_xyz
  1  'x, y, z'
loop_
 _atom_site_type_symbol
 _atom_site_label
 _atom_site_symmetry_multiplicity
 _atom_site_fract_x
 _atom_site_fract_y
 _atom_site_fract_z
 _atom_site_occupancy
  Ir  Ir0  1  0.662775  0.337224  0.000000  1
  Ir  Ir1  1  0.337224  0.662775  0.000000  1
  Ir  Ir2  1  0.662775  0.662775  0.325552  1
  Ir  Ir3  1  0.331537  0.000000  0.331537  1
  Ir  Ir4  1  0.000000  0.331537  0.331537  1
  Ir  Ir5  1  0.668462  0.000000  0.668462  1
  Ir  Ir6  1  0.000000  0.668462  0.668462  1
  Ir  Ir7  1  0.337225  0.337225  0.674449  1
  W  W8  1  0.000000  0.000000  0.000000  1
