# generated using pymatgen
data_Dy16InAg3Rh4
_symmetry_space_group_name_H-M   'P 1'
_cell_length_a   9.53064197
_cell_length_b   9.53064247
_cell_length_c   9.53064368
_cell_angle_alpha   60.39883441
_cell_angle_beta   60.39883532
_cell_angle_gamma   60.39883645
_symmetry_Int_Tables_number   1
_chemical_formula_structural   Dy16InAg3Rh4
_chemical_formula_sum   'Dy16 In1 Ag3 Rh4'
_cell_volume   617.66239194
_cell_formula_units_Z   1
loop_
 _symmetry_equiv_pos_site_id
 _symmetry_equiv_pos_as_xyz
  1  'x, y, z'
loop_
 _atom_site_type_symbol
 _atom_site_label
 _atom_site_symmetry_multiplicity
 _atom_site_fract_x
 _atom_site_fract_y
 _atom_site_fract_z
 _atom_site_occupancy
  Dy  Dy0  1  0.688669  0.312412  0.312412  1
  Dy  Dy1  1  0.689878  0.689878  0.310311  1
  Dy  Dy2  1  0.312412  0.688669  0.312412  1
  Dy  Dy3  1  0.935549  0.935549  0.560216  1
  Dy  Dy4  1  0.148415  0.148415  0.554555  1
  Dy  Dy5  1  0.562933  0.936358  0.562933  1
  Dy  Dy6  1  0.148125  0.148125  0.148125  1
  Dy  Dy7  1  0.312412  0.312412  0.688669  1
  Dy  Dy8  1  0.936358  0.562933  0.562933  1
  Dy  Dy9  1  0.562933  0.562933  0.936358  1
  Dy  Dy10  1  0.560216  0.935549  0.935549  1
  Dy  Dy11  1  0.935549  0.560216  0.935549  1
  Dy  Dy12  1  0.148415  0.554555  0.148415  1
  Dy  Dy13  1  0.310311  0.689878  0.689878  1
  Dy  Dy14  1  0.689878  0.310311  0.689878  1
  Dy  Dy15  1  0.554555  0.148415  0.148415  1
  In  In16  1  0.920870  0.920870  0.920870  1
  Ag  Ag17  1  0.917066  0.917066  0.249026  1
  Ag  Ag18  1  0.249026  0.917066  0.917066  1
  Ag  Ag19  1  0.917066  0.249026  0.917066  1
  Rh  Rh20  1  0.357401  0.357401  0.357401  1
  Rh  Rh21  1  0.929593  0.356186  0.356186  1
  Rh  Rh22  1  0.356186  0.356186  0.929593  1
  Rh  Rh23  1  0.356186  0.929593  0.356186  1
