# generated using pymatgen
data_Ta12Tc7B12Ru5
_symmetry_space_group_name_H-M   'P 1'
_cell_length_a   3.15865900
_cell_length_b   9.06094671
_cell_length_c   15.65467579
_cell_angle_alpha   90.08913600
_cell_angle_beta   90.00000000
_cell_angle_gamma   90.00000000
_symmetry_Int_Tables_number   1
_chemical_formula_structural   Ta12Tc7B12Ru5
_chemical_formula_sum   'Ta12 Tc7 B12 Ru5'
_cell_volume   448.04318067
_cell_formula_units_Z   1
loop_
 _symmetry_equiv_pos_site_id
 _symmetry_equiv_pos_as_xyz
  1  'x, y, z'
loop_
 _atom_site_type_symbol
 _atom_site_label
 _atom_site_symmetry_multiplicity
 _atom_site_fract_x
 _atom_site_fract_y
 _atom_site_fract_z
 _atom_site_occupancy
  Ta  Ta0  1  0.000000  0.802940  0.493355  1
  Ta  Ta1  1  0.000000  0.198719  0.505689  1
  Ta  Ta2  1  0.000000  0.303928  0.006674  1
  Ta  Ta3  1  0.000000  0.696131  0.993318  1
  Ta  Ta4  1  0.000000  0.515197  0.594838  1
  Ta  Ta5  1  0.000000  0.485367  0.404736  1
  Ta  Ta6  1  0.000000  0.015483  0.904994  1
  Ta  Ta7  1  0.000000  0.984637  0.095179  1
  Ta  Ta8  1  0.000000  0.681592  0.205188  1
  Ta  Ta9  1  0.000000  0.318381  0.794907  1
  Ta  Ta10  1  0.000000  0.181341  0.294657  1
  Ta  Ta11  1  0.000000  0.816303  0.706709  1
  Tc  Tc12  1  0.500000  0.717789  0.357519  1
  Tc  Tc13  1  0.500000  0.280824  0.642344  1
  Tc  Tc14  1  0.500000  0.217307  0.143065  1
  Tc  Tc15  1  0.500000  0.782478  0.856340  1
  Tc  Tc16  1  0.500000  0.519078  0.096012  1
  Tc  Tc17  1  0.500000  0.480912  0.903480  1
  Tc  Tc18  1  0.500000  0.019154  0.405177  1
  B  B19  1  0.500000  0.605730  0.495666  1
  B  B20  1  0.500000  0.395749  0.504246  1
  B  B21  1  0.500000  0.104987  0.004549  1
  B  B22  1  0.500000  0.895172  0.995231  1
  B  B23  1  0.000000  0.610612  0.834058  1
  B  B24  1  0.000000  0.389078  0.165846  1
  B  B25  1  0.000000  0.112444  0.667197  1
  B  B26  1  0.000000  0.889548  0.334086  1
  B  B27  1  0.500000  0.715565  0.600587  1
  B  B28  1  0.500000  0.284915  0.399215  1
  B  B29  1  0.500000  0.215570  0.899381  1
  B  B30  1  0.500000  0.784087  0.100705  1
  Ru  Ru31  1  0.500000  0.980956  0.596172  1
  Ru  Ru32  1  0.500000  0.567692  0.731895  1
  Ru  Ru33  1  0.500000  0.431506  0.267755  1
  Ru  Ru34  1  0.500000  0.067159  0.766270  1
  Ru  Ru35  1  0.500000  0.931668  0.232961  1
