# generated using pymatgen
data_Ti3Cr2Si3Pt
_symmetry_space_group_name_H-M   'P 1'
_cell_length_a   3.35008800
_cell_length_b   6.61345242
_cell_length_c   6.59525378
_cell_angle_alpha   120.09601169
_cell_angle_beta   90.00000000
_cell_angle_gamma   90.00000000
_symmetry_Int_Tables_number   1
_chemical_formula_structural   Ti3Cr2Si3Pt
_chemical_formula_sum   'Ti3 Cr2 Si3 Pt1'
_cell_volume   126.42285921
_cell_formula_units_Z   1
loop_
 _symmetry_equiv_pos_site_id
 _symmetry_equiv_pos_as_xyz
  1  'x, y, z'
loop_
 _atom_site_type_symbol
 _atom_site_label
 _atom_site_symmetry_multiplicity
 _atom_site_fract_x
 _atom_site_fract_y
 _atom_site_fract_z
 _atom_site_occupancy
  Ti  Ti0  1  0.499999  0.610678  0.000455  1
  Ti  Ti1  1  0.500002  0.412107  0.424804  1
  Ti  Ti2  1  0.499999  0.987419  0.575514  1
  Cr  Cr3  1  0.000000  0.999365  0.255991  1
  Cr  Cr4  1  0.000000  0.742954  0.743287  1
  Si  Si5  1  0.499999  0.995140  0.999854  1
  Si  Si6  1  0.000000  0.665305  0.332456  1
  Si  Si7  1  0.000000  0.332564  0.667591  1
  Pt  Pt8  1  0.000000  0.254418  0.000000  1
