# generated using pymatgen
data_Tb12TlSi4Ag
_symmetry_space_group_name_H-M   'P 1'
_cell_length_a   8.55177818
_cell_length_b   8.55184388
_cell_length_c   8.55177900
_cell_angle_alpha   111.76542759
_cell_angle_beta   111.20250724
_cell_angle_gamma   105.51686702
_symmetry_Int_Tables_number   1
_chemical_formula_structural   Tb12TlSi4Ag
_chemical_formula_sum   'Tb12 Tl1 Si4 Ag1'
_cell_volume   479.73444744
_cell_formula_units_Z   1
loop_
 _symmetry_equiv_pos_site_id
 _symmetry_equiv_pos_as_xyz
  1  'x, y, z'
loop_
 _atom_site_type_symbol
 _atom_site_label
 _atom_site_symmetry_multiplicity
 _atom_site_fract_x
 _atom_site_fract_y
 _atom_site_fract_z
 _atom_site_occupancy
  Tb  Tb0  1  0.439603  0.239030  0.200566  1
  Tb  Tb1  1  0.560397  0.760970  0.799434  1
  Tb  Tb2  1  0.038464  0.239030  0.799427  1
  Tb  Tb3  1  0.961536  0.760970  0.200573  1
  Tb  Tb4  1  0.180216  0.270207  0.450413  1
  Tb  Tb5  1  0.819784  0.729793  0.549587  1
  Tb  Tb6  1  0.180205  0.729793  0.910009  1
  Tb  Tb7  1  0.819795  0.270207  0.089991  1
  Tb  Tb8  1  0.320748  0.617844  0.297096  1
  Tb  Tb9  1  0.679252  0.382156  0.702904  1
  Tb  Tb10  1  0.320744  0.023648  0.702903  1
  Tb  Tb11  1  0.679256  0.976352  0.297097  1
  Tl  Tl12  1  0.500000  0.500000  0.000000  1
  Si  Si13  1  0.362445  0.000000  0.362445  1
  Si  Si14  1  0.637555  0.000000  0.637555  1
  Si  Si15  1  0.116542  0.616541  0.500000  1
  Si  Si16  1  0.883458  0.383459  0.500000  1
  Ag  Ag17  1  0.000000  0.000000  0.000000  1
