# generated using pymatgen
data_Nd6Sm2Sc12Si15Sn
_symmetry_space_group_name_H-M   'P 1'
_cell_length_a   7.25584050
_cell_length_b   7.53236375
_cell_length_c   14.27423777
_cell_angle_alpha   89.87361950
_cell_angle_beta   89.66038048
_cell_angle_gamma   90.11323241
_symmetry_Int_Tables_number   1
_chemical_formula_structural   Nd6Sm2Sc12Si15Sn
_chemical_formula_sum   'Nd6 Sm2 Sc12 Si15 Sn1'
_cell_volume   780.12176289
_cell_formula_units_Z   1
loop_
 _symmetry_equiv_pos_site_id
 _symmetry_equiv_pos_as_xyz
  1  'x, y, z'
loop_
 _atom_site_type_symbol
 _atom_site_label
 _atom_site_symmetry_multiplicity
 _atom_site_fract_x
 _atom_site_fract_y
 _atom_site_fract_z
 _atom_site_occupancy
  Nd  Nd0  1  0.011981  0.173351  0.097705  1
  Nd  Nd1  1  0.987887  0.827328  0.902929  1
  Nd  Nd2  1  0.488906  0.672670  0.903426  1
  Nd  Nd3  1  0.987833  0.832747  0.598841  1
  Nd  Nd4  1  0.511313  0.327272  0.097366  1
  Nd  Nd5  1  0.007632  0.167361  0.398948  1
  Sm  Sm6  1  0.512806  0.323412  0.398695  1
  Sm  Sm7  1  0.500171  0.681704  0.600921  1
  Sc  Sc8  1  0.161560  0.500139  0.755146  1
  Sc  Sc9  1  0.838451  0.500636  0.249173  1
  Sc  Sc10  1  0.339287  0.999187  0.249322  1
  Sc  Sc11  1  0.662196  0.000649  0.751767  1
  Sc  Sc12  1  0.342591  0.163805  0.630645  1
  Sc  Sc13  1  0.664174  0.824183  0.372728  1
  Sc  Sc14  1  0.166310  0.681605  0.369990  1
  Sc  Sc15  1  0.668992  0.823932  0.124524  1
  Sc  Sc16  1  0.820832  0.324368  0.626276  1
  Sc  Sc17  1  0.329792  0.174994  0.875000  1
  Sc  Sc18  1  0.830896  0.324278  0.875494  1
  Sc  Sc19  1  0.169022  0.675762  0.125187  1
  Si  Si20  1  0.034891  0.126636  0.750733  1
  Si  Si21  1  0.962443  0.876761  0.247681  1
  Si  Si22  1  0.464342  0.622259  0.249032  1
  Si  Si23  1  0.534077  0.378341  0.751586  1
  Si  Si24  1  0.288913  0.877007  0.751553  1
  Si  Si25  1  0.709862  0.118548  0.248405  1
  Si  Si26  1  0.211469  0.381133  0.249893  1
  Si  Si27  1  0.790510  0.619872  0.750740  1
  Si  Si28  1  0.833595  0.540056  0.458020  1
  Si  Si29  1  0.345888  0.962810  0.460434  1
  Si  Si30  1  0.847437  0.536344  0.039799  1
  Si  Si31  1  0.654273  0.038880  0.537776  1
  Si  Si32  1  0.152366  0.463396  0.960972  1
  Si  Si33  1  0.651883  0.036996  0.960597  1
  Si  Si34  1  0.346943  0.963541  0.039481  1
  Sn  Sn35  1  0.168475  0.458035  0.539215  1
