# generated using pymatgen
data_Cs2Ce(IO3)6
_symmetry_space_group_name_H-M   'P 1'
_cell_length_a   8.18563403
_cell_length_b   8.18563464
_cell_length_c   8.18563370
_cell_angle_alpha   97.44911492
_cell_angle_beta   97.44911989
_cell_angle_gamma   97.44911262
_symmetry_Int_Tables_number   1
_chemical_formula_structural   Cs2Ce(IO3)6
_chemical_formula_sum   'Cs2 Ce1 I6 O18'
_cell_volume   533.24027714
_cell_formula_units_Z   1
loop_
 _symmetry_equiv_pos_site_id
 _symmetry_equiv_pos_as_xyz
  1  'x, y, z'
loop_
 _atom_site_type_symbol
 _atom_site_label
 _atom_site_symmetry_multiplicity
 _atom_site_fract_x
 _atom_site_fract_y
 _atom_site_fract_z
 _atom_site_occupancy
  Cs  Cs0  1  0.163861  0.163861  0.163861  1
  Cs  Cs1  1  0.836139  0.836139  0.836139  1
  Ce  Ce2  1  0.500000  0.500000  0.500000  1
  I  I3  1  0.702984  0.330547  0.116306  1
  I  I4  1  0.669453  0.883694  0.297016  1
  I  I5  1  0.116306  0.702984  0.330547  1
  I  I6  1  0.883694  0.297016  0.669453  1
  I  I7  1  0.297016  0.669453  0.883694  1
  I  I8  1  0.330547  0.116306  0.702984  1
  O  O9  1  0.889096  0.400483  0.269944  1
  O  O10  1  0.599517  0.730056  0.110904  1
  O  O11  1  0.730056  0.110904  0.599517  1
  O  O12  1  0.649620  0.735036  0.453324  1
  O  O13  1  0.695235  0.105502  0.094182  1
  O  O14  1  0.453324  0.649620  0.735036  1
  O  O15  1  0.264964  0.546676  0.350380  1
  O  O16  1  0.350380  0.264964  0.546676  1
  O  O17  1  0.105502  0.094182  0.695235  1
  O  O18  1  0.905818  0.304765  0.894498  1
  O  O19  1  0.735036  0.453324  0.649620  1
  O  O20  1  0.110904  0.599517  0.730056  1
  O  O21  1  0.546676  0.350380  0.264964  1
  O  O22  1  0.304765  0.894498  0.905818  1
  O  O23  1  0.894498  0.905818  0.304765  1
  O  O24  1  0.400483  0.269944  0.889096  1
  O  O25  1  0.269944  0.889096  0.400483  1
  O  O26  1  0.094182  0.695235  0.105502  1
