# generated using pymatgen
data_CaTmMnIr3
_symmetry_space_group_name_H-M   'P 1'
_cell_length_a   5.18276946
_cell_length_b   5.18277147
_cell_length_c   5.18277094
_cell_angle_alpha   63.56281195
_cell_angle_beta   63.56280554
_cell_angle_gamma   63.56280546
_symmetry_Int_Tables_number   1
_chemical_formula_structural   CaTmMnIr3
_chemical_formula_sum   'Ca1 Tm1 Mn1 Ir3'
_cell_volume   106.19159329
_cell_formula_units_Z   1
loop_
 _symmetry_equiv_pos_site_id
 _symmetry_equiv_pos_as_xyz
  1  'x, y, z'
loop_
 _atom_site_type_symbol
 _atom_site_label
 _atom_site_symmetry_multiplicity
 _atom_site_fract_x
 _atom_site_fract_y
 _atom_site_fract_z
 _atom_site_occupancy
  Ca  Ca0  1  0.999988  0.999988  0.999988  1
  Tm  Tm1  1  0.250422  0.250422  0.250422  1
  Mn  Mn2  1  0.624714  0.624714  0.624714  1
  Ir  Ir3  1  0.625397  0.625397  0.124077  1
  Ir  Ir4  1  0.625397  0.124077  0.625397  1
  Ir  Ir5  1  0.124077  0.625397  0.625397  1
