# generated using pymatgen
data_Dy6Al6PdAu5
_symmetry_space_group_name_H-M   'P 1'
_cell_length_a   7.39291800
_cell_length_b   7.39291904
_cell_length_c   7.96016000
_cell_angle_alpha   90.00000000
_cell_angle_beta   90.00000000
_cell_angle_gamma   119.99999533
_symmetry_Int_Tables_number   1
_chemical_formula_structural   Dy6Al6PdAu5
_chemical_formula_sum   'Dy6 Al6 Pd1 Au5'
_cell_volume   376.77691762
_cell_formula_units_Z   1
loop_
 _symmetry_equiv_pos_site_id
 _symmetry_equiv_pos_as_xyz
  1  'x, y, z'
loop_
 _atom_site_type_symbol
 _atom_site_label
 _atom_site_symmetry_multiplicity
 _atom_site_fract_x
 _atom_site_fract_y
 _atom_site_fract_z
 _atom_site_occupancy
  Dy  Dy0  1  0.582970  0.997435  0.750000  1
  Dy  Dy1  1  0.002565  0.585536  0.750000  1
  Dy  Dy2  1  0.414464  0.417030  0.750000  1
  Dy  Dy3  1  0.996918  0.588071  0.250000  1
  Dy  Dy4  1  0.591152  0.003082  0.250000  1
  Dy  Dy5  1  0.411929  0.408848  0.250000  1
  Al  Al6  1  0.758962  0.759525  0.005804  1
  Al  Al7  1  0.240475  0.999437  0.005804  1
  Al  Al8  1  0.000563  0.241038  0.005804  1
  Al  Al9  1  0.758962  0.759525  0.494196  1
  Al  Al10  1  0.240475  0.999437  0.494196  1
  Al  Al11  1  0.000563  0.241038  0.494196  1
  Pd  Pd12  1  0.000000  0.000000  0.250000  1
  Au  Au13  1  0.000000  0.000000  0.750000  1
  Au  Au14  1  0.666667  0.333333  0.997131  1
  Au  Au15  1  0.666667  0.333333  0.502869  1
  Au  Au16  1  0.333333  0.666667  0.495854  1
  Au  Au17  1  0.333333  0.666667  0.004146  1
