# generated using pymatgen
data_Dy10(InTe)3
_symmetry_space_group_name_H-M   'P 1'
_cell_length_a   9.02953300
_cell_length_b   9.02953278
_cell_length_c   6.41394400
_cell_angle_alpha   90.00000000
_cell_angle_beta   90.00000000
_cell_angle_gamma   119.99999713
_symmetry_Int_Tables_number   1
_chemical_formula_structural   Dy10(InTe)3
_chemical_formula_sum   'Dy10 In3 Te3'
_cell_volume   452.88337323
_cell_formula_units_Z   1
loop_
 _symmetry_equiv_pos_site_id
 _symmetry_equiv_pos_as_xyz
  1  'x, y, z'
loop_
 _atom_site_type_symbol
 _atom_site_label
 _atom_site_symmetry_multiplicity
 _atom_site_fract_x
 _atom_site_fract_y
 _atom_site_fract_z
 _atom_site_occupancy
  Dy  Dy0  1  0.666667  0.333333  0.002294  1
  Dy  Dy1  1  0.333333  0.666667  0.002294  1
  Dy  Dy2  1  0.333333  0.666667  0.497706  1
  Dy  Dy3  1  0.666667  0.333333  0.497706  1
  Dy  Dy4  1  0.755502  0.755502  0.750000  1
  Dy  Dy5  1  0.244498  0.000000  0.750000  1
  Dy  Dy6  1  0.000000  0.244498  0.750000  1
  Dy  Dy7  1  0.236955  0.236955  0.250000  1
  Dy  Dy8  1  0.763045  0.000000  0.250000  1
  Dy  Dy9  1  0.000000  0.763045  0.250000  1
  In  In10  1  0.607023  0.607023  0.250000  1
  In  In11  1  0.392977  0.000000  0.250000  1
  In  In12  1  0.000000  0.392977  0.250000  1
  Te  Te13  1  0.386618  0.386618  0.750000  1
  Te  Te14  1  0.613382  0.000000  0.750000  1
  Te  Te15  1  0.000000  0.613382  0.750000  1
