# generated using pymatgen
data_Tb4Ga24Pd5Pt4
_symmetry_space_group_name_H-M   'P 1'
_cell_length_a   7.50283795
_cell_length_b   7.60096392
_cell_length_c   13.42518320
_cell_angle_alpha   84.81948407
_cell_angle_beta   79.69746539
_cell_angle_gamma   60.06032738
_symmetry_Int_Tables_number   1
_chemical_formula_structural   Tb4Ga24Pd5Pt4
_chemical_formula_sum   'Tb4 Ga24 Pd5 Pt4'
_cell_volume   652.75366828
_cell_formula_units_Z   1
loop_
 _symmetry_equiv_pos_site_id
 _symmetry_equiv_pos_as_xyz
  1  'x, y, z'
loop_
 _atom_site_type_symbol
 _atom_site_label
 _atom_site_symmetry_multiplicity
 _atom_site_fract_x
 _atom_site_fract_y
 _atom_site_fract_z
 _atom_site_occupancy
  Tb  Tb0  1  0.393206  0.170002  0.811371  1
  Tb  Tb1  1  0.606794  0.829998  0.188629  1
  Tb  Tb2  1  0.731647  0.497544  0.811622  1
  Tb  Tb3  1  0.268353  0.502456  0.188378  1
  Ga  Ga4  1  0.686150  0.834093  0.939422  1
  Ga  Ga5  1  0.313850  0.165907  0.060578  1
  Ga  Ga6  1  0.145202  0.832944  0.558607  1
  Ga  Ga7  1  0.854798  0.167056  0.441393  1
  Ga  Ga8  1  0.477700  0.166273  0.556125  1
  Ga  Ga9  1  0.522300  0.833727  0.443875  1
  Ga  Ga10  1  0.220330  0.166151  0.323225  1
  Ga  Ga11  1  0.779670  0.833849  0.676775  1
  Ga  Ga12  1  0.435171  0.504198  0.674420  1
  Ga  Ga13  1  0.564829  0.495802  0.325580  1
  Ga  Ga14  1  0.106167  0.164370  0.675621  1
  Ga  Ga15  1  0.893833  0.835630  0.324379  1
  Ga  Ga16  1  0.355897  0.499680  0.940039  1
  Ga  Ga17  1  0.644103  0.500320  0.059961  1
  Ga  Ga18  1  0.020244  0.168593  0.943873  1
  Ga  Ga19  1  0.979756  0.831407  0.056127  1
  Ga  Ga20  1  0.186736  0.500182  0.444142  1
  Ga  Ga21  1  0.813264  0.499818  0.555858  1
  Ga  Ga22  1  0.733359  0.165189  0.181496  1
  Ga  Ga23  1  0.266641  0.834811  0.818504  1
  Ga  Ga24  1  0.061150  0.628866  0.817100  1
  Ga  Ga25  1  0.938850  0.371134  0.182900  1
  Ga  Ga26  1  0.857067  0.038253  0.817317  1
  Ga  Ga27  1  0.142933  0.961747  0.182684  1
  Pd  Pd28  1  0.116534  0.496411  0.638383  1
  Pd  Pd29  1  0.883466  0.503589  0.361617  1
  Pd  Pd30  1  0.660376  0.169668  0.998577  1
  Pd  Pd31  1  0.339624  0.830332  0.001423  1
  Pd  Pd32  1  0.000000  0.500000  0.000000  1
  Pt  Pt33  1  0.541077  0.167715  0.360713  1
  Pt  Pt34  1  0.458923  0.832285  0.639287  1
  Pt  Pt35  1  0.779176  0.171213  0.637120  1
  Pt  Pt36  1  0.220824  0.828787  0.362880  1
