# generated using pymatgen
data_Tb19HoFeCo3Bi8
_symmetry_space_group_name_H-M   'P 1'
_cell_length_a   8.04491972
_cell_length_b   8.90277700
_cell_length_c   12.43981845
_cell_angle_alpha   90.00000000
_cell_angle_beta   89.90201435
_cell_angle_gamma   90.00000000
_symmetry_Int_Tables_number   1
_chemical_formula_structural   Tb19HoFeCo3Bi8
_chemical_formula_sum   'Tb19 Ho1 Fe1 Co3 Bi8'
_cell_volume   890.96494404
_cell_formula_units_Z   1
loop_
 _symmetry_equiv_pos_site_id
 _symmetry_equiv_pos_as_xyz
  1  'x, y, z'
loop_
 _atom_site_type_symbol
 _atom_site_label
 _atom_site_symmetry_multiplicity
 _atom_site_fract_x
 _atom_site_fract_y
 _atom_site_fract_z
 _atom_site_occupancy
  Tb  Tb0  1  0.346428  0.750000  0.701839  1
  Tb  Tb1  1  0.650341  0.250000  0.301628  1
  Tb  Tb2  1  0.849803  0.250000  0.801663  1
  Tb  Tb3  1  0.150968  0.750000  0.198308  1
  Tb  Tb4  1  0.884390  0.750000  0.807850  1
  Tb  Tb5  1  0.115701  0.250000  0.190089  1
  Tb  Tb6  1  0.384000  0.250000  0.689313  1
  Tb  Tb7  1  0.615897  0.750000  0.309912  1
  Tb  Tb8  1  0.677170  0.536155  0.563636  1
  Tb  Tb9  1  0.323140  0.465073  0.437111  1
  Tb  Tb10  1  0.175350  0.468910  0.938581  1
  Tb  Tb11  1  0.323140  0.034927  0.437111  1
  Tb  Tb12  1  0.821753  0.540410  0.062218  1
  Tb  Tb13  1  0.677170  0.963845  0.563636  1
  Tb  Tb14  1  0.821753  0.959590  0.062218  1
  Tb  Tb15  1  0.175350  0.031090  0.938581  1
  Tb  Tb16  1  0.048772  0.750000  0.496952  1
  Tb  Tb17  1  0.952177  0.250000  0.502229  1
  Tb  Tb18  1  0.552182  0.250000  0.003960  1
  Ho  Ho19  1  0.449563  0.750000  0.996731  1
  Fe  Fe20  1  0.071237  0.750000  0.988329  1
  Co  Co21  1  0.934731  0.250000  0.009050  1
  Co  Co22  1  0.562249  0.250000  0.508366  1
  Co  Co23  1  0.437018  0.750000  0.492657  1
  Bi  Bi24  1  0.573327  0.508176  0.826763  1
  Bi  Bi25  1  0.426688  0.491640  0.173206  1
  Bi  Bi26  1  0.074044  0.490625  0.673179  1
  Bi  Bi27  1  0.426688  0.008360  0.173206  1
  Bi  Bi28  1  0.925797  0.508414  0.325866  1
  Bi  Bi29  1  0.573327  0.991824  0.826763  1
  Bi  Bi30  1  0.925797  0.991586  0.325866  1
  Bi  Bi31  1  0.074044  0.009375  0.673179  1
