# generated using pymatgen
data_Tb3Dy5(CoHg)2
_symmetry_space_group_name_H-M   'P 1'
_cell_length_a   9.47758666
_cell_length_b   9.47758571
_cell_length_c   9.47758600
_cell_angle_alpha   59.99999898
_cell_angle_beta   60.00000229
_cell_angle_gamma   59.99999620
_symmetry_Int_Tables_number   1
_chemical_formula_structural   Tb3Dy5(CoHg)2
_chemical_formula_sum   'Tb6 Dy10 Co4 Hg4'
_cell_volume   601.97466309
_cell_formula_units_Z   2
loop_
 _symmetry_equiv_pos_site_id
 _symmetry_equiv_pos_as_xyz
  1  'x, y, z'
loop_
 _atom_site_type_symbol
 _atom_site_label
 _atom_site_symmetry_multiplicity
 _atom_site_fract_x
 _atom_site_fract_y
 _atom_site_fract_z
 _atom_site_occupancy
  Tb  Tb0  1  0.938884  0.561116  0.561116  1
  Tb  Tb1  1  0.561116  0.938884  0.938884  1
  Tb  Tb2  1  0.561116  0.938884  0.561116  1
  Tb  Tb3  1  0.938884  0.561116  0.938884  1
  Tb  Tb4  1  0.561116  0.561116  0.938884  1
  Tb  Tb5  1  0.938884  0.938884  0.561116  1
  Dy  Dy6  1  0.347688  0.347688  0.347688  1
  Dy  Dy7  1  0.347688  0.347688  0.956936  1
  Dy  Dy8  1  0.347688  0.956936  0.347688  1
  Dy  Dy9  1  0.956936  0.347688  0.347688  1
  Dy  Dy10  1  0.811594  0.188406  0.188406  1
  Dy  Dy11  1  0.188406  0.811594  0.811594  1
  Dy  Dy12  1  0.188406  0.811594  0.188406  1
  Dy  Dy13  1  0.811594  0.188406  0.811594  1
  Dy  Dy14  1  0.188406  0.188406  0.811594  1
  Dy  Dy15  1  0.811594  0.811594  0.188406  1
  Co  Co16  1  0.141105  0.141105  0.141105  1
  Co  Co17  1  0.141105  0.141105  0.576686  1
  Co  Co18  1  0.141105  0.576686  0.141105  1
  Co  Co19  1  0.576686  0.141105  0.141105  1
  Hg  Hg20  1  0.583719  0.583719  0.583719  1
  Hg  Hg21  1  0.583719  0.583719  0.248844  1
  Hg  Hg22  1  0.583719  0.248844  0.583719  1
  Hg  Hg23  1  0.248844  0.583719  0.583719  1
