# generated using pymatgen
data_Hf16VFe4Pt3
_symmetry_space_group_name_H-M   'P 1'
_cell_length_a   8.63341910
_cell_length_b   8.57946396
_cell_length_c   8.57946300
_cell_angle_alpha   59.99999985
_cell_angle_beta   60.20651946
_cell_angle_gamma   60.20652274
_symmetry_Int_Tables_number   1
_chemical_formula_structural   Hf16VFe4Pt3
_chemical_formula_sum   'Hf16 V1 Fe4 Pt3'
_cell_volume   450.75103668
_cell_formula_units_Z   1
loop_
 _symmetry_equiv_pos_site_id
 _symmetry_equiv_pos_as_xyz
  1  'x, y, z'
loop_
 _atom_site_type_symbol
 _atom_site_label
 _atom_site_symmetry_multiplicity
 _atom_site_fract_x
 _atom_site_fract_y
 _atom_site_fract_z
 _atom_site_occupancy
  Hf  Hf0  1  0.067272  0.644243  0.644243  1
  Hf  Hf1  1  0.651592  0.048043  0.650183  1
  Hf  Hf2  1  0.651592  0.650183  0.048043  1
  Hf  Hf3  1  0.651592  0.650183  0.650183  1
  Hf  Hf4  1  0.807048  0.800258  0.196346  1
  Hf  Hf5  1  0.197221  0.198540  0.802119  1
  Hf  Hf6  1  0.807048  0.196346  0.800258  1
  Hf  Hf7  1  0.197221  0.802119  0.198540  1
  Hf  Hf8  1  0.197221  0.802119  0.802119  1
  Hf  Hf9  1  0.807048  0.196346  0.196346  1
  Hf  Hf10  1  0.437060  0.438554  0.062193  1
  Hf  Hf11  1  0.051596  0.074503  0.436950  1
  Hf  Hf12  1  0.437060  0.062193  0.438554  1
  Hf  Hf13  1  0.051596  0.436950  0.074503  1
  Hf  Hf14  1  0.051596  0.436950  0.436950  1
  Hf  Hf15  1  0.437060  0.062193  0.062193  1
  V  V16  1  0.735325  0.421558  0.421558  1
  Fe  Fe17  1  0.415067  0.861645  0.861645  1
  Fe  Fe18  1  0.863277  0.420780  0.857973  1
  Fe  Fe19  1  0.863277  0.857973  0.420780  1
  Fe  Fe20  1  0.863277  0.857973  0.857973  1
  Pt  Pt21  1  0.419651  0.756281  0.412033  1
  Pt  Pt22  1  0.419651  0.412033  0.756281  1
  Pt  Pt23  1  0.419651  0.412033  0.412033  1
