# generated using pymatgen
data_Er4Ga18Ir3Rh2Au
_symmetry_space_group_name_H-M   'P 1'
_cell_length_a   7.61234415
_cell_length_b   7.61234502
_cell_length_c   9.47612704
_cell_angle_alpha   90.03256480
_cell_angle_beta   90.03256578
_cell_angle_gamma   119.91948384
_symmetry_Int_Tables_number   1
_chemical_formula_structural   Er4Ga18Ir3Rh2Au
_chemical_formula_sum   'Er4 Ga18 Ir3 Rh2 Au1'
_cell_volume   475.93746299
_cell_formula_units_Z   1
loop_
 _symmetry_equiv_pos_site_id
 _symmetry_equiv_pos_as_xyz
  1  'x, y, z'
loop_
 _atom_site_type_symbol
 _atom_site_label
 _atom_site_symmetry_multiplicity
 _atom_site_fract_x
 _atom_site_fract_y
 _atom_site_fract_z
 _atom_site_occupancy
  Er  Er0  1  0.996497  0.671121  0.751461  1
  Er  Er1  1  0.003503  0.328879  0.248539  1
  Er  Er2  1  0.671121  0.996497  0.751461  1
  Er  Er3  1  0.328879  0.003503  0.248539  1
  Ga  Ga4  1  0.133629  0.133629  0.755167  1
  Ga  Ga5  1  0.866371  0.866371  0.244833  1
  Ga  Ga6  1  0.998196  0.343139  0.584582  1
  Ga  Ga7  1  0.001804  0.656861  0.415418  1
  Ga  Ga8  1  0.002530  0.665273  0.079465  1
  Ga  Ga9  1  0.334727  0.997470  0.920535  1
  Ga  Ga10  1  0.997470  0.334727  0.920535  1
  Ga  Ga11  1  0.665273  0.002530  0.079465  1
  Ga  Ga12  1  0.656861  0.001804  0.415418  1
  Ga  Ga13  1  0.343139  0.998196  0.584582  1
  Ga  Ga14  1  0.331646  0.331646  0.066820  1
  Ga  Ga15  1  0.668354  0.668354  0.933180  1
  Ga  Ga16  1  0.658513  0.658513  0.572624  1
  Ga  Ga17  1  0.341487  0.341487  0.427376  1
  Ga  Ga18  1  0.336884  0.547646  0.750499  1
  Ga  Ga19  1  0.663116  0.452354  0.249501  1
  Ga  Ga20  1  0.547646  0.336884  0.750499  1
  Ga  Ga21  1  0.452354  0.663116  0.249501  1
  Ir  Ir22  1  0.328608  0.671392  0.000000  1
  Ir  Ir23  1  0.671392  0.328608  0.000000  1
  Ir  Ir24  1  0.000000  0.000000  0.000000  1
  Rh  Rh25  1  0.670811  0.329189  0.500000  1
  Rh  Rh26  1  0.329189  0.670811  0.500000  1
  Au  Au27  1  0.000000  0.000000  0.500000  1
