# generated using pymatgen
data_DyLu7Ga3Os
_symmetry_space_group_name_H-M   'P 1'
_cell_length_a   9.83270900
_cell_length_b   9.83270757
_cell_length_c   6.95457100
_cell_angle_alpha   90.00000000
_cell_angle_beta   90.00000000
_cell_angle_gamma   119.99999471
_symmetry_Int_Tables_number   1
_chemical_formula_structural   DyLu7Ga3Os
_chemical_formula_sum   'Dy2 Lu14 Ga6 Os2'
_cell_volume   582.30069678
_cell_formula_units_Z   2
loop_
 _symmetry_equiv_pos_site_id
 _symmetry_equiv_pos_as_xyz
  1  'x, y, z'
loop_
 _atom_site_type_symbol
 _atom_site_label
 _atom_site_symmetry_multiplicity
 _atom_site_fract_x
 _atom_site_fract_y
 _atom_site_fract_z
 _atom_site_occupancy
  Dy  Dy0  1  0.000000  0.000000  0.232780  1
  Dy  Dy1  1  0.000000  0.000000  0.732780  1
  Lu  Lu2  1  0.172743  0.827257  0.511278  1
  Lu  Lu3  1  0.654512  0.827257  0.511278  1
  Lu  Lu4  1  0.172743  0.345488  0.511278  1
  Lu  Lu5  1  0.827257  0.172743  0.011278  1
  Lu  Lu6  1  0.345488  0.172743  0.011278  1
  Lu  Lu7  1  0.827257  0.654512  0.011278  1
  Lu  Lu8  1  0.333333  0.666667  0.837747  1
  Lu  Lu9  1  0.666667  0.333333  0.337747  1
  Lu  Lu10  1  0.465324  0.534676  0.204662  1
  Lu  Lu11  1  0.069352  0.534676  0.204662  1
  Lu  Lu12  1  0.465324  0.930648  0.204662  1
  Lu  Lu13  1  0.534676  0.465324  0.704662  1
  Lu  Lu14  1  0.930648  0.465324  0.704662  1
  Lu  Lu15  1  0.534676  0.069352  0.704662  1
  Ga  Ga16  1  0.164058  0.835942  0.958718  1
  Ga  Ga17  1  0.671884  0.835942  0.958718  1
  Ga  Ga18  1  0.164058  0.328116  0.958718  1
  Ga  Ga19  1  0.835942  0.164058  0.458718  1
  Ga  Ga20  1  0.328116  0.164058  0.458718  1
  Ga  Ga21  1  0.835942  0.671884  0.458718  1
  Os  Os22  1  0.333333  0.666667  0.442918  1
  Os  Os23  1  0.666667  0.333333  0.942918  1
