# generated using pymatgen
data_Cs3LiSc2Br9
_symmetry_space_group_name_H-M   'P 1'
_cell_length_a   13.71219600
_cell_length_b   13.71219730
_cell_length_c   6.48813000
_cell_angle_alpha   90.00000000
_cell_angle_beta   90.00000000
_cell_angle_gamma   120.00000169
_symmetry_Int_Tables_number   1
_chemical_formula_structural   Cs3LiSc2Br9
_chemical_formula_sum   'Cs6 Li2 Sc4 Br18'
_cell_volume   1056.48718431
_cell_formula_units_Z   2
loop_
 _symmetry_equiv_pos_site_id
 _symmetry_equiv_pos_as_xyz
  1  'x, y, z'
loop_
 _atom_site_type_symbol
 _atom_site_label
 _atom_site_symmetry_multiplicity
 _atom_site_fract_x
 _atom_site_fract_y
 _atom_site_fract_z
 _atom_site_occupancy
  Cs  Cs0  1  0.017417  0.333692  0.751551  1
  Cs  Cs1  1  0.316168  0.332247  0.252209  1
  Cs  Cs2  1  0.666308  0.683725  0.751551  1
  Cs  Cs3  1  0.016080  0.683832  0.252209  1
  Cs  Cs4  1  0.316275  0.982583  0.751551  1
  Cs  Cs5  1  0.667753  0.983920  0.252209  1
  Li  Li6  1  0.333333  0.666667  0.525943  1
  Li  Li7  1  0.000000  0.000000  0.000045  1
  Sc  Sc8  1  0.666667  0.333333  0.472370  1
  Sc  Sc9  1  0.000000  0.000000  0.499910  1
  Sc  Sc10  1  0.666667  0.333333  0.972301  1
  Sc  Sc11  1  0.333333  0.666667  0.026850  1
  Br  Br12  1  0.827880  0.493946  0.722069  1
  Br  Br13  1  0.335790  0.509018  0.784269  1
  Br  Br14  1  0.173228  0.664210  0.784269  1
  Br  Br15  1  0.827398  0.333134  0.222040  1
  Br  Br16  1  0.173021  0.508988  0.268895  1
  Br  Br17  1  0.160375  0.002944  0.258153  1
  Br  Br18  1  0.335967  0.826979  0.268895  1
  Br  Br19  1  0.490982  0.826772  0.784269  1
  Br  Br20  1  0.666066  0.172120  0.722069  1
  Br  Br21  1  0.666866  0.494263  0.222040  1
  Br  Br22  1  0.997056  0.157430  0.258153  1
  Br  Br23  1  0.160020  0.157907  0.741674  1
  Br  Br24  1  0.842093  0.002113  0.741674  1
  Br  Br25  1  0.997887  0.839980  0.741674  1
  Br  Br26  1  0.842570  0.839625  0.258153  1
  Br  Br27  1  0.505737  0.172602  0.222040  1
  Br  Br28  1  0.491012  0.664033  0.268895  1
  Br  Br29  1  0.506054  0.333934  0.722069  1
