# generated using pymatgen
data_LiHoPa2Ge6Ir7
_symmetry_space_group_name_H-M   'P 1'
_cell_length_a   7.21014826
_cell_length_b   7.27896118
_cell_length_c   7.23195354
_cell_angle_alpha   109.55468114
_cell_angle_beta   109.16806872
_cell_angle_gamma   109.76157752
_symmetry_Int_Tables_number   1
_chemical_formula_structural   LiHoPa2Ge6Ir7
_chemical_formula_sum   'Li1 Ho1 Pa2 Ge6 Ir7'
_cell_volume   291.91674579
_cell_formula_units_Z   1
loop_
 _symmetry_equiv_pos_site_id
 _symmetry_equiv_pos_as_xyz
  1  'x, y, z'
loop_
 _atom_site_type_symbol
 _atom_site_label
 _atom_site_symmetry_multiplicity
 _atom_site_fract_x
 _atom_site_fract_y
 _atom_site_fract_z
 _atom_site_occupancy
  Li  Li0  1  0.000000  0.500000  0.000000  1
  Ho  Ho1  1  0.500000  0.000000  0.000000  1
  Pa  Pa2  1  0.000000  0.000000  0.500000  1
  Pa  Pa3  1  0.500000  0.500000  0.500000  1
  Ge  Ge4  1  0.692953  0.680065  0.000000  1
  Ge  Ge5  1  0.307123  0.980479  0.301581  1
  Ge  Ge6  1  0.994459  0.321102  0.301581  1
  Ge  Ge7  1  0.307047  0.319935  0.000000  1
  Ge  Ge8  1  0.692877  0.019521  0.698419  1
  Ge  Ge9  1  0.005541  0.678898  0.698419  1
  Ir  Ir10  1  0.751207  0.251207  0.502414  1
  Ir  Ir11  1  0.750294  0.504788  0.254008  1
  Ir  Ir12  1  0.496286  0.250780  0.745992  1
  Ir  Ir13  1  0.249706  0.495212  0.745992  1
  Ir  Ir14  1  0.248793  0.748793  0.497586  1
  Ir  Ir15  1  0.503714  0.749220  0.254008  1
  Ir  Ir16  1  0.000000  0.000000  0.000000  1
