# generated using pymatgen
data_Tm2Lu4ReBi2
_symmetry_space_group_name_H-M   'P 1'
_cell_length_a   8.13775606
_cell_length_b   8.13775437
_cell_length_c   4.30049100
_cell_angle_alpha   90.00000000
_cell_angle_beta   90.00000000
_cell_angle_gamma   120.15096604
_symmetry_Int_Tables_number   1
_chemical_formula_structural   Tm2Lu4ReBi2
_chemical_formula_sum   'Tm2 Lu4 Re1 Bi2'
_cell_volume   246.26077585
_cell_formula_units_Z   1
loop_
 _symmetry_equiv_pos_site_id
 _symmetry_equiv_pos_as_xyz
  1  'x, y, z'
loop_
 _atom_site_type_symbol
 _atom_site_label
 _atom_site_symmetry_multiplicity
 _atom_site_fract_x
 _atom_site_fract_y
 _atom_site_fract_z
 _atom_site_occupancy
  Tm  Tm0  1  0.616906  0.999910  0.000000  1
  Tm  Tm1  1  0.999910  0.616906  0.000000  1
  Lu  Lu2  1  0.231126  0.000483  0.500000  1
  Lu  Lu3  1  0.000483  0.231126  0.500000  1
  Lu  Lu4  1  0.769108  0.769108  0.500000  1
  Lu  Lu5  1  0.381707  0.381707  0.000000  1
  Re  Re6  1  0.000963  0.000963  0.000000  1
  Bi  Bi7  1  0.333365  0.666431  0.500000  1
  Bi  Bi8  1  0.666431  0.333365  0.500000  1
