# generated using pymatgen
data_CeFeH3N
_symmetry_space_group_name_H-M   'P 1'
_cell_length_a   6.23018594
_cell_length_b   6.23018663
_cell_length_c   4.75184401
_cell_angle_alpha   89.99322829
_cell_angle_beta   90.00677234
_cell_angle_gamma   143.97073227
_symmetry_Int_Tables_number   1
_chemical_formula_structural   CeFeH3N
_chemical_formula_sum   'Ce2 Fe2 H6 N2'
_cell_volume   108.48959861
_cell_formula_units_Z   2
loop_
 _symmetry_equiv_pos_site_id
 _symmetry_equiv_pos_as_xyz
  1  'x, y, z'
loop_
 _atom_site_type_symbol
 _atom_site_label
 _atom_site_symmetry_multiplicity
 _atom_site_fract_x
 _atom_site_fract_y
 _atom_site_fract_z
 _atom_site_occupancy
  Ce  Ce0  1  0.382910  0.617088  0.249964  1
  Ce  Ce1  1  0.616918  0.383080  0.750036  1
  Fe  Fe2  1  0.100879  0.899119  0.250036  1
  Fe  Fe3  1  0.899151  0.100847  0.749963  1
  H  H4  1  0.000080  0.999920  0.999463  1
  H  H5  1  0.192380  0.807618  0.000575  1
  H  H6  1  0.192388  0.807610  0.499577  1
  H  H7  1  0.000085  0.999915  0.500550  1
  H  H8  1  0.807614  0.192384  0.500501  1
  H  H9  1  0.807622  0.192376  0.999341  1
  N  N10  1  0.580611  0.419387  0.250032  1
  N  N11  1  0.419352  0.580646  0.749965  1
