# generated using pymatgen
data_KBaNiO3
_symmetry_space_group_name_H-M   'P 1'
_cell_length_a   6.50167504
_cell_length_b   6.50167468
_cell_length_c   12.85278400
_cell_angle_alpha   90.00000000
_cell_angle_beta   90.00000000
_cell_angle_gamma   126.48698171
_symmetry_Int_Tables_number   1
_chemical_formula_structural   KBaNiO3
_chemical_formula_sum   'K4 Ba4 Ni4 O12'
_cell_volume   436.81689291
_cell_formula_units_Z   4
loop_
 _symmetry_equiv_pos_site_id
 _symmetry_equiv_pos_as_xyz
  1  'x, y, z'
loop_
 _atom_site_type_symbol
 _atom_site_label
 _atom_site_symmetry_multiplicity
 _atom_site_fract_x
 _atom_site_fract_y
 _atom_site_fract_z
 _atom_site_occupancy
  K  K0  1  0.452787  0.547213  0.644089  1
  K  K1  1  0.547213  0.452787  0.355911  1
  K  K2  1  0.047213  0.952787  0.144089  1
  K  K3  1  0.952787  0.047213  0.855911  1
  Ba  Ba4  1  0.644828  0.355172  0.917071  1
  Ba  Ba5  1  0.855172  0.144828  0.417071  1
  Ba  Ba6  1  0.144828  0.855172  0.582929  1
  Ba  Ba7  1  0.355172  0.644828  0.082929  1
  Ni  Ni8  1  0.230251  0.769749  0.335384  1
  Ni  Ni9  1  0.730251  0.269749  0.164616  1
  Ni  Ni10  1  0.769749  0.230251  0.664616  1
  Ni  Ni11  1  0.269749  0.730251  0.835384  1
  O  O12  1  0.975335  0.524665  0.750000  1
  O  O13  1  0.524665  0.975335  0.250000  1
  O  O14  1  0.024665  0.475335  0.250000  1
  O  O15  1  0.475335  0.024665  0.750000  1
  O  O16  1  0.421915  0.578085  0.873828  1
  O  O17  1  0.578085  0.421915  0.126172  1
  O  O18  1  0.078085  0.921915  0.373828  1
  O  O19  1  0.672268  0.327732  0.550283  1
  O  O20  1  0.172268  0.827732  0.949717  1
  O  O21  1  0.827732  0.172268  0.050283  1
  O  O22  1  0.327732  0.672268  0.449717  1
  O  O23  1  0.921915  0.078085  0.626172  1
