# generated using pymatgen
data_Tb5Nd(RuBr3)2
_symmetry_space_group_name_H-M   'P 1'
_cell_length_a   4.15254800
_cell_length_b   8.61470846
_cell_length_c   11.98141780
_cell_angle_alpha   86.82840296
_cell_angle_beta   90.00000000
_cell_angle_gamma   90.00000000
_symmetry_Int_Tables_number   1
_chemical_formula_structural   Tb5Nd(RuBr3)2
_chemical_formula_sum   'Tb5 Nd1 Ru2 Br6'
_cell_volume   427.95464588
_cell_formula_units_Z   1
loop_
 _symmetry_equiv_pos_site_id
 _symmetry_equiv_pos_as_xyz
  1  'x, y, z'
loop_
 _atom_site_type_symbol
 _atom_site_label
 _atom_site_symmetry_multiplicity
 _atom_site_fract_x
 _atom_site_fract_y
 _atom_site_fract_z
 _atom_site_occupancy
  Tb  Tb0  1  0.250000  0.279579  0.398057  1
  Tb  Tb1  1  0.750000  0.718898  0.604556  1
  Tb  Tb2  1  0.250000  0.867125  0.369402  1
  Tb  Tb3  1  0.750000  0.130964  0.631255  1
  Tb  Tb4  1  0.250000  0.886756  0.824821  1
  Nd  Nd5  1  0.750000  0.114451  0.170058  1
  Ru  Ru6  1  0.250000  0.935680  0.596719  1
  Ru  Ru7  1  0.750000  0.062775  0.404075  1
  Br  Br8  1  0.250000  0.424226  0.630332  1
  Br  Br9  1  0.750000  0.573290  0.373058  1
  Br  Br10  1  0.250000  0.872538  0.104006  1
  Br  Br11  1  0.750000  0.118412  0.890008  1
  Br  Br12  1  0.250000  0.362651  0.145042  1
  Br  Br13  1  0.750000  0.652653  0.858612  1
