# generated using pymatgen
data_PrSm4(In2Rh)2
_symmetry_space_group_name_H-M   'P 1'
_cell_length_a   8.14581300
_cell_length_b   18.62198600
_cell_length_c   3.75135700
_cell_angle_alpha   90.00000000
_cell_angle_beta   90.00000000
_cell_angle_gamma   90.00000000
_symmetry_Int_Tables_number   1
_chemical_formula_structural   PrSm4(In2Rh)2
_chemical_formula_sum   'Pr2 Sm8 In8 Rh4'
_cell_volume   569.04790365
_cell_formula_units_Z   2
loop_
 _symmetry_equiv_pos_site_id
 _symmetry_equiv_pos_as_xyz
  1  'x, y, z'
loop_
 _atom_site_type_symbol
 _atom_site_label
 _atom_site_symmetry_multiplicity
 _atom_site_fract_x
 _atom_site_fract_y
 _atom_site_fract_z
 _atom_site_occupancy
  Pr  Pr0  1  0.500000  0.500000  0.000000  1
  Pr  Pr1  1  0.000000  0.000000  0.000000  1
  Sm  Sm2  1  0.754798  0.278419  0.000000  1
  Sm  Sm3  1  0.245202  0.721581  0.000000  1
  Sm  Sm4  1  0.745202  0.778419  0.000000  1
  Sm  Sm5  1  0.254798  0.221581  0.000000  1
  Sm  Sm6  1  0.622063  0.088762  0.000000  1
  Sm  Sm7  1  0.377937  0.911238  0.000000  1
  Sm  Sm8  1  0.877937  0.588762  0.000000  1
  Sm  Sm9  1  0.122063  0.411238  0.000000  1
  In  In10  1  0.702166  0.929872  0.500000  1
  In  In11  1  0.297834  0.070128  0.500000  1
  In  In12  1  0.797834  0.429872  0.500000  1
  In  In13  1  0.202166  0.570128  0.500000  1
  In  In14  1  0.560530  0.651385  0.500000  1
  In  In15  1  0.439470  0.348615  0.500000  1
  In  In16  1  0.939470  0.151385  0.500000  1
  In  In17  1  0.060530  0.848615  0.500000  1
  Rh  Rh18  1  0.525946  0.194612  0.500000  1
  Rh  Rh19  1  0.474054  0.805388  0.500000  1
  Rh  Rh20  1  0.974054  0.694612  0.500000  1
  Rh  Rh21  1  0.025946  0.305388  0.500000  1
