# generated using pymatgen
data_Dy9Hg4
_symmetry_space_group_name_H-M   'P 1'
_cell_length_a   8.82794592
_cell_length_b   8.82794620
_cell_length_c   8.82794546
_cell_angle_alpha   94.87489709
_cell_angle_beta   94.87488911
_cell_angle_gamma   146.10276403
_symmetry_Int_Tables_number   1
_chemical_formula_structural   Dy9Hg4
_chemical_formula_sum   'Dy9 Hg4'
_cell_volume   367.02767433
_cell_formula_units_Z   1
loop_
 _symmetry_equiv_pos_site_id
 _symmetry_equiv_pos_as_xyz
  1  'x, y, z'
loop_
 _atom_site_type_symbol
 _atom_site_label
 _atom_site_symmetry_multiplicity
 _atom_site_fract_x
 _atom_site_fract_y
 _atom_site_fract_z
 _atom_site_occupancy
  Dy  Dy0  1  0.499999  0.499999  0.000000  1
  Dy  Dy1  1  0.182485  0.885041  0.067529  1
  Dy  Dy2  1  0.114958  0.182486  0.297444  1
  Dy  Dy3  1  0.890308  0.403339  0.293650  1
  Dy  Dy4  1  0.596659  0.890308  0.486968  1
  Dy  Dy5  1  0.403340  0.109691  0.513031  1
  Dy  Dy6  1  0.109691  0.596660  0.706350  1
  Dy  Dy7  1  0.885041  0.817513  0.702556  1
  Dy  Dy8  1  0.817514  0.114958  0.932471  1
  Hg  Hg9  1  0.397860  0.736911  0.134772  1
  Hg  Hg10  1  0.736911  0.602138  0.339051  1
  Hg  Hg11  1  0.263088  0.397861  0.660949  1
  Hg  Hg12  1  0.602139  0.263088  0.865228  1
