# generated using pymatgen
data_La4TbLuIn10
_symmetry_space_group_name_H-M   'P 1'
_cell_length_a   6.63927600
_cell_length_b   6.63927858
_cell_length_c   10.56775700
_cell_angle_alpha   90.00000000
_cell_angle_beta   90.00000000
_cell_angle_gamma   102.43108088
_symmetry_Int_Tables_number   1
_chemical_formula_structural   La4TbLuIn10
_chemical_formula_sum   'La4 Tb1 Lu1 In10'
_cell_volume   454.90575332
_cell_formula_units_Z   1
loop_
 _symmetry_equiv_pos_site_id
 _symmetry_equiv_pos_as_xyz
  1  'x, y, z'
loop_
 _atom_site_type_symbol
 _atom_site_label
 _atom_site_symmetry_multiplicity
 _atom_site_fract_x
 _atom_site_fract_y
 _atom_site_fract_z
 _atom_site_occupancy
  La  La0  1  0.204050  0.794325  0.500622  1
  La  La1  1  0.204050  0.794325  0.999378  1
  La  La2  1  0.794325  0.204050  0.500622  1
  La  La3  1  0.794325  0.204050  0.999378  1
  Tb  Tb4  1  0.631656  0.631656  0.250000  1
  Lu  Lu5  1  0.365603  0.365603  0.750000  1
  In  In6  1  0.009893  0.009893  0.250000  1
  In  In7  1  0.990617  0.990617  0.750000  1
  In  In8  1  0.312234  0.312234  0.047305  1
  In  In9  1  0.687007  0.687007  0.947301  1
  In  In10  1  0.312234  0.312234  0.452695  1
  In  In11  1  0.687007  0.687007  0.552699  1
  In  In12  1  0.495404  0.071699  0.250000  1
  In  In13  1  0.935982  0.503914  0.750000  1
  In  In14  1  0.503914  0.935982  0.750000  1
  In  In15  1  0.071699  0.495404  0.250000  1
