# generated using pymatgen
data_LuTh5H8Br15
_symmetry_space_group_name_H-M   'P 1'
_cell_length_a   10.01789042
_cell_length_b   10.01792701
_cell_length_c   10.01791249
_cell_angle_alpha   109.03183864
_cell_angle_beta   109.02841841
_cell_angle_gamma   110.35845196
_symmetry_Int_Tables_number   1
_chemical_formula_structural   LuTh5H8Br15
_chemical_formula_sum   'Lu1 Th5 H8 Br15'
_cell_volume   773.79132519
_cell_formula_units_Z   1
loop_
 _symmetry_equiv_pos_site_id
 _symmetry_equiv_pos_as_xyz
  1  'x, y, z'
loop_
 _atom_site_type_symbol
 _atom_site_label
 _atom_site_symmetry_multiplicity
 _atom_site_fract_x
 _atom_site_fract_y
 _atom_site_fract_z
 _atom_site_occupancy
  Lu  Lu0  1  0.227742  0.227973  0.999986  1
  Th  Th1  1  0.755996  0.755988  0.999998  1
  Th  Th2  1  0.240985  0.003753  0.237218  1
  Th  Th3  1  0.003756  0.240971  0.237232  1
  Th  Th4  1  0.766533  0.003737  0.762778  1
  Th  Th5  1  0.003775  0.766553  0.762790  1
  H  H6  1  0.176702  0.999007  0.000002  1
  H  H7  1  0.820367  0.998091  0.000004  1
  H  H8  1  0.999022  0.176701  0.000005  1
  H  H9  1  0.998095  0.820353  0.000002  1
  H  H10  1  0.998099  0.998092  0.177732  1
  H  H11  1  0.176704  0.176698  0.177693  1
  H  H12  1  0.999024  0.999016  0.822321  1
  H  H13  1  0.820361  0.820354  0.822270  1
  Br  Br14  1  0.747029  0.253427  0.999997  1
  Br  Br15  1  0.497758  0.497749  0.000001  1
  Br  Br16  1  0.253444  0.747025  0.000005  1
  Br  Br17  1  0.745183  0.999346  0.254172  1
  Br  Br18  1  0.999363  0.745176  0.254180  1
  Br  Br19  1  0.501868  0.258020  0.243827  1
  Br  Br20  1  0.258025  0.501879  0.243843  1
  Br  Br21  1  0.747022  0.747016  0.493584  1
  Br  Br22  1  0.500659  0.000652  0.499999  1
  Br  Br23  1  0.000656  0.500646  0.499996  1
  Br  Br24  1  0.253447  0.253435  0.506411  1
  Br  Br25  1  0.258023  0.014167  0.756152  1
  Br  Br26  1  0.014190  0.258016  0.756161  1
  Br  Br27  1  0.745177  0.490995  0.745824  1
  Br  Br28  1  0.491003  0.745170  0.745825  1
