# generated using pymatgen
data_DyEr7Ti5Si16Mo7
_symmetry_space_group_name_H-M   'P 1'
_cell_length_a   6.91716006
_cell_length_b   6.90863380
_cell_length_c   12.78615515
_cell_angle_alpha   89.88989451
_cell_angle_beta   89.99064399
_cell_angle_gamma   90.01772196
_symmetry_Int_Tables_number   1
_chemical_formula_structural   DyEr7Ti5Si16Mo7
_chemical_formula_sum   'Dy1 Er7 Ti5 Si16 Mo7'
_cell_volume   611.02522453
_cell_formula_units_Z   1
loop_
 _symmetry_equiv_pos_site_id
 _symmetry_equiv_pos_as_xyz
  1  'x, y, z'
loop_
 _atom_site_type_symbol
 _atom_site_label
 _atom_site_symmetry_multiplicity
 _atom_site_fract_x
 _atom_site_fract_y
 _atom_site_fract_z
 _atom_site_occupancy
  Dy  Dy0  1  0.340643  0.002814  0.467285  1
  Er  Er1  1  0.498579  0.840646  0.718984  1
  Er  Er2  1  0.501122  0.159940  0.218698  1
  Er  Er3  1  0.839789  0.497536  0.280792  1
  Er  Er4  1  0.159767  0.501337  0.782697  1
  Er  Er5  1  0.659483  0.998388  0.968485  1
  Er  Er6  1  0.001899  0.339951  0.531768  1
  Er  Er7  1  0.997072  0.661178  0.031007  1
  Ti  Ti8  1  0.330010  0.330696  0.999468  1
  Ti  Ti9  1  0.168791  0.829567  0.249903  1
  Ti  Ti10  1  0.828721  0.171215  0.750419  1
  Ti  Ti11  1  0.669727  0.667055  0.499261  1
  Ti  Ti12  1  0.994509  0.840977  0.626096  1
  Si  Si13  1  0.203009  0.129755  0.683325  1
  Si  Si14  1  0.371015  0.702286  0.933306  1
  Si  Si15  1  0.631145  0.298904  0.433247  1
  Si  Si16  1  0.700060  0.370272  0.066982  1
  Si  Si17  1  0.300003  0.629001  0.566224  1
  Si  Si18  1  0.798027  0.870716  0.183055  1
  Si  Si19  1  0.127310  0.201459  0.316778  1
  Si  Si20  1  0.872033  0.799200  0.816656  1
  Si  Si21  1  0.289830  0.959457  0.062948  1
  Si  Si22  1  0.540553  0.789097  0.312543  1
  Si  Si23  1  0.458890  0.210432  0.812687  1
  Si  Si24  1  0.790388  0.542279  0.687588  1
  Si  Si25  1  0.209550  0.459051  0.186802  1
  Si  Si26  1  0.710791  0.041895  0.563460  1
  Si  Si27  1  0.958628  0.290595  0.937365  1
  Si  Si28  1  0.042728  0.709252  0.437199  1
  Mo  Mo29  1  0.160059  0.008701  0.875235  1
  Mo  Mo30  1  0.492597  0.658600  0.124060  1
  Mo  Mo31  1  0.507484  0.341339  0.623436  1
  Mo  Mo32  1  0.657693  0.492236  0.877814  1
  Mo  Mo33  1  0.342323  0.504112  0.374788  1
  Mo  Mo34  1  0.839847  0.991073  0.373123  1
  Mo  Mo35  1  0.005926  0.158991  0.126513  1
