# generated using pymatgen
data_SmSi4(PdRh2)2
_symmetry_space_group_name_H-M   'P 1'
_cell_length_a   7.10014344
_cell_length_b   7.15327709
_cell_length_c   3.80066200
_cell_angle_alpha   90.00000000
_cell_angle_beta   90.00000000
_cell_angle_gamma   120.24785547
_symmetry_Int_Tables_number   1
_chemical_formula_structural   SmSi4(PdRh2)2
_chemical_formula_sum   'Sm1 Si4 Pd2 Rh4'
_cell_volume   166.75234473
_cell_formula_units_Z   1
loop_
 _symmetry_equiv_pos_site_id
 _symmetry_equiv_pos_as_xyz
  1  'x, y, z'
loop_
 _atom_site_type_symbol
 _atom_site_label
 _atom_site_symmetry_multiplicity
 _atom_site_fract_x
 _atom_site_fract_y
 _atom_site_fract_z
 _atom_site_occupancy
  Sm  Sm0  1  0.995264  0.997632  0.000000  1
  Si  Si1  1  0.342340  0.671169  0.000000  1
  Si  Si2  1  0.407096  0.203549  0.500000  1
  Si  Si3  1  0.793959  0.196826  0.500000  1
  Si  Si4  1  0.793959  0.597133  0.500000  1
  Pd  Pd5  1  0.197841  0.395821  0.500000  1
  Pd  Pd6  1  0.197841  0.802020  0.500000  1
  Rh  Rh7  1  0.533321  0.067190  0.000000  1
  Rh  Rh8  1  0.935540  0.467771  0.000000  1
  Rh  Rh9  1  0.533320  0.466131  0.000000  1
  Rh  Rh10  1  0.602851  0.801426  0.500000  1
