# generated using pymatgen
data_Ho10Si16B
_symmetry_space_group_name_H-M   'P 1'
_cell_length_a   6.52614406
_cell_length_b   8.30710692
_cell_length_c   10.84467396
_cell_angle_alpha   112.51987846
_cell_angle_beta   107.51116223
_cell_angle_gamma   89.99999796
_symmetry_Int_Tables_number   1
_chemical_formula_structural   Ho10Si16B
_chemical_formula_sum   'Ho10 Si16 B1'
_cell_volume   513.47628926
_cell_formula_units_Z   1
loop_
 _symmetry_equiv_pos_site_id
 _symmetry_equiv_pos_as_xyz
  1  'x, y, z'
loop_
 _atom_site_type_symbol
 _atom_site_label
 _atom_site_symmetry_multiplicity
 _atom_site_fract_x
 _atom_site_fract_y
 _atom_site_fract_z
 _atom_site_occupancy
  Ho  Ho0  1  0.236883  0.240962  0.000000  1
  Ho  Ho1  1  0.236883  0.759038  0.000000  1
  Ho  Ho2  1  0.829386  0.351110  0.198789  1
  Ho  Ho3  1  0.829386  0.847678  0.198789  1
  Ho  Ho4  1  0.436198  0.447122  0.397281  1
  Ho  Ho5  1  0.436198  0.950158  0.397281  1
  Ho  Ho6  1  0.038918  0.049842  0.602719  1
  Ho  Ho7  1  0.038918  0.552878  0.602719  1
  Ho  Ho8  1  0.630598  0.152322  0.801211  1
  Ho  Ho9  1  0.630598  0.648890  0.801211  1
  Si  Si10  1  0.883011  0.000000  0.000000  1
  Si  Si11  1  0.619398  0.500000  0.000000  1
  Si  Si12  1  0.114839  0.578001  0.156001  1
  Si  Si13  1  0.497052  0.600184  0.200368  1
  Si  Si14  1  0.502408  0.095090  0.190181  1
  Si  Si15  1  0.158040  0.114847  0.229694  1
  Si  Si16  1  0.824649  0.198491  0.396981  1
  Si  Si17  1  0.102642  0.699302  0.398605  1
  Si  Si18  1  0.754977  0.718116  0.436232  1
  Si  Si19  1  0.318745  0.281884  0.563768  1
  Si  Si20  1  0.704039  0.300698  0.601395  1
  Si  Si21  1  0.427666  0.801509  0.603018  1
  Si  Si22  1  0.928345  0.885153  0.770306  1
  Si  Si23  1  0.312227  0.904910  0.809819  1
  Si  Si24  1  0.296686  0.399816  0.799632  1
  Si  Si25  1  0.958836  0.421999  0.843999  1
  B  B26  1  0.563550  0.000000  0.000000  1
