# generated using pymatgen
data_TiNb3(VP)4
_symmetry_space_group_name_H-M   'P 1'
_cell_length_a   3.41625000
_cell_length_b   6.39616420
_cell_length_c   7.70165342
_cell_angle_alpha   90.25762777
_cell_angle_beta   90.00000000
_cell_angle_gamma   90.00000000
_symmetry_Int_Tables_number   1
_chemical_formula_structural   TiNb3(VP)4
_chemical_formula_sum   'Ti1 Nb3 V4 P4'
_cell_volume   168.28632632
_cell_formula_units_Z   1
loop_
 _symmetry_equiv_pos_site_id
 _symmetry_equiv_pos_as_xyz
  1  'x, y, z'
loop_
 _atom_site_type_symbol
 _atom_site_label
 _atom_site_symmetry_multiplicity
 _atom_site_fract_x
 _atom_site_fract_y
 _atom_site_fract_z
 _atom_site_occupancy
  Ti  Ti0  1  0.250000  0.037991  0.831066  1
  Nb  Nb1  1  0.250000  0.535845  0.669031  1
  Nb  Nb2  1  0.750000  0.962110  0.167582  1
  Nb  Nb3  1  0.750000  0.460818  0.330935  1
  V  V4  1  0.250000  0.136396  0.443155  1
  V  V5  1  0.250000  0.634326  0.056137  1
  V  V6  1  0.750000  0.865927  0.558050  1
  V  V7  1  0.750000  0.366007  0.941942  1
  P  P8  1  0.250000  0.761054  0.361176  1
  P  P9  1  0.250000  0.258467  0.136627  1
  P  P10  1  0.750000  0.235055  0.644912  1
  P  P11  1  0.750000  0.746006  0.859388  1
