# generated using pymatgen
data_Zr5ZnIn2Sb
_symmetry_space_group_name_H-M   'P 1'
_cell_length_a   8.73559256
_cell_length_b   8.73239509
_cell_length_c   5.91633400
_cell_angle_alpha   90.00000000
_cell_angle_beta   90.00000000
_cell_angle_gamma   119.98789028
_symmetry_Int_Tables_number   1
_chemical_formula_structural   Zr5ZnIn2Sb
_chemical_formula_sum   'Zr10 Zn2 In4 Sb2'
_cell_volume   390.89673564
_cell_formula_units_Z   2
loop_
 _symmetry_equiv_pos_site_id
 _symmetry_equiv_pos_as_xyz
  1  'x, y, z'
loop_
 _atom_site_type_symbol
 _atom_site_label
 _atom_site_symmetry_multiplicity
 _atom_site_fract_x
 _atom_site_fract_y
 _atom_site_fract_z
 _atom_site_occupancy
  Zr  Zr0  1  0.663983  0.331795  0.001720  1
  Zr  Zr1  1  0.336017  0.667813  0.001720  1
  Zr  Zr2  1  0.336017  0.667813  0.498280  1
  Zr  Zr3  1  0.663983  0.331795  0.498280  1
  Zr  Zr4  1  0.727442  0.735920  0.750000  1
  Zr  Zr5  1  0.272558  0.008479  0.750000  1
  Zr  Zr6  1  0.000000  0.263349  0.750000  1
  Zr  Zr7  1  0.270907  0.271067  0.250000  1
  Zr  Zr8  1  0.729093  0.000161  0.250000  1
  Zr  Zr9  1  0.000000  0.723003  0.250000  1
  Zn  Zn10  1  0.000000  0.993986  0.008812  1
  Zn  Zn11  1  0.000000  0.993986  0.491188  1
  In  In12  1  0.000000  0.618968  0.750000  1
  In  In13  1  0.621476  0.620707  0.250000  1
  In  In14  1  0.378524  0.999231  0.250000  1
  In  In15  1  0.000000  0.381638  0.250000  1
  Sb  Sb16  1  0.384678  0.387484  0.750000  1
  Sb  Sb17  1  0.615322  0.002806  0.750000  1
