# generated using pymatgen
data_La2Pr(NdSi2)2
_symmetry_space_group_name_H-M   'P 1'
_cell_length_a   7.94002202
_cell_length_b   7.94011586
_cell_length_c   15.38116963
_cell_angle_alpha   89.94726306
_cell_angle_beta   90.00065047
_cell_angle_gamma   90.00723061
_symmetry_Int_Tables_number   1
_chemical_formula_structural   La2Pr(NdSi2)2
_chemical_formula_sum   'La8 Pr4 Nd8 Si16'
_cell_volume   969.70072502
_cell_formula_units_Z   4
loop_
 _symmetry_equiv_pos_site_id
 _symmetry_equiv_pos_as_xyz
  1  'x, y, z'
loop_
 _atom_site_type_symbol
 _atom_site_label
 _atom_site_symmetry_multiplicity
 _atom_site_fract_x
 _atom_site_fract_y
 _atom_site_fract_z
 _atom_site_occupancy
  La  La0  1  0.987151  0.621665  0.052521  1
  La  La1  1  0.012893  0.378316  0.552641  1
  La  La2  1  0.621647  0.987130  0.947373  1
  La  La3  1  0.121724  0.512954  0.802643  1
  La  La4  1  0.878343  0.487197  0.302516  1
  La  La5  1  0.512823  0.121619  0.197379  1
  La  La6  1  0.487199  0.878352  0.697494  1
  La  La7  1  0.378392  0.012765  0.447509  1
  Pr  Pr8  1  0.373658  0.480670  0.373344  1
  Pr  Pr9  1  0.873466  0.019401  0.376734  1
  Pr  Pr10  1  0.980794  0.126403  0.123144  1
  Pr  Pr11  1  0.019231  0.873630  0.623428  1
  Nd  Nd12  1  0.626501  0.518843  0.873354  1
  Nd  Nd13  1  0.480971  0.373341  0.626796  1
  Nd  Nd14  1  0.519048  0.626637  0.126513  1
  Nd  Nd15  1  0.126653  0.981071  0.876692  1
  Nd  Nd16  1  0.691672  0.691626  0.500064  1
  Nd  Nd17  1  0.808200  0.191852  0.750053  1
  Nd  Nd18  1  0.191966  0.808125  0.249940  1
  Nd  Nd19  1  0.308470  0.308413  0.999915  1
  Si  Si20  1  0.079851  0.713018  0.439647  1
  Si  Si21  1  0.920104  0.286744  0.939275  1
  Si  Si22  1  0.712732  0.080251  0.560618  1
  Si  Si23  1  0.213746  0.420610  0.189394  1
  Si  Si24  1  0.785940  0.579274  0.689830  1
  Si  Si25  1  0.420329  0.213780  0.810417  1
  Si  Si26  1  0.579647  0.786478  0.310075  1
  Si  Si27  1  0.286957  0.919838  0.060179  1
  Si  Si28  1  0.830269  0.805712  0.796342  1
  Si  Si29  1  0.169883  0.194163  0.295758  1
  Si  Si30  1  0.805217  0.829630  0.203895  1
  Si  Si31  1  0.306261  0.669140  0.546079  1
  Si  Si32  1  0.693555  0.331206  0.045716  1
  Si  Si33  1  0.669434  0.305977  0.454526  1
  Si  Si34  1  0.330720  0.694146  0.953939  1
  Si  Si35  1  0.194556  0.170024  0.704258  1
