# generated using pymatgen
data_TbLu3Fe3Ru5
_symmetry_space_group_name_H-M   'P 1'
_cell_length_a   5.17846635
_cell_length_b   5.35531121
_cell_length_c   9.04786182
_cell_angle_alpha   72.78587740
_cell_angle_beta   92.01810422
_cell_angle_gamma   121.13623382
_symmetry_Int_Tables_number   1
_chemical_formula_structural   TbLu3Fe3Ru5
_chemical_formula_sum   'Tb1 Lu3 Fe3 Ru5'
_cell_volume   203.00936722
_cell_formula_units_Z   1
loop_
 _symmetry_equiv_pos_site_id
 _symmetry_equiv_pos_as_xyz
  1  'x, y, z'
loop_
 _atom_site_type_symbol
 _atom_site_label
 _atom_site_symmetry_multiplicity
 _atom_site_fract_x
 _atom_site_fract_y
 _atom_site_fract_z
 _atom_site_occupancy
  Tb  Tb0  1  0.873431  0.749061  0.375307  1
  Lu  Lu1  1  0.374466  0.750158  0.874150  1
  Lu  Lu2  1  0.000884  0.000568  0.999750  1
  Lu  Lu3  1  0.502219  0.000703  0.500816  1
  Fe  Fe4  1  0.687602  0.375149  0.937304  1
  Fe  Fe5  1  0.939048  0.377133  0.184782  1
  Fe  Fe6  1  0.435391  0.372645  0.690100  1
  Ru  Ru7  1  0.442466  0.378587  0.180689  1
  Ru  Ru8  1  0.932515  0.371162  0.694187  1
  Ru  Ru9  1  0.442466  0.883191  0.180689  1
  Ru  Ru10  1  0.932515  0.867167  0.694187  1
  Ru  Ru11  1  0.186992  0.374476  0.438040  1
