# generated using pymatgen
data_Lu3CdIn3NiIr
_symmetry_space_group_name_H-M   'P 1'
_cell_length_a   7.82064300
_cell_length_b   7.82064454
_cell_length_c   3.61827900
_cell_angle_alpha   90.00000000
_cell_angle_beta   90.00000000
_cell_angle_gamma   119.99999772
_symmetry_Int_Tables_number   1
_chemical_formula_structural   Lu3CdIn3NiIr
_chemical_formula_sum   'Lu3 Cd1 In3 Ni1 Ir1'
_cell_volume   191.65391786
_cell_formula_units_Z   1
loop_
 _symmetry_equiv_pos_site_id
 _symmetry_equiv_pos_as_xyz
  1  'x, y, z'
loop_
 _atom_site_type_symbol
 _atom_site_label
 _atom_site_symmetry_multiplicity
 _atom_site_fract_x
 _atom_site_fract_y
 _atom_site_fract_z
 _atom_site_occupancy
  Lu  Lu0  1  0.581766  0.966253  0.000000  1
  Lu  Lu1  1  0.033747  0.615512  0.000000  1
  Lu  Lu2  1  0.384488  0.418234  0.000000  1
  Cd  Cd3  1  0.666667  0.333333  0.500000  1
  In  In4  1  0.252599  0.002470  0.500000  1
  In  In5  1  0.997530  0.250130  0.500000  1
  In  In6  1  0.749870  0.747401  0.500000  1
  Ni  Ni7  1  0.000000  0.000000  0.000000  1
  Ir  Ir8  1  0.333333  0.666667  0.500000  1
