# generated using pymatgen
data_K3LiMgCoH9
_symmetry_space_group_name_H-M   'P 1'
_cell_length_a   7.61902937
_cell_length_b   7.61903012
_cell_length_c   7.61903000
_cell_angle_alpha   46.18763842
_cell_angle_beta   46.18763302
_cell_angle_gamma   46.18765640
_symmetry_Int_Tables_number   1
_chemical_formula_structural   K3LiMgCoH9
_chemical_formula_sum   'K3 Li1 Mg1 Co1 H9'
_cell_volume   210.15306685
_cell_formula_units_Z   1
loop_
 _symmetry_equiv_pos_site_id
 _symmetry_equiv_pos_as_xyz
  1  'x, y, z'
loop_
 _atom_site_type_symbol
 _atom_site_label
 _atom_site_symmetry_multiplicity
 _atom_site_fract_x
 _atom_site_fract_y
 _atom_site_fract_z
 _atom_site_occupancy
  K  K0  1  0.995415  0.995415  0.995415  1
  K  K1  1  0.783849  0.783849  0.783849  1
  K  K2  1  0.214705  0.214705  0.214705  1
  Li  Li3  1  0.620577  0.620577  0.620577  1
  Mg  Mg4  1  0.378725  0.378725  0.378725  1
  Co  Co5  1  0.500037  0.500037  0.500037  1
  H  H6  1  0.006364  0.498248  0.498248  1
  H  H7  1  0.498248  0.006364  0.498248  1
  H  H8  1  0.498248  0.498248  0.006364  1
  H  H9  1  0.711725  0.330507  0.330507  1
  H  H10  1  0.330507  0.711725  0.330507  1
  H  H11  1  0.330507  0.330507  0.711725  1
  H  H12  1  0.666673  0.666673  0.297743  1
  H  H13  1  0.666673  0.297743  0.666673  1
  H  H14  1  0.297743  0.666673  0.666673  1
