# generated using pymatgen
data_CePrTh(SnIr)3
_symmetry_space_group_name_H-M   'P 1'
_cell_length_a   7.53760582
_cell_length_b   7.57867281
_cell_length_c   4.10814300
_cell_angle_alpha   90.00000000
_cell_angle_beta   90.00000000
_cell_angle_gamma   119.65065783
_symmetry_Int_Tables_number   1
_chemical_formula_structural   CePrTh(SnIr)3
_chemical_formula_sum   'Ce1 Pr1 Th1 Sn3 Ir3'
_cell_volume   203.94864825
_cell_formula_units_Z   1
loop_
 _symmetry_equiv_pos_site_id
 _symmetry_equiv_pos_as_xyz
  1  'x, y, z'
loop_
 _atom_site_type_symbol
 _atom_site_label
 _atom_site_symmetry_multiplicity
 _atom_site_fract_x
 _atom_site_fract_y
 _atom_site_fract_z
 _atom_site_occupancy
  Ce  Ce0  1  0.999565  0.586911  0.000000  1
  Pr  Pr1  1  0.589670  0.000081  0.000000  1
  Th  Th2  1  0.413021  0.413494  0.000000  1
  Sn  Sn3  1  0.993637  0.247837  0.500000  1
  Sn  Sn4  1  0.751935  0.754962  0.500000  1
  Sn  Sn5  1  0.255052  0.996744  0.500000  1
  Ir  Ir6  1  0.009989  0.001461  0.000000  1
  Ir  Ir7  1  0.668544  0.349585  0.500000  1
  Ir  Ir8  1  0.318587  0.648925  0.500000  1
