# generated using pymatgen
data_UCo21B6Mo
_symmetry_space_group_name_H-M   'P 1'
_cell_length_a   7.44860999
_cell_length_b   7.44989087
_cell_length_c   7.44857803
_cell_angle_alpha   59.99846241
_cell_angle_beta   59.99489312
_cell_angle_gamma   59.99037006
_symmetry_Int_Tables_number   1
_chemical_formula_structural   UCo21B6Mo
_chemical_formula_sum   'U1 Co21 B6 Mo1'
_cell_volume   292.23356422
_cell_formula_units_Z   1
loop_
 _symmetry_equiv_pos_site_id
 _symmetry_equiv_pos_as_xyz
  1  'x, y, z'
loop_
 _atom_site_type_symbol
 _atom_site_label
 _atom_site_symmetry_multiplicity
 _atom_site_fract_x
 _atom_site_fract_y
 _atom_site_fract_z
 _atom_site_occupancy
  U  U0  1  0.250071  0.249993  0.249792  1
  Co  Co1  1  0.999910  0.000066  0.000009  1
  Co  Co2  1  0.845498  0.384877  0.384801  1
  Co  Co3  1  0.384897  0.845526  0.384785  1
  Co  Co4  1  0.384833  0.384800  0.845549  1
  Co  Co5  1  0.384846  0.384795  0.384806  1
  Co  Co6  1  0.141995  0.619268  0.619421  1
  Co  Co7  1  0.619301  0.141995  0.619390  1
  Co  Co8  1  0.619415  0.619352  0.141939  1
  Co  Co9  1  0.619337  0.619300  0.619318  1
  Co  Co10  1  0.664420  0.998114  0.998144  1
  Co  Co11  1  0.664414  0.998121  0.339306  1
  Co  Co12  1  0.664481  0.339293  0.998110  1
  Co  Co13  1  0.998049  0.664424  0.339385  1
  Co  Co14  1  0.998058  0.664409  0.998119  1
  Co  Co15  1  0.339385  0.664413  0.998088  1
  Co  Co16  1  0.998053  0.339383  0.664510  1
  Co  Co17  1  0.339395  0.998104  0.664431  1
  Co  Co18  1  0.998049  0.998080  0.664516  1
  Co  Co19  1  0.339359  0.998163  0.998100  1
  Co  Co20  1  0.998103  0.339367  0.998093  1
  Co  Co21  1  0.998090  0.998142  0.339310  1
  B  B22  1  0.725724  0.274353  0.274209  1
  B  B23  1  0.725600  0.274361  0.725762  1
  B  B24  1  0.725706  0.725749  0.274243  1
  B  B25  1  0.274365  0.725592  0.725712  1
  B  B26  1  0.274389  0.725702  0.274276  1
  B  B27  1  0.274249  0.274282  0.725829  1
  Mo  Mo28  1  0.750010  0.749971  0.750046  1
