# generated using pymatgen
data_HoEr2TcB7
_symmetry_space_group_name_H-M   'P 1'
_cell_length_a   8.02055351
_cell_length_b   8.02055329
_cell_length_c   9.31073900
_cell_angle_alpha   90.00000000
_cell_angle_beta   90.00000000
_cell_angle_gamma   154.65035468
_symmetry_Int_Tables_number   1
_chemical_formula_structural   HoEr2TcB7
_chemical_formula_sum   'Ho2 Er4 Tc2 B14'
_cell_volume   256.43642243
_cell_formula_units_Z   2
loop_
 _symmetry_equiv_pos_site_id
 _symmetry_equiv_pos_as_xyz
  1  'x, y, z'
loop_
 _atom_site_type_symbol
 _atom_site_label
 _atom_site_symmetry_multiplicity
 _atom_site_fract_x
 _atom_site_fract_y
 _atom_site_fract_z
 _atom_site_occupancy
  Ho  Ho0  1  0.242299  0.757701  0.250000  1
  Ho  Ho1  1  0.757701  0.242299  0.750000  1
  Er  Er2  1  0.895211  0.104789  0.440626  1
  Er  Er3  1  0.104789  0.895211  0.559374  1
  Er  Er4  1  0.895211  0.104789  0.059374  1
  Er  Er5  1  0.104789  0.895211  0.940626  1
  Tc  Tc6  1  0.052501  0.947499  0.250000  1
  Tc  Tc7  1  0.947499  0.052501  0.750000  1
  B  B8  1  0.727226  0.272774  0.466789  1
  B  B9  1  0.272774  0.727226  0.533211  1
  B  B10  1  0.727226  0.272774  0.033211  1
  B  B11  1  0.272774  0.727226  0.966789  1
  B  B12  1  0.631903  0.368097  0.150861  1
  B  B13  1  0.368097  0.631903  0.849139  1
  B  B14  1  0.631903  0.368097  0.349139  1
  B  B15  1  0.368097  0.631903  0.650861  1
  B  B16  1  0.520338  0.479662  0.095317  1
  B  B17  1  0.479662  0.520338  0.904683  1
  B  B18  1  0.520338  0.479662  0.404683  1
  B  B19  1  0.479662  0.520338  0.595317  1
  B  B20  1  0.455861  0.544139  0.250000  1
  B  B21  1  0.544139  0.455861  0.750000  1
