# generated using pymatgen
data_Ac9Yb4Tm7Pt16
_symmetry_space_group_name_H-M   'P 1'
_cell_length_a   7.65533519
_cell_length_b   7.87025984
_cell_length_c   14.99847000
_cell_angle_alpha   90.24075152
_cell_angle_beta   90.09796368
_cell_angle_gamma   90.03334585
_symmetry_Int_Tables_number   1
_chemical_formula_structural   Ac9Yb4Tm7Pt16
_chemical_formula_sum   'Ac9 Yb4 Tm7 Pt16'
_cell_volume   903.64052031
_cell_formula_units_Z   1
loop_
 _symmetry_equiv_pos_site_id
 _symmetry_equiv_pos_as_xyz
  1  'x, y, z'
loop_
 _atom_site_type_symbol
 _atom_site_label
 _atom_site_symmetry_multiplicity
 _atom_site_fract_x
 _atom_site_fract_y
 _atom_site_fract_z
 _atom_site_occupancy
  Ac  Ac0  1  0.154567  0.331526  0.621406  1
  Ac  Ac1  1  0.499555  0.681255  0.597492  1
  Ac  Ac2  1  0.997517  0.824818  0.904672  1
  Ac  Ac3  1  0.502491  0.323945  0.097859  1
  Ac  Ac4  1  0.999741  0.173971  0.397342  1
  Ac  Ac5  1  0.502760  0.324939  0.400013  1
  Ac  Ac6  1  0.001830  0.175284  0.097763  1
  Ac  Ac7  1  0.497206  0.676678  0.905093  1
  Ac  Ac8  1  0.996339  0.823320  0.596518  1
  Yb  Yb9  1  0.818341  0.501339  0.753744  1
  Yb  Yb10  1  0.322128  0.996875  0.753454  1
  Yb  Yb11  1  0.179209  0.501979  0.248484  1
  Yb  Yb12  1  0.679306  0.998997  0.248619  1
  Tm  Tm13  1  0.653565  0.166221  0.627273  1
  Tm  Tm14  1  0.154871  0.331977  0.877621  1
  Tm  Tm15  1  0.345910  0.832590  0.125260  1
  Tm  Tm16  1  0.845992  0.669755  0.372928  1
  Tm  Tm17  1  0.348882  0.833488  0.371041  1
  Tm  Tm18  1  0.845797  0.667988  0.125206  1
  Tm  Tm19  1  0.654233  0.166973  0.877210  1
  Pt  Pt20  1  0.682218  0.954194  0.459899  1
  Pt  Pt21  1  0.178986  0.546523  0.040245  1
  Pt  Pt22  1  0.320668  0.046626  0.962147  1
  Pt  Pt23  1  0.803407  0.455597  0.535769  1
  Pt  Pt24  1  0.331956  0.031991  0.535097  1
  Pt  Pt25  1  0.822469  0.453387  0.962093  1
  Pt  Pt26  1  0.678575  0.953760  0.040112  1
  Pt  Pt27  1  0.180381  0.554550  0.452604  1
  Pt  Pt28  1  0.459052  0.367748  0.756074  1
  Pt  Pt29  1  0.948276  0.126758  0.755590  1
  Pt  Pt30  1  0.548313  0.633931  0.248161  1
  Pt  Pt31  1  0.046225  0.867142  0.248730  1
  Pt  Pt32  1  0.689537  0.869978  0.751672  1
  Pt  Pt33  1  0.193707  0.633410  0.755065  1
  Pt  Pt34  1  0.308220  0.127200  0.248665  1
  Pt  Pt35  1  0.807776  0.373286  0.249077  1
