# generated using pymatgen
data_Dy2PaTcOs2
_symmetry_space_group_name_H-M   'P 1'
_cell_length_a   5.75779753
_cell_length_b   5.75779738
_cell_length_c   8.39061700
_cell_angle_alpha   90.00000000
_cell_angle_beta   90.00000000
_cell_angle_gamma   119.42877801
_symmetry_Int_Tables_number   1
_chemical_formula_structural   Dy2PaTcOs2
_chemical_formula_sum   'Dy4 Pa2 Tc2 Os4'
_cell_volume   242.27490532
_cell_formula_units_Z   2
loop_
 _symmetry_equiv_pos_site_id
 _symmetry_equiv_pos_as_xyz
  1  'x, y, z'
loop_
 _atom_site_type_symbol
 _atom_site_label
 _atom_site_symmetry_multiplicity
 _atom_site_fract_x
 _atom_site_fract_y
 _atom_site_fract_z
 _atom_site_occupancy
  Dy  Dy0  1  0.332703  0.667297  0.434943  1
  Dy  Dy1  1  0.665089  0.334911  0.558117  1
  Dy  Dy2  1  0.665089  0.334911  0.941883  1
  Dy  Dy3  1  0.332703  0.667297  0.065057  1
  Pa  Pa4  1  0.997587  0.002413  0.502904  1
  Pa  Pa5  1  0.997587  0.002413  0.997096  1
  Tc  Tc6  1  0.159840  0.324139  0.750000  1
  Tc  Tc7  1  0.675861  0.840160  0.750000  1
  Os  Os8  1  0.824238  0.175762  0.250000  1
  Os  Os9  1  0.836311  0.667424  0.250000  1
  Os  Os10  1  0.332576  0.163689  0.250000  1
  Os  Os11  1  0.180415  0.819585  0.750000  1
