# generated using pymatgen
data_Tb2DyAl3Ge2Os
_symmetry_space_group_name_H-M   'P 1'
_cell_length_a   6.99549634
_cell_length_b   6.99549553
_cell_length_c   4.27144600
_cell_angle_alpha   90.00000000
_cell_angle_beta   90.00000000
_cell_angle_gamma   119.96401210
_symmetry_Int_Tables_number   1
_chemical_formula_structural   Tb2DyAl3Ge2Os
_chemical_formula_sum   'Tb2 Dy1 Al3 Ge2 Os1'
_cell_volume   181.09228419
_cell_formula_units_Z   1
loop_
 _symmetry_equiv_pos_site_id
 _symmetry_equiv_pos_as_xyz
  1  'x, y, z'
loop_
 _atom_site_type_symbol
 _atom_site_label
 _atom_site_symmetry_multiplicity
 _atom_site_fract_x
 _atom_site_fract_y
 _atom_site_fract_z
 _atom_site_occupancy
  Tb  Tb0  1  0.416990  0.000073  0.000000  1
  Tb  Tb1  1  0.000073  0.416991  0.000000  1
  Dy  Dy2  1  0.583481  0.583481  0.000000  1
  Al  Al3  1  0.774872  0.999698  0.500001  1
  Al  Al4  1  0.225238  0.225238  0.500001  1
  Al  Al5  1  0.999698  0.774873  0.500001  1
  Ge  Ge6  1  0.666388  0.333725  0.500001  1
  Ge  Ge7  1  0.333725  0.666387  0.500001  1
  Os  Os8  1  0.999536  0.999536  0.000000  1
