# generated using pymatgen
data_Li4Pr4Si5Ge3
_symmetry_space_group_name_H-M   'P 1'
_cell_length_a   3.94155300
_cell_length_b   7.78663343
_cell_length_c   10.64028362
_cell_angle_alpha   89.96129254
_cell_angle_beta   90.00000000
_cell_angle_gamma   90.00000000
_symmetry_Int_Tables_number   1
_chemical_formula_structural   Li4Pr4Si5Ge3
_chemical_formula_sum   'Li4 Pr4 Si5 Ge3'
_cell_volume   326.56542809
_cell_formula_units_Z   1
loop_
 _symmetry_equiv_pos_site_id
 _symmetry_equiv_pos_as_xyz
  1  'x, y, z'
loop_
 _atom_site_type_symbol
 _atom_site_label
 _atom_site_symmetry_multiplicity
 _atom_site_fract_x
 _atom_site_fract_y
 _atom_site_fract_z
 _atom_site_occupancy
  Li  Li0  1  0.750000  0.508818  0.113625  1
  Li  Li1  1  0.750000  0.006654  0.389010  1
  Li  Li2  1  0.250000  0.992563  0.606254  1
  Li  Li3  1  0.250000  0.495192  0.891151  1
  Pr  Pr4  1  0.250000  0.137283  0.137846  1
  Pr  Pr5  1  0.250000  0.639483  0.364007  1
  Pr  Pr6  1  0.750000  0.359160  0.631050  1
  Pr  Pr7  1  0.750000  0.858112  0.867495  1
  Si  Si8  1  0.250000  0.726472  0.073536  1
  Si  Si9  1  0.750000  0.836748  0.176932  1
  Si  Si10  1  0.750000  0.336890  0.323710  1
  Si  Si11  1  0.250000  0.226543  0.426450  1
  Si  Si12  1  0.750000  0.776777  0.569420  1
  Ge  Ge13  1  0.250000  0.659818  0.679747  1
  Ge  Ge14  1  0.250000  0.157365  0.816523  1
  Ge  Ge15  1  0.750000  0.282122  0.933245  1
