# generated using pymatgen
data_TmLu8ZrIr6
_symmetry_space_group_name_H-M   'P 1'
_cell_length_a   10.67465901
_cell_length_b   10.68073900
_cell_length_c   6.22961900
_cell_angle_alpha   90.00000000
_cell_angle_beta   90.00403238
_cell_angle_gamma   90.00000000
_symmetry_Int_Tables_number   1
_chemical_formula_structural   TmLu8ZrIr6
_chemical_formula_sum   'Tm2 Lu16 Zr2 Ir12'
_cell_volume   710.25908697
_cell_formula_units_Z   2
loop_
 _symmetry_equiv_pos_site_id
 _symmetry_equiv_pos_as_xyz
  1  'x, y, z'
loop_
 _atom_site_type_symbol
 _atom_site_label
 _atom_site_symmetry_multiplicity
 _atom_site_fract_x
 _atom_site_fract_y
 _atom_site_fract_z
 _atom_site_occupancy
  Tm  Tm0  1  0.086375  0.710255  0.625543  1
  Tm  Tm1  1  0.086375  0.289745  0.125543  1
  Lu  Lu2  1  0.290119  0.086130  0.374887  1
  Lu  Lu3  1  0.290119  0.913870  0.874887  1
  Lu  Lu4  1  0.709989  0.086262  0.874703  1
  Lu  Lu5  1  0.709989  0.913738  0.374703  1
  Lu  Lu6  1  0.587494  0.792705  0.875118  1
  Lu  Lu7  1  0.587494  0.207295  0.375118  1
  Lu  Lu8  1  0.412519  0.792701  0.375081  1
  Lu  Lu9  1  0.412519  0.207299  0.875081  1
  Lu  Lu10  1  0.207409  0.412414  0.624901  1
  Lu  Lu11  1  0.207409  0.587586  0.124901  1
  Lu  Lu12  1  0.792532  0.412541  0.124849  1
  Lu  Lu13  1  0.792532  0.587459  0.624849  1
  Lu  Lu14  1  0.913627  0.710005  0.125339  1
  Lu  Lu15  1  0.913627  0.289995  0.625339  1
  Lu  Lu16  1  0.499995  0.500019  0.999942  1
  Lu  Lu17  1  0.499995  0.499981  0.499942  1
  Zr  Zr18  1  0.999853  0.000206  0.499879  1
  Zr  Zr19  1  0.999853  0.999794  0.999879  1
  Ir  Ir20  1  0.852944  0.146748  0.250134  1
  Ir  Ir21  1  0.852944  0.853252  0.750134  1
  Ir  Ir22  1  0.146992  0.146628  0.749465  1
  Ir  Ir23  1  0.146992  0.853372  0.249465  1
  Ir  Ir24  1  0.654537  0.345496  0.750017  1
  Ir  Ir25  1  0.654537  0.654504  0.250017  1
  Ir  Ir26  1  0.345825  0.345580  0.250174  1
  Ir  Ir27  1  0.345825  0.654420  0.750174  1
  Ir  Ir28  1  0.500031  0.000014  0.122526  1
  Ir  Ir29  1  0.500031  0.999986  0.622526  1
  Ir  Ir30  1  0.999758  0.500019  0.877441  1
  Ir  Ir31  1  0.999758  0.499981  0.377441  1
