# generated using pymatgen
data_Tb8Y2(GaSb)3
_symmetry_space_group_name_H-M   'P 1'
_cell_length_a   8.82293620
_cell_length_b   8.81602590
_cell_length_c   6.50600400
_cell_angle_alpha   90.00000000
_cell_angle_beta   90.00000000
_cell_angle_gamma   120.05004899
_symmetry_Int_Tables_number   1
_chemical_formula_structural   Tb8Y2(GaSb)3
_chemical_formula_sum   'Tb8 Y2 Ga3 Sb3'
_cell_volume   438.03791826
_cell_formula_units_Z   1
loop_
 _symmetry_equiv_pos_site_id
 _symmetry_equiv_pos_as_xyz
  1  'x, y, z'
loop_
 _atom_site_type_symbol
 _atom_site_label
 _atom_site_symmetry_multiplicity
 _atom_site_fract_x
 _atom_site_fract_y
 _atom_site_fract_z
 _atom_site_occupancy
  Tb  Tb0  1  0.327312  0.666670  0.002570  1
  Tb  Tb1  1  0.660665  0.333377  0.497421  1
  Tb  Tb2  1  0.660665  0.333377  0.002579  1
  Tb  Tb3  1  0.327312  0.666670  0.497430  1
  Tb  Tb4  1  0.235490  0.000055  0.250000  1
  Tb  Tb5  1  0.242933  0.232117  0.750000  1
  Tb  Tb6  1  0.012174  0.248913  0.250000  1
  Tb  Tb7  1  0.763281  0.751124  0.250000  1
  Y  Y8  1  0.010603  0.767682  0.750000  1
  Y  Y9  1  0.754135  0.000020  0.750000  1
  Ga  Ga10  1  0.998808  0.602731  0.250000  1
  Ga  Ga11  1  0.395970  0.397146  0.250000  1
  Ga  Ga12  1  0.398282  0.999890  0.750000  1
  Sb  Sb13  1  0.609315  0.999989  0.250000  1
  Sb  Sb14  1  0.605492  0.607836  0.750000  1
  Sb  Sb15  1  0.997565  0.392403  0.750000  1
