# generated using pymatgen
data_La8Yb12Si15Cl
_symmetry_space_group_name_H-M   'P 1'
_cell_length_a   8.00656506
_cell_length_b   7.94317067
_cell_length_c   14.61405300
_cell_angle_alpha   89.94264052
_cell_angle_beta   89.07914204
_cell_angle_gamma   89.91434825
_symmetry_Int_Tables_number   1
_chemical_formula_structural   La8Yb12Si15Cl
_chemical_formula_sum   'La8 Yb12 Si15 Cl1'
_cell_volume   929.29590405
_cell_formula_units_Z   1
loop_
 _symmetry_equiv_pos_site_id
 _symmetry_equiv_pos_as_xyz
  1  'x, y, z'
loop_
 _atom_site_type_symbol
 _atom_site_label
 _atom_site_symmetry_multiplicity
 _atom_site_fract_x
 _atom_site_fract_y
 _atom_site_fract_z
 _atom_site_occupancy
  La  La0  1  0.987350  0.633571  0.040789  1
  La  La1  1  0.019118  0.369979  0.545546  1
  La  La2  1  0.630353  0.991627  0.956699  1
  La  La3  1  0.143995  0.514347  0.789911  1
  La  La4  1  0.844085  0.476315  0.279259  1
  La  La5  1  0.499314  0.127394  0.204605  1
  La  La6  1  0.504036  0.869671  0.711717  1
  La  La7  1  0.385137  0.016509  0.461448  1
  Yb  Yb8  1  0.365082  0.497742  0.383784  1
  Yb  Yb9  1  0.857209  0.007296  0.368200  1
  Yb  Yb10  1  0.992907  0.131414  0.126731  1
  Yb  Yb11  1  0.022179  0.864053  0.622681  1
  Yb  Yb12  1  0.634437  0.504596  0.875738  1
  Yb  Yb13  1  0.509415  0.366508  0.628056  1
  Yb  Yb14  1  0.497904  0.631405  0.123950  1
  Yb  Yb15  1  0.133318  0.995971  0.874574  1
  Yb  Yb16  1  0.674940  0.681972  0.503453  1
  Yb  Yb17  1  0.824492  0.184713  0.750773  1
  Yb  Yb18  1  0.180202  0.813244  0.246317  1
  Yb  Yb19  1  0.309299  0.316146  0.001131  1
  Si  Si20  1  0.920720  0.290772  0.944352  1
  Si  Si21  1  0.728350  0.077565  0.555592  1
  Si  Si22  1  0.202090  0.424005  0.198542  1
  Si  Si23  1  0.809946  0.577377  0.690721  1
  Si  Si24  1  0.421920  0.211814  0.808874  1
  Si  Si25  1  0.569723  0.790296  0.308354  1
  Si  Si26  1  0.287510  0.921322  0.058062  1
  Si  Si27  1  0.847086  0.790472  0.810042  1
  Si  Si28  1  0.156899  0.210984  0.318515  1
  Si  Si29  1  0.781502  0.840170  0.187524  1
  Si  Si30  1  0.318063  0.660408  0.576029  1
  Si  Si31  1  0.708325  0.340334  0.063533  1
  Si  Si32  1  0.664993  0.294921  0.441394  1
  Si  Si33  1  0.340457  0.710099  0.940085  1
  Si  Si34  1  0.216801  0.161743  0.688493  1
  Cl  Cl35  1  0.010850  0.703250  0.414529  1
