# generated using pymatgen
data_Li2Ca3Sm(ZnSi3)2
_symmetry_space_group_name_H-M   'P 1'
_cell_length_a   9.40787133
_cell_length_b   9.40787122
_cell_length_c   6.81185805
_cell_angle_alpha   89.69740127
_cell_angle_beta   90.30259820
_cell_angle_gamma   153.48280821
_symmetry_Int_Tables_number   1
_chemical_formula_structural   Li2Ca3Sm(ZnSi3)2
_chemical_formula_sum   'Li2 Ca3 Sm1 Zn2 Si6'
_cell_volume   269.17246560
_cell_formula_units_Z   1
loop_
 _symmetry_equiv_pos_site_id
 _symmetry_equiv_pos_as_xyz
  1  'x, y, z'
loop_
 _atom_site_type_symbol
 _atom_site_label
 _atom_site_symmetry_multiplicity
 _atom_site_fract_x
 _atom_site_fract_y
 _atom_site_fract_z
 _atom_site_occupancy
  Li  Li0  1  0.812760  0.187240  0.939097  1
  Li  Li1  1  0.187093  0.812907  0.438692  1
  Ca  Ca2  1  0.552963  0.447037  0.255427  1
  Ca  Ca3  1  0.655994  0.344006  0.743498  1
  Ca  Ca4  1  0.343651  0.656349  0.243801  1
  Sm  Sm5  1  0.447036  0.552964  0.754996  1
  Zn  Zn6  1  0.192345  0.807655  0.054008  1
  Zn  Zn7  1  0.808291  0.191709  0.555217  1
  Si  Si8  1  0.279753  0.720247  0.748521  1
  Si  Si9  1  0.722692  0.277308  0.247807  1
  Si  Si10  1  0.939731  0.060269  0.430086  1
  Si  Si11  1  0.055011  0.944989  0.581924  1
  Si  Si12  1  0.943690  0.056310  0.078108  1
  Si  Si13  1  0.058991  0.941009  0.928822  1
