# generated using pymatgen
data_Re6SiAs13
_symmetry_space_group_name_H-M   'P 1'
_cell_length_a   7.64622476
_cell_length_b   7.64622525
_cell_length_c   7.64622516
_cell_angle_alpha   109.39286260
_cell_angle_beta   109.62804330
_cell_angle_gamma   109.39286203
_symmetry_Int_Tables_number   1
_chemical_formula_structural   Re6SiAs13
_chemical_formula_sum   'Re6 Si1 As13'
_cell_volume   344.12556748
_cell_formula_units_Z   1
loop_
 _symmetry_equiv_pos_site_id
 _symmetry_equiv_pos_as_xyz
  1  'x, y, z'
loop_
 _atom_site_type_symbol
 _atom_site_label
 _atom_site_symmetry_multiplicity
 _atom_site_fract_x
 _atom_site_fract_y
 _atom_site_fract_z
 _atom_site_occupancy
  Re  Re0  1  0.339941  0.000000  0.339941  1
  Re  Re1  1  0.999508  0.339978  0.339486  1
  Re  Re2  1  0.999508  0.660022  0.659530  1
  Re  Re3  1  0.340470  0.339978  0.000492  1
  Re  Re4  1  0.660514  0.660022  0.000492  1
  Re  Re5  1  0.660059  0.000000  0.660059  1
  Si  Si6  1  0.750000  0.500000  0.250000  1
  As  As7  1  0.501742  0.748553  0.250295  1
  As  As8  1  0.501742  0.251447  0.753189  1
  As  As9  1  0.749705  0.251447  0.498258  1
  As  As10  1  0.246811  0.748553  0.498258  1
  As  As11  1  0.250000  0.500000  0.750000  1
  As  As12  1  0.998946  0.998435  0.331235  1
  As  As13  1  0.668765  0.001565  0.001054  1
  As  As14  1  0.998946  0.667712  0.000511  1
  As  As15  1  0.332799  0.332288  0.331235  1
  As  As16  1  0.999489  0.332288  0.001054  1
  As  As17  1  0.668765  0.667712  0.667201  1
  As  As18  1  0.332799  0.001565  0.000511  1
  As  As19  1  0.999489  0.998435  0.667201  1
