# generated using pymatgen
data_Ba4Bi2Te
_symmetry_space_group_name_H-M   'P 1'
_cell_length_a   9.27072745
_cell_length_b   9.27450790
_cell_length_c   9.26351469
_cell_angle_alpha   109.37812894
_cell_angle_beta   109.49002662
_cell_angle_gamma   109.53802990
_symmetry_Int_Tables_number   1
_chemical_formula_structural   Ba4Bi2Te
_chemical_formula_sum   'Ba8 Bi4 Te2'
_cell_volume   613.19413253
_cell_formula_units_Z   2
loop_
 _symmetry_equiv_pos_site_id
 _symmetry_equiv_pos_as_xyz
  1  'x, y, z'
loop_
 _atom_site_type_symbol
 _atom_site_label
 _atom_site_symmetry_multiplicity
 _atom_site_fract_x
 _atom_site_fract_y
 _atom_site_fract_z
 _atom_site_occupancy
  Ba  Ba0  1  0.498562  0.999420  0.639421  1
  Ba  Ba1  1  0.144371  0.499176  0.998239  1
  Ba  Ba2  1  0.366008  0.364685  0.362779  1
  Ba  Ba3  1  0.000465  0.141382  0.503870  1
  Ba  Ba4  1  0.855629  0.854805  0.853868  1
  Ba  Ba5  1  0.999535  0.640917  0.503405  1
  Ba  Ba6  1  0.501438  0.000859  0.140860  1
  Ba  Ba7  1  0.633992  0.498677  0.996770  1
  Bi  Bi8  1  0.375133  0.626721  0.749827  1
  Bi  Bi9  1  0.248803  0.123626  0.875385  1
  Bi  Bi10  1  0.751197  0.374822  0.626582  1
  Bi  Bi11  1  0.624867  0.751588  0.374693  1
  Te  Te12  1  0.876537  0.249929  0.125420  1
  Te  Te13  1  0.123463  0.873393  0.248884  1
