# generated using pymatgen
data_Sc12Re(Si4Tc)3
_symmetry_space_group_name_H-M   'P 1'
_cell_length_a   3.85293400
_cell_length_b   10.62890339
_cell_length_c   11.88412990
_cell_angle_alpha   89.94531051
_cell_angle_beta   90.00000000
_cell_angle_gamma   90.00000000
_symmetry_Int_Tables_number   1
_chemical_formula_structural   Sc12Re(Si4Tc)3
_chemical_formula_sum   'Sc12 Re1 Si12 Tc3'
_cell_volume   486.68417135
_cell_formula_units_Z   1
loop_
 _symmetry_equiv_pos_site_id
 _symmetry_equiv_pos_as_xyz
  1  'x, y, z'
loop_
 _atom_site_type_symbol
 _atom_site_label
 _atom_site_symmetry_multiplicity
 _atom_site_fract_x
 _atom_site_fract_y
 _atom_site_fract_z
 _atom_site_occupancy
  Sc  Sc0  1  0.250000  0.876094  0.015788  1
  Sc  Sc1  1  0.250000  0.624121  0.515963  1
  Sc  Sc2  1  0.750000  0.123282  0.983859  1
  Sc  Sc3  1  0.750000  0.376106  0.484220  1
  Sc  Sc4  1  0.250000  0.925089  0.608015  1
  Sc  Sc5  1  0.250000  0.575012  0.107072  1
  Sc  Sc6  1  0.750000  0.075115  0.392808  1
  Sc  Sc7  1  0.750000  0.424943  0.892400  1
  Sc  Sc8  1  0.250000  0.661045  0.797763  1
  Sc  Sc9  1  0.250000  0.838640  0.297948  1
  Sc  Sc10  1  0.750000  0.338833  0.201988  1
  Sc  Sc11  1  0.750000  0.160426  0.701821  1
  Re  Re12  1  0.750000  0.884528  0.822933  1
  Si  Si13  1  0.250000  0.025167  0.823124  1
  Si  Si14  1  0.250000  0.476505  0.322939  1
  Si  Si15  1  0.750000  0.976297  0.177400  1
  Si  Si16  1  0.750000  0.523088  0.676904  1
  Si  Si17  1  0.250000  0.252511  0.845771  1
  Si  Si18  1  0.250000  0.248336  0.346226  1
  Si  Si19  1  0.750000  0.748077  0.154111  1
  Si  Si20  1  0.750000  0.751396  0.653577  1
  Si  Si21  1  0.250000  0.191301  0.542637  1
  Si  Si22  1  0.250000  0.308834  0.042383  1
  Si  Si23  1  0.750000  0.809525  0.457411  1
  Si  Si24  1  0.750000  0.690728  0.957395  1
  Tc  Tc25  1  0.250000  0.385291  0.677318  1
  Tc  Tc26  1  0.250000  0.114862  0.177394  1
  Tc  Tc27  1  0.750000  0.614847  0.322836  1
