# generated using pymatgen
data_La3Al2Co9B4
_symmetry_space_group_name_H-M   'P 1'
_cell_length_a   5.24035200
_cell_length_b   5.24035290
_cell_length_c   9.53869400
_cell_angle_alpha   90.00000000
_cell_angle_beta   90.00000000
_cell_angle_gamma   119.99999430
_symmetry_Int_Tables_number   1
_chemical_formula_structural   La3Al2Co9B4
_chemical_formula_sum   'La3 Al2 Co9 B4'
_cell_volume   226.85093228
_cell_formula_units_Z   1
loop_
 _symmetry_equiv_pos_site_id
 _symmetry_equiv_pos_as_xyz
  1  'x, y, z'
loop_
 _atom_site_type_symbol
 _atom_site_label
 _atom_site_symmetry_multiplicity
 _atom_site_fract_x
 _atom_site_fract_y
 _atom_site_fract_z
 _atom_site_occupancy
  La  La0  1  0.000000  0.000000  0.660835  1
  La  La1  1  0.000000  0.000000  0.339165  1
  La  La2  1  0.000000  0.000000  0.000000  1
  Al  Al3  1  0.333333  0.666667  0.000000  1
  Al  Al4  1  0.666667  0.333333  0.000000  1
  Co  Co5  1  0.500000  0.500000  0.500000  1
  Co  Co6  1  0.000000  0.500000  0.500000  1
  Co  Co7  1  0.500000  0.000000  0.209276  1
  Co  Co8  1  0.500000  0.500000  0.209276  1
  Co  Co9  1  0.000000  0.500000  0.209276  1
  Co  Co10  1  0.500000  0.000000  0.790724  1
  Co  Co11  1  0.500000  0.500000  0.790724  1
  Co  Co12  1  0.000000  0.500000  0.790724  1
  Co  Co13  1  0.500000  0.000000  0.500000  1
  B  B14  1  0.333333  0.666667  0.649666  1
  B  B15  1  0.666667  0.333333  0.649666  1
  B  B16  1  0.666667  0.333333  0.350334  1
  B  B17  1  0.333333  0.666667  0.350334  1
