# generated using pymatgen
data_Dy16MgZn(InRh2)2
_symmetry_space_group_name_H-M   'P 1'
_cell_length_a   9.63988908
_cell_length_b   9.62541451
_cell_length_c   9.59718942
_cell_angle_alpha   59.90266268
_cell_angle_beta   59.94660363
_cell_angle_gamma   60.04965459
_symmetry_Int_Tables_number   1
_chemical_formula_structural   Dy16MgZn(InRh2)2
_chemical_formula_sum   'Dy16 Mg1 Zn1 In2 Rh4'
_cell_volume   629.19763449
_cell_formula_units_Z   1
loop_
 _symmetry_equiv_pos_site_id
 _symmetry_equiv_pos_as_xyz
  1  'x, y, z'
loop_
 _atom_site_type_symbol
 _atom_site_label
 _atom_site_symmetry_multiplicity
 _atom_site_fract_x
 _atom_site_fract_y
 _atom_site_fract_z
 _atom_site_occupancy
  Dy  Dy0  1  0.691698  0.307392  0.310243  1
  Dy  Dy1  1  0.691698  0.690666  0.310243  1
  Dy  Dy2  1  0.312994  0.687639  0.311728  1
  Dy  Dy3  1  0.936653  0.935928  0.556555  1
  Dy  Dy4  1  0.147776  0.152579  0.547066  1
  Dy  Dy5  1  0.566127  0.937786  0.558299  1
  Dy  Dy6  1  0.149874  0.153348  0.151363  1
  Dy  Dy7  1  0.312643  0.309811  0.689494  1
  Dy  Dy8  1  0.936653  0.570864  0.556555  1
  Dy  Dy9  1  0.563952  0.564704  0.934947  1
  Dy  Dy10  1  0.563952  0.936396  0.934947  1
  Dy  Dy11  1  0.935271  0.565477  0.933775  1
  Dy  Dy12  1  0.149874  0.545414  0.151363  1
  Dy  Dy13  1  0.312643  0.688052  0.689494  1
  Dy  Dy14  1  0.692573  0.307875  0.691678  1
  Dy  Dy15  1  0.553004  0.149365  0.148264  1
  Mg  Mg16  1  0.226095  0.921991  0.929923  1
  Zn  Zn17  1  0.917545  0.915407  0.251641  1
  In  In18  1  0.917998  0.244111  0.921867  1
  In  In19  1  0.917998  0.916024  0.921867  1
  Rh  Rh20  1  0.359235  0.356829  0.357340  1
  Rh  Rh21  1  0.925342  0.358689  0.357282  1
  Rh  Rh22  1  0.359167  0.357053  0.926727  1
  Rh  Rh23  1  0.359235  0.926598  0.357340  1
