# generated using pymatgen
data_Lu18Sc2GaBi11
_symmetry_space_group_name_H-M   'P 1'
_cell_length_a   8.02414600
_cell_length_b   9.32789100
_cell_length_c   11.70866327
_cell_angle_alpha   90.00000000
_cell_angle_beta   89.67038333
_cell_angle_gamma   90.00000000
_symmetry_Int_Tables_number   1
_chemical_formula_structural   Lu18Sc2GaBi11
_chemical_formula_sum   'Lu18 Sc2 Ga1 Bi11'
_cell_volume   876.35973244
_cell_formula_units_Z   1
loop_
 _symmetry_equiv_pos_site_id
 _symmetry_equiv_pos_as_xyz
  1  'x, y, z'
loop_
 _atom_site_type_symbol
 _atom_site_label
 _atom_site_symmetry_multiplicity
 _atom_site_fract_x
 _atom_site_fract_y
 _atom_site_fract_z
 _atom_site_occupancy
  Lu  Lu0  1  0.036047  0.250000  0.509448  1
  Lu  Lu1  1  0.525678  0.250000  0.989207  1
  Lu  Lu2  1  0.353818  0.250000  0.294174  1
  Lu  Lu3  1  0.653006  0.750000  0.717188  1
  Lu  Lu4  1  0.147603  0.750000  0.781569  1
  Lu  Lu5  1  0.850844  0.250000  0.215486  1
  Lu  Lu6  1  0.198622  0.250000  0.775804  1
  Lu  Lu7  1  0.810464  0.750000  0.217341  1
  Lu  Lu8  1  0.312961  0.750000  0.283034  1
  Lu  Lu9  1  0.673811  0.250000  0.709582  1
  Lu  Lu10  1  0.192954  0.067389  0.060721  1
  Lu  Lu11  1  0.805332  0.931703  0.942709  1
  Lu  Lu12  1  0.307114  0.946103  0.557290  1
  Lu  Lu13  1  0.805332  0.568297  0.942709  1
  Lu  Lu14  1  0.683859  0.072999  0.445496  1
  Lu  Lu15  1  0.192954  0.432611  0.060721  1
  Lu  Lu16  1  0.683859  0.427001  0.445496  1
  Lu  Lu17  1  0.307114  0.553897  0.557290  1
  Sc  Sc18  1  0.981524  0.750000  0.489248  1
  Sc  Sc19  1  0.477753  0.750000  0.012283  1
  Ga  Ga20  1  0.403708  0.250000  0.541166  1
  Bi  Bi21  1  0.601223  0.750000  0.458130  1
  Bi  Bi22  1  0.101839  0.750000  0.042728  1
  Bi  Bi23  1  0.906745  0.250000  0.951020  1
  Bi  Bi24  1  0.059096  0.999739  0.324768  1
  Bi  Bi25  1  0.935896  0.996098  0.673923  1
  Bi  Bi26  1  0.436899  0.992298  0.826530  1
  Bi  Bi27  1  0.935896  0.503902  0.673923  1
  Bi  Bi28  1  0.561026  0.001910  0.174859  1
  Bi  Bi29  1  0.059096  0.500261  0.324768  1
  Bi  Bi30  1  0.561026  0.498090  0.174859  1
  Bi  Bi31  1  0.436899  0.507702  0.826530  1
