# generated using pymatgen
data_Pa2Ta3Si7Rh9
_symmetry_space_group_name_H-M   'P 1'
_cell_length_a   3.96547700
_cell_length_b   9.62838478
_cell_length_c   9.62874100
_cell_angle_alpha   119.99871241
_cell_angle_beta   90.00004335
_cell_angle_gamma   90.00006164
_symmetry_Int_Tables_number   1
_chemical_formula_structural   Pa2Ta3Si7Rh9
_chemical_formula_sum   'Pa2 Ta3 Si7 Rh9'
_cell_volume   318.38649951
_cell_formula_units_Z   1
loop_
 _symmetry_equiv_pos_site_id
 _symmetry_equiv_pos_as_xyz
  1  'x, y, z'
loop_
 _atom_site_type_symbol
 _atom_site_label
 _atom_site_symmetry_multiplicity
 _atom_site_fract_x
 _atom_site_fract_y
 _atom_site_fract_z
 _atom_site_occupancy
  Pa  Pa0  1  0.261865  0.666676  0.333337  1
  Pa  Pa1  1  0.761969  0.333333  0.666676  1
  Ta  Ta2  1  0.761930  0.108088  0.889588  1
  Ta  Ta3  1  0.761928  0.110404  0.218498  1
  Ta  Ta4  1  0.761930  0.781488  0.891906  1
  Si  Si5  1  0.261957  0.999992  0.999996  1
  Si  Si6  1  0.761863  0.879700  0.590921  1
  Si  Si7  1  0.761860  0.409093  0.288782  1
  Si  Si8  1  0.761858  0.711227  0.120314  1
  Si  Si9  1  0.261936  0.113761  0.416965  1
  Si  Si10  1  0.261942  0.583019  0.696775  1
  Si  Si11  1  0.261937  0.303214  0.886251  1
  Rh  Rh12  1  0.261859  0.880355  0.160008  1
  Rh  Rh13  1  0.261871  0.840011  0.720358  1
  Rh  Rh14  1  0.261862  0.279643  0.119638  1
  Rh  Rh15  1  0.761908  0.611257  0.559061  1
  Rh  Rh16  1  0.761905  0.440922  0.052192  1
  Rh  Rh17  1  0.761899  0.947814  0.388737  1
  Rh  Rh18  1  0.261914  0.367205  0.435489  1
  Rh  Rh19  1  0.261908  0.564506  0.931699  1
  Rh  Rh20  1  0.261901  0.068292  0.632809  1
