# generated using pymatgen
data_CaNdCd2SnBi3
_symmetry_space_group_name_H-M   'P 1'
_cell_length_a   11.49532888
_cell_length_b   11.49532879
_cell_length_c   11.49532688
_cell_angle_alpha   157.01814375
_cell_angle_beta   157.01814499
_cell_angle_gamma   32.72689860
_symmetry_Int_Tables_number   1
_chemical_formula_structural   CaNdCd2SnBi3
_chemical_formula_sum   'Ca1 Nd1 Cd2 Sn1 Bi3'
_cell_volume   231.36661003
_cell_formula_units_Z   1
loop_
 _symmetry_equiv_pos_site_id
 _symmetry_equiv_pos_as_xyz
  1  'x, y, z'
loop_
 _atom_site_type_symbol
 _atom_site_label
 _atom_site_symmetry_multiplicity
 _atom_site_fract_x
 _atom_site_fract_y
 _atom_site_fract_z
 _atom_site_occupancy
  Ca  Ca0  1  0.883281  0.883281  0.000000  1
  Nd  Nd1  1  0.120589  0.120589  0.000000  1
  Cd  Cd2  1  0.746217  0.246217  0.500000  1
  Cd  Cd3  1  0.246217  0.746217  0.500000  1
  Sn  Sn4  1  0.653158  0.653158  0.000000  1
  Bi  Bi5  1  0.003142  0.503142  0.500000  1
  Bi  Bi6  1  0.344254  0.344254  0.000000  1
  Bi  Bi7  1  0.503142  0.003142  0.500000  1
