# generated using pymatgen
data_Dy5Ho7Tc3Ir
_symmetry_space_group_name_H-M   'P 1'
_cell_length_a   6.27527920
_cell_length_b   7.38732503
_cell_length_c   9.11586925
_cell_angle_alpha   89.99193109
_cell_angle_beta   90.02570601
_cell_angle_gamma   90.00950242
_symmetry_Int_Tables_number   1
_chemical_formula_structural   Dy5Ho7Tc3Ir
_chemical_formula_sum   'Dy5 Ho7 Tc3 Ir1'
_cell_volume   422.58910321
_cell_formula_units_Z   1
loop_
 _symmetry_equiv_pos_site_id
 _symmetry_equiv_pos_as_xyz
  1  'x, y, z'
loop_
 _atom_site_type_symbol
 _atom_site_label
 _atom_site_symmetry_multiplicity
 _atom_site_fract_x
 _atom_site_fract_y
 _atom_site_fract_z
 _atom_site_occupancy
  Dy  Dy0  1  0.333246  0.676041  0.064358  1
  Dy  Dy1  1  0.874117  0.540939  0.250124  1
  Dy  Dy2  1  0.625407  0.038868  0.250081  1
  Dy  Dy3  1  0.131044  0.458095  0.749881  1
  Dy  Dy4  1  0.370861  0.960131  0.749902  1
  Ho  Ho5  1  0.162987  0.175858  0.436683  1
  Ho  Ho6  1  0.664819  0.322935  0.561611  1
  Ho  Ho7  1  0.835613  0.825165  0.937876  1
  Ho  Ho8  1  0.665000  0.322791  0.938304  1
  Ho  Ho9  1  0.835640  0.825116  0.562020  1
  Ho  Ho10  1  0.333246  0.676061  0.435818  1
  Ho  Ho11  1  0.162882  0.175840  0.063322  1
  Tc  Tc12  1  0.039741  0.883548  0.250141  1
  Tc  Tc13  1  0.462216  0.385963  0.250097  1
  Tc  Tc14  1  0.960061  0.116530  0.750032  1
  Ir  Ir15  1  0.543119  0.616119  0.749750  1
