# generated using pymatgen
data_TaMn2FeB3W2
_symmetry_space_group_name_H-M   'P 1'
_cell_length_a   5.99690188
_cell_length_b   5.99690195
_cell_length_c   3.12402000
_cell_angle_alpha   90.00000000
_cell_angle_beta   90.00000000
_cell_angle_gamma   120.67603145
_symmetry_Int_Tables_number   1
_chemical_formula_structural   TaMn2FeB3W2
_chemical_formula_sum   'Ta1 Mn2 Fe1 B3 W2'
_cell_volume   96.62719241
_cell_formula_units_Z   1
loop_
 _symmetry_equiv_pos_site_id
 _symmetry_equiv_pos_as_xyz
  1  'x, y, z'
loop_
 _atom_site_type_symbol
 _atom_site_label
 _atom_site_symmetry_multiplicity
 _atom_site_fract_x
 _atom_site_fract_y
 _atom_site_fract_z
 _atom_site_occupancy
  Ta  Ta0  1  0.589575  0.589575  0.500000  1
  Mn  Mn1  1  0.757599  0.000707  0.000000  1
  Mn  Mn2  1  0.000707  0.757599  0.000000  1
  Fe  Fe3  1  0.242356  0.242356  0.000000  1
  B  B4  1  0.328357  0.666798  0.000000  1
  B  B5  1  0.666798  0.328357  0.000000  1
  B  B6  1  0.008164  0.008164  0.500000  1
  W  W7  1  0.409993  0.996450  0.500000  1
  W  W8  1  0.996450  0.409993  0.500000  1
