# generated using pymatgen
data_Ca2UP3
_symmetry_space_group_name_H-M   'P 1'
_cell_length_a   7.04864176
_cell_length_b   7.04864138
_cell_length_c   7.04864145
_cell_angle_alpha   146.13022399
_cell_angle_beta   132.50247449
_cell_angle_gamma   59.60699370
_symmetry_Int_Tables_number   1
_chemical_formula_structural   Ca2UP3
_chemical_formula_sum   'Ca2 U1 P3'
_cell_volume   142.59091594
_cell_formula_units_Z   1
loop_
 _symmetry_equiv_pos_site_id
 _symmetry_equiv_pos_as_xyz
  1  'x, y, z'
loop_
 _atom_site_type_symbol
 _atom_site_label
 _atom_site_symmetry_multiplicity
 _atom_site_fract_x
 _atom_site_fract_y
 _atom_site_fract_z
 _atom_site_occupancy
  Ca  Ca0  1  0.668918  0.668918  0.000000  1
  Ca  Ca1  1  0.331082  0.331082  0.000000  1
  U  U2  1  0.000000  0.000000  0.000000  1
  P  P3  1  0.500000  0.000000  0.500000  1
  P  P4  1  0.147541  0.647541  0.500000  1
  P  P5  1  0.852459  0.352459  0.500000  1
