# generated using pymatgen
data_BiP(PbO3)2
_symmetry_space_group_name_H-M   'P 1'
_cell_length_a   7.66808451
_cell_length_b   7.66808460
_cell_length_c   5.79294500
_cell_angle_alpha   90.00000000
_cell_angle_beta   90.00000000
_cell_angle_gamma   103.83433688
_symmetry_Int_Tables_number   1
_chemical_formula_structural   BiP(PbO3)2
_chemical_formula_sum   'Bi2 P2 Pb4 O12'
_cell_volume   330.74132745
_cell_formula_units_Z   2
loop_
 _symmetry_equiv_pos_site_id
 _symmetry_equiv_pos_as_xyz
  1  'x, y, z'
loop_
 _atom_site_type_symbol
 _atom_site_label
 _atom_site_symmetry_multiplicity
 _atom_site_fract_x
 _atom_site_fract_y
 _atom_site_fract_z
 _atom_site_occupancy
  Bi  Bi0  1  0.908391  0.091609  0.398911  1
  Bi  Bi1  1  0.091609  0.908391  0.898911  1
  P  P2  1  0.301681  0.698319  0.340042  1
  P  P3  1  0.698319  0.301681  0.840042  1
  Pb  Pb4  1  0.409168  0.193871  0.383866  1
  Pb  Pb5  1  0.806129  0.590832  0.383866  1
  Pb  Pb6  1  0.590832  0.806129  0.883866  1
  Pb  Pb7  1  0.193871  0.409168  0.883866  1
  O  O8  1  0.154452  0.136387  0.637012  1
  O  O9  1  0.111446  0.619266  0.227082  1
  O  O10  1  0.136387  0.154452  0.137012  1
  O  O11  1  0.863613  0.845548  0.637012  1
  O  O12  1  0.845548  0.863613  0.137012  1
  O  O13  1  0.573552  0.426448  0.772660  1
  O  O14  1  0.281629  0.718371  0.603878  1
  O  O15  1  0.888554  0.380734  0.727082  1
  O  O16  1  0.619266  0.111446  0.727082  1
  O  O17  1  0.426448  0.573552  0.272660  1
  O  O18  1  0.718371  0.281629  0.103878  1
  O  O19  1  0.380734  0.888554  0.227082  1
