# generated using pymatgen
data_Pr4Al9SiAu6
_symmetry_space_group_name_H-M   'P 1'
_cell_length_a   8.71024388
_cell_length_b   8.71188840
_cell_length_c   8.71188853
_cell_angle_alpha   138.10453423
_cell_angle_beta   103.83028994
_cell_angle_gamma   90.95327248
_symmetry_Int_Tables_number   1
_chemical_formula_structural   Pr4Al9SiAu6
_chemical_formula_sum   'Pr4 Al9 Si1 Au6'
_cell_volume   408.89942603
_cell_formula_units_Z   1
loop_
 _symmetry_equiv_pos_site_id
 _symmetry_equiv_pos_as_xyz
  1  'x, y, z'
loop_
 _atom_site_type_symbol
 _atom_site_label
 _atom_site_symmetry_multiplicity
 _atom_site_fract_x
 _atom_site_fract_y
 _atom_site_fract_z
 _atom_site_occupancy
  Pr  Pr0  1  0.868864  0.629303  0.239560  1
  Pr  Pr1  1  0.133352  0.375020  0.758333  1
  Pr  Pr2  1  0.385654  0.128528  0.257125  1
  Pr  Pr3  1  0.609442  0.869291  0.740151  1
  Al  Al4  1  0.502274  0.751840  0.252308  1
  Al  Al5  1  0.502274  0.249966  0.750433  1
  Al  Al6  1  0.237377  0.979637  0.743233  1
  Al  Al7  1  0.759997  0.506757  0.746366  1
  Al  Al8  1  0.759997  0.013632  0.253240  1
  Al  Al9  1  0.237377  0.494144  0.257740  1
  Al  Al10  1  0.027976  0.884899  0.143078  1
  Al  Al11  1  0.970464  0.112851  0.857613  1
  Al  Al12  1  0.737483  0.385298  0.352185  1
  Si  Si13  1  0.265214  0.618544  0.646668  1
  Au  Au14  1  0.002533  0.745406  0.746362  1
  Au  Au15  1  0.002533  0.256171  0.257126  1
  Au  Au16  1  0.248025  0.870639  0.377388  1
  Au  Au17  1  0.755279  0.130154  0.625124  1
  Au  Au18  1  0.486685  0.367713  0.118972  1
  Au  Au19  1  0.507200  0.630208  0.876992  1
