# generated using pymatgen
data_Sc12Re2TcBr16
_symmetry_space_group_name_H-M   'P 1'
_cell_length_a   9.02405914
_cell_length_b   10.97741117
_cell_length_c   11.66907100
_cell_angle_alpha   116.71307956
_cell_angle_beta   101.85962552
_cell_angle_gamma   101.53604226
_symmetry_Int_Tables_number   1
_chemical_formula_structural   Sc12Re2TcBr16
_chemical_formula_sum   'Sc12 Re2 Tc1 Br16'
_cell_volume   952.34132992
_cell_formula_units_Z   1
loop_
 _symmetry_equiv_pos_site_id
 _symmetry_equiv_pos_as_xyz
  1  'x, y, z'
loop_
 _atom_site_type_symbol
 _atom_site_label
 _atom_site_symmetry_multiplicity
 _atom_site_fract_x
 _atom_site_fract_y
 _atom_site_fract_z
 _atom_site_occupancy
  Sc  Sc0  1  0.074125  0.252461  0.345169  1
  Sc  Sc1  1  0.921107  0.761662  0.661252  1
  Sc  Sc2  1  0.771196  0.539975  0.307032  1
  Sc  Sc3  1  0.218779  0.464811  0.684557  1
  Sc  Sc4  1  0.277487  0.747582  0.654873  1
  Sc  Sc5  1  0.707042  0.238095  0.338632  1
  Sc  Sc6  1  0.133853  0.534635  0.315169  1
  Sc  Sc7  1  0.858489  0.460788  0.693670  1
  Sc  Sc8  1  0.402623  0.353094  0.265396  1
  Sc  Sc9  1  0.598293  0.647111  0.734500  1
  Sc  Sc10  1  0.459911  0.301823  0.521101  1
  Sc  Sc11  1  0.545792  0.698337  0.479010  1
  Re  Re12  1  0.983437  0.500013  0.500384  1
  Re  Re13  1  0.690890  0.500027  0.500588  1
  Tc  Tc14  1  0.324552  0.500045  0.499291  1
  Br  Br15  1  0.402458  0.745733  0.891426  1
  Br  Br16  1  0.594515  0.253439  0.106526  1
  Br  Br17  1  0.197253  0.983228  0.793335  1
  Br  Br18  1  0.805911  0.016975  0.206637  1
  Br  Br19  1  0.343499  0.085200  0.246731  1
  Br  Br20  1  0.674324  0.914636  0.753337  1
  Br  Br21  1  0.564122  0.434801  0.803783  1
  Br  Br22  1  0.449841  0.565733  0.196143  1
  Br  Br23  1  0.311075  0.827068  0.463227  1
  Br  Br24  1  0.685091  0.165395  0.538331  1
  Br  Br25  1  0.170350  0.170487  0.532425  1
  Br  Br26  1  0.830671  0.836504  0.465817  1
  Br  Br27  1  0.925789  0.580592  0.149696  1
  Br  Br28  1  0.078811  0.419200  0.850195  1
  Br  Br29  1  0.922235  0.745559  0.893477  1
  Br  Br30  1  0.076481  0.254989  0.108288  1
