# generated using pymatgen
data_SrSb12IrOs2Ru
_symmetry_space_group_name_H-M   'P 1'
_cell_length_a   8.16846096
_cell_length_b   8.17213361
_cell_length_c   8.17689223
_cell_angle_alpha   109.44815198
_cell_angle_beta   109.41958801
_cell_angle_gamma   109.39882701
_symmetry_Int_Tables_number   1
_chemical_formula_structural   SrSb12IrOs2Ru
_chemical_formula_sum   'Sr1 Sb12 Ir1 Os2 Ru1'
_cell_volume   420.94748260
_cell_formula_units_Z   1
loop_
 _symmetry_equiv_pos_site_id
 _symmetry_equiv_pos_as_xyz
  1  'x, y, z'
loop_
 _atom_site_type_symbol
 _atom_site_label
 _atom_site_symmetry_multiplicity
 _atom_site_fract_x
 _atom_site_fract_y
 _atom_site_fract_z
 _atom_site_occupancy
  Sr  Sr0  1  0.000000  0.000000  0.000000  1
  Sb  Sb1  1  0.154961  0.498069  0.340526  1
  Sb  Sb2  1  0.501373  0.659335  0.844551  1
  Sb  Sb3  1  0.340817  0.842292  0.183361  1
  Sb  Sb4  1  0.817017  0.659600  0.158689  1
  Sb  Sb5  1  0.660157  0.844956  0.501437  1
  Sb  Sb6  1  0.182983  0.340400  0.841311  1
  Sb  Sb7  1  0.659183  0.157708  0.816639  1
  Sb  Sb8  1  0.339843  0.155044  0.498563  1
  Sb  Sb9  1  0.498627  0.340665  0.155449  1
  Sb  Sb10  1  0.845039  0.501931  0.659474  1
  Sb  Sb11  1  0.842651  0.182796  0.341134  1
  Sb  Sb12  1  0.157349  0.817204  0.658866  1
  Ir  Ir13  1  0.500000  0.500000  0.500000  1
  Os  Os14  1  0.500000  0.000000  0.000000  1
  Os  Os15  1  0.000000  0.500000  0.000000  1
  Ru  Ru16  1  0.000000  0.000000  0.500000  1
