# generated using pymatgen
data_Ta4Nb2Co16Si6Ge
_symmetry_space_group_name_H-M   'P 1'
_cell_length_a   7.91651970
_cell_length_b   7.92006657
_cell_length_c   7.91715379
_cell_angle_alpha   59.98253635
_cell_angle_beta   60.02698436
_cell_angle_gamma   60.07106450
_symmetry_Int_Tables_number   1
_chemical_formula_structural   Ta4Nb2Co16Si6Ge
_chemical_formula_sum   'Ta4 Nb2 Co16 Si6 Ge1'
_cell_volume   351.22147637
_cell_formula_units_Z   1
loop_
 _symmetry_equiv_pos_site_id
 _symmetry_equiv_pos_as_xyz
  1  'x, y, z'
loop_
 _atom_site_type_symbol
 _atom_site_label
 _atom_site_symmetry_multiplicity
 _atom_site_fract_x
 _atom_site_fract_y
 _atom_site_fract_z
 _atom_site_occupancy
  Ta  Ta0  1  0.204389  0.795611  0.798766  1
  Ta  Ta1  1  0.797266  0.797266  0.202734  1
  Ta  Ta2  1  0.795611  0.204389  0.201234  1
  Ta  Ta3  1  0.202734  0.202734  0.797266  1
  Nb  Nb4  1  0.797316  0.202684  0.800069  1
  Nb  Nb5  1  0.202684  0.797316  0.199931  1
  Co  Co6  1  0.618907  0.617698  0.144303  1
  Co  Co7  1  0.166221  0.501920  0.165316  1
  Co  Co8  1  0.854623  0.386488  0.378835  1
  Co  Co9  1  0.498080  0.833779  0.833456  1
  Co  Co10  1  0.501920  0.166221  0.166544  1
  Co  Co11  1  0.830520  0.831790  0.498608  1
  Co  Co12  1  0.169480  0.168210  0.501392  1
  Co  Co13  1  0.145377  0.613512  0.621165  1
  Co  Co14  1  0.168210  0.169480  0.160920  1
  Co  Co15  1  0.381093  0.382302  0.855697  1
  Co  Co16  1  0.617698  0.618907  0.619091  1
  Co  Co17  1  0.386488  0.854623  0.380055  1
  Co  Co18  1  0.382302  0.381093  0.380909  1
  Co  Co19  1  0.831790  0.830520  0.839080  1
  Co  Co20  1  0.613512  0.145377  0.619945  1
  Co  Co21  1  0.833779  0.498080  0.834684  1
  Si  Si22  1  0.500000  0.000000  0.500000  1
  Si  Si23  1  0.500000  0.500000  0.000000  1
  Si  Si24  1  0.500000  0.500000  0.500000  1
  Si  Si25  1  0.000000  0.500000  0.000000  1
  Si  Si26  1  0.000000  0.500000  0.500000  1
  Si  Si27  1  0.500000  0.000000  0.000000  1
  Ge  Ge28  1  0.000000  0.000000  0.500000  1
