# generated using pymatgen
data_Pu6PdRh7
_symmetry_space_group_name_H-M   'P 1'
_cell_length_a   7.61534359
_cell_length_b   7.61534397
_cell_length_c   7.61534423
_cell_angle_alpha   113.81038642
_cell_angle_beta   113.81038731
_cell_angle_gamma   113.81038496
_symmetry_Int_Tables_number   1
_chemical_formula_structural   Pu6PdRh7
_chemical_formula_sum   'Pu6 Pd1 Rh7'
_cell_volume   272.05036784
_cell_formula_units_Z   1
loop_
 _symmetry_equiv_pos_site_id
 _symmetry_equiv_pos_as_xyz
  1  'x, y, z'
loop_
 _atom_site_type_symbol
 _atom_site_label
 _atom_site_symmetry_multiplicity
 _atom_site_fract_x
 _atom_site_fract_y
 _atom_site_fract_z
 _atom_site_occupancy
  Pu  Pu0  1  0.395413  0.257956  0.000051  1
  Pu  Pu1  1  0.000051  0.395413  0.257956  1
  Pu  Pu2  1  0.257956  0.000051  0.395413  1
  Pu  Pu3  1  0.604587  0.742044  0.999949  1
  Pu  Pu4  1  0.999949  0.604587  0.742044  1
  Pu  Pu5  1  0.742044  0.999949  0.604587  1
  Pd  Pd6  1  0.500000  0.500000  0.500000  1
  Rh  Rh7  1  0.000000  0.000000  0.000000  1
  Rh  Rh8  1  0.908044  0.751354  0.452058  1
  Rh  Rh9  1  0.452058  0.908044  0.751354  1
  Rh  Rh10  1  0.751354  0.452058  0.908044  1
  Rh  Rh11  1  0.091956  0.248646  0.547942  1
  Rh  Rh12  1  0.547942  0.091956  0.248646  1
  Rh  Rh13  1  0.248646  0.547942  0.091956  1
