# generated using pymatgen
data_Tb4Hf4IrPt3
_symmetry_space_group_name_H-M   'P 1'
_cell_length_a   4.66578900
_cell_length_b   7.08273121
_cell_length_c   8.24281216
_cell_angle_alpha   90.10975455
_cell_angle_beta   90.00000000
_cell_angle_gamma   90.00000000
_symmetry_Int_Tables_number   1
_chemical_formula_structural   Tb4Hf4IrPt3
_chemical_formula_sum   'Tb4 Hf4 Ir1 Pt3'
_cell_volume   272.39583428
_cell_formula_units_Z   1
loop_
 _symmetry_equiv_pos_site_id
 _symmetry_equiv_pos_as_xyz
  1  'x, y, z'
loop_
 _atom_site_type_symbol
 _atom_site_label
 _atom_site_symmetry_multiplicity
 _atom_site_fract_x
 _atom_site_fract_y
 _atom_site_fract_z
 _atom_site_occupancy
  Tb  Tb0  1  0.750000  0.517232  0.819767  1
  Tb  Tb1  1  0.250000  0.982276  0.323193  1
  Tb  Tb2  1  0.250000  0.485995  0.181003  1
  Tb  Tb3  1  0.750000  0.012535  0.677116  1
  Hf  Hf4  1  0.750000  0.645254  0.425948  1
  Hf  Hf5  1  0.250000  0.359058  0.578121  1
  Hf  Hf6  1  0.750000  0.146258  0.077219  1
  Hf  Hf7  1  0.250000  0.854340  0.922011  1
  Ir  Ir8  1  0.250000  0.726231  0.590863  1
  Pt  Pt9  1  0.250000  0.226529  0.905985  1
  Pt  Pt10  1  0.750000  0.773354  0.093805  1
  Pt  Pt11  1  0.750000  0.270940  0.404966  1
