# generated using pymatgen
data_VP2NCl12
_symmetry_space_group_name_H-M   'P 1'
_cell_length_a   8.28262805
_cell_length_b   8.28262690
_cell_length_c   15.75835317
_cell_angle_alpha   78.59932470
_cell_angle_beta   78.59932673
_cell_angle_gamma   65.62452604
_symmetry_Int_Tables_number   1
_chemical_formula_structural   VP2NCl12
_chemical_formula_sum   'V2 P4 N2 Cl24'
_cell_volume   957.06658316
_cell_formula_units_Z   2
loop_
 _symmetry_equiv_pos_site_id
 _symmetry_equiv_pos_as_xyz
  1  'x, y, z'
loop_
 _atom_site_type_symbol
 _atom_site_label
 _atom_site_symmetry_multiplicity
 _atom_site_fract_x
 _atom_site_fract_y
 _atom_site_fract_z
 _atom_site_occupancy
  V  V0  1  0.000000  0.000000  0.500000  1
  V  V1  1  0.000000  0.000000  0.000000  1
  P  P2  1  0.458956  0.320721  0.771030  1
  P  P3  1  0.679279  0.541044  0.728970  1
  P  P4  1  0.320721  0.458956  0.271030  1
  P  P5  1  0.541044  0.679279  0.228970  1
  N  N6  1  0.620465  0.379535  0.750000  1
  N  N7  1  0.379535  0.620465  0.250000  1
  Cl  Cl8  1  0.714814  0.210402  0.008449  1
  Cl  Cl9  1  0.795844  0.901569  0.472735  1
  Cl  Cl10  1  0.285186  0.789598  0.991551  1
  Cl  Cl11  1  0.903707  0.483172  0.648212  1
  Cl  Cl12  1  0.236721  0.499126  0.825777  1
  Cl  Cl13  1  0.516828  0.096293  0.851788  1
  Cl  Cl14  1  0.098431  0.204156  0.027265  1
  Cl  Cl15  1  0.483172  0.903707  0.148212  1
  Cl  Cl16  1  0.956717  0.912210  0.145716  1
  Cl  Cl17  1  0.789598  0.285186  0.491551  1
  Cl  Cl18  1  0.912210  0.956717  0.645716  1
  Cl  Cl19  1  0.204156  0.098431  0.527265  1
  Cl  Cl20  1  0.901569  0.795844  0.972735  1
  Cl  Cl21  1  0.273394  0.398963  0.165137  1
  Cl  Cl22  1  0.601037  0.726606  0.334863  1
  Cl  Cl23  1  0.087790  0.043283  0.354284  1
  Cl  Cl24  1  0.726606  0.601037  0.834863  1
  Cl  Cl25  1  0.210402  0.714814  0.508449  1
  Cl  Cl26  1  0.043283  0.087790  0.854284  1
  Cl  Cl27  1  0.096293  0.516828  0.351788  1
  Cl  Cl28  1  0.763279  0.500874  0.174223  1
  Cl  Cl29  1  0.500874  0.763279  0.674223  1
  Cl  Cl30  1  0.398963  0.273394  0.665137  1
  Cl  Cl31  1  0.499126  0.236721  0.325777  1
