# generated using pymatgen
data_Er10GaBi2Ru3
_symmetry_space_group_name_H-M   'P 1'
_cell_length_a   8.71747793
_cell_length_b   8.71747842
_cell_length_c   8.77679012
_cell_angle_alpha   127.44100577
_cell_angle_beta   127.44101299
_cell_angle_gamma   77.04645219
_symmetry_Int_Tables_number   1
_chemical_formula_structural   Er10GaBi2Ru3
_chemical_formula_sum   'Er10 Ga1 Bi2 Ru3'
_cell_volume   409.12876812
_cell_formula_units_Z   1
loop_
 _symmetry_equiv_pos_site_id
 _symmetry_equiv_pos_as_xyz
  1  'x, y, z'
loop_
 _atom_site_type_symbol
 _atom_site_label
 _atom_site_symmetry_multiplicity
 _atom_site_fract_x
 _atom_site_fract_y
 _atom_site_fract_z
 _atom_site_occupancy
  Er  Er0  1  0.504601  0.499982  0.004583  1
  Er  Er1  1  0.999982  0.004601  0.004583  1
  Er  Er2  1  0.526242  0.026242  0.811575  1
  Er  Er3  1  0.221555  0.721555  0.206523  1
  Er  Er4  1  0.023598  0.197890  0.491169  1
  Er  Er5  1  0.697890  0.523598  0.491169  1
  Er  Er6  1  0.484967  0.984967  0.206523  1
  Er  Er7  1  0.785335  0.285335  0.811575  1
  Er  Er8  1  0.967571  0.793279  0.491169  1
  Er  Er9  1  0.293279  0.467571  0.491169  1
  Ga  Ga10  1  0.135621  0.635621  0.771242  1
  Bi  Bi11  1  0.245475  0.245475  0.990950  1
  Bi  Bi12  1  0.745475  0.745475  0.990950  1
  Ru  Ru13  1  0.874343  0.374343  0.248686  1
  Ru  Ru14  1  0.637820  0.856246  0.494066  1
  Ru  Ru15  1  0.356246  0.137820  0.494066  1
