# generated using pymatgen
data_Er(ZrH5)3
_symmetry_space_group_name_H-M   'P 1'
_cell_length_a   7.11127659
_cell_length_b   7.12040919
_cell_length_c   7.13419946
_cell_angle_alpha   109.49750218
_cell_angle_beta   109.44570698
_cell_angle_gamma   109.36598295
_symmetry_Int_Tables_number   1
_chemical_formula_structural   Er(ZrH5)3
_chemical_formula_sum   'Er2 Zr6 H30'
_cell_volume   278.44159796
_cell_formula_units_Z   2
loop_
 _symmetry_equiv_pos_site_id
 _symmetry_equiv_pos_as_xyz
  1  'x, y, z'
loop_
 _atom_site_type_symbol
 _atom_site_label
 _atom_site_symmetry_multiplicity
 _atom_site_fract_x
 _atom_site_fract_y
 _atom_site_fract_z
 _atom_site_occupancy
  Er  Er0  1  0.909999  0.909276  0.908306  1
  Er  Er1  1  0.501694  0.000971  0.091694  1
  Zr  Zr2  1  0.002121  0.107741  0.502872  1
  Zr  Zr3  1  0.107623  0.500471  0.002277  1
  Zr  Zr4  1  0.999249  0.604869  0.497128  1
  Zr  Zr5  1  0.605346  0.498194  0.997723  1
  Zr  Zr6  1  0.499867  0.998539  0.594520  1
  Zr  Zr7  1  0.405346  0.404019  0.405480  1
  H  H8  1  0.664113  0.976781  0.396218  1
  H  H9  1  0.222080  0.306752  0.846901  1
  H  H10  1  0.190499  0.418525  0.535664  1
  H  H11  1  0.092516  0.286677  0.126194  1
  H  H12  1  0.280115  0.132504  0.102906  1
  H  H13  1  0.127360  0.099942  0.289713  1
  H  H14  1  0.466321  0.160484  0.873806  1
  H  H15  1  0.723828  0.342366  0.811935  1
  H  H16  1  0.625505  0.381449  0.254153  1
  H  H17  1  0.241126  0.624285  0.367836  1
  H  H18  1  0.758030  0.871798  0.138598  1
  H  H19  1  0.119432  0.733199  0.861402  1
  H  H20  1  0.373290  0.256449  0.632164  1
  H  H21  1  0.871352  0.127296  0.745847  1
  H  H22  1  0.767895  0.580563  0.603782  1
  H  H23  1  0.306787  0.835607  0.226579  1
  H  H24  1  0.379729  0.641843  0.970492  1
  H  H25  1  0.973514  0.381365  0.657367  1
  H  H26  1  0.527179  0.192562  0.425245  1
  H  H27  1  0.411893  0.530432  0.188065  1
  H  H28  1  0.858641  0.232148  0.323488  1
  H  H29  1  0.909236  0.671351  0.029508  1
  H  H30  1  0.816148  0.723998  0.342633  1
  H  H31  1  0.154835  0.882861  0.464336  1
  H  H32  1  0.677209  0.029599  0.897094  1
  H  H33  1  0.337648  0.810229  0.710287  1
  H  H34  1  0.875180  0.459851  0.153099  1
  H  H35  1  0.601932  0.767317  0.574755  1
  H  H36  1  0.580208  0.609028  0.773421  1
  H  H37  1  0.035155  0.908661  0.676512  1
