# generated using pymatgen
data_Ti4AlMo2Ir
_symmetry_space_group_name_H-M   'P 1'
_cell_length_a   6.33328800
_cell_length_b   4.42220700
_cell_length_c   8.93579000
_cell_angle_alpha   90.00000000
_cell_angle_beta   89.99987255
_cell_angle_gamma   90.00000000
_symmetry_Int_Tables_number   1
_chemical_formula_structural   Ti4AlMo2Ir
_chemical_formula_sum   'Ti8 Al2 Mo4 Ir2'
_cell_volume   250.26565817
_cell_formula_units_Z   2
loop_
 _symmetry_equiv_pos_site_id
 _symmetry_equiv_pos_as_xyz
  1  'x, y, z'
loop_
 _atom_site_type_symbol
 _atom_site_label
 _atom_site_symmetry_multiplicity
 _atom_site_fract_x
 _atom_site_fract_y
 _atom_site_fract_z
 _atom_site_occupancy
  Ti  Ti0  1  0.991245  0.749999  0.117312  1
  Ti  Ti1  1  0.508736  0.749999  0.117337  1
  Ti  Ti2  1  0.008748  0.249999  0.382683  1
  Ti  Ti3  1  0.491254  0.249999  0.382668  1
  Ti  Ti4  1  0.495895  0.749999  0.629639  1
  Ti  Ti5  1  0.004114  0.749999  0.629649  1
  Ti  Ti6  1  0.504116  0.249999  0.870360  1
  Ti  Ti7  1  0.995893  0.249999  0.870350  1
  Al  Al8  1  0.249950  0.249999  0.124037  1
  Al  Al9  1  0.750049  0.749999  0.375957  1
  Mo  Mo10  1  0.750036  0.249999  0.129903  1
  Mo  Mo11  1  0.249958  0.749999  0.370098  1
  Mo  Mo12  1  0.750018  0.249999  0.618393  1
  Mo  Mo13  1  0.249982  0.749999  0.881612  1
  Ir  Ir14  1  0.250004  0.249999  0.627121  1
  Ir  Ir15  1  0.750004  0.749999  0.872881  1
