# generated using pymatgen
data_CeHo5TaO12
_symmetry_space_group_name_H-M   'P 1'
_cell_length_a   6.45359381
_cell_length_b   6.48306376
_cell_length_c   6.49198465
_cell_angle_alpha   98.92027445
_cell_angle_beta   98.82106702
_cell_angle_gamma   98.62732453
_symmetry_Int_Tables_number   1
_chemical_formula_structural   CeHo5TaO12
_chemical_formula_sum   'Ce1 Ho5 Ta1 O12'
_cell_volume   260.92414399
_cell_formula_units_Z   1
loop_
 _symmetry_equiv_pos_site_id
 _symmetry_equiv_pos_as_xyz
  1  'x, y, z'
loop_
 _atom_site_type_symbol
 _atom_site_label
 _atom_site_symmetry_multiplicity
 _atom_site_fract_x
 _atom_site_fract_y
 _atom_site_fract_z
 _atom_site_occupancy
  Ce  Ce0  1  0.140698  0.309569  0.606149  1
  Ho  Ho1  1  0.393322  0.858317  0.691532  1
  Ho  Ho2  1  0.694053  0.389907  0.865864  1
  Ho  Ho3  1  0.311459  0.612953  0.143237  1
  Ho  Ho4  1  0.609511  0.137955  0.301533  1
  Ho  Ho5  1  0.855625  0.692511  0.385948  1
  Ta  Ta6  1  0.000347  0.996338  0.995480  1
  O  O7  1  0.074312  0.303102  0.961393  1
  O  O8  1  0.042363  0.924045  0.696533  1
  O  O9  1  0.411146  0.566740  0.822453  1
  O  O10  1  0.177137  0.587976  0.433767  1
  O  O11  1  0.695997  0.042276  0.925216  1
  O  O12  1  0.430691  0.181409  0.588742  1
  O  O13  1  0.565836  0.824880  0.413700  1
  O  O14  1  0.303357  0.958849  0.075780  1
  O  O15  1  0.826060  0.410207  0.568946  1
  O  O16  1  0.589024  0.433813  0.179481  1
  O  O17  1  0.955164  0.072392  0.302993  1
  O  O18  1  0.923898  0.696764  0.041254  1
