# generated using pymatgen
data_Zr10In5Hg3Ir4
_symmetry_space_group_name_H-M   'P 1'
_cell_length_a   3.34152700
_cell_length_b   7.75233913
_cell_length_c   17.76563157
_cell_angle_alpha   89.78088310
_cell_angle_beta   90.00000000
_cell_angle_gamma   90.00000000
_symmetry_Int_Tables_number   1
_chemical_formula_structural   Zr10In5Hg3Ir4
_chemical_formula_sum   'Zr10 In5 Hg3 Ir4'
_cell_volume   460.20911180
_cell_formula_units_Z   1
loop_
 _symmetry_equiv_pos_site_id
 _symmetry_equiv_pos_as_xyz
  1  'x, y, z'
loop_
 _atom_site_type_symbol
 _atom_site_label
 _atom_site_symmetry_multiplicity
 _atom_site_fract_x
 _atom_site_fract_y
 _atom_site_fract_z
 _atom_site_occupancy
  Zr  Zr0  1  0.000000  0.133811  0.919170  1
  Zr  Zr1  1  0.000000  0.753939  0.782254  1
  Zr  Zr2  1  0.000000  0.639736  0.578951  1
  Zr  Zr3  1  0.000000  0.263266  0.724557  1
  Zr  Zr4  1  0.000000  0.360211  0.421237  1
  Zr  Zr5  1  0.000000  0.247390  0.220274  1
  Zr  Zr6  1  0.000000  0.000368  0.499908  1
  Zr  Zr7  1  0.000000  0.738328  0.275077  1
  Zr  Zr8  1  0.000000  0.501821  0.999104  1
  Zr  Zr9  1  0.000000  0.861534  0.080741  1
  In  In10  1  0.500000  0.061269  0.350436  1
  In  In11  1  0.500000  0.300328  0.568286  1
  In  In12  1  0.500000  0.938141  0.649661  1
  In  In13  1  0.500000  0.699843  0.431975  1
  In  In14  1  0.500000  0.199860  0.065522  1
  Hg  Hg15  1  0.500000  0.797857  0.934221  1
  Hg  Hg16  1  0.500000  0.557194  0.147004  1
  Hg  Hg17  1  0.500000  0.440828  0.852341  1
  Ir  Ir18  1  0.500000  0.549824  0.692352  1
  Ir  Ir19  1  0.500000  0.452458  0.307941  1
  Ir  Ir20  1  0.500000  0.044838  0.805785  1
  Ir  Ir21  1  0.500000  0.957156  0.193203  1
