# generated using pymatgen
data_Li5Ca2Hg
_symmetry_space_group_name_H-M   'P 1'
_cell_length_a   5.94887700
_cell_length_b   5.94887709
_cell_length_c   18.90182800
_cell_angle_alpha   90.00000000
_cell_angle_beta   90.00000000
_cell_angle_gamma   119.99999393
_symmetry_Int_Tables_number   1
_chemical_formula_structural   Li5Ca2Hg
_chemical_formula_sum   'Li15 Ca6 Hg3'
_cell_volume   579.30123021
_cell_formula_units_Z   3
loop_
 _symmetry_equiv_pos_site_id
 _symmetry_equiv_pos_as_xyz
  1  'x, y, z'
loop_
 _atom_site_type_symbol
 _atom_site_label
 _atom_site_symmetry_multiplicity
 _atom_site_fract_x
 _atom_site_fract_y
 _atom_site_fract_z
 _atom_site_occupancy
  Li  Li0  1  0.318694  0.159347  0.127123  1
  Li  Li1  1  0.840655  0.159347  0.127123  1
  Li  Li2  1  0.840654  0.681307  0.127123  1
  Li  Li3  1  0.666668  0.333334  0.250000  1
  Li  Li4  1  0.318694  0.159347  0.372877  1
  Li  Li5  1  0.840655  0.159347  0.372877  1
  Li  Li6  1  0.840654  0.681307  0.372877  1
  Li  Li7  1  0.162612  0.325225  0.624060  1
  Li  Li8  1  0.162613  0.837388  0.624060  1
  Li  Li9  1  0.674775  0.837388  0.624060  1
  Li  Li10  1  0.000000  0.000000  0.750000  1
  Li  Li11  1  0.333334  0.666668  0.750000  1
  Li  Li12  1  0.162612  0.325225  0.875939  1
  Li  Li13  1  0.162613  0.837388  0.875939  1
  Li  Li14  1  0.674775  0.837388  0.875939  1
  Ca  Ca15  1  0.333334  0.666668  0.035009  1
  Ca  Ca16  1  0.333334  0.666668  0.250000  1
  Ca  Ca17  1  0.333334  0.666668  0.464991  1
  Ca  Ca18  1  0.666668  0.333334  0.533307  1
  Ca  Ca19  1  0.666668  0.333334  0.750000  1
  Ca  Ca20  1  0.666668  0.333334  0.966693  1
  Hg  Hg21  1  0.000000  0.000000  0.000532  1
  Hg  Hg22  1  0.000000  0.000000  0.250000  1
  Hg  Hg23  1  0.000000  0.000000  0.499468  1
