# generated using pymatgen
data_Gd3Dy5V4O20
_symmetry_space_group_name_H-M   'P 1'
_cell_length_a   3.75848600
_cell_length_b   10.44510337
_cell_length_c   11.29392183
_cell_angle_alpha   90.12629729
_cell_angle_beta   90.00000000
_cell_angle_gamma   90.00000000
_symmetry_Int_Tables_number   1
_chemical_formula_structural   Gd3Dy5V4O20
_chemical_formula_sum   'Gd3 Dy5 V4 O20'
_cell_volume   443.37316253
_cell_formula_units_Z   1
loop_
 _symmetry_equiv_pos_site_id
 _symmetry_equiv_pos_as_xyz
  1  'x, y, z'
loop_
 _atom_site_type_symbol
 _atom_site_label
 _atom_site_symmetry_multiplicity
 _atom_site_fract_x
 _atom_site_fract_y
 _atom_site_fract_z
 _atom_site_occupancy
  Gd  Gd0  1  0.250000  0.615726  0.226811  1
  Gd  Gd1  1  0.750000  0.863403  0.056293  1
  Gd  Gd2  1  0.250000  0.137266  0.942270  1
  Dy  Dy3  1  0.750000  0.362030  0.446546  1
  Dy  Dy4  1  0.250000  0.637098  0.555311  1
  Dy  Dy5  1  0.750000  0.879838  0.725406  1
  Dy  Dy6  1  0.750000  0.382655  0.772493  1
  Dy  Dy7  1  0.250000  0.120081  0.274594  1
  V  V8  1  0.250000  0.171428  0.618273  1
  V  V9  1  0.750000  0.327611  0.118808  1
  V  V10  1  0.750000  0.829245  0.382874  1
  V  V11  1  0.250000  0.671070  0.879957  1
  O  O12  1  0.750000  0.241169  0.269715  1
  O  O13  1  0.250000  0.261966  0.766532  1
  O  O14  1  0.250000  0.226548  0.457614  1
  O  O15  1  0.750000  0.004734  0.892477  1
  O  O16  1  0.750000  0.991097  0.345915  1
  O  O17  1  0.250000  0.492856  0.397503  1
  O  O18  1  0.750000  0.505826  0.605309  1
  O  O19  1  0.750000  0.772680  0.543278  1
  O  O20  1  0.250000  0.766561  0.386286  1
  O  O21  1  0.750000  0.732839  0.881748  1
  O  O22  1  0.750000  0.276330  0.956577  1
  O  O23  1  0.750000  0.489658  0.153639  1
  O  O24  1  0.250000  0.266273  0.117355  1
  O  O25  1  0.250000  0.009553  0.655278  1
  O  O26  1  0.750000  0.234144  0.615700  1
  O  O27  1  0.250000  0.995924  0.106819  1
  O  O28  1  0.750000  0.741252  0.233176  1
  O  O29  1  0.250000  0.724702  0.041449  1
  O  O30  1  0.250000  0.509185  0.843721  1
  O  O31  1  0.250000  0.759252  0.730274  1
