# generated using pymatgen
data_Ho3Lu5(AlPt)2
_symmetry_space_group_name_H-M   'P 1'
_cell_length_a   9.45969869
_cell_length_b   9.45969937
_cell_length_c   9.45969900
_cell_angle_alpha   59.99999781
_cell_angle_beta   59.99999542
_cell_angle_gamma   59.99999732
_symmetry_Int_Tables_number   1
_chemical_formula_structural   Ho3Lu5(AlPt)2
_chemical_formula_sum   'Ho6 Lu10 Al4 Pt4'
_cell_volume   598.57273007
_cell_formula_units_Z   2
loop_
 _symmetry_equiv_pos_site_id
 _symmetry_equiv_pos_as_xyz
  1  'x, y, z'
loop_
 _atom_site_type_symbol
 _atom_site_label
 _atom_site_symmetry_multiplicity
 _atom_site_fract_x
 _atom_site_fract_y
 _atom_site_fract_z
 _atom_site_occupancy
  Ho  Ho0  1  0.186555  0.813445  0.813445  1
  Ho  Ho1  1  0.813445  0.186555  0.186555  1
  Ho  Ho2  1  0.813445  0.186555  0.813445  1
  Ho  Ho3  1  0.186555  0.813445  0.186555  1
  Ho  Ho4  1  0.813445  0.813445  0.186555  1
  Ho  Ho5  1  0.186555  0.186555  0.813445  1
  Lu  Lu6  1  0.603643  0.603643  0.603643  1
  Lu  Lu7  1  0.603643  0.603643  0.189071  1
  Lu  Lu8  1  0.603643  0.189071  0.603643  1
  Lu  Lu9  1  0.189071  0.603643  0.603643  1
  Lu  Lu10  1  0.058384  0.441616  0.441616  1
  Lu  Lu11  1  0.441616  0.058384  0.058384  1
  Lu  Lu12  1  0.441616  0.058384  0.441616  1
  Lu  Lu13  1  0.058384  0.441616  0.058384  1
  Lu  Lu14  1  0.441616  0.441616  0.058384  1
  Lu  Lu15  1  0.058384  0.058384  0.441616  1
  Al  Al16  1  0.827362  0.827362  0.827362  1
  Al  Al17  1  0.827362  0.827362  0.517913  1
  Al  Al18  1  0.827362  0.517913  0.827362  1
  Al  Al19  1  0.517913  0.827362  0.827362  1
  Pt  Pt20  1  0.392934  0.392934  0.392934  1
  Pt  Pt21  1  0.392934  0.392934  0.821197  1
  Pt  Pt22  1  0.392934  0.821197  0.392934  1
  Pt  Pt23  1  0.821197  0.392934  0.392934  1
