# generated using pymatgen
data_Y4Er8TlCo5
_symmetry_space_group_name_H-M   'P 1'
_cell_length_a   8.25399366
_cell_length_b   8.25399213
_cell_length_c   8.25399400
_cell_angle_alpha   110.89255754
_cell_angle_beta   110.56887382
_cell_angle_gamma   106.98074325
_symmetry_Int_Tables_number   1
_chemical_formula_structural   Y4Er8TlCo5
_chemical_formula_sum   'Y4 Er8 Tl1 Co5'
_cell_volume   432.26922836
_cell_formula_units_Z   1
loop_
 _symmetry_equiv_pos_site_id
 _symmetry_equiv_pos_as_xyz
  1  'x, y, z'
loop_
 _atom_site_type_symbol
 _atom_site_label
 _atom_site_symmetry_multiplicity
 _atom_site_fract_x
 _atom_site_fract_y
 _atom_site_fract_z
 _atom_site_occupancy
  Y  Y0  1  0.290590  0.187880  0.478468  1
  Y  Y1  1  0.709410  0.812120  0.521532  1
  Y  Y2  1  0.290586  0.812120  0.102709  1
  Y  Y3  1  0.709414  0.187880  0.897291  1
  Er  Er4  1  0.620453  0.314015  0.306438  1
  Er  Er5  1  0.379547  0.685985  0.693562  1
  Er  Er6  1  0.007575  0.314015  0.693561  1
  Er  Er7  1  0.992425  0.685985  0.306439  1
  Er  Er8  1  0.209924  0.401328  0.191402  1
  Er  Er9  1  0.790076  0.598672  0.808598  1
  Er  Er10  1  0.209925  0.018521  0.808596  1
  Er  Er11  1  0.790075  0.981479  0.191404  1
  Tl  Tl12  1  0.500000  0.500000  0.000000  1
  Co  Co13  1  0.000000  0.378726  0.378726  1
  Co  Co14  1  0.000000  0.621274  0.621274  1
  Co  Co15  1  0.387153  0.887153  0.500000  1
  Co  Co16  1  0.612847  0.112847  0.500000  1
  Co  Co17  1  0.000000  0.000000  0.000000  1
