# generated using pymatgen
data_Tb5Dy11In4NiRh3
_symmetry_space_group_name_H-M   'P 1'
_cell_length_a   9.65561680
_cell_length_b   9.65576303
_cell_length_c   9.66581634
_cell_angle_alpha   60.00719481
_cell_angle_beta   60.04311733
_cell_angle_gamma   60.01333909
_symmetry_Int_Tables_number   1
_chemical_formula_structural   Tb5Dy11In4NiRh3
_chemical_formula_sum   'Tb5 Dy11 In4 Ni1 Rh3'
_cell_volume   637.52746733
_cell_formula_units_Z   1
loop_
 _symmetry_equiv_pos_site_id
 _symmetry_equiv_pos_as_xyz
  1  'x, y, z'
loop_
 _atom_site_type_symbol
 _atom_site_label
 _atom_site_symmetry_multiplicity
 _atom_site_fract_x
 _atom_site_fract_y
 _atom_site_fract_z
 _atom_site_occupancy
  Tb  Tb0  1  0.438444  0.061382  0.438056  1
  Tb  Tb1  1  0.062734  0.438040  0.062292  1
  Tb  Tb2  1  0.652165  0.648301  0.047559  1
  Tb  Tb3  1  0.188995  0.811274  0.189585  1
  Tb  Tb4  1  0.062508  0.438121  0.436715  1
  Dy  Dy5  1  0.810030  0.811391  0.189503  1
  Dy  Dy6  1  0.810745  0.190407  0.811197  1
  Dy  Dy7  1  0.187567  0.190537  0.811074  1
  Dy  Dy8  1  0.650460  0.049691  0.649475  1
  Dy  Dy9  1  0.061746  0.061148  0.438421  1
  Dy  Dy10  1  0.437465  0.438189  0.061863  1
  Dy  Dy11  1  0.652782  0.649043  0.651977  1
  Dy  Dy12  1  0.810818  0.190161  0.187981  1
  Dy  Dy13  1  0.189295  0.811131  0.810080  1
  Dy  Dy14  1  0.046135  0.648992  0.652190  1
  Dy  Dy15  1  0.438779  0.061381  0.061371  1
  In  In16  1  0.416769  0.417983  0.417061  1
  In  In17  1  0.416979  0.417928  0.748269  1
  In  In18  1  0.417645  0.746693  0.417895  1
  In  In19  1  0.748228  0.417856  0.417177  1
  Ni  Ni20  1  0.857824  0.426108  0.858096  1
  Rh  Rh21  1  0.857662  0.858171  0.857557  1
  Rh  Rh22  1  0.857379  0.858074  0.427125  1
  Rh  Rh23  1  0.426845  0.857997  0.857479  1
