# generated using pymatgen
data_Ho3Er9Tm8(CoSb2)4
_symmetry_space_group_name_H-M   'P 1'
_cell_length_a   7.78838501
_cell_length_b   8.73891600
_cell_length_c   12.09705302
_cell_angle_alpha   90.00000000
_cell_angle_beta   90.00579713
_cell_angle_gamma   90.00000000
_symmetry_Int_Tables_number   1
_chemical_formula_structural   Ho3Er9Tm8(CoSb2)4
_chemical_formula_sum   'Ho3 Er9 Tm8 Co4 Sb8'
_cell_volume   823.35013077
_cell_formula_units_Z   1
loop_
 _symmetry_equiv_pos_site_id
 _symmetry_equiv_pos_as_xyz
  1  'x, y, z'
loop_
 _atom_site_type_symbol
 _atom_site_label
 _atom_site_symmetry_multiplicity
 _atom_site_fract_x
 _atom_site_fract_y
 _atom_site_fract_z
 _atom_site_occupancy
  Ho  Ho0  1  0.123105  0.250000  0.192026  1
  Ho  Ho1  1  0.376880  0.250000  0.691998  1
  Ho  Ho2  1  0.876889  0.750000  0.807965  1
  Er  Er3  1  0.155959  0.750000  0.203930  1
  Er  Er4  1  0.655956  0.250000  0.296052  1
  Er  Er5  1  0.844140  0.250000  0.796195  1
  Er  Er6  1  0.344070  0.750000  0.703934  1
  Er  Er7  1  0.451732  0.750000  0.997950  1
  Er  Er8  1  0.951563  0.250000  0.502080  1
  Er  Er9  1  0.548443  0.250000  0.002103  1
  Er  Er10  1  0.048350  0.750000  0.497897  1
  Er  Er11  1  0.622880  0.750000  0.308147  1
  Tm  Tm12  1  0.823644  0.963490  0.065498  1
  Tm  Tm13  1  0.323801  0.036346  0.434498  1
  Tm  Tm14  1  0.176318  0.463513  0.934530  1
  Tm  Tm15  1  0.676293  0.536567  0.565361  1
  Tm  Tm16  1  0.176318  0.036487  0.934530  1
  Tm  Tm17  1  0.676293  0.963433  0.565361  1
  Tm  Tm18  1  0.823644  0.536510  0.065498  1
  Tm  Tm19  1  0.323801  0.463654  0.434498  1
  Co  Co20  1  0.433378  0.750000  0.490962  1
  Co  Co21  1  0.933226  0.250000  0.008897  1
  Co  Co22  1  0.566758  0.250000  0.508850  1
  Co  Co23  1  0.066744  0.750000  0.991114  1
  Sb  Sb24  1  0.930688  0.991798  0.327306  1
  Sb  Sb25  1  0.431073  0.007908  0.172746  1
  Sb  Sb26  1  0.069071  0.491940  0.672692  1
  Sb  Sb27  1  0.569074  0.508060  0.827319  1
  Sb  Sb28  1  0.069071  0.008060  0.672692  1
  Sb  Sb29  1  0.569074  0.991940  0.827319  1
  Sb  Sb30  1  0.930688  0.508202  0.327306  1
  Sb  Sb31  1  0.431073  0.492092  0.172746  1
