# generated using pymatgen
data_CaY2(H6Ru)2
_symmetry_space_group_name_H-M   'P 1'
_cell_length_a   4.91833200
_cell_length_b   4.91833247
_cell_length_c   8.17089600
_cell_angle_alpha   90.00000000
_cell_angle_beta   90.00000000
_cell_angle_gamma   119.99999683
_symmetry_Int_Tables_number   1
_chemical_formula_structural   CaY2(H6Ru)2
_chemical_formula_sum   'Ca1 Y2 H12 Ru2'
_cell_volume   171.17331155
_cell_formula_units_Z   1
loop_
 _symmetry_equiv_pos_site_id
 _symmetry_equiv_pos_as_xyz
  1  'x, y, z'
loop_
 _atom_site_type_symbol
 _atom_site_label
 _atom_site_symmetry_multiplicity
 _atom_site_fract_x
 _atom_site_fract_y
 _atom_site_fract_z
 _atom_site_occupancy
  Ca  Ca0  1  0.000000  0.000000  0.000000  1
  Y  Y1  1  0.666667  0.333333  0.358595  1
  Y  Y2  1  0.333333  0.666667  0.641405  1
  H  H3  1  0.166537  0.833463  0.381872  1
  H  H4  1  0.666926  0.833463  0.381872  1
  H  H5  1  0.166537  0.333074  0.381872  1
  H  H6  1  0.833463  0.166537  0.618128  1
  H  H7  1  0.333074  0.166537  0.618128  1
  H  H8  1  0.833463  0.666926  0.618128  1
  H  H9  1  0.507320  0.014640  0.861744  1
  H  H10  1  0.507320  0.492680  0.861744  1
  H  H11  1  0.985360  0.492680  0.861744  1
  H  H12  1  0.492680  0.985360  0.138256  1
  H  H13  1  0.492680  0.507320  0.138256  1
  H  H14  1  0.014640  0.507320  0.138256  1
  Ru  Ru15  1  0.666667  0.333333  0.734089  1
  Ru  Ru16  1  0.333333  0.666667  0.265911  1
