# generated using pymatgen
data_Tb5Nd3Cd2OsPd
_symmetry_space_group_name_H-M   'P 1'
_cell_length_a   9.79737409
_cell_length_b   9.79737446
_cell_length_c   9.85656900
_cell_angle_alpha   59.79993760
_cell_angle_beta   59.79993633
_cell_angle_gamma   59.83310752
_symmetry_Int_Tables_number   1
_chemical_formula_structural   Tb5Nd3Cd2OsPd
_chemical_formula_sum   'Tb10 Nd6 Cd4 Os2 Pd2'
_cell_volume   666.13584355
_cell_formula_units_Z   2
loop_
 _symmetry_equiv_pos_site_id
 _symmetry_equiv_pos_as_xyz
  1  'x, y, z'
loop_
 _atom_site_type_symbol
 _atom_site_label
 _atom_site_symmetry_multiplicity
 _atom_site_fract_x
 _atom_site_fract_y
 _atom_site_fract_z
 _atom_site_occupancy
  Tb  Tb0  1  0.348690  0.348690  0.354514  1
  Tb  Tb1  1  0.348690  0.348690  0.948106  1
  Tb  Tb2  1  0.343728  0.957451  0.349411  1
  Tb  Tb3  1  0.957451  0.343728  0.349411  1
  Tb  Tb4  1  0.817892  0.185953  0.189534  1
  Tb  Tb5  1  0.185953  0.817892  0.806622  1
  Tb  Tb6  1  0.185953  0.817892  0.189534  1
  Tb  Tb7  1  0.817892  0.185953  0.806622  1
  Tb  Tb8  1  0.186709  0.186709  0.813291  1
  Tb  Tb9  1  0.810083  0.810083  0.189917  1
  Nd  Nd10  1  0.939315  0.554221  0.564795  1
  Nd  Nd11  1  0.554221  0.939315  0.941669  1
  Nd  Nd12  1  0.554221  0.939315  0.564795  1
  Nd  Nd13  1  0.939315  0.554221  0.941669  1
  Nd  Nd14  1  0.561956  0.561956  0.938044  1
  Nd  Nd15  1  0.941278  0.941278  0.558722  1
  Cd  Cd16  1  0.579210  0.579210  0.579673  1
  Cd  Cd17  1  0.579210  0.579210  0.261909  1
  Cd  Cd18  1  0.580196  0.259225  0.580290  1
  Cd  Cd19  1  0.259225  0.580196  0.580290  1
  Os  Os20  1  0.144685  0.144685  0.136709  1
  Os  Os21  1  0.144685  0.144685  0.573920  1
  Pd  Pd22  1  0.145911  0.573535  0.140276  1
  Pd  Pd23  1  0.573535  0.145911  0.140276  1
