# generated using pymatgen
data_Sr10HgBi6As
_symmetry_space_group_name_H-M   'P 1'
_cell_length_a   9.88519900
_cell_length_b   9.88519972
_cell_length_c   7.80814700
_cell_angle_alpha   90.00000000
_cell_angle_beta   90.00000000
_cell_angle_gamma   120.00000093
_symmetry_Int_Tables_number   1
_chemical_formula_structural   Sr10HgBi6As
_chemical_formula_sum   'Sr10 Hg1 Bi6 As1'
_cell_volume   660.76871637
_cell_formula_units_Z   1
loop_
 _symmetry_equiv_pos_site_id
 _symmetry_equiv_pos_as_xyz
  1  'x, y, z'
loop_
 _atom_site_type_symbol
 _atom_site_label
 _atom_site_symmetry_multiplicity
 _atom_site_fract_x
 _atom_site_fract_y
 _atom_site_fract_z
 _atom_site_occupancy
  Sr  Sr0  1  0.666667  0.333333  0.000000  1
  Sr  Sr1  1  0.333333  0.666667  0.000000  1
  Sr  Sr2  1  0.333333  0.666667  0.500000  1
  Sr  Sr3  1  0.666667  0.333333  0.500000  1
  Sr  Sr4  1  0.744173  0.744173  0.781074  1
  Sr  Sr5  1  0.255827  0.000000  0.781074  1
  Sr  Sr6  1  0.000000  0.255827  0.781074  1
  Sr  Sr7  1  0.255827  0.255827  0.218926  1
  Sr  Sr8  1  0.744173  0.000000  0.218926  1
  Sr  Sr9  1  0.000000  0.744173  0.218926  1
  Hg  Hg10  1  0.000000  0.000000  0.500000  1
  Bi  Bi11  1  0.395531  0.395531  0.746229  1
  Bi  Bi12  1  0.604469  0.000000  0.746229  1
  Bi  Bi13  1  0.000000  0.604469  0.746229  1
  Bi  Bi14  1  0.604469  0.604469  0.253771  1
  Bi  Bi15  1  0.395531  0.000000  0.253771  1
  Bi  Bi16  1  0.000000  0.395531  0.253771  1
  As  As17  1  0.000000  0.000000  0.000000  1
