# generated using pymatgen
data_ErScB6Ir
_symmetry_space_group_name_H-M   'P 1'
_cell_length_a   3.53713900
_cell_length_b   8.99414700
_cell_length_c   11.35263100
_cell_angle_alpha   90.00000000
_cell_angle_beta   90.00000000
_cell_angle_gamma   90.00000000
_symmetry_Int_Tables_number   1
_chemical_formula_structural   ErScB6Ir
_chemical_formula_sum   'Er4 Sc4 B24 Ir4'
_cell_volume   361.16747267
_cell_formula_units_Z   4
loop_
 _symmetry_equiv_pos_site_id
 _symmetry_equiv_pos_as_xyz
  1  'x, y, z'
loop_
 _atom_site_type_symbol
 _atom_site_label
 _atom_site_symmetry_multiplicity
 _atom_site_fract_x
 _atom_site_fract_y
 _atom_site_fract_z
 _atom_site_occupancy
  Er  Er0  1  0.500000  0.319853  0.413959  1
  Er  Er1  1  0.500000  0.680147  0.586041  1
  Er  Er2  1  0.500000  0.180147  0.913959  1
  Er  Er3  1  0.500000  0.819853  0.086041  1
  Sc  Sc4  1  0.500000  0.445119  0.124166  1
  Sc  Sc5  1  0.500000  0.554881  0.875834  1
  Sc  Sc6  1  0.500000  0.054881  0.624166  1
  Sc  Sc7  1  0.500000  0.945119  0.375834  1
  B  B8  1  0.000000  0.100666  0.472689  1
  B  B9  1  0.000000  0.899334  0.527311  1
  B  B10  1  0.000000  0.399334  0.972689  1
  B  B11  1  0.000000  0.600666  0.027311  1
  B  B12  1  0.000000  0.130146  0.318543  1
  B  B13  1  0.000000  0.869854  0.681457  1
  B  B14  1  0.000000  0.369854  0.818543  1
  B  B15  1  0.000000  0.630146  0.181457  1
  B  B16  1  0.000000  0.054499  0.065241  1
  B  B17  1  0.000000  0.945501  0.934759  1
  B  B18  1  0.000000  0.445501  0.565241  1
  B  B19  1  0.000000  0.554499  0.434759  1
  B  B20  1  0.000000  0.481380  0.285326  1
  B  B21  1  0.000000  0.518620  0.714674  1
  B  B22  1  0.000000  0.018620  0.785326  1
  B  B23  1  0.000000  0.981380  0.214674  1
  B  B24  1  0.000000  0.253922  0.079676  1
  B  B25  1  0.000000  0.746078  0.920324  1
  B  B26  1  0.000000  0.246078  0.579676  1
  B  B27  1  0.000000  0.753922  0.420324  1
  B  B28  1  0.000000  0.295900  0.235646  1
  B  B29  1  0.000000  0.704100  0.764354  1
  B  B30  1  0.000000  0.204100  0.735646  1
  B  B31  1  0.000000  0.795900  0.264354  1
  Ir  Ir32  1  0.500000  0.141374  0.181169  1
  Ir  Ir33  1  0.500000  0.858626  0.818831  1
  Ir  Ir34  1  0.500000  0.358626  0.681169  1
  Ir  Ir35  1  0.500000  0.641374  0.318831  1
