# generated using pymatgen
data_LiPr3(Co4P3)2
_symmetry_space_group_name_H-M   'P 1'
_cell_length_a   3.79313200
_cell_length_b   10.72540300
_cell_length_c   12.45502100
_cell_angle_alpha   90.00000000
_cell_angle_beta   90.00000000
_cell_angle_gamma   90.00000000
_symmetry_Int_Tables_number   1
_chemical_formula_structural   LiPr3(Co4P3)2
_chemical_formula_sum   'Li2 Pr6 Co16 P12'
_cell_volume   506.70599187
_cell_formula_units_Z   2
loop_
 _symmetry_equiv_pos_site_id
 _symmetry_equiv_pos_as_xyz
  1  'x, y, z'
loop_
 _atom_site_type_symbol
 _atom_site_label
 _atom_site_symmetry_multiplicity
 _atom_site_fract_x
 _atom_site_fract_y
 _atom_site_fract_z
 _atom_site_occupancy
  Li  Li0  1  0.500000  0.500000  0.150487  1
  Li  Li1  1  0.000000  0.000000  0.849513  1
  Pr  Pr2  1  0.000000  0.500000  0.522929  1
  Pr  Pr3  1  0.500000  0.000000  0.477071  1
  Pr  Pr4  1  0.500000  0.818214  0.206735  1
  Pr  Pr5  1  0.500000  0.181786  0.206735  1
  Pr  Pr6  1  0.000000  0.681786  0.793265  1
  Pr  Pr7  1  0.000000  0.318214  0.793265  1
  Co  Co8  1  0.500000  0.500000  0.706093  1
  Co  Co9  1  0.000000  0.000000  0.293907  1
  Co  Co10  1  0.000000  0.500000  0.987722  1
  Co  Co11  1  0.500000  0.000000  0.012278  1
  Co  Co12  1  0.500000  0.333152  0.997286  1
  Co  Co13  1  0.500000  0.666848  0.997286  1
  Co  Co14  1  0.000000  0.166848  0.002714  1
  Co  Co15  1  0.000000  0.833152  0.002714  1
  Co  Co16  1  0.500000  0.297169  0.430959  1
  Co  Co17  1  0.500000  0.702831  0.430959  1
  Co  Co18  1  0.000000  0.202831  0.569041  1
  Co  Co19  1  0.000000  0.797169  0.569041  1
  Co  Co20  1  0.500000  0.881165  0.706096  1
  Co  Co21  1  0.500000  0.118835  0.706096  1
  Co  Co22  1  0.000000  0.618835  0.293904  1
  Co  Co23  1  0.000000  0.381165  0.293904  1
  P  P24  1  0.500000  0.500000  0.888521  1
  P  P25  1  0.000000  0.000000  0.111479  1
  P  P26  1  0.500000  0.500000  0.341319  1
  P  P27  1  0.000000  0.000000  0.658681  1
  P  P28  1  0.500000  0.303387  0.613169  1
  P  P29  1  0.500000  0.696613  0.613169  1
  P  P30  1  0.000000  0.196613  0.386831  1
  P  P31  1  0.000000  0.803387  0.386831  1
  P  P32  1  0.500000  0.844967  0.897752  1
  P  P33  1  0.500000  0.155033  0.897752  1
  P  P34  1  0.000000  0.655033  0.102248  1
  P  P35  1  0.000000  0.344967  0.102248  1
