# generated using pymatgen
data_Eu2HfVF12
_symmetry_space_group_name_H-M   'P 1'
_cell_length_a   6.55506700
_cell_length_b   6.55506691
_cell_length_c   5.30510300
_cell_angle_alpha   90.00000000
_cell_angle_beta   90.00000000
_cell_angle_gamma   107.95619364
_symmetry_Int_Tables_number   1
_chemical_formula_structural   Eu2HfVF12
_chemical_formula_sum   'Eu2 Hf1 V1 F12'
_cell_volume   216.85136385
_cell_formula_units_Z   1
loop_
 _symmetry_equiv_pos_site_id
 _symmetry_equiv_pos_as_xyz
  1  'x, y, z'
loop_
 _atom_site_type_symbol
 _atom_site_label
 _atom_site_symmetry_multiplicity
 _atom_site_fract_x
 _atom_site_fract_y
 _atom_site_fract_z
 _atom_site_occupancy
  Eu  Eu0  1  0.250000  0.750000  0.466408  1
  Eu  Eu1  1  0.750000  0.250000  0.533592  1
  Hf  Hf2  1  0.250000  0.250000  0.000000  1
  V  V3  1  0.750000  0.750000  0.000000  1
  F  F4  1  0.677344  0.930226  0.264201  1
  F  F5  1  0.311348  0.051641  0.724059  1
  F  F6  1  0.822656  0.569774  0.264201  1
  F  F7  1  0.569774  0.822656  0.735799  1
  F  F8  1  0.188652  0.448359  0.724059  1
  F  F9  1  0.448359  0.188652  0.275941  1
  F  F10  1  0.930226  0.677344  0.735799  1
  F  F11  1  0.051641  0.311348  0.275941  1
  F  F12  1  0.398848  0.572068  0.152569  1
  F  F13  1  0.572068  0.398848  0.847431  1
  F  F14  1  0.101152  0.927932  0.152569  1
  F  F15  1  0.927932  0.101152  0.847431  1
