# generated using pymatgen
data_AcAl2ZnCu
_symmetry_space_group_name_H-M   'P 1'
_cell_length_a   4.29142519
_cell_length_b   4.29142500
_cell_length_c   6.38040144
_cell_angle_alpha   70.34852836
_cell_angle_beta   70.34854288
_cell_angle_gamma   90.00000182
_symmetry_Int_Tables_number   1
_chemical_formula_structural   AcAl2ZnCu
_chemical_formula_sum   'Ac1 Al2 Zn1 Cu1'
_cell_volume   103.36360207
_cell_formula_units_Z   1
loop_
 _symmetry_equiv_pos_site_id
 _symmetry_equiv_pos_as_xyz
  1  'x, y, z'
loop_
 _atom_site_type_symbol
 _atom_site_label
 _atom_site_symmetry_multiplicity
 _atom_site_fract_x
 _atom_site_fract_y
 _atom_site_fract_z
 _atom_site_occupancy
  Ac  Ac0  1  0.002442  0.002442  0.995116  1
  Al  Al1  1  0.754841  0.254841  0.490318  1
  Al  Al2  1  0.254841  0.754841  0.490318  1
  Zn  Zn3  1  0.612197  0.612197  0.775607  1
  Cu  Cu4  1  0.375680  0.375680  0.248640  1
