# generated using pymatgen
data_Ba20Ge3Bi8As
_symmetry_space_group_name_H-M   'P 1'
_cell_length_a   9.12548722
_cell_length_b   10.58517800
_cell_length_c   14.39212300
_cell_angle_alpha   90.00000000
_cell_angle_beta   90.55246735
_cell_angle_gamma   90.00000000
_symmetry_Int_Tables_number   1
_chemical_formula_structural   Ba20Ge3Bi8As
_chemical_formula_sum   'Ba20 Ge3 Bi8 As1'
_cell_volume   1390.14114937
_cell_formula_units_Z   1
loop_
 _symmetry_equiv_pos_site_id
 _symmetry_equiv_pos_as_xyz
  1  'x, y, z'
loop_
 _atom_site_type_symbol
 _atom_site_label
 _atom_site_symmetry_multiplicity
 _atom_site_fract_x
 _atom_site_fract_y
 _atom_site_fract_z
 _atom_site_occupancy
  Ba  Ba0  1  0.820321  0.528451  0.076332  1
  Ba  Ba1  1  0.678560  0.971176  0.578530  1
  Ba  Ba2  1  0.179561  0.028734  0.921792  1
  Ba  Ba3  1  0.321275  0.471575  0.424004  1
  Ba  Ba4  1  0.179561  0.471266  0.921792  1
  Ba  Ba5  1  0.321275  0.028425  0.424004  1
  Ba  Ba6  1  0.820321  0.971549  0.076332  1
  Ba  Ba7  1  0.678560  0.528824  0.578530  1
  Ba  Ba8  1  0.173619  0.750000  0.215228  1
  Ba  Ba9  1  0.329504  0.750000  0.714419  1
  Ba  Ba10  1  0.826095  0.250000  0.783338  1
  Ba  Ba11  1  0.667485  0.250000  0.288607  1
  Ba  Ba12  1  0.443081  0.750000  0.001199  1
  Ba  Ba13  1  0.055562  0.750000  0.499606  1
  Ba  Ba14  1  0.554311  0.250000  0.999549  1
  Ba  Ba15  1  0.944913  0.250000  0.498913  1
  Ba  Ba16  1  0.647325  0.750000  0.302718  1
  Ba  Ba17  1  0.853426  0.750000  0.801980  1
  Ba  Ba18  1  0.352924  0.250000  0.698974  1
  Ba  Ba19  1  0.146355  0.250000  0.197206  1
  Ge  Ge20  1  0.438135  0.750000  0.489094  1
  Ge  Ge21  1  0.060586  0.750000  0.989760  1
  Ge  Ge22  1  0.562961  0.250000  0.512727  1
  Bi  Bi23  1  0.941631  0.504513  0.327347  1
  Bi  Bi24  1  0.561631  0.993644  0.832906  1
  Bi  Bi25  1  0.059047  0.006454  0.670478  1
  Bi  Bi26  1  0.440115  0.491615  0.167828  1
  Bi  Bi27  1  0.059047  0.493546  0.670478  1
  Bi  Bi28  1  0.440115  0.008385  0.167828  1
  Bi  Bi29  1  0.941631  0.995487  0.327347  1
  Bi  Bi30  1  0.561631  0.506356  0.832906  1
  As  As31  1  0.939438  0.250000  0.008247  1
