# generated using pymatgen
data_Tb11YEr8(CoSb2)4
_symmetry_space_group_name_H-M   'P 1'
_cell_length_a   7.86666963
_cell_length_b   8.77463600
_cell_length_c   12.22413359
_cell_angle_alpha   90.00000000
_cell_angle_beta   89.98097234
_cell_angle_gamma   90.00000000
_symmetry_Int_Tables_number   1
_chemical_formula_structural   Tb11YEr8(CoSb2)4
_chemical_formula_sum   'Tb11 Y1 Er8 Co4 Sb8'
_cell_volume   843.79720998
_cell_formula_units_Z   1
loop_
 _symmetry_equiv_pos_site_id
 _symmetry_equiv_pos_as_xyz
  1  'x, y, z'
loop_
 _atom_site_type_symbol
 _atom_site_label
 _atom_site_symmetry_multiplicity
 _atom_site_fract_x
 _atom_site_fract_y
 _atom_site_fract_z
 _atom_site_occupancy
  Tb  Tb0  1  0.653477  0.250000  0.296745  1
  Tb  Tb1  1  0.847046  0.250000  0.797161  1
  Tb  Tb2  1  0.346818  0.750000  0.703103  1
  Tb  Tb3  1  0.453363  0.750000  0.997668  1
  Tb  Tb4  1  0.953856  0.250000  0.501836  1
  Tb  Tb5  1  0.546192  0.250000  0.002571  1
  Tb  Tb6  1  0.046579  0.750000  0.497692  1
  Tb  Tb7  1  0.622175  0.750000  0.307409  1
  Tb  Tb8  1  0.122373  0.250000  0.192468  1
  Tb  Tb9  1  0.377584  0.250000  0.692633  1
  Tb  Tb10  1  0.877377  0.750000  0.807364  1
  Y  Y11  1  0.153269  0.750000  0.203234  1
  Er  Er12  1  0.822955  0.964180  0.065142  1
  Er  Er13  1  0.323056  0.035475  0.434975  1
  Er  Er14  1  0.176847  0.464767  0.935378  1
  Er  Er15  1  0.677030  0.535208  0.565052  1
  Er  Er16  1  0.176847  0.035233  0.935378  1
  Er  Er17  1  0.677030  0.964792  0.565052  1
  Er  Er18  1  0.822955  0.535820  0.065142  1
  Er  Er19  1  0.323056  0.464525  0.434975  1
  Co  Co20  1  0.436232  0.750000  0.491336  1
  Co  Co21  1  0.935783  0.250000  0.008982  1
  Co  Co22  1  0.564455  0.250000  0.508595  1
  Co  Co23  1  0.063773  0.750000  0.990368  1
  Sb  Sb24  1  0.929623  0.991751  0.326568  1
  Sb  Sb25  1  0.428302  0.007632  0.173273  1
  Sb  Sb26  1  0.071003  0.492130  0.672921  1
  Sb  Sb27  1  0.571009  0.507810  0.827110  1
  Sb  Sb28  1  0.071003  0.007870  0.672921  1
  Sb  Sb29  1  0.571009  0.992190  0.827110  1
  Sb  Sb30  1  0.929623  0.508249  0.326568  1
  Sb  Sb31  1  0.428302  0.492368  0.173273  1
