# generated using pymatgen
data_LiSc2Ni11As7
_symmetry_space_group_name_H-M   'P 1'
_cell_length_a   3.75351800
_cell_length_b   9.32867969
_cell_length_c   9.43088835
_cell_angle_alpha   120.13526303
_cell_angle_beta   90.00000000
_cell_angle_gamma   90.00000000
_symmetry_Int_Tables_number   1
_chemical_formula_structural   LiSc2Ni11As7
_chemical_formula_sum   'Li1 Sc2 Ni11 As7'
_cell_volume   285.59352764
_cell_formula_units_Z   1
loop_
 _symmetry_equiv_pos_site_id
 _symmetry_equiv_pos_as_xyz
  1  'x, y, z'
loop_
 _atom_site_type_symbol
 _atom_site_label
 _atom_site_symmetry_multiplicity
 _atom_site_fract_x
 _atom_site_fract_y
 _atom_site_fract_z
 _atom_site_occupancy
  Li  Li0  1  0.500000  0.116893  0.896646  1
  Sc  Sc1  1  0.500000  0.330819  0.665814  1
  Sc  Sc2  1  0.000000  0.670602  0.339018  1
  Ni  Ni3  1  0.000000  0.877405  0.722914  1
  Ni  Ni4  1  0.000000  0.284507  0.158583  1
  Ni  Ni5  1  0.000000  0.838285  0.124359  1
  Ni  Ni6  1  0.500000  0.949699  0.566007  1
  Ni  Ni7  1  0.500000  0.431605  0.383163  1
  Ni  Ni8  1  0.500000  0.615487  0.042209  1
  Ni  Ni9  1  0.000000  0.379340  0.945102  1
  Ni  Ni10  1  0.000000  0.055223  0.432351  1
  Ni  Ni11  1  0.000000  0.560692  0.618786  1
  Ni  Ni12  1  0.500000  0.095821  0.217976  1
  Ni  Ni13  1  0.500000  0.790306  0.884030  1
  As  As14  1  0.500000  0.708071  0.591430  1
  As  As15  1  0.500000  0.422543  0.126351  1
  As  As16  1  0.500000  0.877902  0.292755  1
  As  As17  1  0.000000  0.998090  0.005000  1
  As  As18  1  0.000000  0.122060  0.704887  1
  As  As19  1  0.000000  0.287002  0.408151  1
  As  As20  1  0.000000  0.587647  0.874467  1
