# generated using pymatgen
data_Lu3Se4
_symmetry_space_group_name_H-M   'P 1'
_cell_length_a   3.98411900
_cell_length_b   6.86496535
_cell_length_c   6.86856538
_cell_angle_alpha   71.75134521
_cell_angle_beta   90.00000000
_cell_angle_gamma   90.00000000
_symmetry_Int_Tables_number   1
_chemical_formula_structural   Lu3Se4
_chemical_formula_sum   'Lu3 Se4'
_cell_volume   178.41283250
_cell_formula_units_Z   1
loop_
 _symmetry_equiv_pos_site_id
 _symmetry_equiv_pos_as_xyz
  1  'x, y, z'
loop_
 _atom_site_type_symbol
 _atom_site_label
 _atom_site_symmetry_multiplicity
 _atom_site_fract_x
 _atom_site_fract_y
 _atom_site_fract_z
 _atom_site_occupancy
  Lu  Lu0  1  0.000000  0.500000  0.500000  1
  Lu  Lu1  1  0.000000  0.000000  0.000000  1
  Lu  Lu2  1  0.500000  0.500000  0.000000  1
  Se  Se3  1  0.500000  0.755436  0.254976  1
  Se  Se4  1  0.000000  0.253710  0.246011  1
  Se  Se5  1  0.500000  0.244564  0.745024  1
  Se  Se6  1  0.000000  0.746290  0.753989  1
