# generated using pymatgen
data_Li2Nd3ZnPd2Rh
_symmetry_space_group_name_H-M   'P 1'
_cell_length_a   7.36453069
_cell_length_b   7.37871510
_cell_length_c   4.08027700
_cell_angle_alpha   90.00000000
_cell_angle_beta   90.00000000
_cell_angle_gamma   119.59522127
_symmetry_Int_Tables_number   1
_chemical_formula_structural   Li2Nd3ZnPd2Rh
_chemical_formula_sum   'Li2 Nd3 Zn1 Pd2 Rh1'
_cell_volume   192.79825318
_cell_formula_units_Z   1
loop_
 _symmetry_equiv_pos_site_id
 _symmetry_equiv_pos_as_xyz
  1  'x, y, z'
loop_
 _atom_site_type_symbol
 _atom_site_label
 _atom_site_symmetry_multiplicity
 _atom_site_fract_x
 _atom_site_fract_y
 _atom_site_fract_z
 _atom_site_occupancy
  Li  Li0  1  0.767751  0.767506  0.500000  1
  Li  Li1  1  0.231709  0.998794  0.500000  1
  Nd  Nd2  1  0.411035  0.405698  0.000000  1
  Nd  Nd3  1  0.595103  0.012114  0.000000  1
  Nd  Nd4  1  0.991698  0.576542  0.000000  1
  Zn  Zn5  1  0.997207  0.235619  0.500000  1
  Pd  Pd6  1  0.001061  0.005794  0.000000  1
  Pd  Pd7  1  0.332850  0.664675  0.500000  1
  Rh  Rh8  1  0.671586  0.333258  0.500000  1
