# generated using pymatgen
data_Tm2ZrReF14
_symmetry_space_group_name_H-M   'P 1'
_cell_length_a   5.65798004
_cell_length_b   5.99698592
_cell_length_c   8.18670938
_cell_angle_alpha   102.61706810
_cell_angle_beta   90.01859316
_cell_angle_gamma   90.06152774
_symmetry_Int_Tables_number   1
_chemical_formula_structural   Tm2ZrReF14
_chemical_formula_sum   'Tm2 Zr1 Re1 F14'
_cell_volume   271.07366688
_cell_formula_units_Z   1
loop_
 _symmetry_equiv_pos_site_id
 _symmetry_equiv_pos_as_xyz
  1  'x, y, z'
loop_
 _atom_site_type_symbol
 _atom_site_label
 _atom_site_symmetry_multiplicity
 _atom_site_fract_x
 _atom_site_fract_y
 _atom_site_fract_z
 _atom_site_occupancy
  Tm  Tm0  1  0.698642  0.653037  0.683631  1
  Tm  Tm1  1  0.197115  0.344291  0.315881  1
  Zr  Zr2  1  0.207661  0.188741  0.776445  1
  Re  Re3  1  0.708298  0.813233  0.225882  1
  F  F4  1  0.895974  0.457970  0.478708  1
  F  F5  1  0.395363  0.541276  0.520041  1
  F  F6  1  0.431630  0.919851  0.768189  1
  F  F7  1  0.925306  0.074490  0.231822  1
  F  F8  1  0.943693  0.950901  0.758212  1
  F  F9  1  0.445063  0.038153  0.238419  1
  F  F10  1  0.991515  0.463158  0.789245  1
  F  F11  1  0.494058  0.547174  0.211519  1
  F  F12  1  0.701673  0.759818  0.979382  1
  F  F13  1  0.200094  0.246501  0.029619  1
  F  F14  1  0.709026  0.868386  0.473644  1
  F  F15  1  0.205594  0.136464  0.522129  1
  F  F16  1  0.508458  0.381410  0.781497  1
  F  F17  1  0.993551  0.615147  0.215735  1
