# generated using pymatgen
data_Zr3Nb3SiTc6Ge5
_symmetry_space_group_name_H-M   'P 1'
_cell_length_a   3.40641200
_cell_length_b   7.06143489
_cell_length_c   12.12227676
_cell_angle_alpha   89.58715181
_cell_angle_beta   90.00000000
_cell_angle_gamma   90.00000000
_symmetry_Int_Tables_number   1
_chemical_formula_structural   Zr3Nb3SiTc6Ge5
_chemical_formula_sum   'Zr3 Nb3 Si1 Tc6 Ge5'
_cell_volume   291.58357321
_cell_formula_units_Z   1
loop_
 _symmetry_equiv_pos_site_id
 _symmetry_equiv_pos_as_xyz
  1  'x, y, z'
loop_
 _atom_site_type_symbol
 _atom_site_label
 _atom_site_symmetry_multiplicity
 _atom_site_fract_x
 _atom_site_fract_y
 _atom_site_fract_z
 _atom_site_occupancy
  Zr  Zr0  1  0.500000  0.298523  0.301296  1
  Zr  Zr1  1  0.500000  0.297853  0.698574  1
  Zr  Zr2  1  0.500000  0.799226  0.201722  1
  Nb  Nb3  1  0.500000  0.405352  0.000129  1
  Nb  Nb4  1  0.500000  0.897788  0.501866  1
  Nb  Nb5  1  0.500000  0.795575  0.799132  1
  Si  Si6  1  0.500000  0.502646  0.499464  1
  Tc  Tc7  1  0.000000  0.745196  0.996464  1
  Tc  Tc8  1  0.000000  0.249644  0.501859  1
  Tc  Tc9  1  0.000000  0.626498  0.625081  1
  Tc  Tc10  1  0.000000  0.130375  0.126335  1
  Tc  Tc11  1  0.000000  0.129858  0.870760  1
  Tc  Tc12  1  0.000000  0.626527  0.376144  1
  Ge  Ge13  1  0.000000  0.992516  0.666937  1
  Ge  Ge14  1  0.000000  0.498961  0.163063  1
  Ge  Ge15  1  0.000000  0.502187  0.834124  1
  Ge  Ge16  1  0.000000  0.997296  0.338909  1
  Ge  Ge17  1  0.500000  0.004177  0.998141  1
