# generated using pymatgen
data_NdEr2TeAs2
_symmetry_space_group_name_H-M   'P 1'
_cell_length_a   4.21230100
_cell_length_b   10.49288634
_cell_length_c   7.26175104
_cell_angle_alpha   89.69653993
_cell_angle_beta   90.00000000
_cell_angle_gamma   90.00000000
_symmetry_Int_Tables_number   1
_chemical_formula_structural   NdEr2TeAs2
_chemical_formula_sum   'Nd2 Er4 Te2 As4'
_cell_volume   320.95905319
_cell_formula_units_Z   2
loop_
 _symmetry_equiv_pos_site_id
 _symmetry_equiv_pos_as_xyz
  1  'x, y, z'
loop_
 _atom_site_type_symbol
 _atom_site_label
 _atom_site_symmetry_multiplicity
 _atom_site_fract_x
 _atom_site_fract_y
 _atom_site_fract_z
 _atom_site_occupancy
  Nd  Nd0  1  0.250000  0.499589  0.249344  1
  Nd  Nd1  1  0.750000  0.500411  0.750656  1
  Er  Er2  1  0.250000  0.809003  0.917191  1
  Er  Er3  1  0.750000  0.190997  0.082809  1
  Er  Er4  1  0.750000  0.808978  0.417808  1
  Er  Er5  1  0.250000  0.191022  0.582192  1
  Te  Te6  1  0.750000  0.000296  0.750137  1
  Te  Te7  1  0.250000  0.999704  0.249863  1
  As  As8  1  0.250000  0.670906  0.583412  1
  As  As9  1  0.750000  0.329094  0.416588  1
  As  As10  1  0.750000  0.671283  0.084043  1
  As  As11  1  0.250000  0.328717  0.915957  1
