# generated using pymatgen
data_YbLu5(Si3Os)8
_symmetry_space_group_name_H-M   'P 1'
_cell_length_a   10.10366687
_cell_length_b   10.10366658
_cell_length_c   8.12766431
_cell_angle_alpha   90.05948367
_cell_angle_beta   89.94051897
_cell_angle_gamma   132.54344547
_symmetry_Int_Tables_number   1
_chemical_formula_structural   YbLu5(Si3Os)8
_chemical_formula_sum   'Yb1 Lu5 Si24 Os8'
_cell_volume   611.29719103
_cell_formula_units_Z   1
loop_
 _symmetry_equiv_pos_site_id
 _symmetry_equiv_pos_as_xyz
  1  'x, y, z'
loop_
 _atom_site_type_symbol
 _atom_site_label
 _atom_site_symmetry_multiplicity
 _atom_site_fract_x
 _atom_site_fract_y
 _atom_site_fract_z
 _atom_site_occupancy
  Yb  Yb0  1  0.001463  0.501463  0.750000  1
  Lu  Lu1  1  0.501171  0.001171  0.750000  1
  Lu  Lu2  1  0.999016  0.499016  0.250000  1
  Lu  Lu3  1  0.500388  0.000388  0.250000  1
  Lu  Lu4  1  0.000178  0.000231  0.999794  1
  Lu  Lu5  1  0.500231  0.500178  0.500206  1
  Si  Si6  1  0.795635  0.204898  0.500860  1
  Si  Si7  1  0.704898  0.295635  0.999140  1
  Si  Si8  1  0.204652  0.795763  0.499566  1
  Si  Si9  1  0.295763  0.704652  0.000434  1
  Si  Si10  1  0.668345  0.667113  0.166602  1
  Si  Si11  1  0.167113  0.168345  0.333398  1
  Si  Si12  1  0.832112  0.833776  0.667021  1
  Si  Si13  1  0.333776  0.332112  0.832979  1
  Si  Si14  1  0.845295  0.611453  0.997573  1
  Si  Si15  1  0.111453  0.345295  0.502427  1
  Si  Si16  1  0.655029  0.888756  0.495412  1
  Si  Si17  1  0.388756  0.155029  0.004588  1
  Si  Si18  1  0.153316  0.387924  0.006553  1
  Si  Si19  1  0.887924  0.653316  0.493447  1
  Si  Si20  1  0.125201  0.889852  0.729147  1
  Si  Si21  1  0.389852  0.625201  0.770853  1
  Si  Si22  1  0.377296  0.611432  0.228212  1
  Si  Si23  1  0.111432  0.877296  0.271788  1
  Si  Si24  1  0.877695  0.111839  0.272636  1
  Si  Si25  1  0.611839  0.377695  0.227364  1
  Si  Si26  1  0.620561  0.385316  0.771218  1
  Si  Si27  1  0.885316  0.120561  0.728782  1
  Si  Si28  1  0.611674  0.844895  0.994316  1
  Si  Si29  1  0.344895  0.111674  0.505684  1
  Os  Os30  1  0.627430  0.627488  0.871363  1
  Os  Os31  1  0.127488  0.127430  0.628637  1
  Os  Os32  1  0.372003  0.372921  0.127875  1
  Os  Os33  1  0.872921  0.872003  0.372125  1
  Os  Os34  1  0.170813  0.831184  0.001816  1
  Os  Os35  1  0.331184  0.670813  0.498184  1
  Os  Os36  1  0.828437  0.167449  0.002504  1
  Os  Os37  1  0.667449  0.328437  0.497496  1
