# generated using pymatgen
data_Tb4U4Re(TcB8)3
_symmetry_space_group_name_H-M   'P 1'
_cell_length_a   3.64486700
_cell_length_b   9.31413672
_cell_length_c   11.42943218
_cell_angle_alpha   90.01232892
_cell_angle_beta   90.00000000
_cell_angle_gamma   90.00000000
_symmetry_Int_Tables_number   1
_chemical_formula_structural   Tb4U4Re(TcB8)3
_chemical_formula_sum   'Tb4 U4 Re1 Tc3 B24'
_cell_volume   388.01537925
_cell_formula_units_Z   1
loop_
 _symmetry_equiv_pos_site_id
 _symmetry_equiv_pos_as_xyz
  1  'x, y, z'
loop_
 _atom_site_type_symbol
 _atom_site_label
 _atom_site_symmetry_multiplicity
 _atom_site_fract_x
 _atom_site_fract_y
 _atom_site_fract_z
 _atom_site_occupancy
  Tb  Tb0  1  0.000000  0.337148  0.407598  1
  Tb  Tb1  1  0.000000  0.663083  0.592440  1
  Tb  Tb2  1  0.000000  0.836998  0.092439  1
  Tb  Tb3  1  0.000000  0.163125  0.907582  1
  U  U4  1  0.000000  0.956425  0.396111  1
  U  U5  1  0.000000  0.043612  0.603582  1
  U  U6  1  0.000000  0.456337  0.103818  1
  U  U7  1  0.000000  0.543348  0.896413  1
  Re  Re8  1  0.000000  0.854290  0.818291  1
  Tc  Tc9  1  0.000000  0.645808  0.318365  1
  Tc  Tc10  1  0.000000  0.354246  0.681648  1
  Tc  Tc11  1  0.000000  0.145706  0.181577  1
  B  B12  1  0.500000  0.552336  0.430617  1
  B  B13  1  0.500000  0.447695  0.569412  1
  B  B14  1  0.500000  0.052323  0.069451  1
  B  B15  1  0.500000  0.947812  0.930771  1
  B  B16  1  0.500000  0.743084  0.422854  1
  B  B17  1  0.500000  0.256987  0.577058  1
  B  B18  1  0.500000  0.243040  0.077149  1
  B  B19  1  0.500000  0.756736  0.923019  1
  B  B20  1  0.500000  0.801779  0.275305  1
  B  B21  1  0.500000  0.198230  0.724626  1
  B  B22  1  0.500000  0.301726  0.224751  1
  B  B23  1  0.500000  0.698176  0.775300  1
  B  B24  1  0.500000  0.643865  0.188763  1
  B  B25  1  0.500000  0.356021  0.811343  1
  B  B26  1  0.500000  0.143894  0.311254  1
  B  B27  1  0.500000  0.856123  0.688556  1
  B  B28  1  0.500000  0.989409  0.219717  1
  B  B29  1  0.500000  0.010760  0.780216  1
  B  B30  1  0.500000  0.489385  0.280376  1
  B  B31  1  0.500000  0.510463  0.719780  1
  B  B32  1  0.500000  0.639580  0.038915  1
  B  B33  1  0.500000  0.360048  0.961263  1
  B  B34  1  0.500000  0.140045  0.461059  1
  B  B35  1  0.500000  0.860351  0.538586  1
