# generated using pymatgen
data_Ni3Ru2PtCl18
_symmetry_space_group_name_H-M   'P 1'
_cell_length_a   6.15987637
_cell_length_b   6.15968027
_cell_length_c   19.92049369
_cell_angle_alpha   90.17624245
_cell_angle_beta   89.99032828
_cell_angle_gamma   119.99539185
_symmetry_Int_Tables_number   1
_chemical_formula_structural   Ni3Ru2PtCl18
_chemical_formula_sum   'Ni3 Ru2 Pt1 Cl18'
_cell_volume   654.60370975
_cell_formula_units_Z   1
loop_
 _symmetry_equiv_pos_site_id
 _symmetry_equiv_pos_as_xyz
  1  'x, y, z'
loop_
 _atom_site_type_symbol
 _atom_site_label
 _atom_site_symmetry_multiplicity
 _atom_site_fract_x
 _atom_site_fract_y
 _atom_site_fract_z
 _atom_site_occupancy
  Ni  Ni0  1  0.556345  0.111129  0.166308  1
  Ni  Ni1  1  0.889630  0.444476  0.499860  1
  Ni  Ni2  1  0.556487  0.444700  0.833690  1
  Ru  Ru3  1  0.555355  0.777677  0.500040  1
  Ru  Ru4  1  0.221958  0.777744  0.833387  1
  Pt  Pt5  1  0.222123  0.444502  0.166551  1
  Cl  Cl6  1  0.516686  0.744393  0.765959  1
  Cl  Cl7  1  0.894520  0.745127  0.901016  1
  Cl  Cl8  1  0.516923  0.105830  0.900994  1
  Cl  Cl9  1  0.849972  0.744249  0.432492  1
  Cl  Cl10  1  0.227466  0.482578  0.432490  1
  Cl  Cl11  1  0.896255  0.139161  0.100028  1
  Cl  Cl12  1  0.527517  0.770821  0.233054  1
  Cl  Cl13  1  0.893856  0.482756  0.765822  1
  Cl  Cl14  1  0.254967  0.483109  0.900836  1
  Cl  Cl15  1  0.588715  0.483208  0.567512  1
  Cl  Cl16  1  0.850418  0.105972  0.567591  1
  Cl  Cl17  1  0.227900  0.745150  0.567548  1
  Cl  Cl18  1  0.243736  0.139867  0.233017  1
  Cl  Cl19  1  0.588017  0.105091  0.432534  1
  Cl  Cl20  1  0.896525  0.423871  0.233072  1
  Cl  Cl21  1  0.527074  0.423276  0.100110  1
  Cl  Cl22  1  0.254678  0.105317  0.765934  1
  Cl  Cl23  1  0.242880  0.769991  0.100158  1
