# generated using pymatgen
data_Ca6SmPbN4
_symmetry_space_group_name_H-M   'P 1'
_cell_length_a   3.64589100
_cell_length_b   11.91210300
_cell_length_c   11.44585400
_cell_angle_alpha   90.00000000
_cell_angle_beta   90.00000000
_cell_angle_gamma   90.00000000
_symmetry_Int_Tables_number   1
_chemical_formula_structural   Ca6SmPbN4
_chemical_formula_sum   'Ca12 Sm2 Pb2 N8'
_cell_volume   497.09606168
_cell_formula_units_Z   2
loop_
 _symmetry_equiv_pos_site_id
 _symmetry_equiv_pos_as_xyz
  1  'x, y, z'
loop_
 _atom_site_type_symbol
 _atom_site_label
 _atom_site_symmetry_multiplicity
 _atom_site_fract_x
 _atom_site_fract_y
 _atom_site_fract_z
 _atom_site_occupancy
  Ca  Ca0  1  0.500572  0.668825  0.240646  1
  Ca  Ca1  1  0.500572  0.331175  0.759354  1
  Ca  Ca2  1  0.499428  0.168825  0.259354  1
  Ca  Ca3  1  0.499428  0.831175  0.740646  1
  Ca  Ca4  1  0.998426  0.926951  0.254021  1
  Ca  Ca5  1  0.998426  0.073049  0.745979  1
  Ca  Ca6  1  0.001574  0.426951  0.245979  1
  Ca  Ca7  1  0.001574  0.573049  0.754021  1
  Ca  Ca8  1  0.002543  0.756171  0.477755  1
  Ca  Ca9  1  0.002543  0.243829  0.522245  1
  Ca  Ca10  1  0.997457  0.256171  0.022245  1
  Ca  Ca11  1  0.997457  0.743829  0.977755  1
  Sm  Sm12  1  0.498614  0.500000  0.000000  1
  Sm  Sm13  1  0.501386  0.000000  0.500000  1
  Pb  Pb14  1  0.525362  0.500000  0.500000  1
  Pb  Pb15  1  0.474638  0.000000  0.000000  1
  N  N16  1  0.000653  0.598050  0.123884  1
  N  N17  1  0.000653  0.401950  0.876116  1
  N  N18  1  0.999347  0.098050  0.376116  1
  N  N19  1  0.999347  0.901950  0.623884  1
  N  N20  1  0.499433  0.836952  0.359512  1
  N  N21  1  0.499433  0.163048  0.640488  1
  N  N22  1  0.500567  0.336952  0.140488  1
  N  N23  1  0.500567  0.663048  0.859512  1
