# generated using pymatgen
data_Sm7Sc(Si4W3)4
_symmetry_space_group_name_H-M   'P 1'
_cell_length_a   6.85158076
_cell_length_b   6.98010963
_cell_length_c   12.98598700
_cell_angle_alpha   90.17322724
_cell_angle_beta   89.94508048
_cell_angle_gamma   90.09103831
_symmetry_Int_Tables_number   1
_chemical_formula_structural   Sm7Sc(Si4W3)4
_chemical_formula_sum   'Sm7 Sc1 Si16 W12'
_cell_volume   621.04812861
_cell_formula_units_Z   1
loop_
 _symmetry_equiv_pos_site_id
 _symmetry_equiv_pos_as_xyz
  1  'x, y, z'
loop_
 _atom_site_type_symbol
 _atom_site_label
 _atom_site_symmetry_multiplicity
 _atom_site_fract_x
 _atom_site_fract_y
 _atom_site_fract_z
 _atom_site_occupancy
  Sm  Sm0  1  0.495028  0.665538  0.593334  1
  Sm  Sm1  1  0.995843  0.834167  0.906907  1
  Sm  Sm2  1  0.504715  0.334821  0.093408  1
  Sm  Sm3  1  0.003561  0.166322  0.408574  1
  Sm  Sm4  1  0.503604  0.333860  0.408322  1
  Sm  Sm5  1  0.004929  0.166116  0.093451  1
  Sm  Sm6  1  0.495089  0.666331  0.904378  1
  Sc  Sc7  1  0.992212  0.830731  0.596052  1
  Si  Si8  1  0.661527  0.955171  0.454729  1
  Si  Si9  1  0.159412  0.545214  0.047684  1
  Si  Si10  1  0.342557  0.045771  0.950536  1
  Si  Si11  1  0.843368  0.461568  0.548657  1
  Si  Si12  1  0.332125  0.039432  0.548722  1
  Si  Si13  1  0.840275  0.454555  0.951701  1
  Si  Si14  1  0.659135  0.954988  0.047857  1
  Si  Si15  1  0.157724  0.549641  0.454898  1
  Si  Si16  1  0.462859  0.363896  0.749591  1
  Si  Si17  1  0.964592  0.127040  0.746295  1
  Si  Si18  1  0.537822  0.634340  0.250936  1
  Si  Si19  1  0.037755  0.867607  0.250658  1
  Si  Si20  1  0.700619  0.868429  0.747163  1
  Si  Si21  1  0.190219  0.632998  0.746674  1
  Si  Si22  1  0.305158  0.130173  0.250748  1
  Si  Si23  1  0.805603  0.372493  0.251197  1
  W  W24  1  0.668433  0.160890  0.625509  1
  W  W25  1  0.164714  0.335469  0.871424  1
  W  W26  1  0.333573  0.837648  0.126324  1
  W  W27  1  0.833852  0.666168  0.375893  1
  W  W28  1  0.332794  0.837436  0.374267  1
  W  W29  1  0.833358  0.664621  0.127142  1
  W  W30  1  0.670553  0.161512  0.872379  1
  W  W31  1  0.167387  0.336379  0.625795  1
  W  W32  1  0.834489  0.496500  0.748788  1
  W  W33  1  0.333326  0.999765  0.747930  1
  W  W34  1  0.165917  0.505100  0.250712  1
  W  W35  1  0.665875  0.997308  0.251365  1
