# generated using pymatgen
data_Tm16Al4Ru3Rh
_symmetry_space_group_name_H-M   'P 1'
_cell_length_a   9.40056603
_cell_length_b   9.36935380
_cell_length_c   9.40056600
_cell_angle_alpha   59.88973990
_cell_angle_beta   60.00000010
_cell_angle_gamma   59.88973782
_symmetry_Int_Tables_number   1
_chemical_formula_structural   Tm16Al4Ru3Rh
_chemical_formula_sum   'Tm16 Al4 Ru3 Rh1'
_cell_volume   584.48967076
_cell_formula_units_Z   1
loop_
 _symmetry_equiv_pos_site_id
 _symmetry_equiv_pos_as_xyz
  1  'x, y, z'
loop_
 _atom_site_type_symbol
 _atom_site_label
 _atom_site_symmetry_multiplicity
 _atom_site_fract_x
 _atom_site_fract_y
 _atom_site_fract_z
 _atom_site_occupancy
  Tm  Tm0  1  0.060143  0.061428  0.439214  1
  Tm  Tm1  1  0.439214  0.061428  0.439214  1
  Tm  Tm2  1  0.061799  0.439920  0.061799  1
  Tm  Tm3  1  0.056282  0.648673  0.647523  1
  Tm  Tm4  1  0.436483  0.439920  0.061799  1
  Tm  Tm5  1  0.648348  0.054959  0.648348  1
  Tm  Tm6  1  0.193498  0.807024  0.193498  1
  Tm  Tm7  1  0.195293  0.191891  0.806408  1
  Tm  Tm8  1  0.805979  0.807024  0.193498  1
  Tm  Tm9  1  0.439214  0.061428  0.060143  1
  Tm  Tm10  1  0.806408  0.191891  0.195293  1
  Tm  Tm11  1  0.061799  0.439920  0.436483  1
  Tm  Tm12  1  0.806408  0.191891  0.806408  1
  Tm  Tm13  1  0.193498  0.807024  0.805979  1
  Tm  Tm14  1  0.647523  0.648673  0.056282  1
  Tm  Tm15  1  0.647523  0.648673  0.647523  1
  Al  Al16  1  0.422302  0.423048  0.422302  1
  Al  Al17  1  0.732348  0.423048  0.422302  1
  Al  Al18  1  0.422513  0.732462  0.422513  1
  Al  Al19  1  0.422302  0.423048  0.732348  1
  Ru  Ru20  1  0.858986  0.857281  0.424745  1
  Ru  Ru21  1  0.858986  0.857281  0.858986  1
  Ru  Ru22  1  0.424745  0.857281  0.858986  1
  Rh  Rh23  1  0.858405  0.424783  0.858405  1
