# generated using pymatgen
data_Tm16InHg5Pt2
_symmetry_space_group_name_H-M   'P 1'
_cell_length_a   10.14299934
_cell_length_b   10.14299877
_cell_length_c   7.04032704
_cell_angle_alpha   89.77057459
_cell_angle_beta   90.22942306
_cell_angle_gamma   119.99460943
_symmetry_Int_Tables_number   1
_chemical_formula_structural   Tm16InHg5Pt2
_chemical_formula_sum   'Tm16 In1 Hg5 Pt2'
_cell_volume   627.29984533
_cell_formula_units_Z   1
loop_
 _symmetry_equiv_pos_site_id
 _symmetry_equiv_pos_as_xyz
  1  'x, y, z'
loop_
 _atom_site_type_symbol
 _atom_site_label
 _atom_site_symmetry_multiplicity
 _atom_site_fract_x
 _atom_site_fract_y
 _atom_site_fract_z
 _atom_site_occupancy
  Tm  Tm0  1  0.529573  0.067772  0.519744  1
  Tm  Tm1  1  0.932228  0.470427  0.519744  1
  Tm  Tm2  1  0.535324  0.464676  0.524045  1
  Tm  Tm3  1  0.470654  0.932047  0.020728  1
  Tm  Tm4  1  0.067953  0.529346  0.020728  1
  Tm  Tm5  1  0.463258  0.536742  0.018576  1
  Tm  Tm6  1  0.169152  0.341362  0.709564  1
  Tm  Tm7  1  0.658638  0.830848  0.709564  1
  Tm  Tm8  1  0.171414  0.828586  0.726478  1
  Tm  Tm9  1  0.820951  0.653500  0.206718  1
  Tm  Tm10  1  0.346500  0.179049  0.206718  1
  Tm  Tm11  1  0.829364  0.170636  0.217061  1
  Tm  Tm12  1  0.668510  0.331490  0.892565  1
  Tm  Tm13  1  0.335841  0.664159  0.393040  1
  Tm  Tm14  1  0.001695  0.998305  0.489774  1
  Tm  Tm15  1  0.000488  0.999512  0.990005  1
  In  In16  1  0.164342  0.835658  0.267073  1
  Hg  Hg17  1  0.834198  0.668297  0.771559  1
  Hg  Hg18  1  0.331703  0.165802  0.771559  1
  Hg  Hg19  1  0.833590  0.166410  0.772403  1
  Hg  Hg20  1  0.166313  0.331863  0.272926  1
  Hg  Hg21  1  0.668137  0.833687  0.272926  1
  Pt  Pt22  1  0.667151  0.332849  0.282587  1
  Pt  Pt23  1  0.333026  0.666974  0.781922  1
