# generated using pymatgen
data_LaHo7(Si4W3)4
_symmetry_space_group_name_H-M   'P 1'
_cell_length_a   6.79414976
_cell_length_b   6.95218271
_cell_length_c   12.92807286
_cell_angle_alpha   89.81711166
_cell_angle_beta   90.03905505
_cell_angle_gamma   89.91209262
_symmetry_Int_Tables_number   1
_chemical_formula_structural   LaHo7(Si4W3)4
_chemical_formula_sum   'La1 Ho7 Si16 W12'
_cell_volume   610.64282391
_cell_formula_units_Z   1
loop_
 _symmetry_equiv_pos_site_id
 _symmetry_equiv_pos_as_xyz
  1  'x, y, z'
loop_
 _atom_site_type_symbol
 _atom_site_label
 _atom_site_symmetry_multiplicity
 _atom_site_fract_x
 _atom_site_fract_y
 _atom_site_fract_z
 _atom_site_occupancy
  La  La0  1  0.997872  0.834861  0.591659  1
  Ho  Ho1  1  0.495674  0.667871  0.593654  1
  Ho  Ho2  1  0.995528  0.832210  0.906576  1
  Ho  Ho3  1  0.504417  0.331853  0.093381  1
  Ho  Ho4  1  0.005232  0.166236  0.405191  1
  Ho  Ho5  1  0.505106  0.332571  0.404987  1
  Ho  Ho6  1  0.004460  0.167750  0.093459  1
  Ho  Ho7  1  0.495618  0.667989  0.908428  1
  Si  Si8  1  0.658525  0.957584  0.450537  1
  Si  Si9  1  0.161416  0.542411  0.047222  1
  Si  Si10  1  0.336989  0.041904  0.954258  1
  Si  Si11  1  0.836681  0.452701  0.546475  1
  Si  Si12  1  0.344798  0.046428  0.546121  1
  Si  Si13  1  0.838688  0.458424  0.953483  1
  Si  Si14  1  0.662118  0.958065  0.046873  1
  Si  Si15  1  0.162396  0.538743  0.450541  1
  Si  Si16  1  0.464189  0.371886  0.750750  1
  Si  Si17  1  0.963017  0.134316  0.752654  1
  Si  Si18  1  0.535292  0.628796  0.249075  1
  Si  Si19  1  0.035746  0.868834  0.249551  1
  Si  Si20  1  0.692897  0.868749  0.752140  1
  Si  Si21  1  0.199666  0.630933  0.752484  1
  Si  Si22  1  0.303429  0.132356  0.249239  1
  Si  Si23  1  0.803006  0.365207  0.248963  1
  W  W24  1  0.666171  0.165730  0.626728  1
  W  W25  1  0.169666  0.337431  0.876370  1
  W  W26  1  0.331643  0.835896  0.125666  1
  W  W27  1  0.830423  0.660870  0.372459  1
  W  W28  1  0.332966  0.835821  0.373362  1
  W  W29  1  0.831254  0.662522  0.124990  1
  W  W30  1  0.666111  0.165248  0.875515  1
  W  W31  1  0.168745  0.336967  0.626612  1
  W  W32  1  0.833516  0.499573  0.751006  1
  W  W33  1  0.334682  0.003367  0.751847  1
  W  W34  1  0.165921  0.498827  0.249230  1
  W  W35  1  0.666139  0.999070  0.248512  1
