# generated using pymatgen
data_Sc10InSn4Bi
_symmetry_space_group_name_H-M   'P 1'
_cell_length_a   8.50930415
_cell_length_b   8.49530196
_cell_length_c   6.12399900
_cell_angle_alpha   90.00000000
_cell_angle_beta   90.00000000
_cell_angle_gamma   120.07605964
_symmetry_Int_Tables_number   1
_chemical_formula_structural   Sc10InSn4Bi
_chemical_formula_sum   'Sc10 In1 Sn4 Bi1'
_cell_volume   383.09390674
_cell_formula_units_Z   1
loop_
 _symmetry_equiv_pos_site_id
 _symmetry_equiv_pos_as_xyz
  1  'x, y, z'
loop_
 _atom_site_type_symbol
 _atom_site_label
 _atom_site_symmetry_multiplicity
 _atom_site_fract_x
 _atom_site_fract_y
 _atom_site_fract_z
 _atom_site_occupancy
  Sc  Sc0  1  0.332153  0.662162  0.498134  1
  Sc  Sc1  1  0.670434  0.337640  0.001822  1
  Sc  Sc2  1  0.670434  0.337640  0.498178  1
  Sc  Sc3  1  0.332153  0.662162  0.001866  1
  Sc  Sc4  1  0.767938  0.000835  0.750000  1
  Sc  Sc5  1  0.763568  0.762614  0.250000  1
  Sc  Sc6  1  0.235313  0.999865  0.250000  1
  Sc  Sc7  1  0.234120  0.241244  0.750000  1
  Sc  Sc8  1  0.993674  0.759144  0.750000  1
  Sc  Sc9  1  0.000822  0.237057  0.250000  1
  In  In10  1  0.999303  0.395575  0.750000  1
  Sn  Sn11  1  0.394491  0.392552  0.250000  1
  Sn  Sn12  1  0.001498  0.606700  0.250000  1
  Sn  Sn13  1  0.604803  0.605168  0.750000  1
  Sn  Sn14  1  0.607607  0.999763  0.250000  1
  Bi  Bi15  1  0.391691  0.999877  0.750000  1
