# generated using pymatgen
data_HoHf3F15
_symmetry_space_group_name_H-M   'P 1'
_cell_length_a   7.34205976
_cell_length_b   7.34205897
_cell_length_c   7.34205945
_cell_angle_alpha   112.79343662
_cell_angle_beta   112.79344029
_cell_angle_gamma   112.79344113
_symmetry_Int_Tables_number   1
_chemical_formula_structural   HoHf3F15
_chemical_formula_sum   'Ho1 Hf3 F15'
_cell_volume   260.56937194
_cell_formula_units_Z   1
loop_
 _symmetry_equiv_pos_site_id
 _symmetry_equiv_pos_as_xyz
  1  'x, y, z'
loop_
 _atom_site_type_symbol
 _atom_site_label
 _atom_site_symmetry_multiplicity
 _atom_site_fract_x
 _atom_site_fract_y
 _atom_site_fract_z
 _atom_site_occupancy
  Ho  Ho0  1  0.995700  0.995700  0.995700  1
  Hf  Hf1  1  0.357651  0.784942  0.357651  1
  Hf  Hf2  1  0.357651  0.357651  0.784942  1
  Hf  Hf3  1  0.784942  0.357651  0.357651  1
  F  F4  1  0.649389  0.437160  0.107613  1
  F  F5  1  0.107613  0.649389  0.437160  1
  F  F6  1  0.107613  0.437160  0.649389  1
  F  F7  1  0.437160  0.107613  0.649389  1
  F  F8  1  0.437160  0.649389  0.107613  1
  F  F9  1  0.649389  0.107613  0.437160  1
  F  F10  1  0.101597  0.763171  0.101597  1
  F  F11  1  0.101597  0.101597  0.763170  1
  F  F12  1  0.763170  0.101597  0.101597  1
  F  F13  1  0.649318  0.870225  0.649318  1
  F  F14  1  0.649318  0.649318  0.870225  1
  F  F15  1  0.870225  0.649318  0.649318  1
  F  F16  1  0.177671  0.408095  0.177671  1
  F  F17  1  0.177671  0.177671  0.408095  1
  F  F18  1  0.408095  0.177671  0.177671  1
