# generated using pymatgen
data_Sr5Si2Hg
_symmetry_space_group_name_H-M   'P 1'
_cell_length_a   10.06259737
_cell_length_b   10.06259719
_cell_length_c   10.06259688
_cell_angle_alpha   131.83802528
_cell_angle_beta   131.83801623
_cell_angle_gamma   70.48496936
_symmetry_Int_Tables_number   1
_chemical_formula_structural   Sr5Si2Hg
_chemical_formula_sum   'Sr10 Si4 Hg2'
_cell_volume   554.16741618
_cell_formula_units_Z   2
loop_
 _symmetry_equiv_pos_site_id
 _symmetry_equiv_pos_as_xyz
  1  'x, y, z'
loop_
 _atom_site_type_symbol
 _atom_site_label
 _atom_site_symmetry_multiplicity
 _atom_site_fract_x
 _atom_site_fract_y
 _atom_site_fract_z
 _atom_site_occupancy
  Sr  Sr0  1  0.540156  0.039951  0.851867  1
  Sr  Sr1  1  0.188084  0.688289  0.148133  1
  Sr  Sr2  1  0.039951  0.188084  0.499795  1
  Sr  Sr3  1  0.688289  0.540156  0.500205  1
  Sr  Sr4  1  0.459844  0.960049  0.148133  1
  Sr  Sr5  1  0.811916  0.311711  0.851867  1
  Sr  Sr6  1  0.960049  0.811916  0.500205  1
  Sr  Sr7  1  0.311711  0.459844  0.499795  1
  Sr  Sr8  1  0.000000  0.000000  0.000000  1
  Sr  Sr9  1  0.500000  0.500000  0.000000  1
  Si  Si10  1  0.893279  0.392803  0.286081  1
  Si  Si11  1  0.106721  0.607197  0.713919  1
  Si  Si12  1  0.392803  0.106721  0.499524  1
  Si  Si13  1  0.607197  0.893279  0.500476  1
  Hg  Hg14  1  0.249121  0.249121  0.000000  1
  Hg  Hg15  1  0.750879  0.750879  0.000000  1
