# generated using pymatgen
data_Te19Au
_symmetry_space_group_name_H-M   'P 1'
_cell_length_a   8.01800484
_cell_length_b   9.02478963
_cell_length_c   10.16484400
_cell_angle_alpha   104.08862850
_cell_angle_beta   97.23290686
_cell_angle_gamma   106.97193268
_symmetry_Int_Tables_number   1
_chemical_formula_structural   Te19Au
_chemical_formula_sum   'Te19 Au1'
_cell_volume   666.78472118
_cell_formula_units_Z   1
loop_
 _symmetry_equiv_pos_site_id
 _symmetry_equiv_pos_as_xyz
  1  'x, y, z'
loop_
 _atom_site_type_symbol
 _atom_site_label
 _atom_site_symmetry_multiplicity
 _atom_site_fract_x
 _atom_site_fract_y
 _atom_site_fract_z
 _atom_site_occupancy
  Te  Te0  1  0.800389  0.574128  0.618567  1
  Te  Te1  1  0.607673  0.192432  0.193200  1
  Te  Te2  1  0.392327  0.807568  0.806800  1
  Te  Te3  1  0.603200  0.686236  0.190208  1
  Te  Te4  1  0.199611  0.425872  0.381433  1
  Te  Te5  1  0.396800  0.313764  0.809792  1
  Te  Te6  1  0.000000  0.000000  0.000000  1
  Te  Te7  1  0.198415  0.919882  0.396376  1
  Te  Te8  1  0.801585  0.080118  0.603624  1
  Te  Te9  1  0.715039  0.624800  0.915364  1
  Te  Te10  1  0.510665  0.251363  0.495625  1
  Te  Te11  1  0.700844  0.130686  0.907121  1
  Te  Te12  1  0.299156  0.869314  0.092879  1
  Te  Te13  1  0.489335  0.748637  0.504375  1
  Te  Te14  1  0.085771  0.475107  0.738578  1
  Te  Te15  1  0.284961  0.375200  0.084636  1
  Te  Te16  1  0.912295  0.033018  0.297936  1
  Te  Te17  1  0.087705  0.966982  0.702064  1
  Te  Te18  1  0.914229  0.524893  0.261422  1
  Au  Au19  1  0.000000  0.500000  0.000000  1
