# generated using pymatgen
data_Nd6Th2Zn8PtRh7
_symmetry_space_group_name_H-M   'P 1'
_cell_length_a   3.96956300
_cell_length_b   7.48518718
_cell_length_c   16.59621040
_cell_angle_alpha   90.02520960
_cell_angle_beta   90.00000000
_cell_angle_gamma   90.00000000
_symmetry_Int_Tables_number   1
_chemical_formula_structural   Nd6Th2Zn8PtRh7
_chemical_formula_sum   'Nd6 Th2 Zn8 Pt1 Rh7'
_cell_volume   493.12185879
_cell_formula_units_Z   1
loop_
 _symmetry_equiv_pos_site_id
 _symmetry_equiv_pos_as_xyz
  1  'x, y, z'
loop_
 _atom_site_type_symbol
 _atom_site_label
 _atom_site_symmetry_multiplicity
 _atom_site_fract_x
 _atom_site_fract_y
 _atom_site_fract_z
 _atom_site_occupancy
  Nd  Nd0  1  0.750000  0.329521  0.440869  1
  Nd  Nd1  1  0.750000  0.940351  0.284430  1
  Nd  Nd2  1  0.750000  0.828849  0.061129  1
  Nd  Nd3  1  0.750000  0.448781  0.213592  1
  Nd  Nd4  1  0.250000  0.052576  0.714812  1
  Nd  Nd5  1  0.250000  0.552334  0.785660  1
  Th  Th6  1  0.250000  0.172226  0.939709  1
  Th  Th7  1  0.250000  0.673878  0.560700  1
  Zn  Zn8  1  0.750000  0.010230  0.560394  1
  Zn  Zn9  1  0.250000  0.620239  0.348246  1
  Zn  Zn10  1  0.750000  0.381074  0.654248  1
  Zn  Zn11  1  0.250000  0.502294  0.059359  1
  Zn  Zn12  1  0.750000  0.510722  0.939723  1
  Zn  Zn13  1  0.250000  0.000486  0.440675  1
  Zn  Zn14  1  0.250000  0.116972  0.150684  1
  Zn  Zn15  1  0.750000  0.880204  0.846052  1
  Pt  Pt16  1  0.250000  0.239413  0.312235  1
  Rh  Rh17  1  0.750000  0.746907  0.441912  1
  Rh  Rh18  1  0.750000  0.247587  0.821688  1
  Rh  Rh19  1  0.750000  0.747460  0.678380  1
  Rh  Rh20  1  0.250000  0.253291  0.566523  1
  Rh  Rh21  1  0.250000  0.742332  0.186932  1
  Rh  Rh22  1  0.750000  0.247784  0.058201  1
  Rh  Rh23  1  0.250000  0.754491  0.933847  1
