# generated using pymatgen
data_Er4MgSc(B2Rh5)2
_symmetry_space_group_name_H-M   'P 1'
_cell_length_a   9.63649900
_cell_length_b   9.63649900
_cell_length_c   3.19100900
_cell_angle_alpha   90.00000000
_cell_angle_beta   90.00000000
_cell_angle_gamma   90.00000000
_symmetry_Int_Tables_number   1
_chemical_formula_structural   Er4MgSc(B2Rh5)2
_chemical_formula_sum   'Er4 Mg1 Sc1 B4 Rh10'
_cell_volume   296.32383827
_cell_formula_units_Z   1
loop_
 _symmetry_equiv_pos_site_id
 _symmetry_equiv_pos_as_xyz
  1  'x, y, z'
loop_
 _atom_site_type_symbol
 _atom_site_label
 _atom_site_symmetry_multiplicity
 _atom_site_fract_x
 _atom_site_fract_y
 _atom_site_fract_z
 _atom_site_occupancy
  Er  Er0  1  0.673180  0.176622  0.000000  1
  Er  Er1  1  0.326820  0.823378  0.000000  1
  Er  Er2  1  0.176622  0.326820  0.000000  1
  Er  Er3  1  0.823378  0.673180  0.000000  1
  Mg  Mg4  1  0.500000  0.500000  0.000000  1
  Sc  Sc5  1  0.000000  0.000000  0.000000  1
  B  B6  1  0.123837  0.619560  0.000000  1
  B  B7  1  0.876163  0.380440  0.000000  1
  B  B8  1  0.619560  0.876163  0.000000  1
  B  B9  1  0.380440  0.123837  0.000000  1
  Rh  Rh10  1  0.500000  0.000000  0.500000  1
  Rh  Rh11  1  0.000000  0.500000  0.500000  1
  Rh  Rh12  1  0.224759  0.070842  0.500000  1
  Rh  Rh13  1  0.775241  0.929158  0.500000  1
  Rh  Rh14  1  0.070842  0.775241  0.500000  1
  Rh  Rh15  1  0.723720  0.428613  0.500000  1
  Rh  Rh16  1  0.929158  0.224759  0.500000  1
  Rh  Rh17  1  0.276280  0.571387  0.500000  1
  Rh  Rh18  1  0.571387  0.723720  0.500000  1
  Rh  Rh19  1  0.428613  0.276280  0.500000  1
