# generated using pymatgen
data_KBa2IrO6
_symmetry_space_group_name_H-M   'P 1'
_cell_length_a   6.33763433
_cell_length_b   6.13345750
_cell_length_c   10.63737380
_cell_angle_alpha   55.27500174
_cell_angle_beta   89.96320820
_cell_angle_gamma   89.98381137
_symmetry_Int_Tables_number   1
_chemical_formula_structural   KBa2IrO6
_chemical_formula_sum   'K2 Ba4 Ir2 O12'
_cell_volume   339.84705784
_cell_formula_units_Z   2
loop_
 _symmetry_equiv_pos_site_id
 _symmetry_equiv_pos_as_xyz
  1  'x, y, z'
loop_
 _atom_site_type_symbol
 _atom_site_label
 _atom_site_symmetry_multiplicity
 _atom_site_fract_x
 _atom_site_fract_y
 _atom_site_fract_z
 _atom_site_occupancy
  K  K0  1  0.500000  0.500000  0.500000  1
  K  K1  1  0.000000  0.500000  0.000000  1
  Ba  Ba2  1  0.052712  0.238446  0.749128  1
  Ba  Ba3  1  0.552983  0.762117  0.750363  1
  Ba  Ba4  1  0.447017  0.237883  0.249637  1
  Ba  Ba5  1  0.947288  0.761554  0.250872  1
  Ir  Ir6  1  0.000000  0.000000  0.500000  1
  Ir  Ir7  1  0.500000  0.000000  0.000000  1
  O  O8  1  0.032121  0.295939  0.290123  1
  O  O9  1  0.532010  0.704202  0.209800  1
  O  O10  1  0.967879  0.704061  0.709877  1
  O  O11  1  0.467990  0.295798  0.790200  1
  O  O12  1  0.746727  0.891981  0.447979  1
  O  O13  1  0.246726  0.107973  0.052120  1
  O  O14  1  0.253273  0.108019  0.552021  1
  O  O15  1  0.753274  0.892027  0.947880  1
  O  O16  1  0.331229  0.786064  0.957753  1
  O  O17  1  0.831066  0.214014  0.542342  1
  O  O18  1  0.668771  0.213936  0.042247  1
  O  O19  1  0.168934  0.785986  0.457658  1
