# generated using pymatgen
data_YPa(SiPt)2
_symmetry_space_group_name_H-M   'P 1'
_cell_length_a   4.30814300
_cell_length_b   7.26207300
_cell_length_c   7.39245700
_cell_angle_alpha   90.00000000
_cell_angle_beta   90.00000000
_cell_angle_gamma   90.00000000
_symmetry_Int_Tables_number   1
_chemical_formula_structural   YPa(SiPt)2
_chemical_formula_sum   'Y2 Pa2 Si4 Pt4'
_cell_volume   231.28077164
_cell_formula_units_Z   2
loop_
 _symmetry_equiv_pos_site_id
 _symmetry_equiv_pos_as_xyz
  1  'x, y, z'
loop_
 _atom_site_type_symbol
 _atom_site_label
 _atom_site_symmetry_multiplicity
 _atom_site_fract_x
 _atom_site_fract_y
 _atom_site_fract_z
 _atom_site_occupancy
  Y  Y0  1  0.750000  0.002548  0.713692  1
  Y  Y1  1  0.750000  0.502548  0.786308  1
  Pa  Pa2  1  0.250000  0.997908  0.295468  1
  Pa  Pa3  1  0.250000  0.497908  0.204532  1
  Si  Si4  1  0.250000  0.274535  0.589953  1
  Si  Si5  1  0.250000  0.774535  0.910047  1
  Si  Si6  1  0.750000  0.689200  0.412770  1
  Si  Si7  1  0.750000  0.189200  0.087230  1
  Pt  Pt8  1  0.250000  0.229477  0.926525  1
  Pt  Pt9  1  0.250000  0.729477  0.573475  1
  Pt  Pt10  1  0.750000  0.806332  0.089571  1
  Pt  Pt11  1  0.750000  0.306332  0.410429  1
