# generated using pymatgen
data_VTc5Se8
_symmetry_space_group_name_H-M   'P 1'
_cell_length_a   6.70086558
_cell_length_b   6.69703503
_cell_length_c   6.68865638
_cell_angle_alpha   93.15944480
_cell_angle_beta   94.15628590
_cell_angle_gamma   93.50835149
_symmetry_Int_Tables_number   1
_chemical_formula_structural   VTc5Se8
_chemical_formula_sum   'V1 Tc5 Se8'
_cell_volume   298.27413448
_cell_formula_units_Z   1
loop_
 _symmetry_equiv_pos_site_id
 _symmetry_equiv_pos_as_xyz
  1  'x, y, z'
loop_
 _atom_site_type_symbol
 _atom_site_label
 _atom_site_symmetry_multiplicity
 _atom_site_fract_x
 _atom_site_fract_y
 _atom_site_fract_z
 _atom_site_occupancy
  V  V0  1  0.912401  0.045344  0.742015  1
  Tc  Tc1  1  0.736775  0.912449  0.045211  1
  Tc  Tc2  1  0.048531  0.738318  0.912895  1
  Tc  Tc3  1  0.087997  0.952849  0.263507  1
  Tc  Tc4  1  0.264068  0.090616  0.953441  1
  Tc  Tc5  1  0.950753  0.264760  0.087238  1
  Se  Se6  1  0.715352  0.718403  0.712997  1
  Se  Se7  1  0.285469  0.285526  0.285336  1
  Se  Se8  1  0.777136  0.121355  0.373803  1
  Se  Se9  1  0.375457  0.772161  0.126934  1
  Se  Se10  1  0.115671  0.373318  0.771099  1
  Se  Se11  1  0.230952  0.875363  0.628020  1
  Se  Se12  1  0.625338  0.224219  0.868558  1
  Se  Se13  1  0.874100  0.625319  0.228943  1
