# generated using pymatgen
data_HfZr2Pa(InPd2)2
_symmetry_space_group_name_H-M   'P 1'
_cell_length_a   7.50968484
_cell_length_b   7.50968472
_cell_length_c   7.13338300
_cell_angle_alpha   90.00000000
_cell_angle_beta   90.00000000
_cell_angle_gamma   93.00225097
_symmetry_Int_Tables_number   1
_chemical_formula_structural   HfZr2Pa(InPd2)2
_chemical_formula_sum   'Hf2 Zr4 Pa2 In4 Pd8'
_cell_volume   401.73758966
_cell_formula_units_Z   2
loop_
 _symmetry_equiv_pos_site_id
 _symmetry_equiv_pos_as_xyz
  1  'x, y, z'
loop_
 _atom_site_type_symbol
 _atom_site_label
 _atom_site_symmetry_multiplicity
 _atom_site_fract_x
 _atom_site_fract_y
 _atom_site_fract_z
 _atom_site_occupancy
  Hf  Hf0  1  0.810227  0.810227  0.500000  1
  Hf  Hf1  1  0.189773  0.189773  0.500000  1
  Zr  Zr2  1  0.648679  0.351321  0.500000  1
  Zr  Zr3  1  0.351321  0.648679  0.500000  1
  Zr  Zr4  1  0.687241  0.312759  0.000000  1
  Zr  Zr5  1  0.312759  0.687241  0.000000  1
  Pa  Pa6  1  0.142081  0.142081  0.000000  1
  Pa  Pa7  1  0.857919  0.857919  0.000000  1
  In  In8  1  0.500000  0.000000  0.260956  1
  In  In9  1  0.500000  0.000000  0.739044  1
  In  In10  1  0.000000  0.500000  0.260956  1
  In  In11  1  0.000000  0.500000  0.739044  1
  Pd  Pd12  1  0.366802  0.366802  0.210705  1
  Pd  Pd13  1  0.633198  0.633198  0.789295  1
  Pd  Pd14  1  0.633198  0.633198  0.210705  1
  Pd  Pd15  1  0.867460  0.132540  0.703236  1
  Pd  Pd16  1  0.867460  0.132540  0.296764  1
  Pd  Pd17  1  0.366802  0.366802  0.789295  1
  Pd  Pd18  1  0.132540  0.867460  0.296764  1
  Pd  Pd19  1  0.132540  0.867460  0.703236  1
