# generated using pymatgen
data_Ta6Al4NiWC2
_symmetry_space_group_name_H-M   'P 1'
_cell_length_a   8.31066885
_cell_length_b   8.31066832
_cell_length_c   8.27012500
_cell_angle_alpha   60.16124362
_cell_angle_beta   60.16124571
_cell_angle_gamma   60.48458924
_symmetry_Int_Tables_number   1
_chemical_formula_structural   Ta6Al4NiWC2
_chemical_formula_sum   'Ta12 Al8 Ni2 W2 C4'
_cell_volume   406.34625922
_cell_formula_units_Z   2
loop_
 _symmetry_equiv_pos_site_id
 _symmetry_equiv_pos_as_xyz
  1  'x, y, z'
loop_
 _atom_site_type_symbol
 _atom_site_label
 _atom_site_symmetry_multiplicity
 _atom_site_fract_x
 _atom_site_fract_y
 _atom_site_fract_z
 _atom_site_occupancy
  Ta  Ta0  1  0.567865  0.939782  0.551488  1
  Ta  Ta1  1  0.310218  0.682135  0.698512  1
  Ta  Ta2  1  0.682135  0.310218  0.309135  1
  Ta  Ta3  1  0.310218  0.682135  0.309135  1
  Ta  Ta4  1  0.695229  0.695229  0.304771  1
  Ta  Ta5  1  0.314144  0.314144  0.685856  1
  Ta  Ta6  1  0.554771  0.554771  0.945229  1
  Ta  Ta7  1  0.939782  0.567865  0.551488  1
  Ta  Ta8  1  0.567865  0.939782  0.940865  1
  Ta  Ta9  1  0.935856  0.935856  0.564144  1
  Ta  Ta10  1  0.682135  0.310218  0.698512  1
  Ta  Ta11  1  0.939782  0.567865  0.940865  1
  Al  Al12  1  0.924728  0.924728  0.903060  1
  Al  Al13  1  0.994289  0.323626  0.341042  1
  Al  Al14  1  0.323626  0.994289  0.341042  1
  Al  Al15  1  0.325272  0.325272  0.002514  1
  Al  Al16  1  0.926374  0.255711  0.908958  1
  Al  Al17  1  0.924728  0.924728  0.247486  1
  Al  Al18  1  0.255711  0.926374  0.908958  1
  Al  Al19  1  0.325272  0.325272  0.346940  1
  Ni  Ni20  1  0.125000  0.125000  0.125000  1
  Ni  Ni21  1  0.125000  0.125000  0.625000  1
  W  W22  1  0.625000  0.125000  0.125000  1
  W  W23  1  0.125000  0.625000  0.125000  1
  C  C24  1  0.625000  0.625000  0.625000  1
  C  C25  1  0.125000  0.625000  0.625000  1
  C  C26  1  0.625000  0.125000  0.625000  1
  C  C27  1  0.625000  0.625000  0.125000  1
