# generated using pymatgen
data_Tb3ErTh6(Ge3C)2
_symmetry_space_group_name_H-M   'P 1'
_cell_length_a   8.82836701
_cell_length_b   8.82837002
_cell_length_c   6.41505600
_cell_angle_alpha   90.00058322
_cell_angle_beta   90.00076211
_cell_angle_gamma   120.00053490
_symmetry_Int_Tables_number   1
_chemical_formula_structural   Tb3ErTh6(Ge3C)2
_chemical_formula_sum   'Tb3 Er1 Th6 Ge6 C2'
_cell_volume   433.00174747
_cell_formula_units_Z   1
loop_
 _symmetry_equiv_pos_site_id
 _symmetry_equiv_pos_as_xyz
  1  'x, y, z'
loop_
 _atom_site_type_symbol
 _atom_site_label
 _atom_site_symmetry_multiplicity
 _atom_site_fract_x
 _atom_site_fract_y
 _atom_site_fract_z
 _atom_site_occupancy
  Tb  Tb0  1  0.666653  0.333348  0.500000  1
  Tb  Tb1  1  0.333363  0.666643  0.500000  1
  Tb  Tb2  1  0.333350  0.666652  0.999998  1
  Er  Er3  1  0.666538  0.333434  0.000003  1
  Th  Th4  1  0.769336  0.769221  0.249857  1
  Th  Th5  1  0.230708  0.000008  0.249836  1
  Th  Th6  1  0.999889  0.230581  0.249825  1
  Th  Th7  1  0.230776  0.230661  0.750141  1
  Th  Th8  1  0.769425  0.000110  0.750166  1
  Th  Th9  1  0.999993  0.769293  0.750158  1
  Ge  Ge10  1  0.402928  0.401947  0.249117  1
  Ge  Ge11  1  0.597968  0.001007  0.249105  1
  Ge  Ge12  1  0.999023  0.597007  0.249137  1
  Ge  Ge13  1  0.598048  0.597065  0.750886  1
  Ge  Ge14  1  0.402992  0.000978  0.750866  1
  Ge  Ge15  1  0.999003  0.402044  0.750894  1
  C  C16  1  0.000002  0.000000  0.500005  1
  C  C17  1  0.000003  0.000000  0.000005  1
