# generated using pymatgen
data_Y2Al9Ru2Au
_symmetry_space_group_name_H-M   'P 1'
_cell_length_a   7.62148407
_cell_length_b   7.62148316
_cell_length_c   9.55731200
_cell_angle_alpha   90.00000000
_cell_angle_beta   90.00000000
_cell_angle_gamma   119.29477816
_symmetry_Int_Tables_number   1
_chemical_formula_structural   Y2Al9Ru2Au
_chemical_formula_sum   'Y4 Al18 Ru4 Au2'
_cell_volume   484.15898751
_cell_formula_units_Z   2
loop_
 _symmetry_equiv_pos_site_id
 _symmetry_equiv_pos_as_xyz
  1  'x, y, z'
loop_
 _atom_site_type_symbol
 _atom_site_label
 _atom_site_symmetry_multiplicity
 _atom_site_fract_x
 _atom_site_fract_y
 _atom_site_fract_z
 _atom_site_occupancy
  Y  Y0  1  0.997390  0.677799  0.250000  1
  Y  Y1  1  0.002610  0.322201  0.750000  1
  Y  Y2  1  0.677799  0.997390  0.250000  1
  Y  Y3  1  0.322201  0.002610  0.750000  1
  Al  Al4  1  0.145219  0.145219  0.250000  1
  Al  Al5  1  0.854781  0.854781  0.750000  1
  Al  Al6  1  0.002856  0.347631  0.075704  1
  Al  Al7  1  0.997144  0.652369  0.924296  1
  Al  Al8  1  0.997144  0.652369  0.575704  1
  Al  Al9  1  0.347631  0.002856  0.424296  1
  Al  Al10  1  0.002856  0.347631  0.424296  1
  Al  Al11  1  0.652369  0.997144  0.575704  1
  Al  Al12  1  0.652369  0.997144  0.924296  1
  Al  Al13  1  0.347631  0.002856  0.075704  1
  Al  Al14  1  0.344267  0.344267  0.552812  1
  Al  Al15  1  0.655733  0.655733  0.447188  1
  Al  Al16  1  0.655733  0.655733  0.052812  1
  Al  Al17  1  0.344267  0.344267  0.947188  1
  Al  Al18  1  0.337574  0.555451  0.250000  1
  Al  Al19  1  0.662426  0.444549  0.750000  1
  Al  Al20  1  0.555451  0.337574  0.250000  1
  Al  Al21  1  0.444549  0.662426  0.750000  1
  Ru  Ru22  1  0.672390  0.327610  0.000000  1
  Ru  Ru23  1  0.327610  0.672390  0.000000  1
  Ru  Ru24  1  0.327610  0.672390  0.500000  1
  Ru  Ru25  1  0.672390  0.327610  0.500000  1
  Au  Au26  1  0.000000  0.000000  0.000000  1
  Au  Au27  1  0.000000  0.000000  0.500000  1
