# generated using pymatgen
data_LiPr(BeB14)2
_symmetry_space_group_name_H-M   'P 1'
_cell_length_a   7.22254036
_cell_length_b   7.22254159
_cell_length_c   7.22254115
_cell_angle_alpha   133.05896502
_cell_angle_beta   110.50313145
_cell_angle_gamma   88.10837157
_symmetry_Int_Tables_number   1
_chemical_formula_structural   LiPr(BeB14)2
_chemical_formula_sum   'Li1 Pr1 Be2 B28'
_cell_volume   245.87126596
_cell_formula_units_Z   1
loop_
 _symmetry_equiv_pos_site_id
 _symmetry_equiv_pos_as_xyz
  1  'x, y, z'
loop_
 _atom_site_type_symbol
 _atom_site_label
 _atom_site_symmetry_multiplicity
 _atom_site_fract_x
 _atom_site_fract_y
 _atom_site_fract_z
 _atom_site_occupancy
  Li  Li0  1  0.130566  0.750000  0.380566  1
  Pr  Pr1  1  0.895534  0.250000  0.645534  1
  Be  Be2  1  0.494384  0.504918  0.499302  1
  Be  Be3  1  0.494384  0.995082  0.989466  1
  B  B4  1  0.720319  0.717511  0.321614  1
  B  B5  1  0.707602  0.344915  0.362688  1
  B  B6  1  0.871987  0.667681  0.700189  1
  B  B7  1  0.126848  0.826164  0.790375  1
  B  B8  1  0.532508  0.832319  0.204307  1
  B  B9  1  0.464212  0.673836  0.300683  1
  B  B10  1  0.126848  0.336472  0.300683  1
  B  B11  1  0.871987  0.171798  0.204307  1
  B  B12  1  0.464212  0.163528  0.790375  1
  B  B13  1  0.532508  0.328202  0.700189  1
  B  B14  1  0.104103  0.782489  0.002808  1
  B  B15  1  0.897508  0.894166  0.677343  1
  B  B16  1  0.897508  0.220167  0.003343  1
  B  B17  1  0.283177  0.605834  0.003343  1
  B  B18  1  0.104103  0.101295  0.321614  1
  B  B19  1  0.517772  0.155085  0.362688  1
  B  B20  1  0.283177  0.279833  0.677343  1
  B  B21  1  0.720319  0.398705  0.002808  1
  B  B22  1  0.739440  0.909081  0.830357  1
  B  B23  1  0.256546  0.089570  0.166977  1
  B  B24  1  0.421276  0.590919  0.830357  1
  B  B25  1  0.577408  0.410430  0.166977  1
  B  B26  1  0.866772  0.834147  0.032625  1
  B  B27  1  0.134290  0.165011  0.969279  1
  B  B28  1  0.698479  0.665853  0.032625  1
  B  B29  1  0.304268  0.334989  0.969279  1
  B  B30  1  0.473677  0.843700  0.629977  1
  B  B31  1  0.286278  0.656300  0.629977  1
