# generated using pymatgen
data_SmHo7(Si4Mo3)4
_symmetry_space_group_name_H-M   'P 1'
_cell_length_a   6.77416057
_cell_length_b   6.95289138
_cell_length_c   12.93044889
_cell_angle_alpha   90.06674972
_cell_angle_beta   90.01408187
_cell_angle_gamma   90.02861213
_symmetry_Int_Tables_number   1
_chemical_formula_structural   SmHo7(Si4Mo3)4
_chemical_formula_sum   'Sm1 Ho7 Si16 Mo12'
_cell_volume   609.02366836
_cell_formula_units_Z   1
loop_
 _symmetry_equiv_pos_site_id
 _symmetry_equiv_pos_as_xyz
  1  'x, y, z'
loop_
 _atom_site_type_symbol
 _atom_site_label
 _atom_site_symmetry_multiplicity
 _atom_site_fract_x
 _atom_site_fract_y
 _atom_site_fract_z
 _atom_site_occupancy
  Sm  Sm0  1  0.997884  0.165916  0.093091  1
  Ho  Ho1  1  0.496948  0.333226  0.094085  1
  Ho  Ho2  1  0.997137  0.167147  0.405870  1
  Ho  Ho3  1  0.503031  0.667224  0.594252  1
  Ho  Ho4  1  0.003151  0.832915  0.905111  1
  Ho  Ho5  1  0.503162  0.666782  0.905413  1
  Ho  Ho6  1  0.002757  0.832718  0.594226  1
  Ho  Ho7  1  0.497074  0.332998  0.406464  1
  Si  Si8  1  0.659049  0.041649  0.547495  1
  Si  Si9  1  0.159583  0.459794  0.951740  1
  Si  Si10  1  0.343972  0.956439  0.047060  1
  Si  Si11  1  0.840972  0.541515  0.452678  1
  Si  Si12  1  0.340868  0.958363  0.452839  1
  Si  Si13  1  0.839939  0.544438  0.047046  1
  Si  Si14  1  0.657629  0.041452  0.951604  1
  Si  Si15  1  0.159117  0.458360  0.547518  1
  Si  Si16  1  0.534655  0.365853  0.749740  1
  Si  Si17  1  0.034857  0.134181  0.749943  1
  Si  Si18  1  0.465010  0.634009  0.250218  1
  Si  Si19  1  0.964768  0.864099  0.250911  1
  Si  Si20  1  0.802611  0.629441  0.749791  1
  Si  Si21  1  0.302900  0.870724  0.749896  1
  Si  Si22  1  0.198568  0.372535  0.251109  1
  Si  Si23  1  0.695230  0.128857  0.251017  1
  Mo  Mo24  1  0.830647  0.335041  0.625030  1
  Mo  Mo25  1  0.330963  0.165344  0.874303  1
  Mo  Mo26  1  0.169722  0.664929  0.125246  1
  Mo  Mo27  1  0.669256  0.834492  0.375401  1
  Mo  Mo28  1  0.169701  0.665215  0.375411  1
  Mo  Mo29  1  0.668321  0.833976  0.125797  1
  Mo  Mo30  1  0.829880  0.335787  0.873986  1
  Mo  Mo31  1  0.330283  0.165067  0.625138  1
  Mo  Mo32  1  0.666116  0.998917  0.749641  1
  Mo  Mo33  1  0.166094  0.501227  0.749782  1
  Mo  Mo34  1  0.334558  0.999771  0.250715  1
  Mo  Mo35  1  0.833586  0.499603  0.250438  1
