# generated using pymatgen
data_Tb4DyMoRuO12
_symmetry_space_group_name_H-M   'P 1'
_cell_length_a   6.85728955
_cell_length_b   6.85728848
_cell_length_c   7.55369902
_cell_angle_alpha   73.76862795
_cell_angle_beta   73.76862992
_cell_angle_gamma   49.61707185
_symmetry_Int_Tables_number   1
_chemical_formula_structural   Tb4DyMoRuO12
_chemical_formula_sum   'Tb4 Dy1 Mo1 Ru1 O12'
_cell_volume   257.41450682
_cell_formula_units_Z   1
loop_
 _symmetry_equiv_pos_site_id
 _symmetry_equiv_pos_as_xyz
  1  'x, y, z'
loop_
 _atom_site_type_symbol
 _atom_site_label
 _atom_site_symmetry_multiplicity
 _atom_site_fract_x
 _atom_site_fract_y
 _atom_site_fract_z
 _atom_site_occupancy
  Tb  Tb0  1  0.316170  0.292357  0.358614  1
  Tb  Tb1  1  0.707643  0.683830  0.641386  1
  Tb  Tb2  1  0.319677  0.308050  0.825379  1
  Tb  Tb3  1  0.691950  0.680323  0.174621  1
  Dy  Dy4  1  0.007599  0.992401  0.500000  1
  Mo  Mo5  1  0.201370  0.798630  0.000000  1
  Ru  Ru6  1  0.763021  0.236979  0.000000  1
  O  O7  1  0.912894  0.427118  0.915155  1
  O  O8  1  0.411764  0.906426  0.917598  1
  O  O9  1  0.093574  0.588236  0.082402  1
  O  O10  1  0.572882  0.087106  0.084845  1
  O  O11  1  0.107006  0.590629  0.571255  1
  O  O12  1  0.600403  0.088329  0.576396  1
  O  O13  1  0.911671  0.399597  0.423604  1
  O  O14  1  0.409371  0.892994  0.428745  1
  O  O15  1  0.993827  0.004100  0.797397  1
  O  O16  1  0.995900  0.006173  0.202603  1
  O  O17  1  0.492440  0.509163  0.821667  1
  O  O18  1  0.490837  0.507560  0.178333  1
