# generated using pymatgen
data_CeSm2PaRh4
_symmetry_space_group_name_H-M   'P 1'
_cell_length_a   3.74121800
_cell_length_b   4.48826200
_cell_length_c   10.48312200
_cell_angle_alpha   90.00000000
_cell_angle_beta   90.00000000
_cell_angle_gamma   90.00000000
_symmetry_Int_Tables_number   1
_chemical_formula_structural   CeSm2PaRh4
_chemical_formula_sum   'Ce1 Sm2 Pa1 Rh4'
_cell_volume   176.02804106
_cell_formula_units_Z   1
loop_
 _symmetry_equiv_pos_site_id
 _symmetry_equiv_pos_as_xyz
  1  'x, y, z'
loop_
 _atom_site_type_symbol
 _atom_site_label
 _atom_site_symmetry_multiplicity
 _atom_site_fract_x
 _atom_site_fract_y
 _atom_site_fract_z
 _atom_site_occupancy
  Ce  Ce0  1  0.000000  0.250000  0.135648  1
  Sm  Sm1  1  0.000000  0.750000  0.862970  1
  Sm  Sm2  1  0.500000  0.250000  0.640113  1
  Pa  Pa3  1  0.500000  0.750000  0.365224  1
  Rh  Rh4  1  0.500000  0.750000  0.114670  1
  Rh  Rh5  1  0.000000  0.750000  0.567136  1
  Rh  Rh6  1  0.000000  0.250000  0.393286  1
  Rh  Rh7  1  0.500000  0.250000  0.920952  1
