# generated using pymatgen
data_Dy2Er3Lu3(P3Ir4)4
_symmetry_space_group_name_H-M   'P 1'
_cell_length_a   12.92874500
_cell_length_b   12.92874559
_cell_length_c   3.98740500
_cell_angle_alpha   90.00000000
_cell_angle_beta   90.00000000
_cell_angle_gamma   120.00000105
_symmetry_Int_Tables_number   1
_chemical_formula_structural   Dy2Er3Lu3(P3Ir4)4
_chemical_formula_sum   'Dy2 Er3 Lu3 P12 Ir16'
_cell_volume   577.20985238
_cell_formula_units_Z   1
loop_
 _symmetry_equiv_pos_site_id
 _symmetry_equiv_pos_as_xyz
  1  'x, y, z'
loop_
 _atom_site_type_symbol
 _atom_site_label
 _atom_site_symmetry_multiplicity
 _atom_site_fract_x
 _atom_site_fract_y
 _atom_site_fract_z
 _atom_site_occupancy
  Dy  Dy0  1  0.333333  0.666667  0.500000  1
  Dy  Dy1  1  0.666667  0.333333  0.500000  1
  Er  Er2  1  0.000000  0.814243  0.000000  1
  Er  Er3  1  0.185757  0.185757  0.000000  1
  Er  Er4  1  0.814243  0.000000  0.000000  1
  Lu  Lu5  1  0.000000  0.446653  0.500000  1
  Lu  Lu6  1  0.553347  0.553347  0.500000  1
  Lu  Lu7  1  0.446653  0.000000  0.500000  1
  P  P8  1  0.000000  0.652029  0.500000  1
  P  P9  1  0.347971  0.347971  0.500000  1
  P  P10  1  0.652029  0.000000  0.500000  1
  P  P11  1  0.516584  0.687655  0.000000  1
  P  P12  1  0.312345  0.828930  0.000000  1
  P  P13  1  0.171070  0.483416  0.000000  1
  P  P14  1  0.483416  0.171070  0.000000  1
  P  P15  1  0.687655  0.516584  0.000000  1
  P  P16  1  0.828930  0.312345  0.000000  1
  P  P17  1  0.000000  0.176460  0.500000  1
  P  P18  1  0.823540  0.823540  0.500000  1
  P  P19  1  0.176460  0.000000  0.500000  1
  Ir  Ir20  1  0.509555  0.866291  0.000000  1
  Ir  Ir21  1  0.133709  0.643265  0.000000  1
  Ir  Ir22  1  0.356735  0.490445  0.000000  1
  Ir  Ir23  1  0.490445  0.356735  0.000000  1
  Ir  Ir24  1  0.866291  0.509555  0.000000  1
  Ir  Ir25  1  0.643265  0.133709  0.000000  1
  Ir  Ir26  1  0.000000  0.275905  0.000000  1
  Ir  Ir27  1  0.724095  0.724095  0.000000  1
  Ir  Ir28  1  0.275905  0.000000  0.000000  1
  Ir  Ir29  1  0.629926  0.808520  0.500000  1
  Ir  Ir30  1  0.191480  0.821406  0.500000  1
  Ir  Ir31  1  0.178594  0.370074  0.500000  1
  Ir  Ir32  1  0.370074  0.178594  0.500000  1
  Ir  Ir33  1  0.808520  0.629926  0.500000  1
  Ir  Ir34  1  0.821406  0.191480  0.500000  1
  Ir  Ir35  1  0.000000  0.000000  0.500000  1
