# generated using pymatgen
data_Lu10In6Cl
_symmetry_space_group_name_H-M   'P 1'
_cell_length_a   6.49339502
_cell_length_b   8.89288073
_cell_length_c   8.89276403
_cell_angle_alpha   119.99137416
_cell_angle_beta   89.99411637
_cell_angle_gamma   89.99824847
_symmetry_Int_Tables_number   1
_chemical_formula_structural   Lu10In6Cl
_chemical_formula_sum   'Lu10 In6 Cl1'
_cell_volume   444.75355635
_cell_formula_units_Z   1
loop_
 _symmetry_equiv_pos_site_id
 _symmetry_equiv_pos_as_xyz
  1  'x, y, z'
loop_
 _atom_site_type_symbol
 _atom_site_label
 _atom_site_symmetry_multiplicity
 _atom_site_fract_x
 _atom_site_fract_y
 _atom_site_fract_z
 _atom_site_occupancy
  Lu  Lu0  1  0.500007  0.333324  0.666599  1
  Lu  Lu1  1  0.500012  0.666671  0.333398  1
  Lu  Lu2  1  0.000016  0.666661  0.333310  1
  Lu  Lu3  1  0.000010  0.333348  0.666699  1
  Lu  Lu4  1  0.762058  0.251392  0.999998  1
  Lu  Lu5  1  0.761860  0.748652  0.748644  1
  Lu  Lu6  1  0.761970  0.999991  0.251384  1
  Lu  Lu7  1  0.237959  0.748602  0.000007  1
  Lu  Lu8  1  0.238129  0.251347  0.251346  1
  Lu  Lu9  1  0.238004  0.000010  0.748608  1
  In  In10  1  0.749533  0.606102  0.999992  1
  In  In11  1  0.749527  0.393937  0.393932  1
  In  In12  1  0.749620  0.000003  0.606101  1
  In  In13  1  0.250469  0.393895  0.000009  1
  In  In14  1  0.250480  0.606066  0.606073  1
  In  In15  1  0.250378  0.000000  0.393901  1
  Cl  Cl16  1  0.499968  0.000002  0.999997  1
