# generated using pymatgen
data_Tb8Hf10Ta2Si15Ge
_symmetry_space_group_name_H-M   'P 1'
_cell_length_a   7.25745695
_cell_length_b   7.26328109
_cell_length_c   13.34279086
_cell_angle_alpha   89.94011192
_cell_angle_beta   89.99208752
_cell_angle_gamma   90.10572686
_symmetry_Int_Tables_number   1
_chemical_formula_structural   Tb8Hf10Ta2Si15Ge
_chemical_formula_sum   'Tb8 Hf10 Ta2 Si15 Ge1'
_cell_volume   703.33627619
_cell_formula_units_Z   1
loop_
 _symmetry_equiv_pos_site_id
 _symmetry_equiv_pos_as_xyz
  1  'x, y, z'
loop_
 _atom_site_type_symbol
 _atom_site_label
 _atom_site_symmetry_multiplicity
 _atom_site_fract_x
 _atom_site_fract_y
 _atom_site_fract_z
 _atom_site_occupancy
  Tb  Tb0  1  0.995309  0.343909  0.214283  1
  Tb  Tb1  1  0.003615  0.656193  0.714703  1
  Tb  Tb2  1  0.154526  0.497745  0.466351  1
  Tb  Tb3  1  0.503628  0.844212  0.034248  1
  Tb  Tb4  1  0.844493  0.503414  0.965528  1
  Tb  Tb5  1  0.496963  0.155091  0.534964  1
  Tb  Tb6  1  0.343700  0.996488  0.785330  1
  Tb  Tb7  1  0.656998  0.002673  0.285152  1
  Hf  Hf8  1  0.324441  0.677799  0.249539  1
  Hf  Hf9  1  0.675530  0.324432  0.750008  1
  Hf  Hf10  1  0.145871  0.994460  0.376026  1
  Hf  Hf11  1  0.852995  0.004096  0.875890  1
  Hf  Hf12  1  0.505890  0.650183  0.623323  1
  Hf  Hf13  1  0.349788  0.494092  0.876714  1
  Hf  Hf14  1  0.494288  0.349781  0.122304  1
  Hf  Hf15  1  0.652264  0.507609  0.377226  1
  Hf  Hf16  1  0.995932  0.147202  0.624103  1
  Hf  Hf17  1  0.003781  0.852657  0.123980  1
  Ta  Ta18  1  0.174955  0.175124  0.999978  1
  Ta  Ta19  1  0.825016  0.824969  0.500067  1
  Si  Si20  1  0.637204  0.704552  0.816503  1
  Si  Si21  1  0.202027  0.861591  0.566260  1
  Si  Si22  1  0.138434  0.797940  0.933726  1
  Si  Si23  1  0.797926  0.138504  0.066130  1
  Si  Si24  1  0.861552  0.201981  0.433768  1
  Si  Si25  1  0.295578  0.362761  0.683474  1
  Si  Si26  1  0.704224  0.637100  0.183435  1
  Si  Si27  1  0.294678  0.047596  0.182388  1
  Si  Si28  1  0.705205  0.949873  0.683922  1
  Si  Si29  1  0.453302  0.796761  0.435561  1
  Si  Si30  1  0.203211  0.546581  0.064458  1
  Si  Si31  1  0.546690  0.203105  0.935415  1
  Si  Si32  1  0.796703  0.453263  0.564544  1
  Si  Si33  1  0.050011  0.294802  0.816110  1
  Si  Si34  1  0.950185  0.704873  0.316044  1
  Ge  Ge35  1  0.363085  0.296590  0.318548  1
