# generated using pymatgen
data_Dy3Pa(VB4)4
_symmetry_space_group_name_H-M   'P 1'
_cell_length_a   3.48147200
_cell_length_b   5.99401323
_cell_length_c   11.59820767
_cell_angle_alpha   89.90857203
_cell_angle_beta   90.00000000
_cell_angle_gamma   90.00000000
_symmetry_Int_Tables_number   1
_chemical_formula_structural   Dy3Pa(VB4)4
_chemical_formula_sum   'Dy3 Pa1 V4 B16'
_cell_volume   242.03096451
_cell_formula_units_Z   1
loop_
 _symmetry_equiv_pos_site_id
 _symmetry_equiv_pos_as_xyz
  1  'x, y, z'
loop_
 _atom_site_type_symbol
 _atom_site_label
 _atom_site_symmetry_multiplicity
 _atom_site_fract_x
 _atom_site_fract_y
 _atom_site_fract_z
 _atom_site_occupancy
  Dy  Dy0  1  0.500000  0.874542  0.152080  1
  Dy  Dy1  1  0.500000  0.623070  0.649149  1
  Dy  Dy2  1  0.500000  0.375371  0.349391  1
  Pa  Pa3  1  0.500000  0.125958  0.848824  1
  V  V4  1  0.500000  0.125767  0.584009  1
  V  V5  1  0.500000  0.872710  0.417550  1
  V  V6  1  0.500000  0.627939  0.916391  1
  V  V7  1  0.500000  0.372452  0.081822  1
  B  B8  1  0.000000  0.284510  0.685077  1
  B  B9  1  0.000000  0.714165  0.314281  1
  B  B10  1  0.000000  0.785065  0.814996  1
  B  B11  1  0.000000  0.215869  0.186400  1
  B  B12  1  0.000000  0.364440  0.532057  1
  B  B13  1  0.000000  0.635484  0.467122  1
  B  B14  1  0.000000  0.864998  0.967492  1
  B  B15  1  0.000000  0.137356  0.032864  1
  B  B16  1  0.000000  0.023378  0.307684  1
  B  B17  1  0.000000  0.976555  0.691187  1
  B  B18  1  0.000000  0.522884  0.193008  1
  B  B19  1  0.000000  0.475016  0.808541  1
  B  B20  1  0.000000  0.114174  0.452536  1
  B  B21  1  0.000000  0.885665  0.546244  1
  B  B22  1  0.000000  0.614567  0.047731  1
  B  B23  1  0.000000  0.388064  0.953567  1
