# generated using pymatgen
data_Tb15Dy5Ir11Ru
_symmetry_space_group_name_H-M   'P 1'
_cell_length_a   10.90480001
_cell_length_b   10.90409200
_cell_length_c   6.41276701
_cell_angle_alpha   90.00264123
_cell_angle_beta   89.99471774
_cell_angle_gamma   90.00077770
_symmetry_Int_Tables_number   1
_chemical_formula_structural   Tb15Dy5Ir11Ru
_chemical_formula_sum   'Tb15 Dy5 Ir11 Ru1'
_cell_volume   762.52251450
_cell_formula_units_Z   1
loop_
 _symmetry_equiv_pos_site_id
 _symmetry_equiv_pos_as_xyz
  1  'x, y, z'
loop_
 _atom_site_type_symbol
 _atom_site_label
 _atom_site_symmetry_multiplicity
 _atom_site_fract_x
 _atom_site_fract_y
 _atom_site_fract_z
 _atom_site_occupancy
  Tb  Tb0  1  0.292234  0.087475  0.377364  1
  Tb  Tb1  1  0.292553  0.912555  0.880226  1
  Tb  Tb2  1  0.707447  0.087453  0.880255  1
  Tb  Tb3  1  0.707715  0.912598  0.377443  1
  Tb  Tb4  1  0.587443  0.792555  0.880231  1
  Tb  Tb5  1  0.587389  0.207721  0.377448  1
  Tb  Tb6  1  0.412600  0.792275  0.377437  1
  Tb  Tb7  1  0.412513  0.207452  0.880277  1
  Tb  Tb8  1  0.209119  0.411470  0.621270  1
  Tb  Tb9  1  0.209112  0.588225  0.120977  1
  Tb  Tb10  1  0.790948  0.411642  0.120990  1
  Tb  Tb11  1  0.790844  0.588456  0.621276  1
  Tb  Tb12  1  0.911681  0.709126  0.120993  1
  Tb  Tb13  1  0.911605  0.290831  0.621253  1
  Tb  Tb14  1  0.088456  0.709171  0.621279  1
  Dy  Dy15  1  0.088283  0.291064  0.120812  1
  Dy  Dy16  1  0.000008  0.000020  0.499371  1
  Dy  Dy17  1  0.000051  0.000107  0.999402  1
  Dy  Dy18  1  0.499989  0.499982  0.999377  1
  Dy  Dy19  1  0.499995  0.500002  0.499388  1
  Ir  Ir20  1  0.847430  0.153534  0.249978  1
  Ir  Ir21  1  0.847404  0.846844  0.749799  1
  Ir  Ir22  1  0.152526  0.153267  0.750130  1
  Ir  Ir23  1  0.152693  0.846527  0.250067  1
  Ir  Ir24  1  0.653162  0.347407  0.749787  1
  Ir  Ir25  1  0.653475  0.652709  0.250051  1
  Ir  Ir26  1  0.346347  0.347250  0.249977  1
  Ir  Ir27  1  0.346844  0.652588  0.749800  1
  Ir  Ir28  1  0.500010  0.000006  0.624065  1
  Ir  Ir29  1  0.000063  0.499828  0.877339  1
  Ir  Ir30  1  0.000066  0.499860  0.377172  1
  Ru  Ru31  1  0.499995  0.000000  0.124768  1
