# generated using pymatgen
data_SmDy19Rh12
_symmetry_space_group_name_H-M   'P 1'
_cell_length_a   10.91208673
_cell_length_b   10.90884284
_cell_length_c   6.35012604
_cell_angle_alpha   89.98273210
_cell_angle_beta   90.01560133
_cell_angle_gamma   90.00876834
_symmetry_Int_Tables_number   1
_chemical_formula_structural   SmDy19Rh12
_chemical_formula_sum   'Sm1 Dy19 Rh12'
_cell_volume   755.90775041
_cell_formula_units_Z   1
loop_
 _symmetry_equiv_pos_site_id
 _symmetry_equiv_pos_as_xyz
  1  'x, y, z'
loop_
 _atom_site_type_symbol
 _atom_site_label
 _atom_site_symmetry_multiplicity
 _atom_site_fract_x
 _atom_site_fract_y
 _atom_site_fract_z
 _atom_site_occupancy
  Sm  Sm0  1  0.289140  0.089774  0.377590  1
  Dy  Dy1  1  0.291188  0.909997  0.879067  1
  Dy  Dy2  1  0.709178  0.089056  0.879186  1
  Dy  Dy3  1  0.709184  0.910669  0.379087  1
  Dy  Dy4  1  0.589389  0.790712  0.878907  1
  Dy  Dy5  1  0.590213  0.209323  0.379096  1
  Dy  Dy6  1  0.411225  0.790171  0.379254  1
  Dy  Dy7  1  0.411721  0.209389  0.879001  1
  Dy  Dy8  1  0.209157  0.411300  0.621176  1
  Dy  Dy9  1  0.209263  0.589059  0.120649  1
  Dy  Dy10  1  0.790714  0.411215  0.120587  1
  Dy  Dy11  1  0.790876  0.588953  0.620532  1
  Dy  Dy12  1  0.911061  0.709161  0.120694  1
  Dy  Dy13  1  0.910873  0.290793  0.620662  1
  Dy  Dy14  1  0.088942  0.709061  0.620902  1
  Dy  Dy15  1  0.087916  0.291686  0.119968  1
  Dy  Dy16  1  0.998826  0.999508  0.500812  1
  Dy  Dy17  1  0.999836  0.999932  0.000434  1
  Dy  Dy18  1  0.500159  0.500188  0.000109  1
  Dy  Dy19  1  0.500263  0.499987  0.500387  1
  Rh  Rh20  1  0.846055  0.153904  0.250334  1
  Rh  Rh21  1  0.846125  0.846047  0.749960  1
  Rh  Rh22  1  0.152840  0.154464  0.753210  1
  Rh  Rh23  1  0.153019  0.844466  0.248977  1
  Rh  Rh24  1  0.653855  0.346145  0.750127  1
  Rh  Rh25  1  0.653890  0.653978  0.250078  1
  Rh  Rh26  1  0.346497  0.348055  0.249058  1
  Rh  Rh27  1  0.346037  0.654027  0.749855  1
  Rh  Rh28  1  0.501402  0.999334  0.123734  1
  Rh  Rh29  1  0.501560  0.999407  0.625932  1
  Rh  Rh30  1  0.999828  0.500037  0.875288  1
  Rh  Rh31  1  0.999769  0.500204  0.375349  1
