# generated using pymatgen
data_DyTm3Fe5Si10Rh
_symmetry_space_group_name_H-M   'P 1'
_cell_length_a   7.98099669
_cell_length_b   7.98041427
_cell_length_c   7.98041375
_cell_angle_alpha   140.46249681
_cell_angle_beta   108.17200243
_cell_angle_gamma   85.23348720
_symmetry_Int_Tables_number   1
_chemical_formula_structural   DyTm3Fe5Si10Rh
_chemical_formula_sum   'Dy1 Tm3 Fe5 Si10 Rh1'
_cell_volume   296.83268115
_cell_formula_units_Z   1
loop_
 _symmetry_equiv_pos_site_id
 _symmetry_equiv_pos_as_xyz
  1  'x, y, z'
loop_
 _atom_site_type_symbol
 _atom_site_label
 _atom_site_symmetry_multiplicity
 _atom_site_fract_x
 _atom_site_fract_y
 _atom_site_fract_z
 _atom_site_occupancy
  Dy  Dy0  1  0.135551  0.863273  0.272277  1
  Tm  Tm1  1  0.593235  0.361756  0.231479  1
  Tm  Tm2  1  0.405392  0.637587  0.767807  1
  Tm  Tm3  1  0.872106  0.139392  0.732713  1
  Fe  Fe4  1  0.996031  0.747594  0.744828  1
  Fe  Fe5  1  0.447853  0.856530  0.591324  1
  Fe  Fe6  1  0.263332  0.354318  0.909014  1
  Fe  Fe7  1  0.736975  0.644653  0.092322  1
  Fe  Fe8  1  0.996031  0.251203  0.248437  1
  Si  Si9  1  0.249374  0.091257  0.158117  1
  Si  Si10  1  0.734935  0.906819  0.828117  1
  Si  Si11  1  0.075682  0.406289  0.669394  1
  Si  Si12  1  0.922885  0.593815  0.329071  1
  Si  Si13  1  0.796854  0.035630  0.246639  1
  Si  Si14  1  0.210574  0.462035  0.250874  1
  Si  Si15  1  0.210574  0.959698  0.748538  1
  Si  Si16  1  0.503358  0.734604  0.243877  1
  Si  Si17  1  0.503358  0.259481  0.768753  1
  Si  Si18  1  0.796854  0.550215  0.761224  1
  Rh  Rh19  1  0.549045  0.143850  0.405194  1
