# generated using pymatgen
data_Tb4ReMoRu6
_symmetry_space_group_name_H-M   'P 1'
_cell_length_a   5.16548311
_cell_length_b   5.16548322
_cell_length_c   9.11497600
_cell_angle_alpha   90.00000000
_cell_angle_beta   90.00000000
_cell_angle_gamma   114.46846406
_symmetry_Int_Tables_number   1
_chemical_formula_structural   Tb4ReMoRu6
_chemical_formula_sum   'Tb4 Re1 Mo1 Ru6'
_cell_volume   221.36512231
_cell_formula_units_Z   1
loop_
 _symmetry_equiv_pos_site_id
 _symmetry_equiv_pos_as_xyz
  1  'x, y, z'
loop_
 _atom_site_type_symbol
 _atom_site_label
 _atom_site_symmetry_multiplicity
 _atom_site_fract_x
 _atom_site_fract_y
 _atom_site_fract_z
 _atom_site_occupancy
  Tb  Tb0  1  0.330132  0.669868  0.435054  1
  Tb  Tb1  1  0.668057  0.331943  0.567336  1
  Tb  Tb2  1  0.668057  0.331943  0.932664  1
  Tb  Tb3  1  0.330132  0.669868  0.064946  1
  Re  Re4  1  0.165178  0.834822  0.750000  1
  Mo  Mo5  1  0.837148  0.162852  0.250000  1
  Ru  Ru6  1  0.000055  0.999945  0.501009  1
  Ru  Ru7  1  0.000055  0.999945  0.998991  1
  Ru  Ru8  1  0.832600  0.651887  0.250000  1
  Ru  Ru9  1  0.348113  0.167400  0.250000  1
  Ru  Ru10  1  0.165350  0.344875  0.750000  1
  Ru  Ru11  1  0.655125  0.834650  0.750000  1
