# generated using pymatgen
data_Li10IN3
_symmetry_space_group_name_H-M   'P 1'
_cell_length_a   7.43052000
_cell_length_b   7.43051993
_cell_length_c   3.91780800
_cell_angle_alpha   90.00000000
_cell_angle_beta   90.00000000
_cell_angle_gamma   120.00000032
_symmetry_Int_Tables_number   1
_chemical_formula_structural   Li10IN3
_chemical_formula_sum   'Li10 I1 N3'
_cell_volume   187.33209487
_cell_formula_units_Z   1
loop_
 _symmetry_equiv_pos_site_id
 _symmetry_equiv_pos_as_xyz
  1  'x, y, z'
loop_
 _atom_site_type_symbol
 _atom_site_label
 _atom_site_symmetry_multiplicity
 _atom_site_fract_x
 _atom_site_fract_y
 _atom_site_fract_z
 _atom_site_occupancy
  Li  Li0  1  0.778367  0.556733  0.000000  1
  Li  Li1  1  0.443267  0.221633  0.000000  1
  Li  Li2  1  0.778367  0.221633  0.000000  1
  Li  Li3  1  0.171003  0.342005  0.000000  1
  Li  Li4  1  0.491668  0.508332  0.500000  1
  Li  Li5  1  0.016665  0.508332  0.500000  1
  Li  Li6  1  0.491668  0.983335  0.500000  1
  Li  Li7  1  0.333333  0.666667  0.000000  1
  Li  Li8  1  0.171003  0.828997  0.000000  1
  Li  Li9  1  0.657995  0.828997  0.000000  1
  I  I10  1  0.000000  0.000000  0.500000  1
  N  N11  1  0.491299  0.508701  0.000000  1
  N  N12  1  0.491299  0.982596  0.000000  1
  N  N13  1  0.017404  0.508701  0.000000  1
