# generated using pymatgen
data_AcCoGe3
_symmetry_space_group_name_H-M   'P 1'
_cell_length_a   4.44944396
_cell_length_b   4.44944460
_cell_length_c   5.95888174
_cell_angle_alpha   111.92208701
_cell_angle_beta   111.92208719
_cell_angle_gamma   90.00000164
_symmetry_Int_Tables_number   1
_chemical_formula_structural   AcCoGe3
_chemical_formula_sum   'Ac1 Co1 Ge3'
_cell_volume   100.18717043
_cell_formula_units_Z   1
loop_
 _symmetry_equiv_pos_site_id
 _symmetry_equiv_pos_as_xyz
  1  'x, y, z'
loop_
 _atom_site_type_symbol
 _atom_site_label
 _atom_site_symmetry_multiplicity
 _atom_site_fract_x
 _atom_site_fract_y
 _atom_site_fract_z
 _atom_site_occupancy
  Ac  Ac0  1  0.570577  0.570577  0.141155  1
  Co  Co1  1  0.234721  0.234721  0.469442  1
  Ge  Ge2  1  0.325741  0.825741  0.651482  1
  Ge  Ge3  1  0.825741  0.325741  0.651482  1
  Ge  Ge4  1  0.001020  0.001020  0.002041  1
