# generated using pymatgen
data_Nd11(Cu2Si3)2
_symmetry_space_group_name_H-M   'P 1'
_cell_length_a   4.26801115
_cell_length_b   9.35163492
_cell_length_c   13.93656830
_cell_angle_alpha   104.87593653
_cell_angle_beta   89.94715731
_cell_angle_gamma   103.17675393
_symmetry_Int_Tables_number   1
_chemical_formula_structural   Nd11(Cu2Si3)2
_chemical_formula_sum   'Nd11 Cu4 Si6'
_cell_volume   522.46952136
_cell_formula_units_Z   1
loop_
 _symmetry_equiv_pos_site_id
 _symmetry_equiv_pos_as_xyz
  1  'x, y, z'
loop_
 _atom_site_type_symbol
 _atom_site_label
 _atom_site_symmetry_multiplicity
 _atom_site_fract_x
 _atom_site_fract_y
 _atom_site_fract_z
 _atom_site_occupancy
  Nd  Nd0  1  0.902670  0.802109  0.218607  1
  Nd  Nd1  1  0.863829  0.728351  0.654490  1
  Nd  Nd2  1  0.222604  0.440490  0.103304  1
  Nd  Nd3  1  0.551552  0.101039  0.131264  1
  Nd  Nd4  1  0.341974  0.680195  0.395939  1
  Nd  Nd5  1  0.447696  0.898544  0.869897  1
  Nd  Nd6  1  0.000541  0.999909  0.500644  1
  Nd  Nd7  1  0.137184  0.271323  0.346716  1
  Nd  Nd8  1  0.777322  0.559120  0.897851  1
  Nd  Nd9  1  0.659230  0.319574  0.605122  1
  Nd  Nd10  1  0.097339  0.197639  0.782525  1
  Cu  Cu11  1  0.752222  0.501938  0.451726  1
  Cu  Cu12  1  0.935931  0.876639  0.025078  1
  Cu  Cu13  1  0.063680  0.123057  0.976360  1
  Cu  Cu14  1  0.248287  0.497999  0.548470  1
  Si  Si15  1  0.630883  0.256763  0.952025  1
  Si  Si16  1  0.264450  0.530490  0.735781  1
  Si  Si17  1  0.736264  0.469233  0.265293  1
  Si  Si18  1  0.368377  0.742789  0.049085  1
  Si  Si19  1  0.513112  0.024909  0.347983  1
  Si  Si20  1  0.487447  0.974939  0.653367  1
