# generated using pymatgen
data_DyFeP3Ir3Ru
_symmetry_space_group_name_H-M   'P 1'
_cell_length_a   3.90643800
_cell_length_b   10.68351200
_cell_length_c   12.39109400
_cell_angle_alpha   90.00000000
_cell_angle_beta   90.00000000
_cell_angle_gamma   90.00000000
_symmetry_Int_Tables_number   1
_chemical_formula_structural   DyFeP3Ir3Ru
_chemical_formula_sum   'Dy4 Fe4 P12 Ir12 Ru4'
_cell_volume   517.13583065
_cell_formula_units_Z   4
loop_
 _symmetry_equiv_pos_site_id
 _symmetry_equiv_pos_as_xyz
  1  'x, y, z'
loop_
 _atom_site_type_symbol
 _atom_site_label
 _atom_site_symmetry_multiplicity
 _atom_site_fract_x
 _atom_site_fract_y
 _atom_site_fract_z
 _atom_site_occupancy
  Dy  Dy0  1  0.250000  0.582695  0.709980  1
  Dy  Dy1  1  0.250000  0.917305  0.209980  1
  Dy  Dy2  1  0.750000  0.417305  0.290020  1
  Dy  Dy3  1  0.750000  0.082695  0.790020  1
  Fe  Fe4  1  0.250000  0.458587  0.934165  1
  Fe  Fe5  1  0.250000  0.041413  0.434165  1
  Fe  Fe6  1  0.750000  0.541413  0.065835  1
  Fe  Fe7  1  0.750000  0.958587  0.565835  1
  P  P8  1  0.250000  0.430108  0.105121  1
  P  P9  1  0.250000  0.069892  0.605121  1
  P  P10  1  0.750000  0.569892  0.894879  1
  P  P11  1  0.750000  0.930108  0.394879  1
  P  P12  1  0.250000  0.268972  0.869965  1
  P  P13  1  0.250000  0.231028  0.369965  1
  P  P14  1  0.750000  0.731028  0.130035  1
  P  P15  1  0.750000  0.768972  0.630035  1
  P  P16  1  0.250000  0.599519  0.389001  1
  P  P17  1  0.250000  0.900481  0.889001  1
  P  P18  1  0.750000  0.400481  0.610999  1
  P  P19  1  0.750000  0.099519  0.110999  1
  Ir  Ir20  1  0.250000  0.406932  0.481628  1
  Ir  Ir21  1  0.250000  0.093068  0.981628  1
  Ir  Ir22  1  0.750000  0.593068  0.518372  1
  Ir  Ir23  1  0.750000  0.906932  0.018372  1
  Ir  Ir24  1  0.250000  0.234575  0.177611  1
  Ir  Ir25  1  0.250000  0.265425  0.677611  1
  Ir  Ir26  1  0.750000  0.765425  0.822389  1
  Ir  Ir27  1  0.750000  0.734575  0.322389  1
  Ir  Ir28  1  0.250000  0.884373  0.701386  1
  Ir  Ir29  1  0.250000  0.615627  0.201386  1
  Ir  Ir30  1  0.750000  0.115627  0.298614  1
  Ir  Ir31  1  0.750000  0.384373  0.798614  1
  Ru  Ru32  1  0.250000  0.715778  0.985871  1
  Ru  Ru33  1  0.250000  0.784222  0.485871  1
  Ru  Ru34  1  0.750000  0.284222  0.014129  1
  Ru  Ru35  1  0.750000  0.215778  0.514129  1
