# generated using pymatgen
data_Li3Lu6Zn20P
_symmetry_space_group_name_H-M   'P 1'
_cell_length_a   9.01748913
_cell_length_b   9.01749329
_cell_length_c   9.04257400
_cell_angle_alpha   59.90777505
_cell_angle_beta   59.90795066
_cell_angle_gamma   59.85781378
_symmetry_Int_Tables_number   1
_chemical_formula_structural   Li3Lu6Zn20P
_chemical_formula_sum   'Li3 Lu6 Zn20 P1'
_cell_volume   518.65043648
_cell_formula_units_Z   1
loop_
 _symmetry_equiv_pos_site_id
 _symmetry_equiv_pos_as_xyz
  1  'x, y, z'
loop_
 _atom_site_type_symbol
 _atom_site_label
 _atom_site_symmetry_multiplicity
 _atom_site_fract_x
 _atom_site_fract_y
 _atom_site_fract_z
 _atom_site_occupancy
  Li  Li0  1  0.626630  0.125164  0.124059  1
  Li  Li1  1  0.125170  0.626640  0.124057  1
  Li  Li2  1  0.002793  0.002800  0.997212  1
  Lu  Lu3  1  0.711681  0.290599  0.290503  1
  Lu  Lu4  1  0.711685  0.290613  0.707206  1
  Lu  Lu5  1  0.707639  0.707611  0.292373  1
  Lu  Lu6  1  0.290610  0.711682  0.707208  1
  Lu  Lu7  1  0.290593  0.711690  0.290496  1
  Lu  Lu8  1  0.288221  0.288212  0.711796  1
  Zn  Zn9  1  0.122778  0.122778  0.631858  1
  Zn  Zn10  1  0.122757  0.122759  0.122600  1
  Zn  Zn11  1  0.369145  0.872496  0.879181  1
  Zn  Zn12  1  0.872493  0.369148  0.879186  1
  Zn  Zn13  1  0.875840  0.875848  0.367301  1
  Zn  Zn14  1  0.875848  0.875854  0.881016  1
  Zn  Zn15  1  0.501052  0.001940  0.998461  1
  Zn  Zn16  1  0.501061  0.001945  0.498547  1
  Zn  Zn17  1  0.499385  0.499381  0.000622  1
  Zn  Zn18  1  0.001944  0.501058  0.498550  1
  Zn  Zn19  1  0.001941  0.501052  0.998461  1
  Zn  Zn20  1  0.000096  0.000096  0.499911  1
  Zn  Zn21  1  0.010260  0.331828  0.328959  1
  Zn  Zn22  1  0.331831  0.010256  0.328956  1
  Zn  Zn23  1  0.330053  0.330047  0.012192  1
  Zn  Zn24  1  0.330051  0.330050  0.327704  1
  Zn  Zn25  1  0.989536  0.670109  0.670185  1
  Zn  Zn26  1  0.670105  0.989542  0.670187  1
  Zn  Zn27  1  0.670270  0.670273  0.990033  1
  Zn  Zn28  1  0.670274  0.670274  0.669447  1
  P  P29  1  0.498254  0.498257  0.501735  1
