# generated using pymatgen
data_K3SrZr6BI18
_symmetry_space_group_name_H-M   'P 1'
_cell_length_a   11.13029623
_cell_length_b   11.21831497
_cell_length_c   11.34885554
_cell_angle_alpha   118.41197441
_cell_angle_beta   100.03231662
_cell_angle_gamma   103.89096170
_symmetry_Int_Tables_number   1
_chemical_formula_structural   K3SrZr6BI18
_chemical_formula_sum   'K3 Sr1 Zr6 B1 I18'
_cell_volume   1138.79091649
_cell_formula_units_Z   1
loop_
 _symmetry_equiv_pos_site_id
 _symmetry_equiv_pos_as_xyz
  1  'x, y, z'
loop_
 _atom_site_type_symbol
 _atom_site_label
 _atom_site_symmetry_multiplicity
 _atom_site_fract_x
 _atom_site_fract_y
 _atom_site_fract_z
 _atom_site_occupancy
  K  K0  1  0.848240  0.965072  0.774712  1
  K  K1  1  0.147884  0.036874  0.226359  1
  K  K2  1  0.811078  0.269435  0.433211  1
  Sr  Sr3  1  0.179907  0.727769  0.569537  1
  Zr  Zr4  1  0.359159  0.450334  0.784773  1
  Zr  Zr5  1  0.372018  0.617678  0.127547  1
  Zr  Zr6  1  0.637424  0.727671  0.043597  1
  Zr  Zr7  1  0.642066  0.550876  0.214665  1
  Zr  Zr8  1  0.363501  0.273293  0.955130  1
  Zr  Zr9  1  0.629152  0.379080  0.871067  1
  B  B10  1  0.501274  0.500062  0.999179  1
  I  I11  1  0.821043  0.417580  0.106255  1
  I  I12  1  0.518031  0.705434  0.415025  1
  I  I13  1  0.176192  0.959793  0.886323  1
  I  I14  1  0.176686  0.579777  0.894920  1
  I  I15  1  0.830658  0.836404  0.313708  1
  I  I16  1  0.504034  0.291771  0.210393  1
  I  I17  1  0.798988  0.220121  0.706621  1
  I  I18  1  0.166916  0.165494  0.683775  1
  I  I19  1  0.505601  0.913686  0.200743  1
  I  I20  1  0.817848  0.628018  0.899979  1
  I  I21  1  0.198137  0.777400  0.311514  1
  I  I22  1  0.163799  0.399923  0.494708  1
  I  I23  1  0.495667  0.710293  0.789048  1
  I  I24  1  0.826570  0.028646  0.101339  1
  I  I25  1  0.482020  0.293578  0.585111  1
  I  I26  1  0.180293  0.366987  0.096032  1
  I  I27  1  0.856623  0.626638  0.509400  1
  I  I28  1  0.489193  0.080316  0.795327  1
