# generated using pymatgen
data_Ho2Er10GaCo4Pd
_symmetry_space_group_name_H-M   'P 1'
_cell_length_a   8.20613109
_cell_length_b   8.20613179
_cell_length_c   8.19939771
_cell_angle_alpha   106.86745109
_cell_angle_beta   110.60706676
_cell_angle_gamma   111.00266583
_symmetry_Int_Tables_number   1
_chemical_formula_structural   Ho2Er10GaCo4Pd
_chemical_formula_sum   'Ho2 Er10 Ga1 Co4 Pd1'
_cell_volume   424.21366426
_cell_formula_units_Z   1
loop_
 _symmetry_equiv_pos_site_id
 _symmetry_equiv_pos_as_xyz
  1  'x, y, z'
loop_
 _atom_site_type_symbol
 _atom_site_label
 _atom_site_symmetry_multiplicity
 _atom_site_fract_x
 _atom_site_fract_y
 _atom_site_fract_z
 _atom_site_occupancy
  Ho  Ho0  1  0.697660  0.277516  0.975175  1
  Ho  Ho1  1  0.302340  0.722484  0.024825  1
  Er  Er2  1  0.698237  0.722581  0.420819  1
  Er  Er3  1  0.301763  0.277419  0.579181  1
  Er  Er4  1  0.802790  0.119073  0.317139  1
  Er  Er5  1  0.801934  0.485652  0.682861  1
  Er  Er6  1  0.197210  0.880927  0.682861  1
  Er  Er7  1  0.198066  0.514348  0.317139  1
  Er  Er8  1  0.603372  0.789517  0.813364  1
  Er  Er9  1  0.976152  0.790008  0.186636  1
  Er  Er10  1  0.023848  0.209992  0.813364  1
  Er  Er11  1  0.396628  0.210483  0.186636  1
  Ga  Ga12  1  0.500000  0.000000  0.500000  1
  Co  Co13  1  0.876439  0.500293  0.376732  1
  Co  Co14  1  0.123561  0.499707  0.623268  1
  Co  Co15  1  0.000773  0.113179  0.113953  1
  Co  Co16  1  0.999227  0.886821  0.886047  1
  Pd  Pd17  1  0.500000  0.500000  0.000000  1
