# generated using pymatgen
data_Tb8Al2PdPt
_symmetry_space_group_name_H-M   'P 1'
_cell_length_a   9.64671343
_cell_length_b   9.64671413
_cell_length_c   9.60600300
_cell_angle_alpha   60.13950882
_cell_angle_beta   60.13950643
_cell_angle_gamma   60.22585395
_symmetry_Int_Tables_number   1
_chemical_formula_structural   Tb8Al2PdPt
_chemical_formula_sum   'Tb16 Al4 Pd2 Pt2'
_cell_volume   634.50932618
_cell_formula_units_Z   2
loop_
 _symmetry_equiv_pos_site_id
 _symmetry_equiv_pos_as_xyz
  1  'x, y, z'
loop_
 _atom_site_type_symbol
 _atom_site_label
 _atom_site_symmetry_multiplicity
 _atom_site_fract_x
 _atom_site_fract_y
 _atom_site_fract_z
 _atom_site_occupancy
  Tb  Tb0  1  0.353950  0.353950  0.352424  1
  Tb  Tb1  1  0.353950  0.353950  0.939675  1
  Tb  Tb2  1  0.356430  0.932981  0.355295  1
  Tb  Tb3  1  0.932981  0.356430  0.355295  1
  Tb  Tb4  1  0.805395  0.195632  0.192676  1
  Tb  Tb5  1  0.195632  0.805395  0.806298  1
  Tb  Tb6  1  0.195632  0.805395  0.192676  1
  Tb  Tb7  1  0.805395  0.195632  0.806298  1
  Tb  Tb8  1  0.194698  0.194698  0.805302  1
  Tb  Tb9  1  0.806650  0.806650  0.193350  1
  Tb  Tb10  1  0.935170  0.566664  0.563850  1
  Tb  Tb11  1  0.566664  0.935170  0.934315  1
  Tb  Tb12  1  0.566664  0.935170  0.563850  1
  Tb  Tb13  1  0.935170  0.566664  0.934315  1
  Tb  Tb14  1  0.565888  0.565888  0.934112  1
  Tb  Tb15  1  0.934042  0.934042  0.565958  1
  Al  Al16  1  0.576642  0.576642  0.578309  1
  Al  Al17  1  0.576642  0.576642  0.268404  1
  Al  Al18  1  0.575568  0.269635  0.577398  1
  Al  Al19  1  0.269635  0.575568  0.577398  1
  Pd  Pd20  1  0.143198  0.143198  0.146454  1
  Pd  Pd21  1  0.143198  0.143198  0.567151  1
  Pt  Pt22  1  0.141076  0.569729  0.144598  1
  Pt  Pt23  1  0.569729  0.141076  0.144598  1
