# generated using pymatgen
data_Ca2B4OsRh3
_symmetry_space_group_name_H-M   'P 1'
_cell_length_a   6.96037869
_cell_length_b   6.04582744
_cell_length_c   5.54427461
_cell_angle_alpha   73.67470278
_cell_angle_beta   56.46879791
_cell_angle_gamma   50.14246196
_symmetry_Int_Tables_number   1
_chemical_formula_structural   Ca2B4OsRh3
_chemical_formula_sum   'Ca2 B4 Os1 Rh3'
_cell_volume   148.32085540
_cell_formula_units_Z   1
loop_
 _symmetry_equiv_pos_site_id
 _symmetry_equiv_pos_as_xyz
  1  'x, y, z'
loop_
 _atom_site_type_symbol
 _atom_site_label
 _atom_site_symmetry_multiplicity
 _atom_site_fract_x
 _atom_site_fract_y
 _atom_site_fract_z
 _atom_site_occupancy
  Ca  Ca0  1  0.498555  0.498555  0.501445  1
  Ca  Ca1  1  0.752971  0.752971  0.747029  1
  B  B2  1  0.818123  0.193466  0.832572  1
  B  B3  1  0.057855  0.433628  0.075126  1
  B  B4  1  0.193466  0.818123  0.155839  1
  B  B5  1  0.433628  0.057855  0.433391  1
  Os  Os6  1  0.132808  0.132808  0.867192  1
  Rh  Rh7  1  0.380289  0.380289  0.119711  1
  Rh  Rh8  1  0.115428  0.115428  0.384572  1
  Rh  Rh9  1  0.866877  0.866877  0.133123  1
