# generated using pymatgen
data_Hg2BiPt4PbO14
_symmetry_space_group_name_H-M   'P 1'
_cell_length_a   7.34637650
_cell_length_b   7.22460498
_cell_length_c   7.34862481
_cell_angle_alpha   60.55671707
_cell_angle_beta   61.20964824
_cell_angle_gamma   60.54681402
_symmetry_Int_Tables_number   1
_chemical_formula_structural   Hg2BiPt4PbO14
_chemical_formula_sum   'Hg2 Bi1 Pt4 Pb1 O14'
_cell_volume   280.56299153
_cell_formula_units_Z   1
loop_
 _symmetry_equiv_pos_site_id
 _symmetry_equiv_pos_as_xyz
  1  'x, y, z'
loop_
 _atom_site_type_symbol
 _atom_site_label
 _atom_site_symmetry_multiplicity
 _atom_site_fract_x
 _atom_site_fract_y
 _atom_site_fract_z
 _atom_site_occupancy
  Hg  Hg0  1  0.125000  0.125000  0.125000  1
  Hg  Hg1  1  0.125000  0.625000  0.125000  1
  Bi  Bi2  1  0.125000  0.125000  0.625000  1
  Pt  Pt3  1  0.625000  0.625000  0.125000  1
  Pt  Pt4  1  0.625000  0.625000  0.625000  1
  Pt  Pt5  1  0.625000  0.125000  0.625000  1
  Pt  Pt6  1  0.125000  0.625000  0.625000  1
  Pb  Pb7  1  0.625000  0.125000  0.125000  1
  O  O8  1  0.700034  0.290808  0.294728  1
  O  O9  1  0.708142  0.290861  0.710136  1
  O  O10  1  0.985466  0.006187  0.002161  1
  O  O11  1  0.295307  0.704738  0.295216  1
  O  O12  1  0.700034  0.714430  0.294728  1
  O  O13  1  0.955058  0.539162  0.546726  1
  O  O14  1  0.294942  0.710838  0.703274  1
  O  O15  1  0.264534  0.243813  0.247839  1
  O  O16  1  0.954693  0.545262  0.954784  1
  O  O17  1  0.541858  0.959139  0.539864  1
  O  O18  1  0.549966  0.535570  0.955272  1
  O  O19  1  0.955058  0.959056  0.546726  1
  O  O20  1  0.549966  0.959192  0.955272  1
  O  O21  1  0.294942  0.290944  0.703274  1
