# generated using pymatgen
data_Yb3Sn3IrPd2
_symmetry_space_group_name_H-M   'P 1'
_cell_length_a   7.41083200
_cell_length_b   7.41083169
_cell_length_c   4.18010600
_cell_angle_alpha   90.00000000
_cell_angle_beta   90.00000000
_cell_angle_gamma   119.99999244
_symmetry_Int_Tables_number   1
_chemical_formula_structural   Yb3Sn3IrPd2
_chemical_formula_sum   'Yb3 Sn3 Ir1 Pd2'
_cell_volume   198.81624999
_cell_formula_units_Z   1
loop_
 _symmetry_equiv_pos_site_id
 _symmetry_equiv_pos_as_xyz
  1  'x, y, z'
loop_
 _atom_site_type_symbol
 _atom_site_label
 _atom_site_symmetry_multiplicity
 _atom_site_fract_x
 _atom_site_fract_y
 _atom_site_fract_z
 _atom_site_occupancy
  Yb  Yb0  1  0.000000  0.406990  0.500000  1
  Yb  Yb1  1  0.593010  0.593010  0.500000  1
  Yb  Yb2  1  0.406990  0.000000  0.500000  1
  Sn  Sn3  1  0.000000  0.748411  0.000000  1
  Sn  Sn4  1  0.251589  0.251589  0.000000  1
  Sn  Sn5  1  0.748411  0.000000  0.000000  1
  Ir  Ir6  1  0.000000  0.000000  0.500000  1
  Pd  Pd7  1  0.333333  0.666667  0.000000  1
  Pd  Pd8  1  0.666667  0.333333  0.000000  1
