# generated using pymatgen
data_TbTmC2(O3F)2
_symmetry_space_group_name_H-M   'P 1'
_cell_length_a   4.36027010
_cell_length_b   6.33506461
_cell_length_c   6.79395105
_cell_angle_alpha   90.08658846
_cell_angle_beta   90.59705357
_cell_angle_gamma   92.19767314
_symmetry_Int_Tables_number   1
_chemical_formula_structural   TbTmC2(O3F)2
_chemical_formula_sum   'Tb1 Tm1 C2 O6 F2'
_cell_volume   187.51798553
_cell_formula_units_Z   1
loop_
 _symmetry_equiv_pos_site_id
 _symmetry_equiv_pos_as_xyz
  1  'x, y, z'
loop_
 _atom_site_type_symbol
 _atom_site_label
 _atom_site_symmetry_multiplicity
 _atom_site_fract_x
 _atom_site_fract_y
 _atom_site_fract_z
 _atom_site_occupancy
  Tb  Tb0  1  0.501013  0.658452  0.750264  1
  Tm  Tm1  1  0.496762  0.341655  0.249230  1
  C  C2  1  0.500928  0.795838  0.250225  1
  C  C3  1  0.500176  0.205800  0.749352  1
  O  O4  1  0.516837  0.681328  0.090465  1
  O  O5  1  0.485449  0.994190  0.250212  1
  O  O6  1  0.500080  0.680587  0.409988  1
  O  O7  1  0.495280  0.318528  0.587659  1
  O  O8  1  0.522139  0.008679  0.749252  1
  O  O9  1  0.483608  0.317605  0.911284  1
  F  F10  1  0.996699  0.348177  0.248737  1
  F  F11  1  0.001031  0.649162  0.753333  1
