# generated using pymatgen
data_AlV11Si3Ir
_symmetry_space_group_name_H-M   'P 1'
_cell_length_a   4.69457300
_cell_length_b   4.69297500
_cell_length_c   9.57375200
_cell_angle_alpha   90.00000000
_cell_angle_beta   90.00000000
_cell_angle_gamma   90.00000000
_symmetry_Int_Tables_number   1
_chemical_formula_structural   AlV11Si3Ir
_chemical_formula_sum   'Al1 V11 Si3 Ir1'
_cell_volume   210.92424858
_cell_formula_units_Z   1
loop_
 _symmetry_equiv_pos_site_id
 _symmetry_equiv_pos_as_xyz
  1  'x, y, z'
loop_
 _atom_site_type_symbol
 _atom_site_label
 _atom_site_symmetry_multiplicity
 _atom_site_fract_x
 _atom_site_fract_y
 _atom_site_fract_z
 _atom_site_occupancy
  Al  Al0  1  0.500000  0.500000  0.997387  1
  V  V1  1  0.000000  0.500000  0.624535  1
  V  V2  1  0.500000  0.251246  0.747353  1
  V  V3  1  0.500000  0.244536  0.254286  1
  V  V4  1  0.750896  0.000000  0.000038  1
  V  V5  1  0.753127  0.000000  0.498292  1
  V  V6  1  0.000000  0.500000  0.865680  1
  V  V7  1  0.000000  0.500000  0.382096  1
  V  V8  1  0.500000  0.748754  0.747353  1
  V  V9  1  0.500000  0.755464  0.254286  1
  V  V10  1  0.249104  0.000000  0.000038  1
  V  V11  1  0.246873  0.000000  0.498292  1
  Si  Si12  1  0.500000  0.500000  0.499897  1
  Si  Si13  1  0.000000  0.000000  0.749674  1
  Si  Si14  1  0.000000  0.000000  0.255509  1
  Ir  Ir15  1  0.000000  0.500000  0.125283  1
