# generated using pymatgen
data_Sr2LiRh3
_symmetry_space_group_name_H-M   'P 1'
_cell_length_a   5.55185389
_cell_length_b   5.51124809
_cell_length_c   5.51124800
_cell_angle_alpha   60.00000056
_cell_angle_beta   60.24164950
_cell_angle_gamma   60.24164150
_symmetry_Int_Tables_number   1
_chemical_formula_structural   Sr2LiRh3
_chemical_formula_sum   'Sr2 Li1 Rh3'
_cell_volume   119.67393660
_cell_formula_units_Z   1
loop_
 _symmetry_equiv_pos_site_id
 _symmetry_equiv_pos_as_xyz
  1  'x, y, z'
loop_
 _atom_site_type_symbol
 _atom_site_label
 _atom_site_symmetry_multiplicity
 _atom_site_fract_x
 _atom_site_fract_y
 _atom_site_fract_z
 _atom_site_occupancy
  Sr  Sr0  1  0.262838  0.245721  0.245721  1
  Sr  Sr1  1  0.987162  0.004279  0.004279  1
  Li  Li2  1  0.125000  0.625000  0.625000  1
  Rh  Rh3  1  0.625000  0.125000  0.625000  1
  Rh  Rh4  1  0.625000  0.625000  0.125000  1
  Rh  Rh5  1  0.625000  0.625000  0.625000  1
