# generated using pymatgen
data_Tb4Er6BiPb7
_symmetry_space_group_name_H-M   'P 1'
_cell_length_a   8.23630300
_cell_length_b   8.28196929
_cell_length_c   15.54460120
_cell_angle_alpha   90.26643858
_cell_angle_beta   90.00000000
_cell_angle_gamma   90.00000000
_symmetry_Int_Tables_number   1
_chemical_formula_structural   Tb4Er6BiPb7
_chemical_formula_sum   'Tb8 Er12 Bi2 Pb14'
_cell_volume   1060.32944031
_cell_formula_units_Z   2
loop_
 _symmetry_equiv_pos_site_id
 _symmetry_equiv_pos_as_xyz
  1  'x, y, z'
loop_
 _atom_site_type_symbol
 _atom_site_label
 _atom_site_symmetry_multiplicity
 _atom_site_fract_x
 _atom_site_fract_y
 _atom_site_fract_z
 _atom_site_occupancy
  Tb  Tb0  1  0.544731  0.330713  0.896655  1
  Tb  Tb1  1  0.044731  0.169287  0.603345  1
  Tb  Tb2  1  0.454628  0.675282  0.397152  1
  Tb  Tb3  1  0.954628  0.824718  0.102848  1
  Tb  Tb4  1  0.458978  0.669499  0.101810  1
  Tb  Tb5  1  0.958978  0.830501  0.398190  1
  Tb  Tb6  1  0.537551  0.323290  0.602428  1
  Tb  Tb7  1  0.037551  0.176710  0.897572  1
  Er  Er8  1  0.379407  0.839798  0.878055  1
  Er  Er9  1  0.879407  0.660202  0.621945  1
  Er  Er10  1  0.621435  0.155276  0.377908  1
  Er  Er11  1  0.121435  0.344724  0.122092  1
  Er  Er12  1  0.625969  0.158606  0.121551  1
  Er  Er13  1  0.125969  0.341394  0.378449  1
  Er  Er14  1  0.376942  0.842351  0.621638  1
  Er  Er15  1  0.876942  0.657649  0.878362  1
  Er  Er16  1  0.209207  0.502666  0.749579  1
  Er  Er17  1  0.709207  0.997334  0.750421  1
  Er  Er18  1  0.790482  0.497551  0.248264  1
  Er  Er19  1  0.290482  0.002449  0.251736  1
  Bi  Bi20  1  0.278862  0.029800  0.044916  1
  Bi  Bi21  1  0.778862  0.470200  0.455084  1
  Pb  Pb22  1  0.720281  0.968924  0.543821  1
  Pb  Pb23  1  0.220281  0.531076  0.956179  1
  Pb  Pb24  1  0.720234  0.968181  0.956361  1
  Pb  Pb25  1  0.220234  0.531819  0.543639  1
  Pb  Pb26  1  0.281556  0.032422  0.456544  1
  Pb  Pb27  1  0.781556  0.467578  0.043456  1
  Pb  Pb28  1  0.572075  0.629280  0.748413  1
  Pb  Pb29  1  0.072075  0.870720  0.751587  1
  Pb  Pb30  1  0.429185  0.369881  0.249657  1
  Pb  Pb31  1  0.929185  0.130119  0.250343  1
  Pb  Pb32  1  0.351546  0.152573  0.751472  1
  Pb  Pb33  1  0.851546  0.347427  0.748528  1
  Pb  Pb34  1  0.646930  0.846489  0.249447  1
  Pb  Pb35  1  0.146930  0.653511  0.250553  1
