# generated using pymatgen
data_Nd2Mn(TeO)2
_symmetry_space_group_name_H-M   'P 1'
_cell_length_a   4.13847400
_cell_length_b   4.13845900
_cell_length_c   9.89617400
_cell_angle_alpha   90.00000000
_cell_angle_beta   90.00000000
_cell_angle_gamma   90.00000000
_symmetry_Int_Tables_number   1
_chemical_formula_structural   Nd2Mn(TeO)2
_chemical_formula_sum   'Nd2 Mn1 Te2 O2'
_cell_volume   169.49083168
_cell_formula_units_Z   1
loop_
 _symmetry_equiv_pos_site_id
 _symmetry_equiv_pos_as_xyz
  1  'x, y, z'
loop_
 _atom_site_type_symbol
 _atom_site_label
 _atom_site_symmetry_multiplicity
 _atom_site_fract_x
 _atom_site_fract_y
 _atom_site_fract_z
 _atom_site_occupancy
  Nd  Nd0  1  0.000000  0.499999  0.115683  1
  Nd  Nd1  1  0.499999  0.000000  0.884316  1
  Mn  Mn2  1  0.499999  0.499999  0.500002  1
  Te  Te3  1  0.499999  0.000000  0.311932  1
  Te  Te4  1  0.000000  0.499999  0.688069  1
  O  O5  1  0.000000  0.000000  0.999998  1
  O  O6  1  0.499999  0.499999  0.000000  1
