# generated using pymatgen
data_CaYCr2Co10As7
_symmetry_space_group_name_H-M   'P 1'
_cell_length_a   3.74783700
_cell_length_b   9.40787020
_cell_length_c   9.43651785
_cell_angle_alpha   119.93198190
_cell_angle_beta   90.00000000
_cell_angle_gamma   90.00000000
_symmetry_Int_Tables_number   1
_chemical_formula_structural   CaYCr2Co10As7
_chemical_formula_sum   'Ca1 Y1 Cr2 Co10 As7'
_cell_volume   288.34449479
_cell_formula_units_Z   1
loop_
 _symmetry_equiv_pos_site_id
 _symmetry_equiv_pos_as_xyz
  1  'x, y, z'
loop_
 _atom_site_type_symbol
 _atom_site_label
 _atom_site_symmetry_multiplicity
 _atom_site_fract_x
 _atom_site_fract_y
 _atom_site_fract_z
 _atom_site_occupancy
  Ca  Ca0  1  0.500000  0.331998  0.667011  1
  Y  Y1  1  0.000000  0.671327  0.337347  1
  Cr  Cr2  1  0.500000  0.776259  0.893376  1
  Cr  Cr3  1  0.500000  0.119688  0.222734  1
  Co  Co4  1  0.000000  0.570975  0.945224  1
  Co  Co5  1  0.000000  0.372452  0.428961  1
  Co  Co6  1  0.000000  0.055203  0.626345  1
  Co  Co7  1  0.500000  0.097040  0.880206  1
  Co  Co8  1  0.000000  0.880085  0.155871  1
  Co  Co9  1  0.000000  0.281044  0.121816  1
  Co  Co10  1  0.000000  0.840979  0.722002  1
  Co  Co11  1  0.500000  0.946408  0.379523  1
  Co  Co12  1  0.500000  0.432306  0.050069  1
  Co  Co13  1  0.500000  0.619703  0.565895  1
  As  As14  1  0.000000  0.002754  0.998279  1
  As  As15  1  0.500000  0.707131  0.116057  1
  As  As16  1  0.500000  0.411441  0.292275  1
  As  As17  1  0.500000  0.888991  0.597256  1
  As  As18  1  0.000000  0.584975  0.701675  1
  As  As19  1  0.000000  0.115234  0.414357  1
  As  As20  1  0.000000  0.294005  0.883722  1
