# generated using pymatgen
data_Ce2InTcF15
_symmetry_space_group_name_H-M   'P 1'
_cell_length_a   8.34009457
_cell_length_b   8.34009565
_cell_length_c   8.39424100
_cell_angle_alpha   79.67152834
_cell_angle_beta   79.67152000
_cell_angle_gamma   99.53031014
_symmetry_Int_Tables_number   1
_chemical_formula_structural   Ce2InTcF15
_chemical_formula_sum   'Ce4 In2 Tc2 F30'
_cell_volume   553.19384480
_cell_formula_units_Z   2
loop_
 _symmetry_equiv_pos_site_id
 _symmetry_equiv_pos_as_xyz
  1  'x, y, z'
loop_
 _atom_site_type_symbol
 _atom_site_label
 _atom_site_symmetry_multiplicity
 _atom_site_fract_x
 _atom_site_fract_y
 _atom_site_fract_z
 _atom_site_occupancy
  Ce  Ce0  1  0.757286  0.679353  0.674381  1
  Ce  Ce1  1  0.320647  0.242714  0.825619  1
  Ce  Ce2  1  0.242714  0.320647  0.325619  1
  Ce  Ce3  1  0.679353  0.757286  0.174381  1
  In  In4  1  0.177175  0.822825  0.250000  1
  In  In5  1  0.822825  0.177175  0.750000  1
  Tc  Tc6  1  0.749142  0.250858  0.250000  1
  Tc  Tc7  1  0.250858  0.749142  0.750000  1
  F  F8  1  0.465752  0.534248  0.250000  1
  F  F9  1  0.753534  0.968165  0.960812  1
  F  F10  1  0.031835  0.246466  0.539188  1
  F  F11  1  0.246466  0.031835  0.039188  1
  F  F12  1  0.968165  0.753534  0.460812  1
  F  F13  1  0.534248  0.465752  0.750000  1
  F  F14  1  0.217833  0.508884  0.774590  1
  F  F15  1  0.232590  0.722476  0.987016  1
  F  F16  1  0.008971  0.729372  0.782425  1
  F  F17  1  0.729372  0.008971  0.282425  1
  F  F18  1  0.722476  0.232590  0.487016  1
  F  F19  1  0.508884  0.217833  0.274590  1
  F  F20  1  0.782168  0.491116  0.225410  1
  F  F21  1  0.767410  0.277524  0.012984  1
  F  F22  1  0.991029  0.270628  0.217575  1
  F  F23  1  0.270628  0.991029  0.717575  1
  F  F24  1  0.277524  0.767410  0.512984  1
  F  F25  1  0.491116  0.782167  0.725410  1
  F  F26  1  0.559682  0.149821  0.809225  1
  F  F27  1  0.191210  0.046495  0.348796  1
  F  F28  1  0.643939  0.685207  0.448799  1
  F  F29  1  0.685207  0.643939  0.948799  1
  F  F30  1  0.046495  0.191210  0.848796  1
  F  F31  1  0.149821  0.559682  0.309225  1
  F  F32  1  0.440318  0.850179  0.190775  1
  F  F33  1  0.808790  0.953505  0.651204  1
  F  F34  1  0.356061  0.314793  0.551201  1
  F  F35  1  0.314793  0.356061  0.051201  1
  F  F36  1  0.953505  0.808790  0.151204  1
  F  F37  1  0.850179  0.440318  0.690775  1
