# generated using pymatgen
data_YbThTeO2
_symmetry_space_group_name_H-M   'P 1'
_cell_length_a   6.94725434
_cell_length_b   6.94725419
_cell_length_c   6.94725215
_cell_angle_alpha   146.23558256
_cell_angle_beta   146.23559778
_cell_angle_gamma   48.49696674
_symmetry_Int_Tables_number   1
_chemical_formula_structural   YbThTeO2
_chemical_formula_sum   'Yb1 Th1 Te1 O2'
_cell_volume   103.13221272
_cell_formula_units_Z   1
loop_
 _symmetry_equiv_pos_site_id
 _symmetry_equiv_pos_as_xyz
  1  'x, y, z'
loop_
 _atom_site_type_symbol
 _atom_site_label
 _atom_site_symmetry_multiplicity
 _atom_site_fract_x
 _atom_site_fract_y
 _atom_site_fract_z
 _atom_site_occupancy
  Yb  Yb0  1  0.661907  0.661907  0.000000  1
  Th  Th1  1  0.337166  0.337166  0.000000  1
  Te  Te2  1  0.996016  0.996016  0.000000  1
  O  O3  1  0.752456  0.252456  0.500000  1
  O  O4  1  0.252456  0.752456  0.500000  1
