# generated using pymatgen
data_Ba3(InRh)2
_symmetry_space_group_name_H-M   'P 1'
_cell_length_a   6.51794600
_cell_length_b   8.94383900
_cell_length_c   14.99877800
_cell_angle_alpha   90.00000000
_cell_angle_beta   90.00000000
_cell_angle_gamma   90.00000000
_symmetry_Int_Tables_number   1
_chemical_formula_structural   Ba3(InRh)2
_chemical_formula_sum   'Ba12 In8 Rh8'
_cell_volume   874.36065747
_cell_formula_units_Z   4
loop_
 _symmetry_equiv_pos_site_id
 _symmetry_equiv_pos_as_xyz
  1  'x, y, z'
loop_
 _atom_site_type_symbol
 _atom_site_label
 _atom_site_symmetry_multiplicity
 _atom_site_fract_x
 _atom_site_fract_y
 _atom_site_fract_z
 _atom_site_occupancy
  Ba  Ba0  1  0.637037  0.243478  0.250000  1
  Ba  Ba1  1  0.362963  0.756522  0.750000  1
  Ba  Ba2  1  0.362963  0.743478  0.250000  1
  Ba  Ba3  1  0.637037  0.256522  0.750000  1
  Ba  Ba4  1  0.158957  0.402944  0.090758  1
  Ba  Ba5  1  0.841043  0.597056  0.909242  1
  Ba  Ba6  1  0.841043  0.597056  0.590758  1
  Ba  Ba7  1  0.841043  0.902944  0.409242  1
  Ba  Ba8  1  0.158957  0.402944  0.409242  1
  Ba  Ba9  1  0.158957  0.097056  0.590758  1
  Ba  Ba10  1  0.158957  0.097056  0.909242  1
  Ba  Ba11  1  0.841043  0.902944  0.090758  1
  In  In12  1  0.168292  0.093124  0.250000  1
  In  In13  1  0.831708  0.906876  0.750000  1
  In  In14  1  0.831708  0.593124  0.250000  1
  In  In15  1  0.168292  0.406876  0.750000  1
  In  In16  1  0.614733  0.250000  0.000000  1
  In  In17  1  0.385267  0.750000  0.000000  1
  In  In18  1  0.385267  0.750000  0.500000  1
  In  In19  1  0.614733  0.250000  0.500000  1
  Rh  Rh20  1  0.372015  0.031703  0.090852  1
  Rh  Rh21  1  0.627985  0.968297  0.909148  1
  Rh  Rh22  1  0.627985  0.968297  0.590852  1
  Rh  Rh23  1  0.627985  0.531703  0.409148  1
  Rh  Rh24  1  0.372015  0.031703  0.409148  1
  Rh  Rh25  1  0.372015  0.468297  0.590852  1
  Rh  Rh26  1  0.372015  0.468297  0.909148  1
  Rh  Rh27  1  0.627985  0.531703  0.090852  1
