# generated using pymatgen
data_SiSb14
_symmetry_space_group_name_H-M   'P 1'
_cell_length_a   4.20391946
_cell_length_b   4.20391941
_cell_length_c   28.26939400
_cell_angle_alpha   91.02253914
_cell_angle_beta   91.02253913
_cell_angle_gamma   61.00414669
_symmetry_Int_Tables_number   1
_chemical_formula_structural   SiSb14
_chemical_formula_sum   'Si1 Sb14'
_cell_volume   436.88665038
_cell_formula_units_Z   1
loop_
 _symmetry_equiv_pos_site_id
 _symmetry_equiv_pos_as_xyz
  1  'x, y, z'
loop_
 _atom_site_type_symbol
 _atom_site_label
 _atom_site_symmetry_multiplicity
 _atom_site_fract_x
 _atom_site_fract_y
 _atom_site_fract_z
 _atom_site_occupancy
  Si  Si0  1  0.000000  0.000000  0.800000  1
  Sb  Sb1  1  0.661182  0.661182  0.063201  1
  Sb  Sb2  1  0.666481  0.666481  0.259340  1
  Sb  Sb3  1  0.669531  0.669531  0.478680  1
  Sb  Sb4  1  0.670044  0.670044  0.674752  1
  Sb  Sb5  1  0.664168  0.664168  0.851382  1
  Sb  Sb6  1  0.330469  0.330469  0.121320  1
  Sb  Sb7  1  0.333519  0.333519  0.340660  1
  Sb  Sb8  1  0.338818  0.338818  0.536799  1
  Sb  Sb9  1  0.335832  0.335832  0.748618  1
  Sb  Sb10  1  0.329956  0.329956  0.925248  1
  Sb  Sb11  1  0.998090  0.998090  0.985135  1
  Sb  Sb12  1  0.996961  0.996961  0.202181  1
  Sb  Sb13  1  0.003039  0.003039  0.397819  1
  Sb  Sb14  1  0.001910  0.001910  0.614865  1
