# generated using pymatgen
data_V2Re3AsBr26
_symmetry_space_group_name_H-M   'P 1'
_cell_length_a   11.73770200
_cell_length_b   10.02877794
_cell_length_c   10.88856348
_cell_angle_alpha   80.41440834
_cell_angle_beta   90.00000000
_cell_angle_gamma   90.00000000
_symmetry_Int_Tables_number   1
_chemical_formula_structural   V2Re3AsBr26
_chemical_formula_sum   'V2 Re3 As1 Br26'
_cell_volume   1263.84934945
_cell_formula_units_Z   1
loop_
 _symmetry_equiv_pos_site_id
 _symmetry_equiv_pos_as_xyz
  1  'x, y, z'
loop_
 _atom_site_type_symbol
 _atom_site_label
 _atom_site_symmetry_multiplicity
 _atom_site_fract_x
 _atom_site_fract_y
 _atom_site_fract_z
 _atom_site_occupancy
  V  V0  1  0.250000  0.261648  0.504225  1
  V  V1  1  0.750000  0.735144  0.497678  1
  Re  Re2  1  0.750000  0.177615  0.914505  1
  Re  Re3  1  0.250000  0.673457  0.849113  1
  Re  Re4  1  0.750000  0.310190  0.124224  1
  As  As5  1  0.250000  0.856404  0.135529  1
  Br  Br6  1  0.592583  0.809730  0.586266  1
  Br  Br7  1  0.091570  0.188220  0.416908  1
  Br  Br8  1  0.750000  0.437145  0.898711  1
  Br  Br9  1  0.250000  0.566854  0.074902  1
  Br  Br10  1  0.908589  0.147120  0.079753  1
  Br  Br11  1  0.397543  0.836244  0.905771  1
  Br  Br12  1  0.102457  0.836244  0.905771  1
  Br  Br13  1  0.591411  0.147120  0.079753  1
  Br  Br14  1  0.750000  0.192994  0.343333  1
  Br  Br15  1  0.250000  0.794595  0.632461  1
  Br  Br16  1  0.900423  0.465137  0.171102  1
  Br  Br17  1  0.401490  0.519859  0.804999  1
  Br  Br18  1  0.098510  0.519859  0.804999  1
  Br  Br19  1  0.599577  0.465137  0.171102  1
  Br  Br20  1  0.750000  0.929978  0.925403  1
  Br  Br21  1  0.250000  0.100801  0.099319  1
  Br  Br22  1  0.899408  0.203475  0.752638  1
  Br  Br23  1  0.406741  0.815846  0.281204  1
  Br  Br24  1  0.093259  0.815846  0.281204  1
  Br  Br25  1  0.600592  0.203475  0.752638  1
  Br  Br26  1  0.750000  0.809030  0.289928  1
  Br  Br27  1  0.250000  0.186378  0.711709  1
  Br  Br28  1  0.750000  0.506122  0.528928  1
  Br  Br29  1  0.250000  0.490382  0.472751  1
  Br  Br30  1  0.907417  0.809730  0.586266  1
  Br  Br31  1  0.408430  0.188220  0.416908  1
