# generated using pymatgen
data_TaTc(PO4)3
_symmetry_space_group_name_H-M   'P 1'
_cell_length_a   8.68994895
_cell_length_b   8.68885792
_cell_length_c   9.01632616
_cell_angle_alpha   90.08841108
_cell_angle_beta   118.62884377
_cell_angle_gamma   119.96242031
_symmetry_Int_Tables_number   1
_chemical_formula_structural   TaTc(PO4)3
_chemical_formula_sum   'Ta2 Tc2 P6 O24'
_cell_volume   491.04219120
_cell_formula_units_Z   2
loop_
 _symmetry_equiv_pos_site_id
 _symmetry_equiv_pos_as_xyz
  1  'x, y, z'
loop_
 _atom_site_type_symbol
 _atom_site_label
 _atom_site_symmetry_multiplicity
 _atom_site_fract_x
 _atom_site_fract_y
 _atom_site_fract_z
 _atom_site_occupancy
  Ta  Ta0  1  0.216630  0.859808  0.076982  1
  Ta  Ta1  1  0.214198  0.358313  0.572669  1
  Tc  Tc2  1  0.793480  0.645038  0.437989  1
  Tc  Tc3  1  0.790326  0.143550  0.933379  1
  P  P4  1  0.992269  0.962358  0.248803  1
  P  P5  1  0.996222  0.032260  0.752582  1
  P  P6  1  0.719557  0.254286  0.252465  1
  P  P7  1  0.286075  0.757690  0.746797  1
  P  P8  1  0.284550  0.528963  0.249895  1
  P  P9  1  0.721027  0.464438  0.749149  1
  O  O10  1  0.138860  0.009303  0.925675  1
  O  O11  1  0.261554  0.504440  0.410119  1
  O  O12  1  0.857654  0.985476  0.075628  1
  O  O13  1  0.510876  0.082968  0.224940  1
  O  O14  1  0.856387  0.077499  0.770083  1
  O  O15  1  0.727021  0.432274  0.275256  1
  O  O16  1  0.142446  0.143592  0.409411  1
  O  O17  1  0.741362  0.484775  0.589494  1
  O  O18  1  0.718415  0.219032  0.086258  1
  O  O19  1  0.271252  0.571740  0.719194  1
  O  O20  1  0.102151  0.744236  0.579418  1
  O  O21  1  0.293001  0.708788  0.217782  1
  O  O22  1  0.484785  0.549132  0.287004  1
  O  O23  1  0.149574  0.199402  0.717943  1
  O  O24  1  0.139412  0.923991  0.227849  1
  O  O25  1  0.699999  0.285127  0.779822  1
  O  O26  1  0.492604  0.917535  0.773179  1
  O  O27  1  0.093623  0.363381  0.080896  1
  O  O28  1  0.907703  0.267315  0.419503  1
  O  O29  1  0.277134  0.785395  0.911683  1
  O  O30  1  0.848974  0.853636  0.594680  1
  O  O31  1  0.840566  0.797329  0.278623  1
  O  O32  1  0.913897  0.638387  0.916370  1
  O  O33  1  0.516416  0.448542  0.708480  1
