# generated using pymatgen
data_Dy4Sc2Si24Os3Ru5
_symmetry_space_group_name_H-M   'P 1'
_cell_length_a   10.06913846
_cell_length_b   10.06913862
_cell_length_c   8.10784602
_cell_angle_alpha   90.00483802
_cell_angle_beta   90.00484898
_cell_angle_gamma   132.50662970
_symmetry_Int_Tables_number   1
_chemical_formula_structural   Dy4Sc2Si24Os3Ru5
_chemical_formula_sum   'Dy4 Sc2 Si24 Os3 Ru5'
_cell_volume   606.00324083
_cell_formula_units_Z   1
loop_
 _symmetry_equiv_pos_site_id
 _symmetry_equiv_pos_as_xyz
  1  'x, y, z'
loop_
 _atom_site_type_symbol
 _atom_site_label
 _atom_site_symmetry_multiplicity
 _atom_site_fract_x
 _atom_site_fract_y
 _atom_site_fract_z
 _atom_site_occupancy
  Dy  Dy0  1  0.501871  0.001891  0.750138  1
  Dy  Dy1  1  0.998109  0.498129  0.249862  1
  Dy  Dy2  1  0.498019  0.997770  0.249623  1
  Dy  Dy3  1  0.002230  0.501981  0.750377  1
  Sc  Sc4  1  0.500035  0.499965  0.500000  1
  Sc  Sc5  1  0.000205  0.999795  0.000000  1
  Si  Si6  1  0.796185  0.203815  0.500000  1
  Si  Si7  1  0.296107  0.703893  0.000000  1
  Si  Si8  1  0.203875  0.796125  0.500000  1
  Si  Si9  1  0.704516  0.295484  0.000000  1
  Si  Si10  1  0.331350  0.331062  0.832785  1
  Si  Si11  1  0.668938  0.668650  0.167215  1
  Si  Si12  1  0.167196  0.167645  0.331314  1
  Si  Si13  1  0.832355  0.832804  0.668686  1
  Si  Si14  1  0.119922  0.889043  0.729486  1
  Si  Si15  1  0.110957  0.880078  0.270514  1
  Si  Si16  1  0.612161  0.380364  0.228518  1
  Si  Si17  1  0.619636  0.387839  0.771482  1
  Si  Si18  1  0.879269  0.110720  0.269004  1
  Si  Si19  1  0.889280  0.120731  0.730996  1
  Si  Si20  1  0.388988  0.620562  0.771114  1
  Si  Si21  1  0.379438  0.611012  0.228886  1
  Si  Si22  1  0.344958  0.114151  0.504837  1
  Si  Si23  1  0.885849  0.655042  0.495163  1
  Si  Si24  1  0.386195  0.155478  0.003503  1
  Si  Si25  1  0.844522  0.613805  0.996497  1
  Si  Si26  1  0.655154  0.886139  0.494907  1
  Si  Si27  1  0.113861  0.344846  0.505093  1
  Si  Si28  1  0.615703  0.846546  0.995258  1
  Si  Si29  1  0.153454  0.384297  0.004742  1
  Os  Os30  1  0.668935  0.331065  0.500000  1
  Os  Os31  1  0.168918  0.831082  0.000000  1
  Os  Os32  1  0.331073  0.668927  0.500000  1
  Ru  Ru33  1  0.830951  0.169049  0.000000  1
  Ru  Ru34  1  0.128399  0.128480  0.627063  1
  Ru  Ru35  1  0.871520  0.871601  0.372937  1
  Ru  Ru36  1  0.373502  0.373631  0.128958  1
  Ru  Ru37  1  0.626369  0.626498  0.871042  1
