# generated using pymatgen
data_La7NdAlPd24
_symmetry_space_group_name_H-M   'P 1'
_cell_length_a   8.54149600
_cell_length_b   8.54149600
_cell_length_c   8.54149600
_cell_angle_alpha   90.00135500
_cell_angle_beta   89.99864500
_cell_angle_gamma   89.99864503
_symmetry_Int_Tables_number   1
_chemical_formula_structural   La7NdAlPd24
_chemical_formula_sum   'La7 Nd1 Al1 Pd24'
_cell_volume   623.16323836
_cell_formula_units_Z   1
loop_
 _symmetry_equiv_pos_site_id
 _symmetry_equiv_pos_as_xyz
  1  'x, y, z'
loop_
 _atom_site_type_symbol
 _atom_site_label
 _atom_site_symmetry_multiplicity
 _atom_site_fract_x
 _atom_site_fract_y
 _atom_site_fract_z
 _atom_site_occupancy
  La  La0  1  0.252838  0.252452  0.252452  1
  La  La1  1  0.747414  0.747616  0.747616  1
  La  La2  1  0.747548  0.747162  0.252452  1
  La  La3  1  0.747548  0.252452  0.747162  1
  La  La4  1  0.252384  0.252586  0.747616  1
  La  La5  1  0.252384  0.747616  0.252586  1
  La  La6  1  0.252699  0.747301  0.747301  1
  Nd  Nd7  1  0.748159  0.251841  0.251841  1
  Al  Al8  1  0.999849  0.000151  0.000151  1
  Pd  Pd9  1  0.260682  0.500032  0.999964  1
  Pd  Pd10  1  0.739220  0.499350  0.000855  1
  Pd  Pd11  1  0.999145  0.260780  0.499350  1
  Pd  Pd12  1  0.500650  0.260780  0.000855  1
  Pd  Pd13  1  0.000036  0.739318  0.500032  1
  Pd  Pd14  1  0.499968  0.739318  0.999964  1
  Pd  Pd15  1  0.500650  0.000855  0.260780  1
  Pd  Pd16  1  0.260682  0.999964  0.500032  1
  Pd  Pd17  1  0.499968  0.999964  0.739318  1
  Pd  Pd18  1  0.739220  0.000855  0.499350  1
  Pd  Pd19  1  0.999145  0.499350  0.260780  1
  Pd  Pd20  1  0.000036  0.500032  0.739318  1
  Pd  Pd21  1  0.253163  0.500056  0.500056  1
  Pd  Pd22  1  0.746766  0.499201  0.499201  1
  Pd  Pd23  1  0.500799  0.253234  0.499201  1
  Pd  Pd24  1  0.499944  0.746837  0.500056  1
  Pd  Pd25  1  0.500799  0.499201  0.253234  1
  Pd  Pd26  1  0.499944  0.500056  0.746837  1
  Pd  Pd27  1  0.292500  0.999976  0.999976  1
  Pd  Pd28  1  0.707659  0.000925  0.000925  1
  Pd  Pd29  1  0.999075  0.292341  0.000925  1
  Pd  Pd30  1  0.000024  0.707500  0.999976  1
  Pd  Pd31  1  0.999075  0.000925  0.292341  1
  Pd  Pd32  1  0.000024  0.999976  0.707500  1
