# generated using pymatgen
data_Pr6IrAu7
_symmetry_space_group_name_H-M   'P 1'
_cell_length_a   8.43083052
_cell_length_b   8.43083102
_cell_length_c   8.43083115
_cell_angle_alpha   114.53119935
_cell_angle_beta   114.53120567
_cell_angle_gamma   114.53120651
_symmetry_Int_Tables_number   1
_chemical_formula_structural   Pr6IrAu7
_chemical_formula_sum   'Pr6 Ir1 Au7'
_cell_volume   349.27477523
_cell_formula_units_Z   1
loop_
 _symmetry_equiv_pos_site_id
 _symmetry_equiv_pos_as_xyz
  1  'x, y, z'
loop_
 _atom_site_type_symbol
 _atom_site_label
 _atom_site_symmetry_multiplicity
 _atom_site_fract_x
 _atom_site_fract_y
 _atom_site_fract_z
 _atom_site_occupancy
  Pr  Pr0  1  0.736573  0.617502  0.985832  1
  Pr  Pr1  1  0.985832  0.736573  0.617502  1
  Pr  Pr2  1  0.617502  0.985832  0.736573  1
  Pr  Pr3  1  0.263427  0.382498  0.014168  1
  Pr  Pr4  1  0.014168  0.263427  0.382498  1
  Pr  Pr5  1  0.382498  0.014168  0.263427  1
  Ir  Ir6  1  0.000000  0.000000  0.000000  1
  Au  Au7  1  0.570348  0.234716  0.070912  1
  Au  Au8  1  0.070912  0.570348  0.234716  1
  Au  Au9  1  0.234716  0.070912  0.570348  1
  Au  Au10  1  0.429652  0.765284  0.929088  1
  Au  Au11  1  0.929088  0.429652  0.765284  1
  Au  Au12  1  0.765284  0.929088  0.429652  1
  Au  Au13  1  0.500000  0.500000  0.500000  1
