# generated using pymatgen
data_SrLa3(Sn2Ir)8
_symmetry_space_group_name_H-M   'P 1'
_cell_length_a   4.54340900
_cell_length_b   7.27608930
_cell_length_c   18.68058200
_cell_angle_alpha   90.06231116
_cell_angle_beta   90.00000000
_cell_angle_gamma   90.00000000
_symmetry_Int_Tables_number   1
_chemical_formula_structural   SrLa3(Sn2Ir)8
_chemical_formula_sum   'Sr1 La3 Sn16 Ir8'
_cell_volume   617.54697767
_cell_formula_units_Z   1
loop_
 _symmetry_equiv_pos_site_id
 _symmetry_equiv_pos_as_xyz
  1  'x, y, z'
loop_
 _atom_site_type_symbol
 _atom_site_label
 _atom_site_symmetry_multiplicity
 _atom_site_fract_x
 _atom_site_fract_y
 _atom_site_fract_z
 _atom_site_occupancy
  Sr  Sr0  1  0.250000  0.996540  0.857760  1
  La  La1  1  0.250000  0.503209  0.358020  1
  La  La2  1  0.750000  0.002471  0.141030  1
  La  La3  1  0.750000  0.498211  0.643075  1
  Sn  Sn4  1  0.250000  0.303510  0.182876  1
  Sn  Sn5  1  0.250000  0.196327  0.682894  1
  Sn  Sn6  1  0.750000  0.696488  0.818443  1
  Sn  Sn7  1  0.750000  0.803969  0.317225  1
  Sn  Sn8  1  0.250000  0.722342  0.193245  1
  Sn  Sn9  1  0.250000  0.779358  0.694696  1
  Sn  Sn10  1  0.750000  0.276710  0.806899  1
  Sn  Sn11  1  0.750000  0.222043  0.305924  1
  Sn  Sn12  1  0.250000  0.865585  0.030311  1
  Sn  Sn13  1  0.250000  0.635902  0.532303  1
  Sn  Sn14  1  0.750000  0.136542  0.967260  1
  Sn  Sn15  1  0.750000  0.364438  0.468682  1
  Sn  Sn16  1  0.250000  0.517790  0.931476  1
  Sn  Sn17  1  0.250000  0.980244  0.432117  1
  Sn  Sn18  1  0.750000  0.480410  0.067841  1
  Sn  Sn19  1  0.750000  0.019023  0.567876  1
  Ir  Ir20  1  0.250000  0.253219  0.036526  1
  Ir  Ir21  1  0.250000  0.248297  0.535328  1
  Ir  Ir22  1  0.750000  0.746854  0.965272  1
  Ir  Ir23  1  0.750000  0.751204  0.464336  1
  Ir  Ir24  1  0.250000  0.016525  0.286097  1
  Ir  Ir25  1  0.250000  0.483359  0.784768  1
  Ir  Ir26  1  0.750000  0.982893  0.713295  1
  Ir  Ir27  1  0.750000  0.516534  0.214424  1
