# generated using pymatgen
data_Hf8Zn5In4Fe3
_symmetry_space_group_name_H-M   'P 1'
_cell_length_a   7.38308508
_cell_length_b   7.38308421
_cell_length_c   6.74449230
_cell_angle_alpha   90.01081017
_cell_angle_beta   90.01080734
_cell_angle_gamma   90.10140073
_symmetry_Int_Tables_number   1
_chemical_formula_structural   Hf8Zn5In4Fe3
_chemical_formula_sum   'Hf8 Zn5 In4 Fe3'
_cell_volume   367.64127436
_cell_formula_units_Z   1
loop_
 _symmetry_equiv_pos_site_id
 _symmetry_equiv_pos_as_xyz
  1  'x, y, z'
loop_
 _atom_site_type_symbol
 _atom_site_label
 _atom_site_symmetry_multiplicity
 _atom_site_fract_x
 _atom_site_fract_y
 _atom_site_fract_z
 _atom_site_occupancy
  Hf  Hf0  1  0.174074  0.174074  0.015403  1
  Hf  Hf1  1  0.810541  0.810541  0.993317  1
  Hf  Hf2  1  0.656581  0.355941  0.483076  1
  Hf  Hf3  1  0.355941  0.656581  0.483076  1
  Hf  Hf4  1  0.672440  0.350145  0.016453  1
  Hf  Hf5  1  0.350145  0.672440  0.016453  1
  Hf  Hf6  1  0.797359  0.797359  0.505361  1
  Hf  Hf7  1  0.194812  0.194812  0.483253  1
  Zn  Zn8  1  0.875434  0.121869  0.732343  1
  Zn  Zn9  1  0.874954  0.115374  0.269745  1
  Zn  Zn10  1  0.376628  0.376628  0.771641  1
  Zn  Zn11  1  0.115374  0.874954  0.269745  1
  Zn  Zn12  1  0.121869  0.875434  0.732343  1
  In  In13  1  0.503969  0.008615  0.246663  1
  In  In14  1  0.496846  0.995248  0.749436  1
  In  In15  1  0.008615  0.503969  0.246663  1
  In  In16  1  0.995248  0.496846  0.749436  1
  Fe  Fe17  1  0.371009  0.371009  0.236987  1
  Fe  Fe18  1  0.615742  0.615742  0.758267  1
  Fe  Fe19  1  0.632420  0.632420  0.240336  1
