# generated using pymatgen
data_Co9(Se3S)2
_symmetry_space_group_name_H-M   'P 1'
_cell_length_a   7.17952162
_cell_length_b   7.17952173
_cell_length_c   7.17952200
_cell_angle_alpha   59.99999874
_cell_angle_beta   59.99999825
_cell_angle_gamma   60.00000198
_symmetry_Int_Tables_number   1
_chemical_formula_structural   Co9(Se3S)2
_chemical_formula_sum   'Co9 Se6 S2'
_cell_volume   261.68061461
_cell_formula_units_Z   1
loop_
 _symmetry_equiv_pos_site_id
 _symmetry_equiv_pos_as_xyz
  1  'x, y, z'
loop_
 _atom_site_type_symbol
 _atom_site_label
 _atom_site_symmetry_multiplicity
 _atom_site_fract_x
 _atom_site_fract_y
 _atom_site_fract_z
 _atom_site_occupancy
  Co  Co0  1  0.614568  0.128478  0.128478  1
  Co  Co1  1  0.128478  0.128478  0.128478  1
  Co  Co2  1  0.871522  0.871522  0.871522  1
  Co  Co3  1  0.385432  0.871522  0.871522  1
  Co  Co4  1  0.871522  0.385432  0.871522  1
  Co  Co5  1  0.500000  0.500000  0.500000  1
  Co  Co6  1  0.871522  0.871522  0.385432  1
  Co  Co7  1  0.128478  0.128478  0.614568  1
  Co  Co8  1  0.128478  0.614568  0.128478  1
  Se  Se9  1  0.264906  0.735094  0.264906  1
  Se  Se10  1  0.735094  0.264906  0.735094  1
  Se  Se11  1  0.264906  0.264906  0.735094  1
  Se  Se12  1  0.735094  0.735094  0.264906  1
  Se  Se13  1  0.735094  0.264906  0.264906  1
  Se  Se14  1  0.264906  0.735094  0.735094  1
  S  S15  1  0.750000  0.750000  0.750000  1
  S  S16  1  0.250000  0.250000  0.250000  1
