# generated using pymatgen
data_Rb4Na2TeO6
_symmetry_space_group_name_H-M   'P 1'
_cell_length_a   10.09872400
_cell_length_b   7.04686372
_cell_length_c   7.58719915
_cell_angle_alpha   58.52351793
_cell_angle_beta   90.00000000
_cell_angle_gamma   90.00000000
_symmetry_Int_Tables_number   1
_chemical_formula_structural   Rb4Na2TeO6
_chemical_formula_sum   'Rb8 Na4 Te2 O12'
_cell_volume   460.48854948
_cell_formula_units_Z   2
loop_
 _symmetry_equiv_pos_site_id
 _symmetry_equiv_pos_as_xyz
  1  'x, y, z'
loop_
 _atom_site_type_symbol
 _atom_site_label
 _atom_site_symmetry_multiplicity
 _atom_site_fract_x
 _atom_site_fract_y
 _atom_site_fract_z
 _atom_site_occupancy
  Rb  Rb0  1  0.509478  0.700564  0.059563  1
  Rb  Rb1  1  0.679780  0.499489  0.512910  1
  Rb  Rb2  1  0.009478  0.299436  0.440437  1
  Rb  Rb3  1  0.320220  0.500511  0.487090  1
  Rb  Rb4  1  0.820220  0.499489  0.012910  1
  Rb  Rb5  1  0.990522  0.700564  0.559563  1
  Rb  Rb6  1  0.179780  0.500511  0.987090  1
  Rb  Rb7  1  0.490522  0.299436  0.940437  1
  Na  Na8  1  0.743951  0.011535  0.215128  1
  Na  Na9  1  0.256049  0.988465  0.784872  1
  Na  Na10  1  0.243951  0.988465  0.284872  1
  Na  Na11  1  0.756049  0.011535  0.715128  1
  Te  Te12  1  0.000000  0.000000  0.000000  1
  Te  Te13  1  0.500000  0.000000  0.500000  1
  O  O14  1  0.847176  0.204841  0.854395  1
  O  O15  1  0.873015  0.761748  0.191311  1
  O  O16  1  0.626985  0.761748  0.691311  1
  O  O17  1  0.009280  0.110173  0.194150  1
  O  O18  1  0.490720  0.110173  0.694150  1
  O  O19  1  0.652824  0.204841  0.354395  1
  O  O20  1  0.990720  0.889827  0.805850  1
  O  O21  1  0.373015  0.238252  0.308689  1
  O  O22  1  0.152824  0.795159  0.145605  1
  O  O23  1  0.347176  0.795159  0.645605  1
  O  O24  1  0.509280  0.889827  0.305850  1
  O  O25  1  0.126985  0.238252  0.808689  1
