# generated using pymatgen
data_TaMoC
_symmetry_space_group_name_H-M   'P 1'
_cell_length_a   3.18004600
_cell_length_b   3.18004600
_cell_length_c   7.74689600
_cell_angle_alpha   90.00000000
_cell_angle_beta   90.00000000
_cell_angle_gamma   90.00000000
_symmetry_Int_Tables_number   1
_chemical_formula_structural   TaMoC
_chemical_formula_sum   'Ta2 Mo2 C2'
_cell_volume   78.34197756
_cell_formula_units_Z   2
loop_
 _symmetry_equiv_pos_site_id
 _symmetry_equiv_pos_as_xyz
  1  'x, y, z'
loop_
 _atom_site_type_symbol
 _atom_site_label
 _atom_site_symmetry_multiplicity
 _atom_site_fract_x
 _atom_site_fract_y
 _atom_site_fract_z
 _atom_site_occupancy
  Ta  Ta0  1  0.000000  0.500000  0.641380  1
  Ta  Ta1  1  0.500000  0.000000  0.358620  1
  Mo  Mo2  1  0.500000  0.000000  0.911255  1
  Mo  Mo3  1  0.000000  0.500000  0.088745  1
  C  C4  1  0.000000  0.500000  0.362353  1
  C  C5  1  0.500000  0.000000  0.637647  1
