# generated using pymatgen
data_Gd5TmI18
_symmetry_space_group_name_H-M   'P 1'
_cell_length_a   7.76905105
_cell_length_b   7.76905092
_cell_length_c   25.15390100
_cell_angle_alpha   89.99326674
_cell_angle_beta   89.99327411
_cell_angle_gamma   120.00094871
_symmetry_Int_Tables_number   1
_chemical_formula_structural   Gd5TmI18
_chemical_formula_sum   'Gd5 Tm1 I18'
_cell_volume   1314.82441070
_cell_formula_units_Z   1
loop_
 _symmetry_equiv_pos_site_id
 _symmetry_equiv_pos_as_xyz
  1  'x, y, z'
loop_
 _atom_site_type_symbol
 _atom_site_label
 _atom_site_symmetry_multiplicity
 _atom_site_fract_x
 _atom_site_fract_y
 _atom_site_fract_z
 _atom_site_occupancy
  Gd  Gd0  1  0.221597  0.110743  0.000105  1
  Gd  Gd1  1  0.555029  0.777271  0.000291  1
  Gd  Gd2  1  0.222729  0.444972  0.333042  1
  Gd  Gd3  1  0.889257  0.778403  0.333228  1
  Gd  Gd4  1  0.889252  0.110749  0.666666  1
  Tm  Tm5  1  0.222638  0.777360  0.666666  1
  I  I6  1  0.525255  0.443613  0.072119  1
  I  I7  1  0.888356  0.081527  0.072101  1
  I  I8  1  0.250494  0.806939  0.072361  1
  I  I9  1  0.193061  0.749506  0.260972  1
  I  I10  1  0.918474  0.111645  0.261233  1
  I  I11  1  0.556386  0.474745  0.261214  1
  I  I12  1  0.919495  0.474601  0.405271  1
  I  I13  1  0.193383  0.113078  0.405166  1
  I  I14  1  0.555238  0.748339  0.405239  1
  I  I15  1  0.549844  0.806329  0.596122  1
  I  I16  1  0.193889  0.076043  0.596138  1
  I  I17  1  0.924240  0.450227  0.596119  1
  I  I18  1  0.549772  0.075760  0.737214  1
  I  I19  1  0.923958  0.806111  0.737195  1
  I  I20  1  0.193670  0.450156  0.737211  1
  I  I21  1  0.251662  0.444762  0.928095  1
  I  I22  1  0.886922  0.806618  0.928167  1
  I  I23  1  0.525398  0.080505  0.928063  1
