# generated using pymatgen
data_Er3Tm5Tc3OsC8
_symmetry_space_group_name_H-M   'P 1'
_cell_length_a   5.03183000
_cell_length_b   6.49276866
_cell_length_c   9.74585422
_cell_angle_alpha   89.78244456
_cell_angle_beta   90.00000000
_cell_angle_gamma   90.00000000
_symmetry_Int_Tables_number   1
_chemical_formula_structural   Er3Tm5Tc3OsC8
_chemical_formula_sum   'Er3 Tm5 Tc3 Os1 C8'
_cell_volume   318.39971437
_cell_formula_units_Z   1
loop_
 _symmetry_equiv_pos_site_id
 _symmetry_equiv_pos_as_xyz
  1  'x, y, z'
loop_
 _atom_site_type_symbol
 _atom_site_label
 _atom_site_symmetry_multiplicity
 _atom_site_fract_x
 _atom_site_fract_y
 _atom_site_fract_z
 _atom_site_occupancy
  Er  Er0  1  0.750000  0.465117  0.782983  1
  Er  Er1  1  0.750000  0.966764  0.714882  1
  Er  Er2  1  0.250000  0.032416  0.283342  1
  Tm  Tm3  1  0.250000  0.675582  0.557667  1
  Tm  Tm4  1  0.750000  0.324166  0.441501  1
  Tm  Tm5  1  0.750000  0.824689  0.058248  1
  Tm  Tm6  1  0.250000  0.174674  0.942604  1
  Tm  Tm7  1  0.250000  0.532794  0.217091  1
  Tc  Tc8  1  0.250000  0.716425  0.867565  1
  Tc  Tc9  1  0.750000  0.284130  0.131612  1
  Tc  Tc10  1  0.750000  0.783147  0.368088  1
  Os  Os11  1  0.250000  0.216984  0.632427  1
  C  C12  1  0.250000  0.449689  0.758662  1
  C  C13  1  0.750000  0.551197  0.241180  1
  C  C14  1  0.750000  0.051163  0.259421  1
  C  C15  1  0.250000  0.950809  0.741394  1
  C  C16  1  0.250000  0.824275  0.051877  1
  C  C17  1  0.750000  0.175170  0.947593  1
  C  C18  1  0.750000  0.674414  0.553164  1
  C  C19  1  0.250000  0.326396  0.448697  1
