# generated using pymatgen
data_Ta12ReB12Os9Ru2
_symmetry_space_group_name_H-M   'P 1'
_cell_length_a   3.13016800
_cell_length_b   9.07019824
_cell_length_c   15.77876670
_cell_angle_alpha   89.75818887
_cell_angle_beta   90.00000000
_cell_angle_gamma   90.00000000
_symmetry_Int_Tables_number   1
_chemical_formula_structural   Ta12ReB12Os9Ru2
_chemical_formula_sum   'Ta12 Re1 B12 Os9 Ru2'
_cell_volume   447.97483044
_cell_formula_units_Z   1
loop_
 _symmetry_equiv_pos_site_id
 _symmetry_equiv_pos_as_xyz
  1  'x, y, z'
loop_
 _atom_site_type_symbol
 _atom_site_label
 _atom_site_symmetry_multiplicity
 _atom_site_fract_x
 _atom_site_fract_y
 _atom_site_fract_z
 _atom_site_occupancy
  Ta  Ta0  1  0.000000  0.800446  0.496104  1
  Ta  Ta1  1  0.000000  0.200465  0.504243  1
  Ta  Ta2  1  0.000000  0.299324  0.004848  1
  Ta  Ta3  1  0.000000  0.700259  0.994989  1
  Ta  Ta4  1  0.000000  0.516262  0.593856  1
  Ta  Ta5  1  0.000000  0.485052  0.406716  1
  Ta  Ta6  1  0.000000  0.016626  0.905978  1
  Ta  Ta7  1  0.000000  0.983373  0.093882  1
  Ta  Ta8  1  0.000000  0.684402  0.204062  1
  Ta  Ta9  1  0.000000  0.310428  0.796937  1
  Ta  Ta10  1  0.000000  0.188745  0.296529  1
  Ta  Ta11  1  0.000000  0.813088  0.702735  1
  Re  Re12  1  0.500000  0.436793  0.266532  1
  B  B13  1  0.500000  0.606664  0.497023  1
  B  B14  1  0.500000  0.394781  0.504220  1
  B  B15  1  0.500000  0.104671  0.003313  1
  B  B16  1  0.500000  0.894613  0.996577  1
  B  B17  1  0.000000  0.609433  0.832592  1
  B  B18  1  0.000000  0.391720  0.168387  1
  B  B19  1  0.000000  0.109150  0.668137  1
  B  B20  1  0.000000  0.890958  0.332121  1
  B  B21  1  0.500000  0.715912  0.598951  1
  B  B22  1  0.500000  0.286959  0.400367  1
  B  B23  1  0.500000  0.215555  0.901552  1
  B  B24  1  0.500000  0.783657  0.098470  1
  Os  Os25  1  0.500000  0.721284  0.356839  1
  Os  Os26  1  0.500000  0.280571  0.644436  1
  Os  Os27  1  0.500000  0.217111  0.143631  1
  Os  Os28  1  0.500000  0.781379  0.855243  1
  Os  Os29  1  0.500000  0.516597  0.092616  1
  Os  Os30  1  0.500000  0.483127  0.905756  1
  Os  Os31  1  0.500000  0.017730  0.405420  1
  Os  Os32  1  0.500000  0.984494  0.593770  1
  Os  Os33  1  0.500000  0.561759  0.733886  1
  Ru  Ru34  1  0.500000  0.060236  0.765093  1
  Ru  Ru35  1  0.500000  0.936375  0.234191  1
