# generated using pymatgen
data_Na8SrCa3(GeAs4)2
_symmetry_space_group_name_H-M   'P 1'
_cell_length_a   9.59259183
_cell_length_b   9.59015184
_cell_length_c   7.29307998
_cell_angle_alpha   88.73915487
_cell_angle_beta   89.19557871
_cell_angle_gamma   119.70963573
_symmetry_Int_Tables_number   1
_chemical_formula_structural   Na8SrCa3(GeAs4)2
_chemical_formula_sum   'Na8 Sr1 Ca3 Ge2 As8'
_cell_volume   582.34708093
_cell_formula_units_Z   1
loop_
 _symmetry_equiv_pos_site_id
 _symmetry_equiv_pos_as_xyz
  1  'x, y, z'
loop_
 _atom_site_type_symbol
 _atom_site_label
 _atom_site_symmetry_multiplicity
 _atom_site_fract_x
 _atom_site_fract_y
 _atom_site_fract_z
 _atom_site_occupancy
  Na  Na0  1  0.475459  0.937862  0.380220  1
  Na  Na1  1  0.935128  0.472539  0.878301  1
  Na  Na2  1  0.860858  0.714317  0.177618  1
  Na  Na3  1  0.300699  0.141516  0.231990  1
  Na  Na4  1  0.848400  0.140477  0.205518  1
  Na  Na5  1  0.139658  0.296041  0.730402  1
  Na  Na6  1  0.708146  0.858345  0.683435  1
  Na  Na7  1  0.142465  0.849476  0.705027  1
  Sr  Sr8  1  0.046495  0.525055  0.382484  1
  Ca  Ca9  1  0.484628  0.530686  0.380756  1
  Ca  Ca10  1  0.525763  0.051135  0.887340  1
  Ca  Ca11  1  0.527917  0.481625  0.880930  1
  Ge  Ge12  1  0.658160  0.327069  0.502380  1
  Ge  Ge13  1  0.330903  0.662438  0.999751  1
  As  As14  1  0.204239  0.381196  0.125650  1
  As  As15  1  0.617485  0.805842  0.092268  1
  As  As16  1  0.203087  0.818171  0.098823  1
  As  As17  1  0.800955  0.617063  0.590983  1
  As  As18  1  0.381851  0.198678  0.633020  1
  As  As19  1  0.806323  0.194063  0.613333  1
  As  As20  1  0.662595  0.335716  0.157586  1
  As  As21  1  0.338801  0.660704  0.658441  1
