# generated using pymatgen
data_Gd3Er3(AuO7)2
_symmetry_space_group_name_H-M   'P 1'
_cell_length_a   6.49498584
_cell_length_b   6.50197936
_cell_length_c   7.46505600
_cell_angle_alpha   89.99742316
_cell_angle_beta   90.00133732
_cell_angle_gamma   108.70597981
_symmetry_Int_Tables_number   1
_chemical_formula_structural   Gd3Er3(AuO7)2
_chemical_formula_sum   'Gd3 Er3 Au2 O14'
_cell_volume   298.59870615
_cell_formula_units_Z   1
loop_
 _symmetry_equiv_pos_site_id
 _symmetry_equiv_pos_as_xyz
  1  'x, y, z'
loop_
 _atom_site_type_symbol
 _atom_site_label
 _atom_site_symmetry_multiplicity
 _atom_site_fract_x
 _atom_site_fract_y
 _atom_site_fract_z
 _atom_site_occupancy
  Gd  Gd0  1  0.002145  0.472685  0.750060  1
  Gd  Gd1  1  0.500588  0.500618  0.498679  1
  Gd  Gd2  1  0.500234  0.500226  0.001298  1
  Er  Er3  1  0.998711  0.528709  0.250029  1
  Er  Er4  1  0.529188  0.998769  0.749989  1
  Er  Er5  1  0.471326  0.001886  0.250097  1
  Au  Au6  1  0.999718  0.999814  0.498594  1
  Au  Au7  1  0.999775  0.999858  0.001381  1
  O  O8  1  0.636209  0.357854  0.749992  1
  O  O9  1  0.358559  0.642664  0.249945  1
  O  O10  1  0.917239  0.075230  0.749989  1
  O  O11  1  0.081819  0.920966  0.249987  1
  O  O12  1  0.917658  0.670087  0.520044  1
  O  O13  1  0.081590  0.329124  0.028236  1
  O  O14  1  0.329968  0.076278  0.975910  1
  O  O15  1  0.669676  0.923774  0.474935  1
  O  O16  1  0.370835  0.638553  0.749991  1
  O  O17  1  0.636042  0.363679  0.249977  1
  O  O18  1  0.917761  0.670151  0.979853  1
  O  O19  1  0.081400  0.328986  0.471742  1
  O  O20  1  0.329801  0.076133  0.524116  1
  O  O21  1  0.669758  0.923956  0.025156  1
