# generated using pymatgen
data_Lu3ScMn4O14
_symmetry_space_group_name_H-M   'P 1'
_cell_length_a   6.97869447
_cell_length_b   6.97873132
_cell_length_c   6.95426345
_cell_angle_alpha   59.88346359
_cell_angle_beta   59.88347567
_cell_angle_gamma   59.99961680
_symmetry_Int_Tables_number   1
_chemical_formula_structural   Lu3ScMn4O14
_chemical_formula_sum   'Lu3 Sc1 Mn4 O14'
_cell_volume   239.06629662
_cell_formula_units_Z   1
loop_
 _symmetry_equiv_pos_site_id
 _symmetry_equiv_pos_as_xyz
  1  'x, y, z'
loop_
 _atom_site_type_symbol
 _atom_site_label
 _atom_site_symmetry_multiplicity
 _atom_site_fract_x
 _atom_site_fract_y
 _atom_site_fract_z
 _atom_site_occupancy
  Lu  Lu0  1  0.499980  0.499998  0.500012  1
  Lu  Lu1  1  0.000014  0.500000  0.499998  1
  Lu  Lu2  1  0.499988  0.999989  0.500005  1
  Sc  Sc3  1  0.499991  0.499992  0.000010  1
  Mn  Mn4  1  0.999968  0.000059  0.000035  1
  Mn  Mn5  1  0.000084  0.999939  0.499962  1
  Mn  Mn6  1  0.500015  0.000089  0.999934  1
  Mn  Mn7  1  0.000088  0.499961  0.999973  1
  O  O8  1  0.915619  0.915624  0.334623  1
  O  O9  1  0.666520  0.666511  0.081403  1
  O  O10  1  0.333469  0.914431  0.918610  1
  O  O11  1  0.914423  0.333477  0.918617  1
  O  O12  1  0.334095  0.915634  0.334627  1
  O  O13  1  0.915634  0.334124  0.334613  1
  O  O14  1  0.084358  0.084367  0.665386  1
  O  O15  1  0.085563  0.666508  0.081389  1
  O  O16  1  0.379076  0.379089  0.362757  1
  O  O17  1  0.620902  0.620915  0.637261  1
  O  O18  1  0.333462  0.333484  0.918608  1
  O  O19  1  0.666516  0.085561  0.081391  1
  O  O20  1  0.084351  0.665883  0.665390  1
  O  O21  1  0.665882  0.084362  0.665394  1
