# generated using pymatgen
data_Tb3LuGa12Ni
_symmetry_space_group_name_H-M   'P 1'
_cell_length_a   7.44015795
_cell_length_b   7.44015734
_cell_length_c   7.44015777
_cell_angle_alpha   109.36075651
_cell_angle_beta   109.36075472
_cell_angle_gamma   109.36073673
_symmetry_Int_Tables_number   1
_chemical_formula_structural   Tb3LuGa12Ni
_chemical_formula_sum   'Tb3 Lu1 Ga12 Ni1'
_cell_volume   318.33779452
_cell_formula_units_Z   1
loop_
 _symmetry_equiv_pos_site_id
 _symmetry_equiv_pos_as_xyz
  1  'x, y, z'
loop_
 _atom_site_type_symbol
 _atom_site_label
 _atom_site_symmetry_multiplicity
 _atom_site_fract_x
 _atom_site_fract_y
 _atom_site_fract_z
 _atom_site_occupancy
  Tb  Tb0  1  0.000000  0.000000  0.500000  1
  Tb  Tb1  1  0.000000  0.500000  0.000000  1
  Tb  Tb2  1  0.500000  0.000000  0.000000  1
  Lu  Lu3  1  0.500000  0.500000  0.500000  1
  Ga  Ga4  1  0.749417  0.250583  0.500000  1
  Ga  Ga5  1  0.749417  0.500000  0.250583  1
  Ga  Ga6  1  0.500000  0.250583  0.749417  1
  Ga  Ga7  1  0.250583  0.500000  0.749417  1
  Ga  Ga8  1  0.250583  0.749417  0.500000  1
  Ga  Ga9  1  0.500000  0.749417  0.250583  1
  Ga  Ga10  1  0.710868  0.710868  0.999083  1
  Ga  Ga11  1  0.289132  0.000917  0.289132  1
  Ga  Ga12  1  0.000917  0.289132  0.289132  1
  Ga  Ga13  1  0.289132  0.289132  0.000917  1
  Ga  Ga14  1  0.710868  0.999083  0.710868  1
  Ga  Ga15  1  0.999083  0.710868  0.710868  1
  Ni  Ni16  1  0.000000  0.000000  0.000000  1
