# generated using pymatgen
data_Lu4Si4Ir3Os
_symmetry_space_group_name_H-M   'P 1'
_cell_length_a   4.19912700
_cell_length_b   6.72884370
_cell_length_c   7.36228477
_cell_angle_alpha   90.05239558
_cell_angle_beta   90.00000000
_cell_angle_gamma   90.00000000
_symmetry_Int_Tables_number   1
_chemical_formula_structural   Lu4Si4Ir3Os
_chemical_formula_sum   'Lu4 Si4 Ir3 Os1'
_cell_volume   208.02325165
_cell_formula_units_Z   1
loop_
 _symmetry_equiv_pos_site_id
 _symmetry_equiv_pos_as_xyz
  1  'x, y, z'
loop_
 _atom_site_type_symbol
 _atom_site_label
 _atom_site_symmetry_multiplicity
 _atom_site_fract_x
 _atom_site_fract_y
 _atom_site_fract_z
 _atom_site_occupancy
  Lu  Lu0  1  0.750000  0.502686  0.812851  1
  Lu  Lu1  1  0.250000  0.994705  0.313832  1
  Lu  Lu2  1  0.750000  0.003376  0.686414  1
  Lu  Lu3  1  0.250000  0.500352  0.186911  1
  Si  Si4  1  0.250000  0.703590  0.620246  1
  Si  Si5  1  0.250000  0.201986  0.886919  1
  Si  Si6  1  0.750000  0.295951  0.384179  1
  Si  Si7  1  0.750000  0.796017  0.108227  1
  Ir  Ir8  1  0.250000  0.340287  0.561698  1
  Ir  Ir9  1  0.750000  0.658860  0.437968  1
  Ir  Ir10  1  0.750000  0.160320  0.062549  1
  Os  Os11  1  0.250000  0.841871  0.938206  1
