# generated using pymatgen
data_YLu2Mg3Ge2Pd
_symmetry_space_group_name_H-M   'P 1'
_cell_length_a   7.19311500
_cell_length_b   7.22637801
_cell_length_c   4.24232700
_cell_angle_alpha   90.00000000
_cell_angle_beta   90.00000000
_cell_angle_gamma   119.84784592
_symmetry_Int_Tables_number   1
_chemical_formula_structural   YLu2Mg3Ge2Pd
_chemical_formula_sum   'Y1 Lu2 Mg3 Ge2 Pd1'
_cell_volume   191.26533908
_cell_formula_units_Z   1
loop_
 _symmetry_equiv_pos_site_id
 _symmetry_equiv_pos_as_xyz
  1  'x, y, z'
loop_
 _atom_site_type_symbol
 _atom_site_label
 _atom_site_symmetry_multiplicity
 _atom_site_fract_x
 _atom_site_fract_y
 _atom_site_fract_z
 _atom_site_occupancy
  Y  Y0  1  0.581184  0.000000  0.500000  1
  Lu  Lu1  1  0.416625  0.416824  0.500000  1
  Lu  Lu2  1  0.999801  0.583176  0.500000  1
  Mg  Mg3  1  0.757591  0.756960  0.000000  1
  Mg  Mg4  1  0.241795  0.000000  0.000000  1
  Mg  Mg5  1  0.000630  0.243040  0.000000  1
  Ge  Ge6  1  0.667151  0.336496  0.000000  1
  Ge  Ge7  1  0.330654  0.663504  0.000000  1
  Pd  Pd8  1  0.004572  0.000000  0.500000  1
