# generated using pymatgen
data_Nb5Ga(B2Ru5)2
_symmetry_space_group_name_H-M   'P 1'
_cell_length_a   9.40383100
_cell_length_b   9.40383100
_cell_length_c   3.02062300
_cell_angle_alpha   90.00000000
_cell_angle_beta   90.00000000
_cell_angle_gamma   90.00000000
_symmetry_Int_Tables_number   1
_chemical_formula_structural   Nb5Ga(B2Ru5)2
_chemical_formula_sum   'Nb5 Ga1 B4 Ru10'
_cell_volume   267.11984634
_cell_formula_units_Z   1
loop_
 _symmetry_equiv_pos_site_id
 _symmetry_equiv_pos_as_xyz
  1  'x, y, z'
loop_
 _atom_site_type_symbol
 _atom_site_label
 _atom_site_symmetry_multiplicity
 _atom_site_fract_x
 _atom_site_fract_y
 _atom_site_fract_z
 _atom_site_occupancy
  Nb  Nb0  1  0.820310  0.674549  0.000000  1
  Nb  Nb1  1  0.179690  0.325451  0.000000  1
  Nb  Nb2  1  0.325451  0.820310  0.000000  1
  Nb  Nb3  1  0.674549  0.179690  0.000000  1
  Nb  Nb4  1  0.000000  0.000000  0.000000  1
  Ga  Ga5  1  0.500000  0.500000  0.000000  1
  B  B6  1  0.616503  0.870523  0.000000  1
  B  B7  1  0.383497  0.129477  0.000000  1
  B  B8  1  0.129477  0.616503  0.000000  1
  B  B9  1  0.870523  0.383497  0.000000  1
  Ru  Ru10  1  0.500000  0.000000  0.500000  1
  Ru  Ru11  1  0.000000  0.500000  0.500000  1
  Ru  Ru12  1  0.569194  0.715109  0.500000  1
  Ru  Ru13  1  0.430806  0.284891  0.500000  1
  Ru  Ru14  1  0.071859  0.780169  0.500000  1
  Ru  Ru15  1  0.928141  0.219831  0.500000  1
  Ru  Ru16  1  0.284891  0.569194  0.500000  1
  Ru  Ru17  1  0.715109  0.430806  0.500000  1
  Ru  Ru18  1  0.219831  0.071859  0.500000  1
  Ru  Ru19  1  0.780169  0.928141  0.500000  1
