# generated using pymatgen
data_Zr4P4Ir3Ru
_symmetry_space_group_name_H-M   'P 1'
_cell_length_a   3.85346700
_cell_length_b   6.55104112
_cell_length_c   7.41990317
_cell_angle_alpha   90.23051371
_cell_angle_beta   90.00000000
_cell_angle_gamma   90.00000000
_symmetry_Int_Tables_number   1
_chemical_formula_structural   Zr4P4Ir3Ru
_chemical_formula_sum   'Zr4 P4 Ir3 Ru1'
_cell_volume   187.30815770
_cell_formula_units_Z   1
loop_
 _symmetry_equiv_pos_site_id
 _symmetry_equiv_pos_as_xyz
  1  'x, y, z'
loop_
 _atom_site_type_symbol
 _atom_site_label
 _atom_site_symmetry_multiplicity
 _atom_site_fract_x
 _atom_site_fract_y
 _atom_site_fract_z
 _atom_site_occupancy
  Zr  Zr0  1  0.750000  0.525484  0.322835  1
  Zr  Zr1  1  0.250000  0.975734  0.822427  1
  Zr  Zr2  1  0.750000  0.023209  0.176544  1
  Zr  Zr3  1  0.250000  0.477632  0.677302  1
  P  P4  1  0.250000  0.732536  0.116526  1
  P  P5  1  0.250000  0.235447  0.377392  1
  P  P6  1  0.750000  0.270228  0.878113  1
  P  P7  1  0.750000  0.764728  0.627090  1
  Ir  Ir8  1  0.250000  0.351886  0.062364  1
  Ir  Ir9  1  0.250000  0.855033  0.436090  1
  Ir  Ir10  1  0.750000  0.145857  0.561774  1
  Ru  Ru11  1  0.750000  0.642227  0.941544  1
