# generated using pymatgen
data_HoScZn4Ru
_symmetry_space_group_name_H-M   'P 1'
_cell_length_a   6.89828500
_cell_length_b   6.89828500
_cell_length_c   5.02977400
_cell_angle_alpha   90.00000000
_cell_angle_beta   90.00000000
_cell_angle_gamma   90.00000000
_symmetry_Int_Tables_number   1
_chemical_formula_structural   HoScZn4Ru
_chemical_formula_sum   'Ho2 Sc2 Zn8 Ru2'
_cell_volume   239.34851527
_cell_formula_units_Z   2
loop_
 _symmetry_equiv_pos_site_id
 _symmetry_equiv_pos_as_xyz
  1  'x, y, z'
loop_
 _atom_site_type_symbol
 _atom_site_label
 _atom_site_symmetry_multiplicity
 _atom_site_fract_x
 _atom_site_fract_y
 _atom_site_fract_z
 _atom_site_occupancy
  Ho  Ho0  1  0.000000  0.500000  0.759137  1
  Ho  Ho1  1  0.500000  0.000000  0.240863  1
  Sc  Sc2  1  0.000000  0.000000  0.000000  1
  Sc  Sc3  1  0.500000  0.500000  0.000000  1
  Zn  Zn4  1  0.190756  0.690756  0.271210  1
  Zn  Zn5  1  0.809244  0.690756  0.271210  1
  Zn  Zn6  1  0.809244  0.309244  0.271210  1
  Zn  Zn7  1  0.309244  0.190756  0.728790  1
  Zn  Zn8  1  0.190756  0.309244  0.271210  1
  Zn  Zn9  1  0.690756  0.190756  0.728790  1
  Zn  Zn10  1  0.690756  0.809244  0.728790  1
  Zn  Zn11  1  0.309244  0.809244  0.728790  1
  Ru  Ru12  1  0.500000  0.500000  0.500000  1
  Ru  Ru13  1  0.000000  0.000000  0.500000  1
