# generated using pymatgen
data_La4PrAl2Os2Ru
_symmetry_space_group_name_H-M   'P 1'
_cell_length_a   8.67884859
_cell_length_b   8.65615805
_cell_length_c   8.65191328
_cell_angle_alpha   109.38323512
_cell_angle_beta   109.79355244
_cell_angle_gamma   109.38948864
_symmetry_Int_Tables_number   1
_chemical_formula_structural   La4PrAl2Os2Ru
_chemical_formula_sum   'La8 Pr2 Al4 Os4 Ru2'
_cell_volume   499.40327504
_cell_formula_units_Z   2
loop_
 _symmetry_equiv_pos_site_id
 _symmetry_equiv_pos_as_xyz
  1  'x, y, z'
loop_
 _atom_site_type_symbol
 _atom_site_label
 _atom_site_symmetry_multiplicity
 _atom_site_fract_x
 _atom_site_fract_y
 _atom_site_fract_z
 _atom_site_occupancy
  La  La0  1  0.247517  0.684197  0.438026  1
  La  La1  1  0.748844  0.813054  0.061500  1
  La  La2  1  0.436296  0.248824  0.687647  1
  La  La3  1  0.686063  0.437113  0.250462  1
  La  La4  1  0.061943  0.748608  0.813225  1
  La  La5  1  0.813761  0.063132  0.748490  1
  La  La6  1  0.211360  0.211454  0.211332  1
  La  La7  1  0.499753  0.000533  0.289676  1
  Pr  Pr8  1  0.286955  0.501067  0.000746  1
  Pr  Pr9  1  0.999782  0.284995  0.498678  1
  Al  Al10  1  0.587824  0.586872  0.587859  1
  Al  Al11  1  0.500464  0.001718  0.913387  1
  Al  Al12  1  0.913072  0.499776  0.999756  1
  Al  Al13  1  0.001793  0.913414  0.499817  1
  Os  Os14  1  0.250790  0.115977  0.865256  1
  Os  Os15  1  0.749405  0.384647  0.634028  1
  Os  Os16  1  0.864598  0.249718  0.113311  1
  Os  Os17  1  0.114928  0.864859  0.249581  1
  Ru  Ru18  1  0.637612  0.752466  0.387636  1
  Ru  Ru19  1  0.387237  0.637573  0.749588  1
