# generated using pymatgen
data_Ba3GdBi2O9
_symmetry_space_group_name_H-M   'P 1'
_cell_length_a   6.21273469
_cell_length_b   6.21273452
_cell_length_c   15.20942048
_cell_angle_alpha   89.53855416
_cell_angle_beta   89.53855644
_cell_angle_gamma   59.82174567
_symmetry_Int_Tables_number   1
_chemical_formula_structural   Ba3GdBi2O9
_chemical_formula_sum   'Ba6 Gd2 Bi4 O18'
_cell_volume   507.46636945
_cell_formula_units_Z   2
loop_
 _symmetry_equiv_pos_site_id
 _symmetry_equiv_pos_as_xyz
  1  'x, y, z'
loop_
 _atom_site_type_symbol
 _atom_site_label
 _atom_site_symmetry_multiplicity
 _atom_site_fract_x
 _atom_site_fract_y
 _atom_site_fract_z
 _atom_site_occupancy
  Ba  Ba0  1  0.668243  0.668243  0.918578  1
  Ba  Ba1  1  0.003346  0.003346  0.252839  1
  Ba  Ba2  1  0.336100  0.336100  0.583855  1
  Ba  Ba3  1  0.996654  0.996654  0.747161  1
  Ba  Ba4  1  0.331757  0.331757  0.081422  1
  Ba  Ba5  1  0.663900  0.663900  0.416145  1
  Gd  Gd6  1  0.333210  0.333210  0.333971  1
  Gd  Gd7  1  0.666790  0.666790  0.666029  1
  Bi  Bi8  1  0.666442  0.666442  0.169279  1
  Bi  Bi9  1  0.000000  0.000000  0.500000  1
  Bi  Bi10  1  0.333558  0.333558  0.830721  1
  Bi  Bi11  1  0.000000  0.000000  0.000000  1
  O  O12  1  0.516606  0.516606  0.772951  1
  O  O13  1  0.850513  0.850513  0.109732  1
  O  O14  1  0.181833  0.181833  0.440513  1
  O  O15  1  0.149487  0.149487  0.890268  1
  O  O16  1  0.483394  0.483394  0.227049  1
  O  O17  1  0.818167  0.818167  0.559487  1
  O  O18  1  0.478343  0.967742  0.260706  1
  O  O19  1  0.813948  0.301800  0.591318  1
  O  O20  1  0.145637  0.632015  0.925327  1
  O  O21  1  0.367985  0.854363  0.074673  1
  O  O22  1  0.698200  0.186052  0.408682  1
  O  O23  1  0.032258  0.521657  0.739294  1
  O  O24  1  0.967742  0.478343  0.260706  1
  O  O25  1  0.301800  0.813948  0.591318  1
  O  O26  1  0.632015  0.145637  0.925327  1
  O  O27  1  0.854363  0.367985  0.074673  1
  O  O28  1  0.186052  0.698200  0.408682  1
  O  O29  1  0.521657  0.032258  0.739294  1
