# generated using pymatgen
data_Tb5Tm11InAg3Rh4
_symmetry_space_group_name_H-M   'P 1'
_cell_length_a   9.51712966
_cell_length_b   9.51488747
_cell_length_c   9.48781080
_cell_angle_alpha   59.83690638
_cell_angle_beta   59.68717418
_cell_angle_gamma   59.79187269
_symmetry_Int_Tables_number   1
_chemical_formula_structural   Tb5Tm11InAg3Rh4
_chemical_formula_sum   'Tb5 Tm11 In1 Ag3 Rh4'
_cell_volume   604.37276431
_cell_formula_units_Z   1
loop_
 _symmetry_equiv_pos_site_id
 _symmetry_equiv_pos_as_xyz
  1  'x, y, z'
loop_
 _atom_site_type_symbol
 _atom_site_label
 _atom_site_symmetry_multiplicity
 _atom_site_fract_x
 _atom_site_fract_y
 _atom_site_fract_z
 _atom_site_occupancy
  Tb  Tb0  1  0.063181  0.063532  0.438337  1
  Tb  Tb1  1  0.436594  0.061434  0.438770  1
  Tb  Tb2  1  0.061102  0.435261  0.069316  1
  Tb  Tb3  1  0.051381  0.647923  0.649691  1
  Tb  Tb4  1  0.435866  0.435418  0.066927  1
  Tm  Tm5  1  0.648228  0.052677  0.649101  1
  Tm  Tm6  1  0.188737  0.814944  0.186329  1
  Tm  Tm7  1  0.189971  0.189868  0.811831  1
  Tm  Tm8  1  0.811893  0.812500  0.188131  1
  Tm  Tm9  1  0.437723  0.059832  0.065772  1
  Tm  Tm10  1  0.814564  0.187647  0.187287  1
  Tm  Tm11  1  0.061983  0.437080  0.439271  1
  Tm  Tm12  1  0.809711  0.189673  0.812482  1
  Tm  Tm13  1  0.189413  0.810153  0.813966  1
  Tm  Tm14  1  0.648543  0.647095  0.053537  1
  Tm  Tm15  1  0.650200  0.647471  0.649013  1
  In  In16  1  0.421880  0.420738  0.737691  1
  Ag  Ag17  1  0.418308  0.418349  0.416249  1
  Ag  Ag18  1  0.748021  0.418360  0.416131  1
  Ag  Ag19  1  0.419776  0.749135  0.411937  1
  Rh  Rh20  1  0.854815  0.857050  0.426449  1
  Rh  Rh21  1  0.853723  0.860773  0.859415  1
  Rh  Rh22  1  0.428874  0.857097  0.856164  1
  Rh  Rh23  1  0.855516  0.425991  0.856204  1
