# generated using pymatgen
data_Ho2Fe2P7Ir3Ru7
_symmetry_space_group_name_H-M   'P 1'
_cell_length_a   9.34288566
_cell_length_b   9.35174292
_cell_length_c   3.88348400
_cell_angle_alpha   90.00000000
_cell_angle_beta   90.00000000
_cell_angle_gamma   119.76316709
_symmetry_Int_Tables_number   1
_chemical_formula_structural   Ho2Fe2P7Ir3Ru7
_chemical_formula_sum   'Ho2 Fe2 P7 Ir3 Ru7'
_cell_volume   294.54879057
_cell_formula_units_Z   1
loop_
 _symmetry_equiv_pos_site_id
 _symmetry_equiv_pos_as_xyz
  1  'x, y, z'
loop_
 _atom_site_type_symbol
 _atom_site_label
 _atom_site_symmetry_multiplicity
 _atom_site_fract_x
 _atom_site_fract_y
 _atom_site_fract_z
 _atom_site_occupancy
  Ho  Ho0  1  0.000651  0.998201  0.000000  1
  Ho  Ho1  1  0.331828  0.665280  0.500000  1
  Fe  Fe2  1  0.395008  0.223953  0.000000  1
  Fe  Fe3  1  0.826868  0.604984  0.000000  1
  P  P4  1  0.551941  0.912733  0.000000  1
  P  P5  1  0.369013  0.447320  0.000000  1
  P  P6  1  0.075631  0.632963  0.000000  1
  P  P7  1  0.951541  0.220190  0.500000  1
  P  P8  1  0.263563  0.050384  0.500000  1
  P  P9  1  0.787112  0.729338  0.500000  1
  P  P10  1  0.662611  0.341066  0.000000  1
  Ir  Ir11  1  0.302738  0.905398  0.000000  1
  Ir  Ir12  1  0.723310  0.943554  0.500000  1
  Ir  Ir13  1  0.225654  0.277618  0.500000  1
  Ru  Ru14  1  0.605626  0.696256  0.000000  1
  Ru  Ru15  1  0.099616  0.400549  0.000000  1
  Ru  Ru16  1  0.774597  0.174874  0.000000  1
  Ru  Ru17  1  0.054745  0.774200  0.500000  1
  Ru  Ru18  1  0.535175  0.119353  0.500000  1
  Ru  Ru19  1  0.580078  0.454711  0.500000  1
  Ru  Ru20  1  0.882696  0.427075  0.500000  1
