# generated using pymatgen
data_Hf12Co6IrOs5
_symmetry_space_group_name_H-M   'P 1'
_cell_length_a   4.56464000
_cell_length_b   6.39994500
_cell_length_c   13.69015400
_cell_angle_alpha   90.00000000
_cell_angle_beta   90.00015483
_cell_angle_gamma   90.00000000
_symmetry_Int_Tables_number   1
_chemical_formula_structural   Hf12Co6IrOs5
_chemical_formula_sum   'Hf12 Co6 Ir1 Os5'
_cell_volume   399.93656016
_cell_formula_units_Z   1
loop_
 _symmetry_equiv_pos_site_id
 _symmetry_equiv_pos_as_xyz
  1  'x, y, z'
loop_
 _atom_site_type_symbol
 _atom_site_label
 _atom_site_symmetry_multiplicity
 _atom_site_fract_x
 _atom_site_fract_y
 _atom_site_fract_z
 _atom_site_occupancy
  Hf  Hf0  1  0.499997  0.249572  0.001221  1
  Hf  Hf1  1  0.499997  0.750428  0.001221  1
  Hf  Hf2  1  0.999925  0.249525  0.166876  1
  Hf  Hf3  1  0.999925  0.750475  0.166876  1
  Hf  Hf4  1  0.499924  0.250189  0.333364  1
  Hf  Hf5  1  0.499924  0.749811  0.333364  1
  Hf  Hf6  1  0.999998  0.249501  0.499808  1
  Hf  Hf7  1  0.999998  0.750499  0.499808  1
  Hf  Hf8  1  0.500070  0.249540  0.665409  1
  Hf  Hf9  1  0.500070  0.750460  0.665409  1
  Hf  Hf10  1  0.000088  0.247523  0.833314  1
  Hf  Hf11  1  0.000088  0.752477  0.833314  1
  Co  Co12  1  0.999980  0.500000  0.000033  1
  Co  Co13  1  0.499901  0.000000  0.166179  1
  Co  Co14  1  0.999887  0.500000  0.333403  1
  Co  Co15  1  0.500003  0.000000  0.500543  1
  Co  Co16  1  0.000089  0.500000  0.666583  1
  Co  Co17  1  0.500132  0.000000  0.833280  1
  Ir  Ir18  1  0.500096  0.500000  0.833302  1
  Os  Os19  1  0.000002  0.000000  0.999523  1
  Os  Os20  1  0.499916  0.500000  0.166656  1
  Os  Os21  1  0.999918  0.000000  0.333379  1
  Os  Os22  1  0.499998  0.500000  0.500025  1
  Os  Os23  1  0.000077  0.000000  0.667108  1
