# generated using pymatgen
data_DyHo3BI5
_symmetry_space_group_name_H-M   'P 1'
_cell_length_a   9.62904989
_cell_length_b   9.62905010
_cell_length_c   8.56727508
_cell_angle_alpha   102.42942547
_cell_angle_beta   102.42942649
_cell_angle_gamma   24.54091580
_symmetry_Int_Tables_number   1
_chemical_formula_structural   DyHo3BI5
_chemical_formula_sum   'Dy1 Ho3 B1 I5'
_cell_volume   321.82267808
_cell_formula_units_Z   1
loop_
 _symmetry_equiv_pos_site_id
 _symmetry_equiv_pos_as_xyz
  1  'x, y, z'
loop_
 _atom_site_type_symbol
 _atom_site_label
 _atom_site_symmetry_multiplicity
 _atom_site_fract_x
 _atom_site_fract_y
 _atom_site_fract_z
 _atom_site_occupancy
  Dy  Dy0  1  0.363944  0.363944  0.930126  1
  Ho  Ho1  1  0.635923  0.635923  0.069858  1
  Ho  Ho2  1  0.999379  0.999379  0.192543  1
  Ho  Ho3  1  0.000663  0.000663  0.807464  1
  B  B4  1  0.500129  0.500129  0.000063  1
  I  I5  1  0.828044  0.828044  0.174501  1
  I  I6  1  0.166008  0.166008  0.343414  1
  I  I7  1  0.500002  0.500002  0.499999  1
  I  I8  1  0.833993  0.833993  0.656316  1
  I  I9  1  0.171914  0.171914  0.825717  1
