# generated using pymatgen
data_Zr2U(Co3B2)3
_symmetry_space_group_name_H-M   'P 1'
_cell_length_a   5.73138270
_cell_length_b   5.73138355
_cell_length_c   5.73138329
_cell_angle_alpha   94.78785994
_cell_angle_beta   94.78785344
_cell_angle_gamma   94.78787360
_symmetry_Int_Tables_number   1
_chemical_formula_structural   Zr2U(Co3B2)3
_chemical_formula_sum   'Zr2 U1 Co9 B6'
_cell_volume   186.18031392
_cell_formula_units_Z   1
loop_
 _symmetry_equiv_pos_site_id
 _symmetry_equiv_pos_as_xyz
  1  'x, y, z'
loop_
 _atom_site_type_symbol
 _atom_site_label
 _atom_site_symmetry_multiplicity
 _atom_site_fract_x
 _atom_site_fract_y
 _atom_site_fract_z
 _atom_site_occupancy
  Zr  Zr0  1  0.670508  0.670508  0.670508  1
  Zr  Zr1  1  0.329492  0.329492  0.329492  1
  U  U2  1  0.000000  0.000000  0.000000  1
  Co  Co3  1  0.000000  0.000000  0.500000  1
  Co  Co4  1  0.500000  0.000000  0.000000  1
  Co  Co5  1  0.000000  0.500000  0.000000  1
  Co  Co6  1  0.694381  0.195167  0.694381  1
  Co  Co7  1  0.694381  0.694381  0.195167  1
  Co  Co8  1  0.195167  0.694381  0.694381  1
  Co  Co9  1  0.305619  0.804833  0.305619  1
  Co  Co10  1  0.305619  0.305619  0.804833  1
  Co  Co11  1  0.804833  0.305619  0.305619  1
  B  B12  1  0.623954  0.376046  0.000000  1
  B  B13  1  0.000000  0.623954  0.376046  1
  B  B14  1  0.376046  0.000000  0.623954  1
  B  B15  1  0.000000  0.376046  0.623954  1
  B  B16  1  0.623954  0.000000  0.376046  1
  B  B17  1  0.376046  0.623954  0.000000  1
