# generated using pymatgen
data_Tm2Pa(P2Rh3)3
_symmetry_space_group_name_H-M   'P 1'
_cell_length_a   3.92953600
_cell_length_b   11.18549000
_cell_length_c   12.70782700
_cell_angle_alpha   90.00000000
_cell_angle_beta   90.00000000
_cell_angle_gamma   90.00000000
_symmetry_Int_Tables_number   1
_chemical_formula_structural   Tm2Pa(P2Rh3)3
_chemical_formula_sum   'Tm4 Pa2 P12 Rh18'
_cell_volume   558.55710381
_cell_formula_units_Z   2
loop_
 _symmetry_equiv_pos_site_id
 _symmetry_equiv_pos_as_xyz
  1  'x, y, z'
loop_
 _atom_site_type_symbol
 _atom_site_label
 _atom_site_symmetry_multiplicity
 _atom_site_fract_x
 _atom_site_fract_y
 _atom_site_fract_z
 _atom_site_occupancy
  Tm  Tm0  1  0.500000  0.814228  0.205901  1
  Tm  Tm1  1  0.500000  0.185772  0.205901  1
  Tm  Tm2  1  0.000000  0.685772  0.794099  1
  Tm  Tm3  1  0.000000  0.314228  0.794099  1
  Pa  Pa4  1  0.000000  0.500000  0.528098  1
  Pa  Pa5  1  0.500000  0.000000  0.471902  1
  P  P6  1  0.500000  0.500000  0.876053  1
  P  P7  1  0.000000  0.000000  0.123947  1
  P  P8  1  0.500000  0.500000  0.352997  1
  P  P9  1  0.000000  0.000000  0.647003  1
  P  P10  1  0.500000  0.313768  0.620328  1
  P  P11  1  0.500000  0.686232  0.620328  1
  P  P12  1  0.000000  0.186232  0.379672  1
  P  P13  1  0.000000  0.813768  0.379672  1
  P  P14  1  0.500000  0.846128  0.893253  1
  P  P15  1  0.500000  0.153872  0.893253  1
  P  P16  1  0.000000  0.653872  0.106747  1
  P  P17  1  0.000000  0.346128  0.106747  1
  Rh  Rh18  1  0.500000  0.500000  0.169920  1
  Rh  Rh19  1  0.000000  0.000000  0.830080  1
  Rh  Rh20  1  0.500000  0.500000  0.697868  1
  Rh  Rh21  1  0.000000  0.000000  0.302132  1
  Rh  Rh22  1  0.000000  0.500000  0.978295  1
  Rh  Rh23  1  0.500000  0.000000  0.021705  1
  Rh  Rh24  1  0.500000  0.334107  0.992129  1
  Rh  Rh25  1  0.500000  0.665893  0.992129  1
  Rh  Rh26  1  0.000000  0.165893  0.007871  1
  Rh  Rh27  1  0.000000  0.834107  0.007871  1
  Rh  Rh28  1  0.500000  0.300216  0.433675  1
  Rh  Rh29  1  0.500000  0.699784  0.433675  1
  Rh  Rh30  1  0.000000  0.199784  0.566325  1
  Rh  Rh31  1  0.000000  0.800216  0.566325  1
  Rh  Rh32  1  0.500000  0.871916  0.710970  1
  Rh  Rh33  1  0.500000  0.128084  0.710970  1
  Rh  Rh34  1  0.000000  0.628084  0.289030  1
  Rh  Rh35  1  0.000000  0.371916  0.289030  1
