# generated using pymatgen
data_K4RuO5
_symmetry_space_group_name_H-M   'P 1'
_cell_length_a   6.31791048
_cell_length_b   10.30678061
_cell_length_c   17.05072500
_cell_angle_alpha   94.28468477
_cell_angle_beta   92.38099677
_cell_angle_gamma   96.46215403
_symmetry_Int_Tables_number   1
_chemical_formula_structural   K4RuO5
_chemical_formula_sum   'K24 Ru6 O30'
_cell_volume   1098.76077516
_cell_formula_units_Z   6
loop_
 _symmetry_equiv_pos_site_id
 _symmetry_equiv_pos_as_xyz
  1  'x, y, z'
loop_
 _atom_site_type_symbol
 _atom_site_label
 _atom_site_symmetry_multiplicity
 _atom_site_fract_x
 _atom_site_fract_y
 _atom_site_fract_z
 _atom_site_occupancy
  K  K0  1  0.009609  0.507613  0.179965  1
  K  K1  1  0.990391  0.492387  0.820035  1
  K  K2  1  0.540734  0.208215  0.507223  1
  K  K3  1  0.459266  0.791785  0.492777  1
  K  K4  1  0.074762  0.696027  0.007463  1
  K  K5  1  0.925238  0.303973  0.992537  1
  K  K6  1  0.070728  0.847451  0.218476  1
  K  K7  1  0.929272  0.152549  0.781524  1
  K  K8  1  0.540086  0.999683  0.321956  1
  K  K9  1  0.459914  0.000317  0.678044  1
  K  K10  1  0.227918  0.041361  0.058180  1
  K  K11  1  0.772082  0.958639  0.941820  1
  K  K12  1  0.428452  0.408883  0.093366  1
  K  K13  1  0.571548  0.591117  0.906634  1
  K  K14  1  0.718634  0.385630  0.345676  1
  K  K15  1  0.281366  0.614370  0.654324  1
  K  K16  1  0.246255  0.452600  0.429493  1
  K  K17  1  0.753745  0.547400  0.570507  1
  K  K18  1  0.740333  0.092401  0.148058  1
  K  K19  1  0.259667  0.907599  0.851942  1
  K  K20  1  0.063587  0.080822  0.416070  1
  K  K21  1  0.936413  0.919178  0.583930  1
  K  K22  1  0.456393  0.663263  0.290265  1
  K  K23  1  0.543607  0.336737  0.709735  1
  Ru  Ru24  1  0.062448  0.273911  0.593995  1
  Ru  Ru25  1  0.937552  0.726089  0.406005  1
  Ru  Ru26  1  0.599639  0.757865  0.098335  1
  Ru  Ru27  1  0.400361  0.242135  0.901665  1
  Ru  Ru28  1  0.219290  0.235532  0.249514  1
  Ru  Ru29  1  0.780710  0.764468  0.750486  1
  O  O30  1  0.067271  0.684780  0.497707  1
  O  O31  1  0.932729  0.315220  0.502293  1
  O  O32  1  0.133472  0.130399  0.922640  1
  O  O33  1  0.866528  0.869601  0.077360  1
  O  O34  1  0.365077  0.218581  0.353433  1
  O  O35  1  0.634923  0.781419  0.646567  1
  O  O36  1  0.212342  0.130274  0.587261  1
  O  O37  1  0.787658  0.869726  0.412739  1
  O  O38  1  0.084706  0.261623  0.144432  1
  O  O39  1  0.915294  0.738377  0.855568  1
  O  O40  1  0.345948  0.098580  0.205895  1
  O  O41  1  0.654052  0.901420  0.794105  1
  O  O42  1  0.335716  0.654985  0.125965  1
  O  O43  1  0.664284  0.345015  0.874035  1
  O  O44  1  0.380331  0.156674  0.802726  1
  O  O45  1  0.619669  0.843326  0.197274  1
  O  O46  1  0.461443  0.819892  0.013931  1
  O  O47  1  0.538557  0.180108  0.986069  1
  O  O48  1  0.194306  0.840001  0.379206  1
  O  O49  1  0.805694  0.159999  0.620794  1
  O  O50  1  0.327988  0.387246  0.573215  1
  O  O51  1  0.672012  0.612754  0.426785  1
  O  O52  1  0.727991  0.607270  0.077348  1
  O  O53  1  0.272009  0.392730  0.922652  1
  O  O54  1  0.954184  0.196563  0.287786  1
  O  O55  1  0.045816  0.803437  0.712214  1
  O  O56  1  0.041574  0.376509  0.685456  1
  O  O57  1  0.958426  0.623491  0.314544  1
  O  O58  1  0.350564  0.404626  0.253902  1
  O  O59  1  0.649436  0.595374  0.746098  1
