# generated using pymatgen
data_Ho4HgPt3Pb2
_symmetry_space_group_name_H-M   'P 1'
_cell_length_a   8.14523997
_cell_length_b   8.14524004
_cell_length_c   3.55707700
_cell_angle_alpha   90.00000000
_cell_angle_beta   90.00000000
_cell_angle_gamma   90.87698366
_symmetry_Int_Tables_number   1
_chemical_formula_structural   Ho4HgPt3Pb2
_chemical_formula_sum   'Ho4 Hg1 Pt3 Pb2'
_cell_volume   235.96639746
_cell_formula_units_Z   1
loop_
 _symmetry_equiv_pos_site_id
 _symmetry_equiv_pos_as_xyz
  1  'x, y, z'
loop_
 _atom_site_type_symbol
 _atom_site_label
 _atom_site_symmetry_multiplicity
 _atom_site_fract_x
 _atom_site_fract_y
 _atom_site_fract_z
 _atom_site_occupancy
  Ho  Ho0  1  0.693010  0.157497  0.500000  1
  Ho  Ho1  1  0.144230  0.355770  0.500000  1
  Ho  Ho2  1  0.830804  0.669196  0.500000  1
  Ho  Ho3  1  0.342503  0.806990  0.500000  1
  Hg  Hg4  1  0.370200  0.129800  0.000000  1
  Pt  Pt5  1  0.122180  0.633827  0.000000  1
  Pt  Pt6  1  0.623220  0.876780  0.000000  1
  Pt  Pt7  1  0.866173  0.377820  0.000000  1
  Pb  Pb8  1  0.001805  0.994128  0.000000  1
  Pb  Pb9  1  0.505872  0.498195  0.000000  1
