# generated using pymatgen
data_Pr3CrFeCo7P6
_symmetry_space_group_name_H-M   'P 1'
_cell_length_a   3.77174100
_cell_length_b   10.74881300
_cell_length_c   12.41005800
_cell_angle_alpha   90.00000000
_cell_angle_beta   90.00000000
_cell_angle_gamma   90.00000000
_symmetry_Int_Tables_number   1
_chemical_formula_structural   Pr3CrFeCo7P6
_chemical_formula_sum   'Pr6 Cr2 Fe2 Co14 P12'
_cell_volume   503.12532861
_cell_formula_units_Z   2
loop_
 _symmetry_equiv_pos_site_id
 _symmetry_equiv_pos_as_xyz
  1  'x, y, z'
loop_
 _atom_site_type_symbol
 _atom_site_label
 _atom_site_symmetry_multiplicity
 _atom_site_fract_x
 _atom_site_fract_y
 _atom_site_fract_z
 _atom_site_occupancy
  Pr  Pr0  1  0.000000  0.500000  0.522159  1
  Pr  Pr1  1  0.500000  0.000000  0.477841  1
  Pr  Pr2  1  0.500000  0.819383  0.204279  1
  Pr  Pr3  1  0.500000  0.180617  0.204279  1
  Pr  Pr4  1  0.000000  0.680617  0.795721  1
  Pr  Pr5  1  0.000000  0.319383  0.795721  1
  Cr  Cr6  1  0.500000  0.500000  0.151315  1
  Cr  Cr7  1  0.000000  0.000000  0.848685  1
  Fe  Fe8  1  0.000000  0.500000  0.990093  1
  Fe  Fe9  1  0.500000  0.000000  0.009907  1
  Co  Co10  1  0.500000  0.500000  0.702487  1
  Co  Co11  1  0.000000  0.000000  0.297513  1
  Co  Co12  1  0.500000  0.332092  0.995651  1
  Co  Co13  1  0.500000  0.667908  0.995651  1
  Co  Co14  1  0.000000  0.167908  0.004349  1
  Co  Co15  1  0.000000  0.832092  0.004349  1
  Co  Co16  1  0.500000  0.296165  0.430086  1
  Co  Co17  1  0.500000  0.703835  0.430086  1
  Co  Co18  1  0.000000  0.203835  0.569914  1
  Co  Co19  1  0.000000  0.796165  0.569914  1
  Co  Co20  1  0.500000  0.881864  0.710728  1
  Co  Co21  1  0.500000  0.118136  0.710728  1
  Co  Co22  1  0.000000  0.618136  0.289272  1
  Co  Co23  1  0.000000  0.381864  0.289272  1
  P  P24  1  0.500000  0.500000  0.889069  1
  P  P25  1  0.000000  0.000000  0.110931  1
  P  P26  1  0.500000  0.500000  0.340084  1
  P  P27  1  0.000000  0.000000  0.659916  1
  P  P28  1  0.500000  0.305811  0.614182  1
  P  P29  1  0.500000  0.694189  0.614182  1
  P  P30  1  0.000000  0.194189  0.385818  1
  P  P31  1  0.000000  0.805811  0.385818  1
  P  P32  1  0.500000  0.848317  0.896482  1
  P  P33  1  0.500000  0.151683  0.896482  1
  P  P34  1  0.000000  0.651683  0.103518  1
  P  P35  1  0.000000  0.348317  0.103518  1
