# generated using pymatgen
data_Lu12Co6Rh
_symmetry_space_group_name_H-M   'P 1'
_cell_length_a   11.01054500
_cell_length_b   8.18147967
_cell_length_c   10.87030877
_cell_angle_alpha   54.83545824
_cell_angle_beta   90.00000000
_cell_angle_gamma   90.00000000
_symmetry_Int_Tables_number   1
_chemical_formula_structural   Lu12Co6Rh
_chemical_formula_sum   'Lu24 Co12 Rh2'
_cell_volume   800.51799148
_cell_formula_units_Z   2
loop_
 _symmetry_equiv_pos_site_id
 _symmetry_equiv_pos_as_xyz
  1  'x, y, z'
loop_
 _atom_site_type_symbol
 _atom_site_label
 _atom_site_symmetry_multiplicity
 _atom_site_fract_x
 _atom_site_fract_y
 _atom_site_fract_z
 _atom_site_occupancy
  Lu  Lu0  1  0.707626  0.232052  0.540038  1
  Lu  Lu1  1  0.207626  0.767948  0.959962  1
  Lu  Lu2  1  0.840994  0.502074  0.658580  1
  Lu  Lu3  1  0.340994  0.497926  0.841420  1
  Lu  Lu4  1  0.159006  0.497926  0.341420  1
  Lu  Lu5  1  0.659006  0.502074  0.158580  1
  Lu  Lu6  1  0.002199  0.840379  0.354504  1
  Lu  Lu7  1  0.502199  0.159621  0.145496  1
  Lu  Lu8  1  0.997801  0.159621  0.645496  1
  Lu  Lu9  1  0.497801  0.840379  0.854504  1
  Lu  Lu10  1  0.792374  0.232052  0.040038  1
  Lu  Lu11  1  0.292374  0.767948  0.459962  1
  Lu  Lu12  1  0.927959  0.770131  0.088262  1
  Lu  Lu13  1  0.427959  0.229869  0.411738  1
  Lu  Lu14  1  0.072041  0.229869  0.911738  1
  Lu  Lu15  1  0.572041  0.770131  0.588262  1
  Lu  Lu16  1  0.299958  0.245133  0.678160  1
  Lu  Lu17  1  0.799958  0.754867  0.821840  1
  Lu  Lu18  1  0.700042  0.754867  0.321840  1
  Lu  Lu19  1  0.200042  0.245133  0.178160  1
  Lu  Lu20  1  0.931086  0.258534  0.313203  1
  Lu  Lu21  1  0.431086  0.741466  0.186797  1
  Lu  Lu22  1  0.068914  0.741466  0.686797  1
  Lu  Lu23  1  0.568914  0.258534  0.813203  1
  Co  Co24  1  0.678325  0.906757  0.026382  1
  Co  Co25  1  0.178325  0.093243  0.473618  1
  Co  Co26  1  0.321675  0.093243  0.973618  1
  Co  Co27  1  0.821675  0.906757  0.526382  1
  Co  Co28  1  0.399549  0.494187  0.100583  1
  Co  Co29  1  0.899549  0.505813  0.399417  1
  Co  Co30  1  0.600451  0.505813  0.899417  1
  Co  Co31  1  0.100451  0.494187  0.600583  1
  Co  Co32  1  0.813845  0.100759  0.837655  1
  Co  Co33  1  0.313845  0.899241  0.662345  1
  Co  Co34  1  0.186155  0.899241  0.162345  1
  Co  Co35  1  0.686155  0.100759  0.337655  1
  Rh  Rh36  1  0.500000  0.500000  0.500000  1
  Rh  Rh37  1  0.000000  0.500000  0.000000  1
