# generated using pymatgen
data_Yb6Ho2Si12HgPd3
_symmetry_space_group_name_H-M   'P 1'
_cell_length_a   8.27871300
_cell_length_b   8.27871432
_cell_length_c   8.19813200
_cell_angle_alpha   90.00000000
_cell_angle_beta   90.00000000
_cell_angle_gamma   119.99999874
_symmetry_Int_Tables_number   1
_chemical_formula_structural   Yb6Ho2Si12HgPd3
_chemical_formula_sum   'Yb6 Ho2 Si12 Hg1 Pd3'
_cell_volume   486.59906168
_cell_formula_units_Z   1
loop_
 _symmetry_equiv_pos_site_id
 _symmetry_equiv_pos_as_xyz
  1  'x, y, z'
loop_
 _atom_site_type_symbol
 _atom_site_label
 _atom_site_symmetry_multiplicity
 _atom_site_fract_x
 _atom_site_fract_y
 _atom_site_fract_z
 _atom_site_occupancy
  Yb  Yb0  1  0.503861  0.007720  0.257996  1
  Yb  Yb1  1  0.502371  0.004744  0.741962  1
  Yb  Yb2  1  0.992280  0.496139  0.257996  1
  Yb  Yb3  1  0.995256  0.497629  0.741962  1
  Yb  Yb4  1  0.503861  0.496139  0.257996  1
  Yb  Yb5  1  0.502371  0.497629  0.741962  1
  Ho  Ho6  1  0.000000  0.000000  0.254798  1
  Ho  Ho7  1  0.000000  0.000000  0.745139  1
  Si  Si8  1  0.155562  0.311124  0.000280  1
  Si  Si9  1  0.833189  0.666380  0.999389  1
  Si  Si10  1  0.688876  0.844438  0.000280  1
  Si  Si11  1  0.837188  0.674377  0.500587  1
  Si  Si12  1  0.333620  0.166811  0.999389  1
  Si  Si13  1  0.163964  0.327927  0.499373  1
  Si  Si14  1  0.155562  0.844438  0.000280  1
  Si  Si15  1  0.325623  0.162812  0.500587  1
  Si  Si16  1  0.833189  0.166811  0.999389  1
  Si  Si17  1  0.672073  0.836036  0.499373  1
  Si  Si18  1  0.837188  0.162812  0.500587  1
  Si  Si19  1  0.163964  0.836036  0.499373  1
  Hg  Hg20  1  0.333333  0.666667  0.003608  1
  Pd  Pd21  1  0.666667  0.333333  0.998432  1
  Pd  Pd22  1  0.666667  0.333333  0.501300  1
  Pd  Pd23  1  0.333333  0.666667  0.497961  1
