# generated using pymatgen
data_CeCo4SbH4
_symmetry_space_group_name_H-M   'P 1'
_cell_length_a   5.21010352
_cell_length_b   5.21226418
_cell_length_c   4.17928300
_cell_angle_alpha   90.00000000
_cell_angle_beta   90.00000000
_cell_angle_gamma   117.01205483
_symmetry_Int_Tables_number   1
_chemical_formula_structural   CeCo4SbH4
_chemical_formula_sum   'Ce1 Co4 Sb1 H4'
_cell_volume   101.11343558
_cell_formula_units_Z   1
loop_
 _symmetry_equiv_pos_site_id
 _symmetry_equiv_pos_as_xyz
  1  'x, y, z'
loop_
 _atom_site_type_symbol
 _atom_site_label
 _atom_site_symmetry_multiplicity
 _atom_site_fract_x
 _atom_site_fract_y
 _atom_site_fract_z
 _atom_site_occupancy
  Ce  Ce0  1  0.500000  0.500000  0.500000  1
  Co  Co1  1  0.846710  0.153539  0.500000  1
  Co  Co2  1  0.153290  0.846461  0.500000  1
  Co  Co3  1  0.000000  0.500000  0.000000  1
  Co  Co4  1  0.500000  0.000000  0.000000  1
  Sb  Sb5  1  0.000000  0.000000  0.000000  1
  H  H6  1  0.641367  0.358321  0.000000  1
  H  H7  1  0.358633  0.641679  0.000000  1
  H  H8  1  0.000000  0.500000  0.500000  1
  H  H9  1  0.500000  0.000000  0.500000  1
