# generated using pymatgen
data_Li8Nd7ThSn8
_symmetry_space_group_name_H-M   'P 1'
_cell_length_a   9.55676600
_cell_length_b   9.55670700
_cell_length_c   7.64277201
_cell_angle_alpha   89.99563779
_cell_angle_beta   90.00000000
_cell_angle_gamma   120.00020422
_symmetry_Int_Tables_number   1
_chemical_formula_structural   Li8Nd7ThSn8
_chemical_formula_sum   'Li8 Nd7 Th1 Sn8'
_cell_volume   604.50495369
_cell_formula_units_Z   1
loop_
 _symmetry_equiv_pos_site_id
 _symmetry_equiv_pos_as_xyz
  1  'x, y, z'
loop_
 _atom_site_type_symbol
 _atom_site_label
 _atom_site_symmetry_multiplicity
 _atom_site_fract_x
 _atom_site_fract_y
 _atom_site_fract_z
 _atom_site_occupancy
  Li  Li0  1  0.167193  0.334387  0.287104  1
  Li  Li1  1  0.164129  0.831681  0.285970  1
  Li  Li2  1  0.667552  0.831681  0.285970  1
  Li  Li3  1  0.833164  0.666327  0.789697  1
  Li  Li4  1  0.834171  0.167776  0.788598  1
  Li  Li5  1  0.333605  0.167776  0.788598  1
  Li  Li6  1  0.331936  0.663873  0.672272  1
  Li  Li7  1  0.666838  0.333676  0.169818  1
  Nd  Nd8  1  0.511742  0.488996  0.494847  1
  Nd  Nd9  1  0.977253  0.488996  0.494847  1
  Nd  Nd10  1  0.488241  0.976481  0.993999  1
  Nd  Nd11  1  0.488533  0.512074  0.994569  1
  Nd  Nd12  1  0.023541  0.512074  0.994569  1
  Nd  Nd13  1  0.000498  0.000995  0.497965  1
  Nd  Nd14  1  0.000402  0.000805  0.998130  1
  Th  Th15  1  0.510635  0.021271  0.494294  1
  Sn  Sn16  1  0.166820  0.333641  0.730067  1
  Sn  Sn17  1  0.168586  0.834673  0.727431  1
  Sn  Sn18  1  0.666086  0.834673  0.727431  1
  Sn  Sn19  1  0.833133  0.666264  0.228211  1
  Sn  Sn20  1  0.831699  0.165917  0.232696  1
  Sn  Sn21  1  0.334218  0.165917  0.232696  1
  Sn  Sn22  1  0.334147  0.668294  0.268442  1
  Sn  Sn23  1  0.665877  0.331753  0.763751  1
