# generated using pymatgen
data_Hf7UCo16(SiP)6
_symmetry_space_group_name_H-M   'P 1'
_cell_length_a   12.22050141
_cell_length_b   12.24226509
_cell_length_c   3.68453300
_cell_angle_alpha   90.00000000
_cell_angle_beta   90.00000000
_cell_angle_gamma   120.41094673
_symmetry_Int_Tables_number   1
_chemical_formula_structural   Hf7UCo16(SiP)6
_chemical_formula_sum   'Hf7 U1 Co16 Si6 P6'
_cell_volume   475.39055644
_cell_formula_units_Z   1
loop_
 _symmetry_equiv_pos_site_id
 _symmetry_equiv_pos_as_xyz
  1  'x, y, z'
loop_
 _atom_site_type_symbol
 _atom_site_label
 _atom_site_symmetry_multiplicity
 _atom_site_fract_x
 _atom_site_fract_y
 _atom_site_fract_z
 _atom_site_occupancy
  Hf  Hf0  1  0.439383  0.438321  0.000000  1
  Hf  Hf1  1  0.999504  0.181427  0.500000  1
  Hf  Hf2  1  0.555756  0.999429  0.000000  1
  Hf  Hf3  1  0.332460  0.662512  0.000000  1
  Hf  Hf4  1  0.664429  0.333051  0.000000  1
  Hf  Hf5  1  0.999837  0.557789  0.000000  1
  Hf  Hf6  1  0.183803  0.000398  0.500000  1
  U  U7  1  0.825804  0.826299  0.500000  1
  Co  Co8  1  0.629497  0.820585  0.000000  1
  Co  Co9  1  0.372287  0.193366  0.000000  1
  Co  Co10  1  0.001267  0.724775  0.500000  1
  Co  Co11  1  0.280191  0.278206  0.500000  1
  Co  Co12  1  0.879207  0.359359  0.500000  1
  Co  Co13  1  0.722345  0.999258  0.500000  1
  Co  Co14  1  0.820653  0.630696  0.000000  1
  Co  Co15  1  0.179925  0.810100  0.000000  1
  Co  Co16  1  0.357565  0.880626  0.500000  1
  Co  Co17  1  0.128994  0.481002  0.500000  1
  Co  Co18  1  0.640926  0.517780  0.500000  1
  Co  Co19  1  0.990230  0.989733  0.000000  1
  Co  Co20  1  0.518618  0.641273  0.500000  1
  Co  Co21  1  0.478027  0.127350  0.500000  1
  Co  Co22  1  0.197788  0.372707  0.000000  1
  Co  Co23  1  0.805232  0.176347  0.000000  1
  Si  Si24  1  0.001493  0.348265  0.000000  1
  Si  Si25  1  0.824443  0.516494  0.500000  1
  Si  Si26  1  0.692185  0.177247  0.500000  1
  Si  Si27  1  0.172074  0.172307  0.000000  1
  Si  Si28  1  0.515073  0.823967  0.500000  1
  Si  Si29  1  0.177446  0.692440  0.500000  1
  P  P30  1  0.647004  0.647672  0.000000  1
  P  P31  1  0.821972  0.006233  0.000000  1
  P  P32  1  0.348288  0.001511  0.000000  1
  P  P33  1  0.481915  0.308106  0.500000  1
  P  P34  1  0.006187  0.822289  0.000000  1
  P  P35  1  0.308193  0.481080  0.500000  1
