# generated using pymatgen
data_LiHo2Tm2Al17Pd6
_symmetry_space_group_name_H-M   'P 1'
_cell_length_a   7.62099800
_cell_length_b   7.62099754
_cell_length_c   9.47463800
_cell_angle_alpha   90.00000000
_cell_angle_beta   90.00000000
_cell_angle_gamma   119.32888059
_symmetry_Int_Tables_number   1
_chemical_formula_structural   LiHo2Tm2Al17Pd6
_chemical_formula_sum   'Li1 Ho2 Tm2 Al17 Pd6'
_cell_volume   479.74931089
_cell_formula_units_Z   1
loop_
 _symmetry_equiv_pos_site_id
 _symmetry_equiv_pos_as_xyz
  1  'x, y, z'
loop_
 _atom_site_type_symbol
 _atom_site_label
 _atom_site_symmetry_multiplicity
 _atom_site_fract_x
 _atom_site_fract_y
 _atom_site_fract_z
 _atom_site_occupancy
  Li  Li0  1  0.129132  0.129131  0.250000  1
  Ho  Ho1  1  0.995124  0.664722  0.250000  1
  Ho  Ho2  1  0.664721  0.995124  0.250000  1
  Tm  Tm3  1  0.007223  0.329178  0.750000  1
  Tm  Tm4  1  0.329179  0.007223  0.750000  1
  Al  Al5  1  0.867678  0.867678  0.750000  1
  Al  Al6  1  0.001087  0.328719  0.080491  1
  Al  Al7  1  0.001108  0.664849  0.923612  1
  Al  Al8  1  0.001108  0.664849  0.576388  1
  Al  Al9  1  0.328719  0.001086  0.419509  1
  Al  Al10  1  0.001087  0.328719  0.419509  1
  Al  Al11  1  0.664849  0.001108  0.576388  1
  Al  Al12  1  0.664849  0.001108  0.923612  1
  Al  Al13  1  0.328719  0.001086  0.080491  1
  Al  Al14  1  0.334175  0.334175  0.547295  1
  Al  Al15  1  0.671610  0.671610  0.439046  1
  Al  Al16  1  0.671610  0.671610  0.060954  1
  Al  Al17  1  0.334175  0.334175  0.952705  1
  Al  Al18  1  0.340216  0.542948  0.250000  1
  Al  Al19  1  0.658994  0.450425  0.750000  1
  Al  Al20  1  0.542947  0.340215  0.250000  1
  Al  Al21  1  0.450425  0.658994  0.750000  1
  Pd  Pd22  1  0.675361  0.329700  0.999993  1
  Pd  Pd23  1  0.329699  0.675362  0.999995  1
  Pd  Pd24  1  0.329699  0.675362  0.500005  1
  Pd  Pd25  1  0.675361  0.329700  0.500007  1
  Pd  Pd26  1  0.000573  0.000572  0.993183  1
  Pd  Pd27  1  0.000573  0.000572  0.506817  1
