# generated using pymatgen
data_Sr4TiFe2MoO12
_symmetry_space_group_name_H-M   'P 1'
_cell_length_a   5.62156300
_cell_length_b   5.62156300
_cell_length_c   7.97350500
_cell_angle_alpha   90.00000000
_cell_angle_beta   90.00000000
_cell_angle_gamma   90.00000000
_symmetry_Int_Tables_number   1
_chemical_formula_structural   Sr4TiFe2MoO12
_chemical_formula_sum   'Sr4 Ti1 Fe2 Mo1 O12'
_cell_volume   251.97847029
_cell_formula_units_Z   1
loop_
 _symmetry_equiv_pos_site_id
 _symmetry_equiv_pos_as_xyz
  1  'x, y, z'
loop_
 _atom_site_type_symbol
 _atom_site_label
 _atom_site_symmetry_multiplicity
 _atom_site_fract_x
 _atom_site_fract_y
 _atom_site_fract_z
 _atom_site_occupancy
  Sr  Sr0  1  0.500000  0.000000  0.733997  1
  Sr  Sr1  1  0.000000  0.500000  0.266003  1
  Sr  Sr2  1  0.500000  0.000000  0.266003  1
  Sr  Sr3  1  0.000000  0.500000  0.733997  1
  Ti  Ti4  1  0.500000  0.500000  0.500000  1
  Fe  Fe5  1  0.000000  0.000000  0.500000  1
  Fe  Fe6  1  0.500000  0.500000  0.000000  1
  Mo  Mo7  1  0.000000  0.000000  0.000000  1
  O  O8  1  0.000000  0.000000  0.756553  1
  O  O9  1  0.500000  0.500000  0.250026  1
  O  O10  1  0.748055  0.748055  0.500000  1
  O  O11  1  0.243096  0.243096  0.000000  1
  O  O12  1  0.748055  0.251945  0.500000  1
  O  O13  1  0.243096  0.756904  0.000000  1
  O  O14  1  0.000000  0.000000  0.243447  1
  O  O15  1  0.500000  0.500000  0.749974  1
  O  O16  1  0.251945  0.251945  0.500000  1
  O  O17  1  0.756904  0.756904  0.000000  1
  O  O18  1  0.251945  0.748055  0.500000  1
  O  O19  1  0.756904  0.243096  0.000000  1
