# generated using pymatgen
data_Dy5Co12As12Ru7
_symmetry_space_group_name_H-M   'P 1'
_cell_length_a   12.68106289
_cell_length_b   12.66693862
_cell_length_c   3.85866400
_cell_angle_alpha   90.00000000
_cell_angle_beta   90.00000000
_cell_angle_gamma   119.90633573
_symmetry_Int_Tables_number   1
_chemical_formula_structural   Dy5Co12As12Ru7
_chemical_formula_sum   'Dy5 Co12 As12 Ru7'
_cell_volume   537.28416531
_cell_formula_units_Z   1
loop_
 _symmetry_equiv_pos_site_id
 _symmetry_equiv_pos_as_xyz
  1  'x, y, z'
loop_
 _atom_site_type_symbol
 _atom_site_label
 _atom_site_symmetry_multiplicity
 _atom_site_fract_x
 _atom_site_fract_y
 _atom_site_fract_z
 _atom_site_occupancy
  Dy  Dy0  1  0.666955  0.333374  0.000000  1
  Dy  Dy1  1  0.335096  0.666352  0.000000  1
  Dy  Dy2  1  0.181874  0.181753  0.500000  1
  Dy  Dy3  1  0.819400  0.000937  0.500000  1
  Dy  Dy4  1  0.999232  0.818943  0.500000  1
  Co  Co5  1  0.826022  0.195497  0.000000  1
  Co  Co6  1  0.801461  0.629861  0.000000  1
  Co  Co7  1  0.370890  0.173660  0.000000  1
  Co  Co8  1  0.197871  0.826143  0.000000  1
  Co  Co9  1  0.625602  0.803172  0.000000  1
  Co  Co10  1  0.177759  0.373954  0.000000  1
  Co  Co11  1  0.519988  0.872287  0.500000  1
  Co  Co12  1  0.356486  0.484169  0.500000  1
  Co  Co13  1  0.716502  0.719653  0.500000  1
  Co  Co14  1  0.281170  0.998559  0.500000  1
  Co  Co15  1  0.000544  0.280944  0.500000  1
  Co  Co16  1  0.000027  0.999407  0.000000  1
  As  As17  1  0.357961  0.363722  0.000000  1
  As  As18  1  0.637706  0.994994  0.000000  1
  As  As19  1  0.000852  0.640054  0.000000  1
  As  As20  1  0.839489  0.315458  0.500000  1
  As  As21  1  0.681676  0.523454  0.500000  1
  As  As22  1  0.477024  0.160996  0.500000  1
  As  As23  1  0.321757  0.839974  0.500000  1
  As  As24  1  0.519445  0.684875  0.500000  1
  As  As25  1  0.166462  0.476544  0.500000  1
  As  As26  1  0.820466  0.822439  0.000000  1
  As  As27  1  0.178255  0.999716  0.000000  1
  As  As28  1  0.001842  0.179122  0.000000  1
  Ru  Ru29  1  0.551143  0.558143  0.000000  1
  Ru  Ru30  1  0.443054  0.994219  0.000000  1
  Ru  Ru31  1  0.000849  0.443836  0.000000  1
  Ru  Ru32  1  0.645752  0.122890  0.500000  1
  Ru  Ru33  1  0.872281  0.520302  0.500000  1
  Ru  Ru34  1  0.476137  0.353783  0.500000  1
  Ru  Ru35  1  0.130968  0.646816  0.500000  1
