# generated using pymatgen
data_LiPrCo4P3
_symmetry_space_group_name_H-M   'P 1'
_cell_length_a   3.74889000
_cell_length_b   10.41991900
_cell_length_c   12.04783300
_cell_angle_alpha   90.00000000
_cell_angle_beta   90.00000000
_cell_angle_gamma   90.00000000
_symmetry_Int_Tables_number   1
_chemical_formula_structural   LiPrCo4P3
_chemical_formula_sum   'Li4 Pr4 Co16 P12'
_cell_volume   470.62606838
_cell_formula_units_Z   4
loop_
 _symmetry_equiv_pos_site_id
 _symmetry_equiv_pos_as_xyz
  1  'x, y, z'
loop_
 _atom_site_type_symbol
 _atom_site_label
 _atom_site_symmetry_multiplicity
 _atom_site_fract_x
 _atom_site_fract_y
 _atom_site_fract_z
 _atom_site_occupancy
  Li  Li0  1  0.250000  0.700641  0.992982  1
  Li  Li1  1  0.250000  0.799359  0.492982  1
  Li  Li2  1  0.750000  0.299359  0.007018  1
  Li  Li3  1  0.750000  0.200641  0.507018  1
  Pr  Pr4  1  0.250000  0.581258  0.700458  1
  Pr  Pr5  1  0.250000  0.918742  0.200458  1
  Pr  Pr6  1  0.750000  0.418742  0.299542  1
  Pr  Pr7  1  0.750000  0.081258  0.799542  1
  Co  Co8  1  0.250000  0.406851  0.488711  1
  Co  Co9  1  0.250000  0.093149  0.988711  1
  Co  Co10  1  0.750000  0.593149  0.511289  1
  Co  Co11  1  0.750000  0.906851  0.011289  1
  Co  Co12  1  0.250000  0.220428  0.171666  1
  Co  Co13  1  0.250000  0.279572  0.671666  1
  Co  Co14  1  0.750000  0.779572  0.828334  1
  Co  Co15  1  0.750000  0.720428  0.328334  1
  Co  Co16  1  0.250000  0.881224  0.698784  1
  Co  Co17  1  0.250000  0.618776  0.198784  1
  Co  Co18  1  0.750000  0.118776  0.301216  1
  Co  Co19  1  0.750000  0.381224  0.801216  1
  Co  Co20  1  0.250000  0.468374  0.933425  1
  Co  Co21  1  0.250000  0.031626  0.433425  1
  Co  Co22  1  0.750000  0.531626  0.066575  1
  Co  Co23  1  0.750000  0.968374  0.566575  1
  P  P24  1  0.250000  0.423186  0.112195  1
  P  P25  1  0.250000  0.076814  0.612195  1
  P  P26  1  0.750000  0.576814  0.887805  1
  P  P27  1  0.750000  0.923186  0.387805  1
  P  P28  1  0.250000  0.278735  0.857558  1
  P  P29  1  0.250000  0.221265  0.357558  1
  P  P30  1  0.750000  0.721265  0.142442  1
  P  P31  1  0.750000  0.778735  0.642442  1
  P  P32  1  0.250000  0.605372  0.395218  1
  P  P33  1  0.250000  0.894628  0.895218  1
  P  P34  1  0.750000  0.394628  0.604782  1
  P  P35  1  0.750000  0.105372  0.104782  1
