# generated using pymatgen
data_Dy3Th(Ni5Sn)4
_symmetry_space_group_name_H-M   'P 1'
_cell_length_a   4.87141503
_cell_length_b   4.86311289
_cell_length_c   19.71104100
_cell_angle_alpha   90.00000000
_cell_angle_beta   90.00000000
_cell_angle_gamma   119.90896146
_symmetry_Int_Tables_number   1
_chemical_formula_structural   Dy3Th(Ni5Sn)4
_chemical_formula_sum   'Dy3 Th1 Ni20 Sn4'
_cell_volume   404.76910025
_cell_formula_units_Z   1
loop_
 _symmetry_equiv_pos_site_id
 _symmetry_equiv_pos_as_xyz
  1  'x, y, z'
loop_
 _atom_site_type_symbol
 _atom_site_label
 _atom_site_symmetry_multiplicity
 _atom_site_fract_x
 _atom_site_fract_y
 _atom_site_fract_z
 _atom_site_occupancy
  Dy  Dy0  1  0.333333  0.666667  0.250000  1
  Dy  Dy1  1  0.999992  0.999996  0.498638  1
  Dy  Dy2  1  0.999992  0.999996  0.001362  1
  Th  Th3  1  0.666654  0.333326  0.750000  1
  Ni  Ni4  1  0.834095  0.165939  0.352963  1
  Ni  Ni5  1  0.834090  0.668162  0.352964  1
  Ni  Ni6  1  0.331867  0.165936  0.352946  1
  Ni  Ni7  1  0.165975  0.834024  0.644640  1
  Ni  Ni8  1  0.165968  0.331939  0.644639  1
  Ni  Ni9  1  0.668023  0.834012  0.644640  1
  Ni  Ni10  1  0.165975  0.834024  0.855360  1
  Ni  Ni11  1  0.165968  0.331939  0.855361  1
  Ni  Ni12  1  0.668023  0.834012  0.855360  1
  Ni  Ni13  1  0.834095  0.165939  0.147037  1
  Ni  Ni14  1  0.834090  0.668162  0.147036  1
  Ni  Ni15  1  0.331867  0.165936  0.147054  1
  Ni  Ni16  1  0.333378  0.666691  0.958757  1
  Ni  Ni17  1  0.666634  0.333319  0.043914  1
  Ni  Ni18  1  0.666634  0.333319  0.456086  1
  Ni  Ni19  1  0.333378  0.666691  0.541243  1
  Ni  Ni20  1  0.333321  0.666658  0.750000  1
  Ni  Ni21  1  0.666760  0.333381  0.250000  1
  Ni  Ni22  1  0.999910  0.999957  0.250000  1
  Ni  Ni23  1  0.999996  0.000004  0.750000  1
  Sn  Sn24  1  0.333312  0.666656  0.411912  1
  Sn  Sn25  1  0.666678  0.333329  0.584363  1
  Sn  Sn26  1  0.666678  0.333329  0.915637  1
  Sn  Sn27  1  0.333312  0.666656  0.088088  1
