# generated using pymatgen
data_Ta10AlSi4Sn
_symmetry_space_group_name_H-M   'P 1'
_cell_length_a   7.64697030
_cell_length_b   7.64696988
_cell_length_c   7.64697089
_cell_angle_alpha   128.14875648
_cell_angle_beta   128.14875130
_cell_angle_gamma   76.38417049
_symmetry_Int_Tables_number   1
_chemical_formula_structural   Ta10AlSi4Sn
_chemical_formula_sum   'Ta10 Al1 Si4 Sn1'
_cell_volume   268.71208584
_cell_formula_units_Z   1
loop_
 _symmetry_equiv_pos_site_id
 _symmetry_equiv_pos_as_xyz
  1  'x, y, z'
loop_
 _atom_site_type_symbol
 _atom_site_label
 _atom_site_symmetry_multiplicity
 _atom_site_fract_x
 _atom_site_fract_y
 _atom_site_fract_z
 _atom_site_occupancy
  Ta  Ta0  1  0.021470  0.197591  0.511762  1
  Ta  Ta1  1  0.685828  0.509708  0.488238  1
  Ta  Ta2  1  0.509708  0.021470  0.823879  1
  Ta  Ta3  1  0.197591  0.685828  0.176121  1
  Ta  Ta4  1  0.990292  0.814172  0.511762  1
  Ta  Ta5  1  0.302409  0.478530  0.488238  1
  Ta  Ta6  1  0.478530  0.990292  0.176121  1
  Ta  Ta7  1  0.814172  0.302409  0.823879  1
  Ta  Ta8  1  0.001092  0.001092  0.000000  1
  Ta  Ta9  1  0.498908  0.498908  0.000000  1
  Al  Al10  1  0.250000  0.250000  0.000000  1
  Si  Si11  1  0.368941  0.131059  0.500000  1
  Si  Si12  1  0.631059  0.868941  0.500000  1
  Si  Si13  1  0.868941  0.368941  0.237883  1
  Si  Si14  1  0.131059  0.631059  0.762117  1
  Sn  Sn15  1  0.750000  0.750000  0.000000  1
