# generated using pymatgen
data_Lu5B4(Pt2Rh3)3
_symmetry_space_group_name_H-M   'P 1'
_cell_length_a   4.19971500
_cell_length_b   4.19971500
_cell_length_c   20.60459600
_cell_angle_alpha   90.00000000
_cell_angle_beta   90.00000000
_cell_angle_gamma   90.00000000
_symmetry_Int_Tables_number   1
_chemical_formula_structural   Lu5B4(Pt2Rh3)3
_chemical_formula_sum   'Lu5 B4 Pt6 Rh9'
_cell_volume   363.41574771
_cell_formula_units_Z   1
loop_
 _symmetry_equiv_pos_site_id
 _symmetry_equiv_pos_as_xyz
  1  'x, y, z'
loop_
 _atom_site_type_symbol
 _atom_site_label
 _atom_site_symmetry_multiplicity
 _atom_site_fract_x
 _atom_site_fract_y
 _atom_site_fract_z
 _atom_site_occupancy
  Lu  Lu0  1  0.000000  0.000000  0.901845  1
  Lu  Lu1  1  0.000000  0.000000  0.098155  1
  Lu  Lu2  1  0.000000  0.000000  0.298850  1
  Lu  Lu3  1  0.000000  0.000000  0.500000  1
  Lu  Lu4  1  0.000000  0.000000  0.701150  1
  B  B5  1  0.500000  0.500000  0.190819  1
  B  B6  1  0.500000  0.500000  0.399405  1
  B  B7  1  0.500000  0.500000  0.600595  1
  B  B8  1  0.500000  0.500000  0.809181  1
  Pt  Pt9  1  0.500000  0.500000  0.908242  1
  Pt  Pt10  1  0.500000  0.500000  0.091758  1
  Pt  Pt11  1  0.500000  0.500000  0.296552  1
  Pt  Pt12  1  0.500000  0.500000  0.703448  1
  Pt  Pt13  1  0.500000  0.000000  0.000000  1
  Pt  Pt14  1  0.000000  0.500000  0.000000  1
  Rh  Rh15  1  0.500000  0.500000  0.500000  1
  Rh  Rh16  1  0.500000  0.000000  0.198530  1
  Rh  Rh17  1  0.500000  0.000000  0.398996  1
  Rh  Rh18  1  0.500000  0.000000  0.601004  1
  Rh  Rh19  1  0.500000  0.000000  0.801470  1
  Rh  Rh20  1  0.000000  0.500000  0.198530  1
  Rh  Rh21  1  0.000000  0.500000  0.398996  1
  Rh  Rh22  1  0.000000  0.500000  0.601004  1
  Rh  Rh23  1  0.000000  0.500000  0.801470  1
