# generated using pymatgen
data_Tb8YMg(SiB4)4
_symmetry_space_group_name_H-M   'P 1'
_cell_length_a   7.21203100
_cell_length_b   7.21203100
_cell_length_c   8.05714700
_cell_angle_alpha   90.00000000
_cell_angle_beta   90.00000000
_cell_angle_gamma   90.00000000
_symmetry_Int_Tables_number   1
_chemical_formula_structural   Tb8YMg(SiB4)4
_chemical_formula_sum   'Tb8 Y1 Mg1 Si4 B16'
_cell_volume   419.07953842
_cell_formula_units_Z   1
loop_
 _symmetry_equiv_pos_site_id
 _symmetry_equiv_pos_as_xyz
  1  'x, y, z'
loop_
 _atom_site_type_symbol
 _atom_site_label
 _atom_site_symmetry_multiplicity
 _atom_site_fract_x
 _atom_site_fract_y
 _atom_site_fract_z
 _atom_site_occupancy
  Tb  Tb0  1  0.682202  0.179911  0.228664  1
  Tb  Tb1  1  0.317798  0.820089  0.771336  1
  Tb  Tb2  1  0.317798  0.820089  0.228664  1
  Tb  Tb3  1  0.820089  0.682202  0.228664  1
  Tb  Tb4  1  0.820089  0.682202  0.771336  1
  Tb  Tb5  1  0.682202  0.179911  0.771336  1
  Tb  Tb6  1  0.179911  0.317798  0.771336  1
  Tb  Tb7  1  0.179911  0.317798  0.228664  1
  Y  Y8  1  0.500000  0.500000  0.500000  1
  Mg  Mg9  1  0.000000  0.000000  0.500000  1
  Si  Si10  1  0.114683  0.615941  0.500000  1
  Si  Si11  1  0.885317  0.384059  0.500000  1
  Si  Si12  1  0.384059  0.114683  0.500000  1
  Si  Si13  1  0.615941  0.885317  0.500000  1
  B  B14  1  0.174106  0.038457  0.000000  1
  B  B15  1  0.825894  0.961543  0.000000  1
  B  B16  1  0.961543  0.174106  0.000000  1
  B  B17  1  0.327361  0.539525  0.000000  1
  B  B18  1  0.038457  0.825894  0.000000  1
  B  B19  1  0.672639  0.460475  0.000000  1
  B  B20  1  0.539525  0.672639  0.000000  1
  B  B21  1  0.460475  0.327361  0.000000  1
  B  B22  1  0.089480  0.588555  0.000000  1
  B  B23  1  0.910520  0.411445  0.000000  1
  B  B24  1  0.411445  0.089480  0.000000  1
  B  B25  1  0.588555  0.910520  0.000000  1
  B  B26  1  0.000000  0.000000  0.157360  1
  B  B27  1  0.000000  0.000000  0.842640  1
  B  B28  1  0.500000  0.500000  0.838480  1
  B  B29  1  0.500000  0.500000  0.161520  1
