# generated using pymatgen
data_Cr(S8F)3
_symmetry_space_group_name_H-M   'P 1'
_cell_length_a   14.87616472
_cell_length_b   14.87616625
_cell_length_c   14.87616383
_cell_angle_alpha   118.65162805
_cell_angle_beta   118.65162772
_cell_angle_gamma   118.65162974
_symmetry_Int_Tables_number   1
_chemical_formula_structural   Cr(S8F)3
_chemical_formula_sum   'Cr1 S24 F3'
_cell_volume   986.63584433
_cell_formula_units_Z   1
loop_
 _symmetry_equiv_pos_site_id
 _symmetry_equiv_pos_as_xyz
  1  'x, y, z'
loop_
 _atom_site_type_symbol
 _atom_site_label
 _atom_site_symmetry_multiplicity
 _atom_site_fract_x
 _atom_site_fract_y
 _atom_site_fract_z
 _atom_site_occupancy
  Cr  Cr0  1  0.913703  0.913703  0.913703  1
  S  S1  1  0.802551  0.523678  0.523678  1
  S  S2  1  0.523678  0.523678  0.802551  1
  S  S3  1  0.523678  0.802551  0.523678  1
  S  S4  1  0.248770  0.380367  0.636390  1
  S  S5  1  0.345369  0.947440  0.345369  1
  S  S6  1  0.345369  0.345369  0.947440  1
  S  S7  1  0.947440  0.345369  0.345369  1
  S  S8  1  0.124054  0.738181  0.255063  1
  S  S9  1  0.255063  0.124054  0.738181  1
  S  S10  1  0.738181  0.255063  0.124054  1
  S  S11  1  0.738181  0.124054  0.255063  1
  S  S12  1  0.255063  0.738181  0.124054  1
  S  S13  1  0.124054  0.255063  0.738181  1
  S  S14  1  0.347268  0.879863  0.531693  1
  S  S15  1  0.531693  0.347268  0.879863  1
  S  S16  1  0.879863  0.531693  0.347268  1
  S  S17  1  0.879863  0.347268  0.531693  1
  S  S18  1  0.531693  0.879863  0.347268  1
  S  S19  1  0.347268  0.531693  0.879863  1
  S  S20  1  0.248770  0.636390  0.380367  1
  S  S21  1  0.380367  0.248770  0.636390  1
  S  S22  1  0.636390  0.380367  0.248770  1
  S  S23  1  0.636390  0.248770  0.380367  1
  S  S24  1  0.380367  0.636390  0.248770  1
  F  F25  1  0.867177  0.986515  0.986515  1
  F  F26  1  0.986515  0.986515  0.867177  1
  F  F27  1  0.986515  0.867177  0.986515  1
