# generated using pymatgen
data_BaPF7
_symmetry_space_group_name_H-M   'P 1'
_cell_length_a   4.81414504
_cell_length_b   7.47248644
_cell_length_c   7.70211816
_cell_angle_alpha   106.06171697
_cell_angle_beta   100.35316519
_cell_angle_gamma   90.79439861
_symmetry_Int_Tables_number   1
_chemical_formula_structural   BaPF7
_chemical_formula_sum   'Ba2 P2 F14'
_cell_volume   261.32918276
_cell_formula_units_Z   2
loop_
 _symmetry_equiv_pos_site_id
 _symmetry_equiv_pos_as_xyz
  1  'x, y, z'
loop_
 _atom_site_type_symbol
 _atom_site_label
 _atom_site_symmetry_multiplicity
 _atom_site_fract_x
 _atom_site_fract_y
 _atom_site_fract_z
 _atom_site_occupancy
  Ba  Ba0  1  0.183254  0.331454  0.785624  1
  Ba  Ba1  1  0.816746  0.668546  0.214376  1
  P  P2  1  0.645325  0.810768  0.703908  1
  P  P3  1  0.354675  0.189232  0.296092  1
  F  F4  1  0.157246  0.178924  0.097962  1
  F  F5  1  0.450558  0.796586  0.500430  1
  F  F6  1  0.549442  0.203414  0.499570  1
  F  F7  1  0.500761  0.001061  0.794706  1
  F  F8  1  0.499239  0.998939  0.205294  1
  F  F9  1  0.400370  0.684570  0.745129  1
  F  F10  1  0.842754  0.821076  0.902038  1
  F  F11  1  0.278337  0.591710  0.094225  1
  F  F12  1  0.109155  0.063632  0.343418  1
  F  F13  1  0.205899  0.379113  0.393801  1
  F  F14  1  0.721663  0.408290  0.905775  1
  F  F15  1  0.794101  0.620887  0.606199  1
  F  F16  1  0.599630  0.315430  0.254871  1
  F  F17  1  0.890845  0.936368  0.656582  1
