# generated using pymatgen
data_AcLaEr2(ZnSn)4
_symmetry_space_group_name_H-M   'P 1'
_cell_length_a   4.56887900
_cell_length_b   4.56887801
_cell_length_c   16.74404800
_cell_angle_alpha   90.00000000
_cell_angle_beta   90.00000000
_cell_angle_gamma   119.99998547
_symmetry_Int_Tables_number   1
_chemical_formula_structural   AcLaEr2(ZnSn)4
_chemical_formula_sum   'Ac1 La1 Er2 Zn4 Sn4'
_cell_volume   302.69857351
_cell_formula_units_Z   1
loop_
 _symmetry_equiv_pos_site_id
 _symmetry_equiv_pos_as_xyz
  1  'x, y, z'
loop_
 _atom_site_type_symbol
 _atom_site_label
 _atom_site_symmetry_multiplicity
 _atom_site_fract_x
 _atom_site_fract_y
 _atom_site_fract_z
 _atom_site_occupancy
  Ac  Ac0  1  0.000000  0.000000  0.000000  1
  La  La1  1  0.000000  0.000000  0.500000  1
  Er  Er2  1  0.000000  0.000000  0.256365  1
  Er  Er3  1  0.000000  0.000000  0.743635  1
  Zn  Zn4  1  0.333333  0.666667  0.175523  1
  Zn  Zn5  1  0.666667  0.333333  0.824477  1
  Zn  Zn6  1  0.666667  0.333333  0.659644  1
  Zn  Zn7  1  0.333333  0.666667  0.340356  1
  Sn  Sn8  1  0.333333  0.666667  0.616731  1
  Sn  Sn9  1  0.666667  0.333333  0.383269  1
  Sn  Sn10  1  0.666667  0.333333  0.129429  1
  Sn  Sn11  1  0.333333  0.666667  0.870571  1
