# generated using pymatgen
data_Pr6Al24Ru2PtRh5
_symmetry_space_group_name_H-M   'P 1'
_cell_length_a   8.94968483
_cell_length_b   8.94323501
_cell_length_c   9.66691408
_cell_angle_alpha   89.99999877
_cell_angle_beta   90.01297992
_cell_angle_gamma   119.97616786
_symmetry_Int_Tables_number   1
_chemical_formula_structural   Pr6Al24Ru2PtRh5
_chemical_formula_sum   'Pr6 Al24 Ru2 Pt1 Rh5'
_cell_volume   670.23191697
_cell_formula_units_Z   1
loop_
 _symmetry_equiv_pos_site_id
 _symmetry_equiv_pos_as_xyz
  1  'x, y, z'
loop_
 _atom_site_type_symbol
 _atom_site_label
 _atom_site_symmetry_multiplicity
 _atom_site_fract_x
 _atom_site_fract_y
 _atom_site_fract_z
 _atom_site_occupancy
  Pr  Pr0  1  0.190613  0.380624  0.249664  1
  Pr  Pr1  1  0.809387  0.619376  0.750336  1
  Pr  Pr2  1  0.619798  0.809898  0.250610  1
  Pr  Pr3  1  0.380202  0.190102  0.749390  1
  Pr  Pr4  1  0.190613  0.809987  0.249664  1
  Pr  Pr5  1  0.809387  0.190013  0.750336  1
  Al  Al6  1  0.336933  0.668467  0.021436  1
  Al  Al7  1  0.663067  0.331533  0.978564  1
  Al  Al8  1  0.666333  0.333166  0.520635  1
  Al  Al9  1  0.333667  0.666834  0.479365  1
  Al  Al10  1  0.163647  0.326587  0.574814  1
  Al  Al11  1  0.836353  0.673413  0.425186  1
  Al  Al12  1  0.672793  0.836396  0.574400  1
  Al  Al13  1  0.833844  0.674113  0.075676  1
  Al  Al14  1  0.327207  0.163604  0.425600  1
  Al  Al15  1  0.166156  0.325887  0.924324  1
  Al  Al16  1  0.163647  0.837059  0.574814  1
  Al  Al17  1  0.326636  0.163319  0.075296  1
  Al  Al18  1  0.836353  0.162941  0.425186  1
  Al  Al19  1  0.673364  0.836681  0.924704  1
  Al  Al20  1  0.833844  0.159732  0.075676  1
  Al  Al21  1  0.166156  0.840268  0.924324  1
  Al  Al22  1  0.563181  0.125873  0.249749  1
  Al  Al23  1  0.436819  0.874127  0.750251  1
  Al  Al24  1  0.872440  0.436220  0.252770  1
  Al  Al25  1  0.127560  0.563780  0.747230  1
  Al  Al26  1  0.563181  0.437308  0.249749  1
  Al  Al27  1  0.436819  0.562692  0.750251  1
  Al  Al28  1  0.000186  0.000093  0.250170  1
  Al  Al29  1  0.999814  0.999907  0.749830  1
  Ru  Ru30  1  0.000000  0.000000  0.000000  1
  Ru  Ru31  1  0.000000  0.000000  0.500000  1
  Pt  Pt32  1  0.000000  0.500000  0.000000  1
  Rh  Rh33  1  0.500000  0.000000  0.000000  1
  Rh  Rh34  1  0.500000  0.000000  0.500000  1
  Rh  Rh35  1  0.500000  0.500000  0.000000  1
  Rh  Rh36  1  0.000000  0.500000  0.500000  1
  Rh  Rh37  1  0.500000  0.500000  0.500000  1
