# generated using pymatgen
data_TbTm9(SiBi)4
_symmetry_space_group_name_H-M   'P 1'
_cell_length_a   8.58641758
_cell_length_b   8.55119509
_cell_length_c   7.83248203
_cell_angle_alpha   90.16110930
_cell_angle_beta   90.05636775
_cell_angle_gamma   125.73576161
_symmetry_Int_Tables_number   1
_chemical_formula_structural   TbTm9(SiBi)4
_chemical_formula_sum   'Tb1 Tm9 Si4 Bi4'
_cell_volume   466.80986790
_cell_formula_units_Z   1
loop_
 _symmetry_equiv_pos_site_id
 _symmetry_equiv_pos_as_xyz
  1  'x, y, z'
loop_
 _atom_site_type_symbol
 _atom_site_label
 _atom_site_symmetry_multiplicity
 _atom_site_fract_x
 _atom_site_fract_y
 _atom_site_fract_z
 _atom_site_occupancy
  Tb  Tb0  1  0.544376  0.791370  0.166976  1
  Tm  Tm1  1  0.284287  0.042700  0.335741  1
  Tm  Tm2  1  0.216006  0.456557  0.835492  1
  Tm  Tm3  1  0.954940  0.712687  0.664889  1
  Tm  Tm4  1  0.715288  0.955836  0.664643  1
  Tm  Tm5  1  0.455191  0.212708  0.834778  1
  Tm  Tm6  1  0.784757  0.543643  0.164445  1
  Tm  Tm7  1  0.044535  0.285594  0.335190  1
  Tm  Tm8  1  0.499846  0.499124  0.500430  1
  Tm  Tm9  1  0.000614  0.000742  0.999571  1
  Si  Si10  1  0.634243  0.633475  0.866276  1
  Si  Si11  1  0.133704  0.133230  0.632179  1
  Si  Si12  1  0.867949  0.866232  0.368766  1
  Si  Si13  1  0.365604  0.364828  0.132955  1
  Bi  Bi14  1  0.290594  0.707112  0.503610  1
  Bi  Bi15  1  0.205143  0.791633  0.999733  1
  Bi  Bi16  1  0.706618  0.289838  0.498007  1
  Bi  Bi17  1  0.796304  0.212689  0.996316  1
