# generated using pymatgen
data_Nd5Mg2Ir3
_symmetry_space_group_name_H-M   'P 1'
_cell_length_a   8.75019609
_cell_length_b   8.75019464
_cell_length_c   8.75019600
_cell_angle_alpha   109.47122378
_cell_angle_beta   109.47122043
_cell_angle_gamma   109.47121765
_symmetry_Int_Tables_number   1
_chemical_formula_structural   Nd5Mg2Ir3
_chemical_formula_sum   'Nd10 Mg4 Ir6'
_cell_volume   515.74068143
_cell_formula_units_Z   2
loop_
 _symmetry_equiv_pos_site_id
 _symmetry_equiv_pos_as_xyz
  1  'x, y, z'
loop_
 _atom_site_type_symbol
 _atom_site_label
 _atom_site_symmetry_multiplicity
 _atom_site_fract_x
 _atom_site_fract_y
 _atom_site_fract_z
 _atom_site_occupancy
  Nd  Nd0  1  0.250000  0.672017  0.422018  1
  Nd  Nd1  1  0.750000  0.827983  0.077983  1
  Nd  Nd2  1  0.422018  0.250000  0.672017  1
  Nd  Nd3  1  0.672017  0.422018  0.250000  1
  Nd  Nd4  1  0.077983  0.750000  0.827983  1
  Nd  Nd5  1  0.827983  0.077983  0.750000  1
  Nd  Nd6  1  0.208163  0.208163  0.208163  1
  Nd  Nd7  1  0.500001  0.000000  0.291837  1
  Nd  Nd8  1  0.291837  0.500001  0.000000  1
  Nd  Nd9  1  0.000000  0.291837  0.500001  1
  Mg  Mg10  1  0.500001  0.000000  0.898688  1
  Mg  Mg11  1  0.601312  0.601312  0.601312  1
  Mg  Mg12  1  0.898688  0.500001  0.000000  1
  Mg  Mg13  1  0.000000  0.898688  0.500001  1
  Ir  Ir14  1  0.250001  0.131483  0.881483  1
  Ir  Ir15  1  0.750000  0.368516  0.618516  1
  Ir  Ir16  1  0.881483  0.250001  0.131483  1
  Ir  Ir17  1  0.131483  0.881483  0.250001  1
  Ir  Ir18  1  0.618516  0.750000  0.368516  1
  Ir  Ir19  1  0.368516  0.618516  0.750000  1
