# generated using pymatgen
data_PmMnO4
_symmetry_space_group_name_H-M   'P 1'
_cell_length_a   6.11660921
_cell_length_b   6.11660864
_cell_length_c   6.11660870
_cell_angle_alpha   105.81701255
_cell_angle_beta   117.05646788
_cell_angle_gamma   105.81700215
_symmetry_Int_Tables_number   1
_chemical_formula_structural   PmMnO4
_chemical_formula_sum   'Pm2 Mn2 O8'
_cell_volume   173.81669218
_cell_formula_units_Z   2
loop_
 _symmetry_equiv_pos_site_id
 _symmetry_equiv_pos_as_xyz
  1  'x, y, z'
loop_
 _atom_site_type_symbol
 _atom_site_label
 _atom_site_symmetry_multiplicity
 _atom_site_fract_x
 _atom_site_fract_y
 _atom_site_fract_z
 _atom_site_occupancy
  Pm  Pm0  1  0.875000  0.250001  0.125000  1
  Pm  Pm1  1  0.125000  0.750000  0.875000  1
  Mn  Mn2  1  0.625000  0.750000  0.374999  1
  Mn  Mn3  1  0.375000  0.250000  0.624999  1
  O  O4  1  0.273390  0.572187  0.201202  1
  O  O5  1  0.629015  0.927812  0.201202  1
  O  O6  1  0.201202  0.072187  0.273390  1
  O  O7  1  0.798799  0.572188  0.370986  1
  O  O8  1  0.201202  0.427812  0.629014  1
  O  O9  1  0.798799  0.927812  0.726610  1
  O  O10  1  0.370986  0.072187  0.798798  1
  O  O11  1  0.726610  0.427812  0.798798  1
