# generated using pymatgen
data_Sc12Mn2AlI16
_symmetry_space_group_name_H-M   'P 1'
_cell_length_a   9.06371198
_cell_length_b   11.99292026
_cell_length_c   12.68924083
_cell_angle_alpha   117.12755656
_cell_angle_beta   101.04345940
_cell_angle_gamma   100.52236108
_symmetry_Int_Tables_number   1
_chemical_formula_structural   Sc12Mn2AlI16
_chemical_formula_sum   'Sc12 Mn2 Al1 I16'
_cell_volume   1145.87394662
_cell_formula_units_Z   1
loop_
 _symmetry_equiv_pos_site_id
 _symmetry_equiv_pos_as_xyz
  1  'x, y, z'
loop_
 _atom_site_type_symbol
 _atom_site_label
 _atom_site_symmetry_multiplicity
 _atom_site_fract_x
 _atom_site_fract_y
 _atom_site_fract_z
 _atom_site_occupancy
  Sc  Sc0  1  0.102761  0.265318  0.355884  1
  Sc  Sc1  1  0.897239  0.734682  0.644116  1
  Sc  Sc2  1  0.764523  0.536897  0.326820  1
  Sc  Sc3  1  0.235477  0.463103  0.673180  1
  Sc  Sc4  1  0.293326  0.735017  0.643391  1
  Sc  Sc5  1  0.706674  0.264983  0.356609  1
  Sc  Sc6  1  0.160668  0.536959  0.326139  1
  Sc  Sc7  1  0.839332  0.463041  0.673861  1
  Sc  Sc8  1  0.413675  0.370914  0.292984  1
  Sc  Sc9  1  0.586325  0.629086  0.707016  1
  Sc  Sc10  1  0.462057  0.323010  0.519408  1
  Sc  Sc11  1  0.537943  0.676990  0.480592  1
  Mn  Mn12  1  0.326404  0.500126  0.499711  1
  Mn  Mn13  1  0.673597  0.499874  0.500289  1
  Al  Al14  1  0.000000  0.500000  0.500000  1
  I  I15  1  0.393108  0.738552  0.882180  1
  I  I16  1  0.606892  0.261448  0.117820  1
  I  I17  1  0.186196  0.960669  0.779851  1
  I  I18  1  0.813804  0.039331  0.220149  1
  I  I19  1  0.336462  0.096440  0.252273  1
  I  I20  1  0.663538  0.903560  0.747727  1
  I  I21  1  0.563372  0.437079  0.798526  1
  I  I22  1  0.436628  0.562921  0.201474  1
  I  I23  1  0.306767  0.827880  0.463214  1
  I  I24  1  0.693233  0.172120  0.536786  1
  I  I25  1  0.166412  0.172539  0.535536  1
  I  I26  1  0.833588  0.827461  0.464464  1
  I  I27  1  0.927049  0.576169  0.162899  1
  I  I28  1  0.072951  0.423831  0.837101  1
  I  I29  1  0.925665  0.738192  0.882847  1
  I  I30  1  0.074335  0.261808  0.117153  1
