# generated using pymatgen
data_Nd4Tm5LuSi8
_symmetry_space_group_name_H-M   'P 1'
_cell_length_a   7.70803110
_cell_length_b   7.70806900
_cell_length_c   14.17346819
_cell_angle_alpha   90.00000000
_cell_angle_beta   89.98131764
_cell_angle_gamma   90.00000000
_symmetry_Int_Tables_number   1
_chemical_formula_structural   Nd4Tm5LuSi8
_chemical_formula_sum   'Nd8 Tm10 Lu2 Si16'
_cell_volume   842.10289864
_cell_formula_units_Z   2
loop_
 _symmetry_equiv_pos_site_id
 _symmetry_equiv_pos_as_xyz
  1  'x, y, z'
loop_
 _atom_site_type_symbol
 _atom_site_label
 _atom_site_symmetry_multiplicity
 _atom_site_fract_x
 _atom_site_fract_y
 _atom_site_fract_z
 _atom_site_occupancy
  Nd  Nd0  1  0.642292  0.992681  0.459126  1
  Nd  Nd1  1  0.357710  0.007240  0.959048  1
  Nd  Nd2  1  0.992775  0.642302  0.540949  1
  Nd  Nd3  1  0.492655  0.857706  0.209125  1
  Nd  Nd4  1  0.507225  0.142302  0.709051  1
  Nd  Nd5  1  0.857708  0.492681  0.790874  1
  Nd  Nd6  1  0.142290  0.507240  0.290952  1
  Nd  Nd7  1  0.007345  0.357706  0.040875  1
  Tm  Tm8  1  0.493302  0.359823  0.124208  1
  Tm  Tm9  1  0.993468  0.140126  0.625803  1
  Tm  Tm10  1  0.859855  0.006589  0.874150  1
  Tm  Tm11  1  0.140169  0.993363  0.374247  1
  Tm  Tm12  1  0.506532  0.640126  0.624197  1
  Tm  Tm13  1  0.359831  0.493363  0.875753  1
  Tm  Tm14  1  0.640145  0.506589  0.375850  1
  Tm  Tm15  1  0.006698  0.859823  0.125792  1
  Tm  Tm16  1  0.818331  0.181774  0.250012  1
  Tm  Tm17  1  0.681669  0.681774  0.999988  1
  Lu  Lu18  1  0.318199  0.318324  0.500044  1
  Lu  Lu19  1  0.181801  0.818324  0.749956  1
  Si  Si20  1  0.289029  0.937882  0.562020  1
  Si  Si21  1  0.710882  0.062237  0.061747  1
  Si  Si22  1  0.937974  0.289165  0.438247  1
  Si  Si23  1  0.437666  0.211011  0.312012  1
  Si  Si24  1  0.562026  0.789165  0.811753  1
  Si  Si25  1  0.210971  0.437882  0.687980  1
  Si  Si26  1  0.789118  0.562237  0.188253  1
  Si  Si27  1  0.062334  0.711011  0.937988  1
  Si  Si28  1  0.795809  0.849112  0.687581  1
  Si  Si29  1  0.204300  0.150911  0.187610  1
  Si  Si30  1  0.849148  0.795633  0.312441  1
  Si  Si31  1  0.349061  0.704122  0.437632  1
  Si  Si32  1  0.650852  0.295633  0.937559  1
  Si  Si33  1  0.704191  0.349112  0.562419  1
  Si  Si34  1  0.295700  0.650911  0.062390  1
  Si  Si35  1  0.150939  0.204122  0.812368  1
