# generated using pymatgen
data_Y2Co5Si14Ir
_symmetry_space_group_name_H-M   'P 1'
_cell_length_a   7.71608331
_cell_length_b   7.71191909
_cell_length_c   7.71191892
_cell_angle_alpha   57.45333747
_cell_angle_beta   57.29286442
_cell_angle_gamma   57.29286338
_symmetry_Int_Tables_number   1
_chemical_formula_structural   Y2Co5Si14Ir
_chemical_formula_sum   'Y2 Co5 Si14 Ir1'
_cell_volume   304.67209631
_cell_formula_units_Z   1
loop_
 _symmetry_equiv_pos_site_id
 _symmetry_equiv_pos_as_xyz
  1  'x, y, z'
loop_
 _atom_site_type_symbol
 _atom_site_label
 _atom_site_symmetry_multiplicity
 _atom_site_fract_x
 _atom_site_fract_y
 _atom_site_fract_z
 _atom_site_occupancy
  Y  Y0  1  0.000673  0.998799  0.001323  1
  Y  Y1  1  0.499327  0.498677  0.501201  1
  Co  Co2  1  0.069560  0.429293  0.751590  1
  Co  Co3  1  0.250000  0.930438  0.569562  1
  Co  Co4  1  0.569311  0.250861  0.928734  1
  Co  Co5  1  0.930689  0.571266  0.249139  1
  Co  Co6  1  0.430440  0.748410  0.070707  1
  Si  Si7  1  0.750000  0.738817  0.761183  1
  Si  Si8  1  0.250000  0.250576  0.249424  1
  Si  Si9  1  0.856619  0.074538  0.671008  1
  Si  Si10  1  0.667696  0.850265  0.069797  1
  Si  Si11  1  0.073566  0.667654  0.849283  1
  Si  Si12  1  0.643381  0.828992  0.425462  1
  Si  Si13  1  0.426434  0.650717  0.832346  1
  Si  Si14  1  0.832304  0.430203  0.649735  1
  Si  Si15  1  0.165580  0.571118  0.351513  1
  Si  Si16  1  0.565499  0.358711  0.157920  1
  Si  Si17  1  0.339996  0.167345  0.576928  1
  Si  Si18  1  0.934501  0.342080  0.141289  1
  Si  Si19  1  0.334420  0.148487  0.928882  1
  Si  Si20  1  0.160004  0.923072  0.332655  1
  Ir  Ir21  1  0.750000  0.069680  0.430320  1
