# generated using pymatgen
data_Er3Tm5Cd2NiIr
_symmetry_space_group_name_H-M   'P 1'
_cell_length_a   9.49493108
_cell_length_b   9.49345823
_cell_length_c   9.54446264
_cell_angle_alpha   59.67222271
_cell_angle_beta   59.67892478
_cell_angle_gamma   59.44703398
_symmetry_Int_Tables_number   1
_chemical_formula_structural   Er3Tm5Cd2NiIr
_chemical_formula_sum   'Er6 Tm10 Cd4 Ni2 Ir2'
_cell_volume   602.80323053
_cell_formula_units_Z   2
loop_
 _symmetry_equiv_pos_site_id
 _symmetry_equiv_pos_as_xyz
  1  'x, y, z'
loop_
 _atom_site_type_symbol
 _atom_site_label
 _atom_site_symmetry_multiplicity
 _atom_site_fract_x
 _atom_site_fract_y
 _atom_site_fract_z
 _atom_site_occupancy
  Er  Er0  1  0.937362  0.561855  0.566197  1
  Er  Er1  1  0.560712  0.938079  0.936626  1
  Er  Er2  1  0.561824  0.937378  0.566136  1
  Er  Er3  1  0.938112  0.560755  0.936542  1
  Er  Er4  1  0.565825  0.566103  0.935385  1
  Er  Er5  1  0.940525  0.940639  0.560135  1
  Tm  Tm6  1  0.349024  0.348857  0.343531  1
  Tm  Tm7  1  0.351806  0.351474  0.954070  1
  Tm  Tm8  1  0.354367  0.952050  0.348541  1
  Tm  Tm9  1  0.952020  0.354450  0.348495  1
  Tm  Tm10  1  0.807657  0.187659  0.189928  1
  Tm  Tm11  1  0.185850  0.810324  0.813289  1
  Tm  Tm12  1  0.187569  0.807769  0.189929  1
  Tm  Tm13  1  0.810190  0.185906  0.813392  1
  Tm  Tm14  1  0.188769  0.188865  0.809779  1
  Tm  Tm15  1  0.811818  0.811569  0.186862  1
  Cd  Cd16  1  0.578971  0.579009  0.582425  1
  Cd  Cd17  1  0.579583  0.579653  0.256661  1
  Cd  Cd18  1  0.579760  0.255837  0.581406  1
  Cd  Cd19  1  0.255772  0.579857  0.581378  1
  Ni  Ni20  1  0.141541  0.575353  0.141528  1
  Ni  Ni21  1  0.575631  0.140918  0.141909  1
  Ir  Ir22  1  0.143360  0.143498  0.142223  1
  Ir  Ir23  1  0.141953  0.142146  0.573628  1
