# generated using pymatgen
data_Ti12FeCo5Re6
_symmetry_space_group_name_H-M   'P 1'
_cell_length_a   4.31097500
_cell_length_b   6.10432200
_cell_length_c   12.96570100
_cell_angle_alpha   89.99862988
_cell_angle_beta   89.99936730
_cell_angle_gamma   90.00395139
_symmetry_Int_Tables_number   1
_chemical_formula_structural   Ti12FeCo5Re6
_chemical_formula_sum   'Ti12 Fe1 Co5 Re6'
_cell_volume   341.19993541
_cell_formula_units_Z   1
loop_
 _symmetry_equiv_pos_site_id
 _symmetry_equiv_pos_as_xyz
  1  'x, y, z'
loop_
 _atom_site_type_symbol
 _atom_site_label
 _atom_site_symmetry_multiplicity
 _atom_site_fract_x
 _atom_site_fract_y
 _atom_site_fract_z
 _atom_site_occupancy
  Ti  Ti0  1  0.500000  0.246681  0.999998  1
  Ti  Ti1  1  0.499998  0.753319  0.000002  1
  Ti  Ti2  1  0.999908  0.249686  0.165092  1
  Ti  Ti3  1  0.999914  0.750321  0.165091  1
  Ti  Ti4  1  0.499902  0.249513  0.333134  1
  Ti  Ti5  1  0.499898  0.750493  0.333128  1
  Ti  Ti6  1  0.000000  0.250832  0.500002  1
  Ti  Ti7  1  0.000000  0.749168  0.499998  1
  Ti  Ti8  1  0.500103  0.249508  0.666872  1
  Ti  Ti9  1  0.500099  0.750488  0.666866  1
  Ti  Ti10  1  0.000086  0.249678  0.834909  1
  Ti  Ti11  1  0.000092  0.750313  0.834908  1
  Fe  Fe12  1  0.000000  0.000000  0.000000  1
  Co  Co13  1  0.499899  0.500006  0.167031  1
  Co  Co14  1  0.999896  0.999997  0.333683  1
  Co  Co15  1  0.499999  0.500000  0.500000  1
  Co  Co16  1  0.000105  0.000003  0.666317  1
  Co  Co17  1  0.500102  0.499994  0.832969  1
  Re  Re18  1  0.000000  0.500000  0.000000  1
  Re  Re19  1  0.499863  0.000027  0.167536  1
  Re  Re20  1  0.999877  0.499997  0.333328  1
  Re  Re21  1  0.499999  0.000000  0.500000  1
  Re  Re22  1  0.000123  0.500003  0.666672  1
  Re  Re23  1  0.500139  0.999973  0.832464  1
