# generated using pymatgen
data_MnBr12
_symmetry_space_group_name_H-M   'P 1'
_cell_length_a   8.34477939
_cell_length_b   9.96355532
_cell_length_c   15.81513249
_cell_angle_alpha   69.10245367
_cell_angle_beta   98.75825307
_cell_angle_gamma   86.65640842
_symmetry_Int_Tables_number   1
_chemical_formula_structural   MnBr12
_chemical_formula_sum   'Mn2 Br24'
_cell_volume   1205.04009799
_cell_formula_units_Z   2
loop_
 _symmetry_equiv_pos_site_id
 _symmetry_equiv_pos_as_xyz
  1  'x, y, z'
loop_
 _atom_site_type_symbol
 _atom_site_label
 _atom_site_symmetry_multiplicity
 _atom_site_fract_x
 _atom_site_fract_y
 _atom_site_fract_z
 _atom_site_occupancy
  Mn  Mn0  1  0.781296  0.705068  0.764272  1
  Mn  Mn1  1  0.218704  0.294932  0.235728  1
  Br  Br2  1  0.837335  0.895935  0.625041  1
  Br  Br3  1  0.162665  0.104065  0.374959  1
  Br  Br4  1  0.937537  0.831358  0.853693  1
  Br  Br5  1  0.062463  0.168642  0.146307  1
  Br  Br6  1  0.006182  0.497299  0.787340  1
  Br  Br7  1  0.993818  0.502701  0.212660  1
  Br  Br8  1  0.412407  0.051322  0.702891  1
  Br  Br9  1  0.587593  0.948678  0.297109  1
  Br  Br10  1  0.634970  0.614475  0.894366  1
  Br  Br11  1  0.365030  0.385525  0.105634  1
  Br  Br12  1  0.569542  0.629105  0.680043  1
  Br  Br13  1  0.430458  0.370895  0.319957  1
  Br  Br14  1  0.702849  0.910880  0.464026  1
  Br  Br15  1  0.297151  0.089120  0.535974  1
  Br  Br16  1  0.722758  0.472755  0.583489  1
  Br  Br17  1  0.277242  0.527245  0.416511  1
  Br  Br18  1  0.177901  0.940414  0.778057  1
  Br  Br19  1  0.822099  0.059586  0.221943  1
  Br  Br20  1  0.573479  0.063107  0.945696  1
  Br  Br21  1  0.426521  0.936893  0.054304  1
  Br  Br22  1  0.175765  0.651065  0.503631  1
  Br  Br23  1  0.824235  0.348935  0.496369  1
  Br  Br24  1  0.179719  0.437679  0.943990  1
  Br  Br25  1  0.820281  0.562321  0.056010  1
