# generated using pymatgen
data_Ho5TmU4O20
_symmetry_space_group_name_H-M   'P 1'
_cell_length_a   6.62711855
_cell_length_b   7.46799143
_cell_length_c   8.37151448
_cell_angle_alpha   100.74317432
_cell_angle_beta   97.66357737
_cell_angle_gamma   107.29440891
_symmetry_Int_Tables_number   1
_chemical_formula_structural   Ho5TmU4O20
_chemical_formula_sum   'Ho5 Tm1 U4 O20'
_cell_volume   380.70108062
_cell_formula_units_Z   1
loop_
 _symmetry_equiv_pos_site_id
 _symmetry_equiv_pos_as_xyz
  1  'x, y, z'
loop_
 _atom_site_type_symbol
 _atom_site_label
 _atom_site_symmetry_multiplicity
 _atom_site_fract_x
 _atom_site_fract_y
 _atom_site_fract_z
 _atom_site_occupancy
  Ho  Ho0  1  0.615337  0.703649  0.699023  1
  Ho  Ho1  1  0.384663  0.296351  0.300977  1
  Ho  Ho2  1  0.196873  0.896203  0.890848  1
  Ho  Ho3  1  0.803127  0.103797  0.109152  1
  Ho  Ho4  1  0.000000  0.000000  0.500000  1
  Tm  Tm5  1  0.000000  0.500000  0.500000  1
  U  U6  1  0.401308  0.804067  0.302082  1
  U  U7  1  0.199017  0.399542  0.898368  1
  U  U8  1  0.800983  0.600458  0.101632  1
  U  U9  1  0.598692  0.195933  0.697918  1
  O  O10  1  0.440651  0.531536  0.138566  1
  O  O11  1  0.555147  0.986236  0.841723  1
  O  O12  1  0.266241  0.142303  0.744659  1
  O  O13  1  0.358605  0.593043  0.443735  1
  O  O14  1  0.053338  0.727767  0.335540  1
  O  O15  1  0.444853  0.013764  0.158277  1
  O  O16  1  0.150092  0.182630  0.032966  1
  O  O17  1  0.559349  0.468464  0.861434  1
  O  O18  1  0.854002  0.335382  0.950083  1
  O  O19  1  0.256443  0.607394  0.757319  1
  O  O20  1  0.953485  0.770052  0.651230  1
  O  O21  1  0.352511  0.063276  0.452991  1
  O  O22  1  0.647489  0.936724  0.547009  1
  O  O23  1  0.046515  0.229948  0.348770  1
  O  O24  1  0.743557  0.392606  0.242681  1
  O  O25  1  0.145998  0.664618  0.049917  1
  O  O26  1  0.849908  0.817370  0.967034  1
  O  O27  1  0.946662  0.272233  0.664460  1
  O  O28  1  0.641395  0.406957  0.556265  1
  O  O29  1  0.733759  0.857697  0.255341  1
