# generated using pymatgen
data_CsPr4Nd2(CBr6)2
_symmetry_space_group_name_H-M   'P 1'
_cell_length_a   9.26845638
_cell_length_b   9.24975482
_cell_length_c   9.78626717
_cell_angle_alpha   71.77328799
_cell_angle_beta   70.58607899
_cell_angle_gamma   72.45986963
_symmetry_Int_Tables_number   1
_chemical_formula_structural   CsPr4Nd2(CBr6)2
_chemical_formula_sum   'Cs1 Pr4 Nd2 C2 Br12'
_cell_volume   733.10518091
_cell_formula_units_Z   1
loop_
 _symmetry_equiv_pos_site_id
 _symmetry_equiv_pos_as_xyz
  1  'x, y, z'
loop_
 _atom_site_type_symbol
 _atom_site_label
 _atom_site_symmetry_multiplicity
 _atom_site_fract_x
 _atom_site_fract_y
 _atom_site_fract_z
 _atom_site_occupancy
  Cs  Cs0  1  0.000179  0.499758  0.999992  1
  Pr  Pr1  1  0.596229  0.718780  0.473956  1
  Pr  Pr2  1  0.403862  0.281211  0.526039  1
  Pr  Pr3  1  0.216877  0.967298  0.594095  1
  Pr  Pr4  1  0.524384  0.881858  0.819107  1
  Nd  Nd5  1  0.475833  0.117877  0.182268  1
  Nd  Nd6  1  0.781730  0.032844  0.405535  1
  C  C7  1  0.494821  0.026276  0.425216  1
  C  C8  1  0.507081  0.974149  0.573438  1
  Br  Br9  1  0.797426  0.159846  0.084806  1
  Br  Br10  1  0.586312  0.787006  0.143572  1
  Br  Br11  1  0.350806  0.433104  0.223636  1
  Br  Br12  1  0.137636  0.072901  0.293931  1
  Br  Br13  1  0.925915  0.723950  0.352974  1
  Br  Br14  1  0.716519  0.364492  0.428154  1
  Br  Br15  1  0.284389  0.633358  0.571490  1
  Br  Br16  1  0.073548  0.278612  0.647384  1
  Br  Br17  1  0.862533  0.927992  0.703618  1
  Br  Br18  1  0.649980  0.564917  0.775642  1
  Br  Br19  1  0.413333  0.214629  0.857808  1
  Br  Br20  1  0.200615  0.839137  0.917338  1
