# generated using pymatgen
data_Ca4Yb3Pr13Sn16
_symmetry_space_group_name_H-M   'P 1'
_cell_length_a   8.07945344
_cell_length_b   8.55666559
_cell_length_c   16.17096410
_cell_angle_alpha   90.01969008
_cell_angle_beta   89.97490420
_cell_angle_gamma   89.99453629
_symmetry_Int_Tables_number   1
_chemical_formula_structural   Ca4Yb3Pr13Sn16
_chemical_formula_sum   'Ca4 Yb3 Pr13 Sn16'
_cell_volume   1117.95001316
_cell_formula_units_Z   1
loop_
 _symmetry_equiv_pos_site_id
 _symmetry_equiv_pos_as_xyz
  1  'x, y, z'
loop_
 _atom_site_type_symbol
 _atom_site_label
 _atom_site_symmetry_multiplicity
 _atom_site_fract_x
 _atom_site_fract_y
 _atom_site_fract_z
 _atom_site_occupancy
  Ca  Ca0  1  0.163031  0.498677  0.749896  1
  Ca  Ca1  1  0.662115  0.002360  0.749868  1
  Ca  Ca2  1  0.836645  0.502429  0.251598  1
  Ca  Ca3  1  0.337633  0.994732  0.250929  1
  Yb  Yb4  1  0.330373  0.829241  0.876866  1
  Yb  Yb5  1  0.832207  0.670793  0.622726  1
  Yb  Yb6  1  0.669394  0.169495  0.377282  1
  Pr  Pr7  1  0.166124  0.325763  0.123437  1
  Pr  Pr8  1  0.666505  0.172300  0.124333  1
  Pr  Pr9  1  0.165970  0.326753  0.375879  1
  Pr  Pr10  1  0.335480  0.827262  0.624713  1
  Pr  Pr11  1  0.834871  0.674734  0.874670  1
  Pr  Pr12  1  0.490624  0.315791  0.904392  1
  Pr  Pr13  1  0.991157  0.187357  0.596383  1
  Pr  Pr14  1  0.510530  0.685182  0.404512  1
  Pr  Pr15  1  0.008385  0.814620  0.095524  1
  Pr  Pr16  1  0.508888  0.683459  0.095761  1
  Pr  Pr17  1  0.005690  0.816046  0.404999  1
  Pr  Pr18  1  0.493439  0.315807  0.594978  1
  Pr  Pr19  1  0.990127  0.185605  0.902844  1
  Sn  Sn20  1  0.327753  0.033359  0.038541  1
  Sn  Sn21  1  0.827490  0.465569  0.461167  1
  Sn  Sn22  1  0.673910  0.965733  0.539665  1
  Sn  Sn23  1  0.173726  0.535733  0.960948  1
  Sn  Sn24  1  0.671239  0.963080  0.961740  1
  Sn  Sn25  1  0.173400  0.537750  0.537885  1
  Sn  Sn26  1  0.328636  0.036288  0.462103  1
  Sn  Sn27  1  0.825531  0.463362  0.036794  1
  Sn  Sn28  1  0.533232  0.604156  0.750061  1
  Sn  Sn29  1  0.032656  0.898548  0.749572  1
  Sn  Sn30  1  0.468420  0.397303  0.249781  1
  Sn  Sn31  1  0.967585  0.103212  0.250824  1
  Sn  Sn32  1  0.288857  0.141667  0.749595  1
  Sn  Sn33  1  0.788055  0.359678  0.750507  1
  Sn  Sn34  1  0.710182  0.857356  0.249297  1
  Sn  Sn35  1  0.210139  0.638798  0.249931  1
