# generated using pymatgen
data_Ca10AlSi3Sb2
_symmetry_space_group_name_H-M   'P 1'
_cell_length_a   9.23987627
_cell_length_b   9.23987718
_cell_length_c   9.24818478
_cell_angle_alpha   130.10907361
_cell_angle_beta   130.10907293
_cell_angle_gamma   73.16311634
_symmetry_Int_Tables_number   1
_chemical_formula_structural   Ca10AlSi3Sb2
_chemical_formula_sum   'Ca10 Al1 Si3 Sb2'
_cell_volume   451.11769864
_cell_formula_units_Z   1
loop_
 _symmetry_equiv_pos_site_id
 _symmetry_equiv_pos_as_xyz
  1  'x, y, z'
loop_
 _atom_site_type_symbol
 _atom_site_label
 _atom_site_symmetry_multiplicity
 _atom_site_fract_x
 _atom_site_fract_y
 _atom_site_fract_z
 _atom_site_occupancy
  Ca  Ca0  1  0.498064  0.505618  0.003682  1
  Ca  Ca1  1  0.005618  0.998064  0.003682  1
  Ca  Ca2  1  0.309436  0.809436  0.843700  1
  Ca  Ca3  1  0.811985  0.962640  0.497479  1
  Ca  Ca4  1  0.462640  0.311985  0.497479  1
  Ca  Ca5  1  0.185494  0.034840  0.497479  1
  Ca  Ca6  1  0.534840  0.685494  0.497479  1
  Ca  Ca7  1  0.034264  0.534264  0.843700  1
  Ca  Ca8  1  0.691248  0.191248  0.160442  1
  Ca  Ca9  1  0.969195  0.469195  0.160442  1
  Al  Al10  1  0.614416  0.114416  0.728829  1
  Si  Si11  1  0.380416  0.880416  0.260831  1
  Si  Si12  1  0.886256  0.614342  0.500597  1
  Si  Si13  1  0.114342  0.386256  0.500597  1
  Sb  Sb14  1  0.750895  0.750895  0.001790  1
  Sb  Sb15  1  0.250895  0.250895  0.001790  1
