# generated using pymatgen
data_Ho3ErSi4(NiOs)2
_symmetry_space_group_name_H-M   'P 1'
_cell_length_a   4.23360500
_cell_length_b   6.86471868
_cell_length_c   7.14154032
_cell_angle_alpha   91.53019426
_cell_angle_beta   90.00000000
_cell_angle_gamma   90.00000000
_symmetry_Int_Tables_number   1
_chemical_formula_structural   Ho3ErSi4(NiOs)2
_chemical_formula_sum   'Ho3 Er1 Si4 Ni2 Os2'
_cell_volume   207.47705313
_cell_formula_units_Z   1
loop_
 _symmetry_equiv_pos_site_id
 _symmetry_equiv_pos_as_xyz
  1  'x, y, z'
loop_
 _atom_site_type_symbol
 _atom_site_label
 _atom_site_symmetry_multiplicity
 _atom_site_fract_x
 _atom_site_fract_y
 _atom_site_fract_z
 _atom_site_occupancy
  Ho  Ho0  1  0.250000  0.988598  0.680059  1
  Ho  Ho1  1  0.250000  0.489313  0.799901  1
  Ho  Ho2  1  0.750000  0.511069  0.200422  1
  Er  Er3  1  0.750000  0.012022  0.318180  1
  Si  Si4  1  0.750000  0.696731  0.605206  1
  Si  Si5  1  0.250000  0.303870  0.394603  1
  Si  Si6  1  0.250000  0.799804  0.100290  1
  Si  Si7  1  0.750000  0.199807  0.900761  1
  Ni  Ni8  1  0.250000  0.662046  0.426419  1
  Ni  Ni9  1  0.750000  0.337393  0.572813  1
  Os  Os10  1  0.750000  0.842350  0.930712  1
  Os  Os11  1  0.250000  0.156997  0.070635  1
