# generated using pymatgen
data_NdZn2CdPt2
_symmetry_space_group_name_H-M   'P 1'
_cell_length_a   5.31330360
_cell_length_b   5.36383966
_cell_length_c   5.36384001
_cell_angle_alpha   62.95644786
_cell_angle_beta   60.31118437
_cell_angle_gamma   60.31118091
_symmetry_Int_Tables_number   1
_chemical_formula_structural   NdZn2CdPt2
_chemical_formula_sum   'Nd1 Zn2 Cd1 Pt2'
_cell_volume   110.83974620
_cell_formula_units_Z   1
loop_
 _symmetry_equiv_pos_site_id
 _symmetry_equiv_pos_as_xyz
  1  'x, y, z'
loop_
 _atom_site_type_symbol
 _atom_site_label
 _atom_site_symmetry_multiplicity
 _atom_site_fract_x
 _atom_site_fract_y
 _atom_site_fract_z
 _atom_site_occupancy
  Nd  Nd0  1  0.255928  0.244072  0.244072  1
  Zn  Zn1  1  0.121411  0.629072  0.629072  1
  Zn  Zn2  1  0.620445  0.629072  0.629072  1
  Cd  Cd3  1  0.004639  0.995361  0.995361  1
  Pt  Pt4  1  0.623789  0.628147  0.124277  1
  Pt  Pt5  1  0.623789  0.124277  0.628147  1
