# generated using pymatgen
data_Lu2Si4(PRh4)3
_symmetry_space_group_name_H-M   'P 1'
_cell_length_a   9.66344000
_cell_length_b   9.66343991
_cell_length_c   3.82410800
_cell_angle_alpha   90.00000000
_cell_angle_beta   90.00000000
_cell_angle_gamma   119.99999347
_symmetry_Int_Tables_number   1
_chemical_formula_structural   Lu2Si4(PRh4)3
_chemical_formula_sum   'Lu2 Si4 P3 Rh12'
_cell_volume   309.26040067
_cell_formula_units_Z   1
loop_
 _symmetry_equiv_pos_site_id
 _symmetry_equiv_pos_as_xyz
  1  'x, y, z'
loop_
 _atom_site_type_symbol
 _atom_site_label
 _atom_site_symmetry_multiplicity
 _atom_site_fract_x
 _atom_site_fract_y
 _atom_site_fract_z
 _atom_site_occupancy
  Lu  Lu0  1  0.333333  0.666667  0.739505  1
  Lu  Lu1  1  0.666667  0.333333  0.239682  1
  Si  Si2  1  0.000000  0.000000  0.700630  1
  Si  Si3  1  0.401817  0.287374  0.740186  1
  Si  Si4  1  0.712626  0.114443  0.740186  1
  Si  Si5  1  0.885557  0.598183  0.740186  1
  P  P6  1  0.597174  0.709448  0.239322  1
  P  P7  1  0.290552  0.887726  0.239322  1
  P  P8  1  0.112274  0.402826  0.239322  1
  Rh  Rh9  1  0.447202  0.067385  0.740361  1
  Rh  Rh10  1  0.932615  0.379816  0.740361  1
  Rh  Rh11  1  0.620184  0.552798  0.740361  1
  Rh  Rh12  1  0.551576  0.934204  0.239505  1
  Rh  Rh13  1  0.065796  0.617373  0.239505  1
  Rh  Rh14  1  0.382627  0.448424  0.239505  1
  Rh  Rh15  1  0.150715  0.276670  0.739208  1
  Rh  Rh16  1  0.723330  0.874047  0.739208  1
  Rh  Rh17  1  0.125953  0.849285  0.739208  1
  Rh  Rh18  1  0.860319  0.749919  0.241479  1
  Rh  Rh19  1  0.250081  0.110399  0.241479  1
  Rh  Rh20  1  0.889601  0.139681  0.241479  1
