# generated using pymatgen
data_Er3In4IrPt
_symmetry_space_group_name_H-M   'P 1'
_cell_length_a   7.92326900
_cell_length_b   7.92326855
_cell_length_c   3.76187400
_cell_angle_alpha   90.00000000
_cell_angle_beta   90.00000000
_cell_angle_gamma   119.99999772
_symmetry_Int_Tables_number   1
_chemical_formula_structural   Er3In4IrPt
_chemical_formula_sum   'Er3 In4 Ir1 Pt1'
_cell_volume   204.52371068
_cell_formula_units_Z   1
loop_
 _symmetry_equiv_pos_site_id
 _symmetry_equiv_pos_as_xyz
  1  'x, y, z'
loop_
 _atom_site_type_symbol
 _atom_site_label
 _atom_site_symmetry_multiplicity
 _atom_site_fract_x
 _atom_site_fract_y
 _atom_site_fract_z
 _atom_site_occupancy
  Er  Er0  1  0.704581  0.956018  0.500000  1
  Er  Er1  1  0.251437  0.295419  0.500000  1
  Er  Er2  1  0.043982  0.748563  0.500000  1
  In  In3  1  0.928429  0.335291  0.000000  1
  In  In4  1  0.406864  0.071571  0.000000  1
  In  In5  1  0.664709  0.593136  0.000000  1
  In  In6  1  0.333333  0.666667  0.000000  1
  Ir  Ir7  1  0.000000  0.000000  0.000000  1
  Pt  Pt8  1  0.666667  0.333333  0.500000  1
