# generated using pymatgen
data_Ho2Lu10TcRu3
_symmetry_space_group_name_H-M   'P 1'
_cell_length_a   6.16876487
_cell_length_b   7.28300983
_cell_length_c   8.89527200
_cell_angle_alpha   90.00000000
_cell_angle_beta   90.00000000
_cell_angle_gamma   89.77537670
_symmetry_Int_Tables_number   1
_chemical_formula_structural   Ho2Lu10TcRu3
_chemical_formula_sum   'Ho2 Lu10 Tc1 Ru3'
_cell_volume   399.63637243
_cell_formula_units_Z   1
loop_
 _symmetry_equiv_pos_site_id
 _symmetry_equiv_pos_as_xyz
  1  'x, y, z'
loop_
 _atom_site_type_symbol
 _atom_site_label
 _atom_site_symmetry_multiplicity
 _atom_site_fract_x
 _atom_site_fract_y
 _atom_site_fract_z
 _atom_site_occupancy
  Ho  Ho0  1  0.872514  0.537508  0.250000  1
  Ho  Ho1  1  0.129642  0.460026  0.750000  1
  Lu  Lu2  1  0.338339  0.678224  0.063702  1
  Lu  Lu3  1  0.165913  0.173633  0.436914  1
  Lu  Lu4  1  0.663006  0.321845  0.563051  1
  Lu  Lu5  1  0.836235  0.827470  0.938156  1
  Lu  Lu6  1  0.663006  0.321845  0.936949  1
  Lu  Lu7  1  0.836235  0.827470  0.561844  1
  Lu  Lu8  1  0.338339  0.678224  0.436298  1
  Lu  Lu9  1  0.165913  0.173633  0.063086  1
  Lu  Lu10  1  0.623370  0.040947  0.250000  1
  Lu  Lu11  1  0.370112  0.958472  0.750000  1
  Tc  Tc12  1  0.035109  0.882876  0.250000  1
  Ru  Ru13  1  0.459147  0.381700  0.250000  1
  Ru  Ru14  1  0.961453  0.118142  0.750000  1
  Ru  Ru15  1  0.541667  0.617986  0.750000  1
