# generated using pymatgen
data_LiCr4GaO8
_symmetry_space_group_name_H-M   'P 1'
_cell_length_a   5.94843307
_cell_length_b   5.94843711
_cell_length_c   5.94844500
_cell_angle_alpha   59.99996170
_cell_angle_beta   59.99993924
_cell_angle_gamma   59.99991187
_symmetry_Int_Tables_number   1
_chemical_formula_structural   LiCr4GaO8
_chemical_formula_sum   'Li1 Cr4 Ga1 O8'
_cell_volume   148.83096317
_cell_formula_units_Z   1
loop_
 _symmetry_equiv_pos_site_id
 _symmetry_equiv_pos_as_xyz
  1  'x, y, z'
loop_
 _atom_site_type_symbol
 _atom_site_label
 _atom_site_symmetry_multiplicity
 _atom_site_fract_x
 _atom_site_fract_y
 _atom_site_fract_z
 _atom_site_occupancy
  Li  Li0  1  0.000000  0.000000  0.000000  1
  Cr  Cr1  1  0.372010  0.372011  0.372011  1
  Cr  Cr2  1  0.372010  0.372011  0.883968  1
  Cr  Cr3  1  0.372012  0.883969  0.372010  1
  Cr  Cr4  1  0.883968  0.372009  0.372011  1
  Ga  Ga5  1  0.750000  0.750000  0.750000  1
  O  O6  1  0.136967  0.136965  0.136964  1
  O  O7  1  0.136967  0.136965  0.589103  1
  O  O8  1  0.136967  0.589102  0.136965  1
  O  O9  1  0.589102  0.136966  0.136965  1
  O  O10  1  0.618868  0.618871  0.618871  1
  O  O11  1  0.618868  0.618871  0.143391  1
  O  O12  1  0.618867  0.143391  0.618871  1
  O  O13  1  0.143394  0.618869  0.618869  1
