# generated using pymatgen
data_Pa6Al24MoOs7
_symmetry_space_group_name_H-M   'P 1'
_cell_length_a   8.89221900
_cell_length_b   8.91316980
_cell_length_c   9.42922072
_cell_angle_alpha   89.66884161
_cell_angle_beta   90.00000000
_cell_angle_gamma   119.92227873
_symmetry_Int_Tables_number   1
_chemical_formula_structural   Pa6Al24MoOs7
_chemical_formula_sum   'Pa6 Al24 Mo1 Os7'
_cell_volume   647.70716492
_cell_formula_units_Z   1
loop_
 _symmetry_equiv_pos_site_id
 _symmetry_equiv_pos_as_xyz
  1  'x, y, z'
loop_
 _atom_site_type_symbol
 _atom_site_label
 _atom_site_symmetry_multiplicity
 _atom_site_fract_x
 _atom_site_fract_y
 _atom_site_fract_z
 _atom_site_occupancy
  Pa  Pa0  1  0.197449  0.394898  0.251691  1
  Pa  Pa1  1  0.802551  0.605102  0.748309  1
  Pa  Pa2  1  0.603976  0.806697  0.246283  1
  Pa  Pa3  1  0.396024  0.193303  0.753717  1
  Pa  Pa4  1  0.202722  0.806697  0.246283  1
  Pa  Pa5  1  0.797278  0.193303  0.753717  1
  Al  Al6  1  0.331642  0.663285  0.015180  1
  Al  Al7  1  0.668358  0.336715  0.984820  1
  Al  Al8  1  0.666581  0.333161  0.517440  1
  Al  Al9  1  0.333419  0.666839  0.482560  1
  Al  Al10  1  0.161382  0.322762  0.580530  1
  Al  Al11  1  0.838618  0.677238  0.419470  1
  Al  Al12  1  0.676290  0.837073  0.578320  1
  Al  Al13  1  0.838353  0.676706  0.079586  1
  Al  Al14  1  0.323710  0.162927  0.421680  1
  Al  Al15  1  0.161647  0.323294  0.920414  1
  Al  Al16  1  0.160783  0.837073  0.578320  1
  Al  Al17  1  0.323055  0.164378  0.082753  1
  Al  Al18  1  0.839217  0.162927  0.421680  1
  Al  Al19  1  0.676945  0.835622  0.917247  1
  Al  Al20  1  0.841323  0.164378  0.082753  1
  Al  Al21  1  0.158677  0.835622  0.917247  1
  Al  Al22  1  0.564678  0.129355  0.252150  1
  Al  Al23  1  0.435322  0.870645  0.747850  1
  Al  Al24  1  0.877467  0.440102  0.250810  1
  Al  Al25  1  0.122533  0.559898  0.749190  1
  Al  Al26  1  0.562634  0.440102  0.250810  1
  Al  Al27  1  0.437366  0.559898  0.749190  1
  Al  Al28  1  0.999656  0.999312  0.250086  1
  Al  Al29  1  0.000344  0.000688  0.749914  1
  Mo  Mo30  1  0.500000  0.000000  0.000000  1
  Os  Os31  1  0.000000  0.500000  0.000000  1
  Os  Os32  1  0.500000  0.000000  0.500000  1
  Os  Os33  1  0.500000  0.500000  0.000000  1
  Os  Os34  1  0.000000  0.500000  0.500000  1
  Os  Os35  1  0.500000  0.500000  0.500000  1
  Os  Os36  1  0.000000  0.000000  0.000000  1
  Os  Os37  1  0.000000  0.000000  0.500000  1
