# generated using pymatgen
data_Hg3Pd5
_symmetry_space_group_name_H-M   'P 1'
_cell_length_a   4.31564969
_cell_length_b   4.84552064
_cell_length_c   7.81113364
_cell_angle_alpha   82.73884398
_cell_angle_beta   73.79009318
_cell_angle_gamma   63.22238875
_symmetry_Int_Tables_number   1
_chemical_formula_structural   Hg3Pd5
_chemical_formula_sum   'Hg3 Pd5'
_cell_volume   140.02916551
_cell_formula_units_Z   1
loop_
 _symmetry_equiv_pos_site_id
 _symmetry_equiv_pos_as_xyz
  1  'x, y, z'
loop_
 _atom_site_type_symbol
 _atom_site_label
 _atom_site_symmetry_multiplicity
 _atom_site_fract_x
 _atom_site_fract_y
 _atom_site_fract_z
 _atom_site_occupancy
  Hg  Hg0  1  0.451014  0.399534  0.248131  1
  Hg  Hg1  1  0.683239  0.668826  0.512601  1
  Hg  Hg2  1  0.219804  0.128126  0.983443  1
  Pd  Pd3  1  0.070378  0.035416  0.371945  1
  Pd  Pd4  1  0.951609  0.897763  0.748225  1
  Pd  Pd5  1  0.580948  0.509710  0.875064  1
  Pd  Pd6  1  0.323133  0.285033  0.620659  1
  Pd  Pd7  1  0.831455  0.764424  0.124196  1
