# generated using pymatgen
data_TmLu9Si5As
_symmetry_space_group_name_H-M   'P 1'
_cell_length_a   8.24108700
_cell_length_b   8.25840628
_cell_length_c   6.14214200
_cell_angle_alpha   90.00000000
_cell_angle_beta   90.00000000
_cell_angle_gamma   119.93065442
_symmetry_Int_Tables_number   1
_chemical_formula_structural   TmLu9Si5As
_chemical_formula_sum   'Tm1 Lu9 Si5 As1'
_cell_volume   362.27158947
_cell_formula_units_Z   1
loop_
 _symmetry_equiv_pos_site_id
 _symmetry_equiv_pos_as_xyz
  1  'x, y, z'
loop_
 _atom_site_type_symbol
 _atom_site_label
 _atom_site_symmetry_multiplicity
 _atom_site_fract_x
 _atom_site_fract_y
 _atom_site_fract_z
 _atom_site_occupancy
  Tm  Tm0  1  0.759608  0.000000  0.750000  1
  Lu  Lu1  1  0.668927  0.336065  0.001069  1
  Lu  Lu2  1  0.332861  0.663935  0.498931  1
  Lu  Lu3  1  0.332861  0.663935  0.001069  1
  Lu  Lu4  1  0.668927  0.336065  0.498931  1
  Lu  Lu5  1  0.757566  0.757032  0.250000  1
  Lu  Lu6  1  0.000534  0.242968  0.250000  1
  Lu  Lu7  1  0.996455  0.754750  0.750000  1
  Lu  Lu8  1  0.241705  0.245250  0.750000  1
  Lu  Lu9  1  0.241643  0.000000  0.250000  1
  Si  Si10  1  0.394701  0.393421  0.250000  1
  Si  Si11  1  0.001279  0.606579  0.250000  1
  Si  Si12  1  0.000059  0.395071  0.750000  1
  Si  Si13  1  0.604989  0.604929  0.750000  1
  Si  Si14  1  0.606543  0.000000  0.250000  1
  As  As15  1  0.391342  0.000000  0.750000  1
