# generated using pymatgen
data_Er6GaCuTc
_symmetry_space_group_name_H-M   'P 1'
_cell_length_a   8.33509714
_cell_length_b   8.33509774
_cell_length_c   8.33509796
_cell_angle_alpha   113.12848534
_cell_angle_beta   111.24393638
_cell_angle_gamma   104.17393473
_symmetry_Int_Tables_number   1
_chemical_formula_structural   Er6GaCuTc
_chemical_formula_sum   'Er12 Ga2 Cu2 Tc2'
_cell_volume   442.81433435
_cell_formula_units_Z   2
loop_
 _symmetry_equiv_pos_site_id
 _symmetry_equiv_pos_as_xyz
  1  'x, y, z'
loop_
 _atom_site_type_symbol
 _atom_site_label
 _atom_site_symmetry_multiplicity
 _atom_site_fract_x
 _atom_site_fract_y
 _atom_site_fract_z
 _atom_site_occupancy
  Er  Er0  1  0.052326  0.742461  0.309865  1
  Er  Er1  1  0.947674  0.257539  0.690135  1
  Er  Er2  1  0.567404  0.257539  0.309865  1
  Er  Er3  1  0.432596  0.742461  0.690135  1
  Er  Er4  1  0.663780  0.852128  0.188348  1
  Er  Er5  1  0.336220  0.524568  0.188348  1
  Er  Er6  1  0.336220  0.147872  0.811652  1
  Er  Er7  1  0.663780  0.475432  0.811652  1
  Er  Er8  1  0.181710  0.224191  0.405902  1
  Er  Er9  1  0.818290  0.224191  0.042481  1
  Er  Er10  1  0.181710  0.775809  0.957519  1
  Er  Er11  1  0.818290  0.775809  0.594098  1
  Ga  Ga12  1  0.000000  0.500000  0.500000  1
  Ga  Ga13  1  0.500000  0.000000  0.500000  1
  Cu  Cu14  1  0.880101  0.880101  0.000000  1
  Cu  Cu15  1  0.119899  0.119899  0.000000  1
  Tc  Tc16  1  0.678293  0.500000  0.178293  1
  Tc  Tc17  1  0.321707  0.500000  0.821707  1
