# generated using pymatgen
data_DyY19(Cd3Os)2
_symmetry_space_group_name_H-M   'P 1'
_cell_length_a   9.64767182
_cell_length_b   9.64767216
_cell_length_c   9.91379506
_cell_angle_alpha   90.04595813
_cell_angle_beta   89.95403914
_cell_angle_gamma   119.98906561
_symmetry_Int_Tables_number   1
_chemical_formula_structural   DyY19(Cd3Os)2
_chemical_formula_sum   'Dy1 Y19 Cd6 Os2'
_cell_volume   799.21436685
_cell_formula_units_Z   1
loop_
 _symmetry_equiv_pos_site_id
 _symmetry_equiv_pos_as_xyz
  1  'x, y, z'
loop_
 _atom_site_type_symbol
 _atom_site_label
 _atom_site_symmetry_multiplicity
 _atom_site_fract_x
 _atom_site_fract_y
 _atom_site_fract_z
 _atom_site_occupancy
  Dy  Dy0  1  0.209922  0.790078  0.439910  1
  Y  Y1  1  0.000068  0.999932  0.499937  1
  Y  Y2  1  0.000001  0.999999  0.000043  1
  Y  Y3  1  0.209577  0.419249  0.440389  1
  Y  Y4  1  0.580751  0.790423  0.440389  1
  Y  Y5  1  0.790386  0.209614  0.559687  1
  Y  Y6  1  0.790452  0.580764  0.559634  1
  Y  Y7  1  0.419236  0.209548  0.559634  1
  Y  Y8  1  0.790376  0.209624  0.940306  1
  Y  Y9  1  0.790397  0.580753  0.940341  1
  Y  Y10  1  0.419247  0.209603  0.940341  1
  Y  Y11  1  0.209583  0.790417  0.059699  1
  Y  Y12  1  0.209660  0.419250  0.059650  1
  Y  Y13  1  0.580750  0.790340  0.059650  1
  Y  Y14  1  0.540277  0.459723  0.249982  1
  Y  Y15  1  0.540175  0.080478  0.250059  1
  Y  Y16  1  0.919522  0.459825  0.250059  1
  Y  Y17  1  0.459730  0.540270  0.750012  1
  Y  Y18  1  0.459704  0.919412  0.749922  1
  Y  Y19  1  0.080588  0.540296  0.749922  1
  Cd  Cd20  1  0.885463  0.114537  0.250002  1
  Cd  Cd21  1  0.885463  0.770918  0.249985  1
  Cd  Cd22  1  0.229082  0.114537  0.249985  1
  Cd  Cd23  1  0.114536  0.885464  0.750055  1
  Cd  Cd24  1  0.114533  0.229116  0.749995  1
  Cd  Cd25  1  0.770884  0.885467  0.749995  1
  Os  Os26  1  0.332992  0.667008  0.250452  1
  Os  Os27  1  0.666647  0.333353  0.749963  1
