# generated using pymatgen
data_Tb3Ho(Al8Pt3)3
_symmetry_space_group_name_H-M   'P 1'
_cell_length_a   7.53078333
_cell_length_b   7.55339222
_cell_length_c   13.17980256
_cell_angle_alpha   84.57163654
_cell_angle_beta   79.12275976
_cell_angle_gamma   59.97842177
_symmetry_Int_Tables_number   1
_chemical_formula_structural   Tb3Ho(Al8Pt3)3
_chemical_formula_sum   'Tb3 Ho1 Al24 Pt9'
_cell_volume   637.46105314
_cell_formula_units_Z   1
loop_
 _symmetry_equiv_pos_site_id
 _symmetry_equiv_pos_as_xyz
  1  'x, y, z'
loop_
 _atom_site_type_symbol
 _atom_site_label
 _atom_site_symmetry_multiplicity
 _atom_site_fract_x
 _atom_site_fract_y
 _atom_site_fract_z
 _atom_site_occupancy
  Tb  Tb0  1  0.393398  0.168675  0.807962  1
  Tb  Tb1  1  0.606643  0.831350  0.192048  1
  Tb  Tb2  1  0.733956  0.498532  0.807724  1
  Ho  Ho3  1  0.265778  0.501471  0.192612  1
  Al  Al4  1  0.684622  0.833833  0.944584  1
  Al  Al5  1  0.315321  0.166482  0.055581  1
  Al  Al6  1  0.146582  0.832445  0.561223  1
  Al  Al7  1  0.853438  0.167542  0.438733  1
  Al  Al8  1  0.479467  0.166731  0.558457  1
  Al  Al9  1  0.520521  0.833295  0.441503  1
  Al  Al10  1  0.217135  0.165399  0.329807  1
  Al  Al11  1  0.782954  0.834794  0.670020  1
  Al  Al12  1  0.437521  0.506404  0.670092  1
  Al  Al13  1  0.562263  0.493603  0.329739  1
  Al  Al14  1  0.109554  0.159948  0.669071  1
  Al  Al15  1  0.890756  0.839809  0.330732  1
  Al  Al16  1  0.352742  0.499688  0.944888  1
  Al  Al17  1  0.646834  0.500310  0.055459  1
  Al  Al18  1  0.015422  0.167442  0.953114  1
  Al  Al19  1  0.984795  0.832304  0.047077  1
  Al  Al20  1  0.186843  0.499182  0.441365  1
  Al  Al21  1  0.813222  0.500814  0.558521  1
  Al  Al22  1  0.734056  0.164190  0.183462  1
  Al  Al23  1  0.265606  0.836106  0.816545  1
  Al  Al24  1  0.061778  0.631620  0.815377  1
  Al  Al25  1  0.938567  0.368399  0.184625  1
  Al  Al26  1  0.855512  0.041354  0.815876  1
  Al  Al27  1  0.144550  0.958227  0.184125  1
  Pt  Pt28  1  0.119883  0.492163  0.638652  1
  Pt  Pt29  1  0.880441  0.507866  0.361164  1
  Pt  Pt30  1  0.657215  0.171339  0.999919  1
  Pt  Pt31  1  0.342686  0.828671  0.000226  1
  Pt  Pt32  1  0.537874  0.166945  0.361196  1
  Pt  Pt33  1  0.461927  0.833310  0.638617  1
  Pt  Pt34  1  0.778773  0.174915  0.637137  1
  Pt  Pt35  1  0.221343  0.824801  0.362680  1
  Pt  Pt36  1  0.000019  0.500041  0.000087  1
