# generated using pymatgen
data_YSi3PRh6
_symmetry_space_group_name_H-M   'P 1'
_cell_length_a   7.05162005
_cell_length_b   7.05161990
_cell_length_c   3.77202900
_cell_angle_alpha   90.00000000
_cell_angle_beta   90.00000000
_cell_angle_gamma   120.52289983
_symmetry_Int_Tables_number   1
_chemical_formula_structural   YSi3PRh6
_chemical_formula_sum   'Y1 Si3 P1 Rh6'
_cell_volume   161.57379225
_cell_formula_units_Z   1
loop_
 _symmetry_equiv_pos_site_id
 _symmetry_equiv_pos_as_xyz
  1  'x, y, z'
loop_
 _atom_site_type_symbol
 _atom_site_label
 _atom_site_symmetry_multiplicity
 _atom_site_fract_x
 _atom_site_fract_y
 _atom_site_fract_z
 _atom_site_occupancy
  Y  Y0  1  0.332955  0.667045  0.000000  1
  Si  Si1  1  0.666428  0.333572  0.000000  1
  Si  Si2  1  0.729651  0.866387  0.500000  1
  Si  Si3  1  0.133613  0.270349  0.500000  1
  P  P4  1  0.140043  0.859957  0.500000  1
  Rh  Rh5  1  0.265547  0.132559  0.000000  1
  Rh  Rh6  1  0.867441  0.734453  0.000000  1
  Rh  Rh7  1  0.866417  0.133583  0.000000  1
  Rh  Rh8  1  0.937719  0.470788  0.500000  1
  Rh  Rh9  1  0.529212  0.062281  0.500000  1
  Rh  Rh10  1  0.530974  0.469026  0.500000  1
