# generated using pymatgen
data_TbHo2Al3PdAu2
_symmetry_space_group_name_H-M   'P 1'
_cell_length_a   7.27093300
_cell_length_b   7.27732176
_cell_length_c   4.08504000
_cell_angle_alpha   90.00000000
_cell_angle_beta   90.00000000
_cell_angle_gamma   119.97095901
_symmetry_Int_Tables_number   1
_chemical_formula_structural   TbHo2Al3PdAu2
_chemical_formula_sum   'Tb1 Ho2 Al3 Pd1 Au2'
_cell_volume   187.24735039
_cell_formula_units_Z   1
loop_
 _symmetry_equiv_pos_site_id
 _symmetry_equiv_pos_as_xyz
  1  'x, y, z'
loop_
 _atom_site_type_symbol
 _atom_site_label
 _atom_site_symmetry_multiplicity
 _atom_site_fract_x
 _atom_site_fract_y
 _atom_site_fract_z
 _atom_site_occupancy
  Tb  Tb0  1  0.587659  0.000000  0.500000  1
  Ho  Ho1  1  0.999696  0.588108  0.500000  1
  Ho  Ho2  1  0.411588  0.411892  0.500000  1
  Al  Al3  1  0.765878  0.765148  0.000000  1
  Al  Al4  1  0.233950  0.000000  0.000000  1
  Al  Al5  1  0.000730  0.234852  0.000000  1
  Pd  Pd6  1  0.001842  0.000000  0.500000  1
  Au  Au7  1  0.331176  0.663695  0.000000  1
  Au  Au8  1  0.667481  0.336305  0.000000  1
