# generated using pymatgen
data_Zr6Fe15Si7Ni
_symmetry_space_group_name_H-M   'P 1'
_cell_length_a   8.09814003
_cell_length_b   8.10033857
_cell_length_c   8.09814000
_cell_angle_alpha   60.00897798
_cell_angle_beta   60.00000013
_cell_angle_gamma   60.00897558
_symmetry_Int_Tables_number   1
_chemical_formula_structural   Zr6Fe15Si7Ni
_chemical_formula_sum   'Zr6 Fe15 Si7 Ni1'
_cell_volume   375.67963230
_cell_formula_units_Z   1
loop_
 _symmetry_equiv_pos_site_id
 _symmetry_equiv_pos_as_xyz
  1  'x, y, z'
loop_
 _atom_site_type_symbol
 _atom_site_label
 _atom_site_symmetry_multiplicity
 _atom_site_fract_x
 _atom_site_fract_y
 _atom_site_fract_z
 _atom_site_occupancy
  Zr  Zr0  1  0.792030  0.203865  0.792030  1
  Zr  Zr1  1  0.793476  0.794008  0.206258  1
  Zr  Zr2  1  0.206258  0.794008  0.793476  1
  Zr  Zr3  1  0.212076  0.203865  0.792030  1
  Zr  Zr4  1  0.792030  0.203865  0.212076  1
  Zr  Zr5  1  0.206258  0.794008  0.206258  1
  Fe  Fe6  1  0.175190  0.178080  0.175190  1
  Fe  Fe7  1  0.620249  0.624557  0.134945  1
  Fe  Fe8  1  0.378639  0.379196  0.378639  1
  Fe  Fe9  1  0.175694  0.472919  0.175694  1
  Fe  Fe10  1  0.175190  0.178080  0.471541  1
  Fe  Fe11  1  0.134945  0.624557  0.620249  1
  Fe  Fe12  1  0.621823  0.134529  0.621823  1
  Fe  Fe13  1  0.823517  0.823227  0.823517  1
  Fe  Fe14  1  0.863526  0.379196  0.378639  1
  Fe  Fe15  1  0.378639  0.379196  0.863526  1
  Fe  Fe16  1  0.378606  0.864184  0.378606  1
  Fe  Fe17  1  0.529740  0.823227  0.823517  1
  Fe  Fe18  1  0.620249  0.624557  0.620249  1
  Fe  Fe19  1  0.823517  0.823227  0.529740  1
  Fe  Fe20  1  0.471541  0.178080  0.175190  1
  Si  Si21  1  0.000003  0.501605  0.000003  1
  Si  Si22  1  0.500126  0.499622  0.500126  1
  Si  Si23  1  0.498388  0.501605  0.000003  1
  Si  Si24  1  0.498857  0.000201  0.498857  1
  Si  Si25  1  0.000003  0.501605  0.498388  1
  Si  Si26  1  0.002085  0.000201  0.498857  1
  Si  Si27  1  0.498857  0.000201  0.002085  1
  Ni  Ni28  1  0.828490  0.514530  0.828490  1
