# generated using pymatgen
data_TmLu3(WO6)2
_symmetry_space_group_name_H-M   'P 1'
_cell_length_a   5.30821000
_cell_length_b   7.59317929
_cell_length_c   11.30550700
_cell_angle_alpha   75.17867567
_cell_angle_beta   90.00000000
_cell_angle_gamma   90.00000000
_symmetry_Int_Tables_number   1
_chemical_formula_structural   TmLu3(WO6)2
_chemical_formula_sum   'Tm2 Lu6 W4 O24'
_cell_volume   440.52058096
_cell_formula_units_Z   2
loop_
 _symmetry_equiv_pos_site_id
 _symmetry_equiv_pos_as_xyz
  1  'x, y, z'
loop_
 _atom_site_type_symbol
 _atom_site_label
 _atom_site_symmetry_multiplicity
 _atom_site_fract_x
 _atom_site_fract_y
 _atom_site_fract_z
 _atom_site_occupancy
  Tm  Tm0  1  0.314774  0.500000  0.750000  1
  Tm  Tm1  1  0.685226  0.500000  0.250000  1
  Lu  Lu2  1  0.259482  0.000000  0.750000  1
  Lu  Lu3  1  0.183277  0.795014  0.078967  1
  Lu  Lu4  1  0.183277  0.204986  0.421033  1
  Lu  Lu5  1  0.740518  0.000000  0.250000  1
  Lu  Lu6  1  0.816723  0.204986  0.921033  1
  Lu  Lu7  1  0.816723  0.795014  0.578967  1
  W  W8  1  0.743646  0.723735  0.885558  1
  W  W9  1  0.256354  0.723735  0.385558  1
  W  W10  1  0.743646  0.276265  0.614442  1
  W  W11  1  0.256354  0.276265  0.114442  1
  O  O12  1  0.540485  0.152736  0.069000  1
  O  O13  1  0.041808  0.057457  0.104759  1
  O  O14  1  0.021849  0.711611  0.769925  1
  O  O15  1  0.459515  0.152736  0.569000  1
  O  O16  1  0.361512  0.486760  0.385347  1
  O  O17  1  0.958192  0.057457  0.604759  1
  O  O18  1  0.539964  0.794218  0.724804  1
  O  O19  1  0.460036  0.794218  0.224804  1
  O  O20  1  0.148173  0.634119  0.550609  1
  O  O21  1  0.041808  0.942543  0.395241  1
  O  O22  1  0.459515  0.847264  0.931000  1
  O  O23  1  0.460036  0.205782  0.275196  1
  O  O24  1  0.851827  0.365881  0.449391  1
  O  O25  1  0.638488  0.486760  0.885347  1
  O  O26  1  0.361512  0.513240  0.114653  1
  O  O27  1  0.958192  0.942543  0.895241  1
  O  O28  1  0.540485  0.847264  0.431000  1
  O  O29  1  0.978151  0.288389  0.230075  1
  O  O30  1  0.539964  0.205782  0.775196  1
  O  O31  1  0.851827  0.634119  0.050609  1
  O  O32  1  0.021849  0.288389  0.730075  1
  O  O33  1  0.148173  0.365881  0.949391  1
  O  O34  1  0.978151  0.711611  0.269925  1
  O  O35  1  0.638488  0.513240  0.614653  1
