# generated using pymatgen
data_Dy4Ga18(NiRu)3
_symmetry_space_group_name_H-M   'P 1'
_cell_length_a   7.51509906
_cell_length_b   7.51509879
_cell_length_c   9.51317005
_cell_angle_alpha   89.86514645
_cell_angle_beta   89.86514326
_cell_angle_gamma   120.58588940
_symmetry_Int_Tables_number   1
_chemical_formula_structural   Dy4Ga18(NiRu)3
_chemical_formula_sum   'Dy4 Ga18 Ni3 Ru3'
_cell_volume   462.51520016
_cell_formula_units_Z   1
loop_
 _symmetry_equiv_pos_site_id
 _symmetry_equiv_pos_as_xyz
  1  'x, y, z'
loop_
 _atom_site_type_symbol
 _atom_site_label
 _atom_site_symmetry_multiplicity
 _atom_site_fract_x
 _atom_site_fract_y
 _atom_site_fract_z
 _atom_site_occupancy
  Dy  Dy0  1  0.997442  0.661361  0.250200  1
  Dy  Dy1  1  0.007373  0.343365  0.748610  1
  Dy  Dy2  1  0.656635  0.992627  0.251390  1
  Dy  Dy3  1  0.338639  0.002558  0.749800  1
  Ga  Ga4  1  0.111469  0.110741  0.248648  1
  Ga  Ga5  1  0.889259  0.888531  0.751352  1
  Ga  Ga6  1  0.992881  0.327171  0.075195  1
  Ga  Ga7  1  0.995746  0.668888  0.924728  1
  Ga  Ga8  1  0.999161  0.672680  0.576097  1
  Ga  Ga9  1  0.327320  0.000839  0.423903  1
  Ga  Ga10  1  0.000671  0.326358  0.422175  1
  Ga  Ga11  1  0.673642  0.999329  0.577825  1
  Ga  Ga12  1  0.672829  0.007119  0.924805  1
  Ga  Ga13  1  0.331112  0.004254  0.075272  1
  Ga  Ga14  1  0.334278  0.332578  0.561620  1
  Ga  Ga15  1  0.667422  0.665722  0.438380  1
  Ga  Ga16  1  0.667541  0.668067  0.062076  1
  Ga  Ga17  1  0.331933  0.332459  0.937924  1
  Ga  Ga18  1  0.334569  0.540265  0.249199  1
  Ga  Ga19  1  0.666137  0.453945  0.752618  1
  Ga  Ga20  1  0.546055  0.333863  0.247382  1
  Ga  Ga21  1  0.459735  0.665431  0.750801  1
  Ni  Ni22  1  0.669762  0.330238  0.000000  1
  Ni  Ni23  1  0.000445  0.999555  0.000000  1
  Ni  Ni24  1  0.000090  0.999910  0.500000  1
  Ru  Ru25  1  0.326815  0.673185  0.000000  1
  Ru  Ru26  1  0.327616  0.672384  0.500000  1
  Ru  Ru27  1  0.673422  0.326578  0.500000  1
