# generated using pymatgen
data_Sc4Mn3Fe5Si8
_symmetry_space_group_name_H-M   'P 1'
_cell_length_a   5.01159545
_cell_length_b   7.10438871
_cell_length_c   7.47448900
_cell_angle_alpha   90.00000000
_cell_angle_beta   90.00000000
_cell_angle_gamma   89.95020194
_symmetry_Int_Tables_number   1
_chemical_formula_structural   Sc4Mn3Fe5Si8
_chemical_formula_sum   'Sc4 Mn3 Fe5 Si8'
_cell_volume   266.12401343
_cell_formula_units_Z   1
loop_
 _symmetry_equiv_pos_site_id
 _symmetry_equiv_pos_as_xyz
  1  'x, y, z'
loop_
 _atom_site_type_symbol
 _atom_site_label
 _atom_site_symmetry_multiplicity
 _atom_site_fract_x
 _atom_site_fract_y
 _atom_site_fract_z
 _atom_site_occupancy
  Sc  Sc0  1  0.754945  0.902125  0.250289  1
  Sc  Sc1  1  0.246168  0.096078  0.750443  1
  Sc  Sc2  1  0.753832  0.403922  0.750443  1
  Sc  Sc3  1  0.245055  0.597875  0.250289  1
  Mn  Mn4  1  0.000000  0.750000  0.621074  1
  Mn  Mn5  1  0.500000  0.250000  0.378629  1
  Mn  Mn6  1  0.000000  0.250000  0.378399  1
  Fe  Fe7  1  0.749573  0.509188  0.116426  1
  Fe  Fe8  1  0.248714  0.489881  0.885125  1
  Fe  Fe9  1  0.751286  0.010120  0.885125  1
  Fe  Fe10  1  0.250427  0.990812  0.116426  1
  Fe  Fe11  1  0.500000  0.750000  0.618668  1
  Si  Si12  1  0.736141  0.549922  0.416125  1
  Si  Si13  1  0.265577  0.451850  0.585276  1
  Si  Si14  1  0.734423  0.048150  0.585276  1
  Si  Si15  1  0.263859  0.950078  0.416125  1
  Si  Si16  1  0.000000  0.750000  0.954123  1
  Si  Si17  1  0.500000  0.250000  0.045380  1
  Si  Si18  1  0.000000  0.250000  0.045487  1
  Si  Si19  1  0.500000  0.750000  0.950875  1
