# generated using pymatgen
data_LaNd(AlNi4)2
_symmetry_space_group_name_H-M   'P 1'
_cell_length_a   4.04915500
_cell_length_b   5.16204100
_cell_length_c   8.48957200
_cell_angle_alpha   90.00000000
_cell_angle_beta   90.00000000
_cell_angle_gamma   90.00000000
_symmetry_Int_Tables_number   1
_chemical_formula_structural   LaNd(AlNi4)2
_chemical_formula_sum   'La1 Nd1 Al2 Ni8'
_cell_volume   177.44822001
_cell_formula_units_Z   1
loop_
 _symmetry_equiv_pos_site_id
 _symmetry_equiv_pos_as_xyz
  1  'x, y, z'
loop_
 _atom_site_type_symbol
 _atom_site_label
 _atom_site_symmetry_multiplicity
 _atom_site_fract_x
 _atom_site_fract_y
 _atom_site_fract_z
 _atom_site_occupancy
  La  La0  1  0.000000  0.000000  0.000000  1
  Nd  Nd1  1  0.000000  0.500000  0.500000  1
  Al  Al2  1  0.500000  0.500000  0.000000  1
  Al  Al3  1  0.500000  0.000000  0.500000  1
  Ni  Ni4  1  0.000000  0.000000  0.331131  1
  Ni  Ni5  1  0.000000  0.500000  0.831650  1
  Ni  Ni6  1  0.000000  0.500000  0.168350  1
  Ni  Ni7  1  0.000000  0.000000  0.668869  1
  Ni  Ni8  1  0.500000  0.252180  0.251933  1
  Ni  Ni9  1  0.500000  0.747820  0.748067  1
  Ni  Ni10  1  0.500000  0.747820  0.251933  1
  Ni  Ni11  1  0.500000  0.252180  0.748067  1
