# generated using pymatgen
data_La14OsPd5
_symmetry_space_group_name_H-M   'P 1'
_cell_length_a   10.36363939
_cell_length_b   10.36363887
_cell_length_c   6.58888490
_cell_angle_alpha   89.61017973
_cell_angle_beta   90.38982319
_cell_angle_gamma   120.03691732
_symmetry_Int_Tables_number   1
_chemical_formula_structural   La14OsPd5
_chemical_formula_sum   'La14 Os1 Pd5'
_cell_volume   612.62122637
_cell_formula_units_Z   1
loop_
 _symmetry_equiv_pos_site_id
 _symmetry_equiv_pos_as_xyz
  1  'x, y, z'
loop_
 _atom_site_type_symbol
 _atom_site_label
 _atom_site_symmetry_multiplicity
 _atom_site_fract_x
 _atom_site_fract_y
 _atom_site_fract_z
 _atom_site_occupancy
  La  La0  1  0.334087  0.665913  0.455348  1
  La  La1  1  0.670439  0.329561  0.963761  1
  La  La2  1  0.126606  0.873394  0.244341  1
  La  La3  1  0.751840  0.885564  0.242314  1
  La  La4  1  0.114436  0.248160  0.242314  1
  La  La5  1  0.872371  0.127629  0.753791  1
  La  La6  1  0.253144  0.126204  0.744772  1
  La  La7  1  0.873796  0.746856  0.744772  1
  La  La8  1  0.537323  0.462677  0.444705  1
  La  La9  1  0.919655  0.453792  0.436256  1
  La  La10  1  0.546208  0.080345  0.436256  1
  La  La11  1  0.463267  0.536733  0.943544  1
  La  La12  1  0.074819  0.535190  0.943522  1
  La  La13  1  0.464810  0.925181  0.943522  1
  Os  Os14  1  0.811146  0.188854  0.189825  1
  Pd  Pd15  1  0.374326  0.188672  0.191154  1
  Pd  Pd16  1  0.811328  0.625674  0.191154  1
  Pd  Pd17  1  0.188069  0.811931  0.691430  1
  Pd  Pd18  1  0.622419  0.810088  0.691504  1
  Pd  Pd19  1  0.189912  0.377581  0.691504  1
