# generated using pymatgen
data_Er12Lu8Co3Bi8Pt
_symmetry_space_group_name_H-M   'P 1'
_cell_length_a   7.87562939
_cell_length_b   8.89238400
_cell_length_c   12.32494842
_cell_angle_alpha   90.00000000
_cell_angle_beta   90.14531055
_cell_angle_gamma   90.00000000
_symmetry_Int_Tables_number   1
_chemical_formula_structural   Er12Lu8Co3Bi8Pt
_chemical_formula_sum   'Er12 Lu8 Co3 Bi8 Pt1'
_cell_volume   863.15182500
_cell_formula_units_Z   1
loop_
 _symmetry_equiv_pos_site_id
 _symmetry_equiv_pos_as_xyz
  1  'x, y, z'
loop_
 _atom_site_type_symbol
 _atom_site_label
 _atom_site_symmetry_multiplicity
 _atom_site_fract_x
 _atom_site_fract_y
 _atom_site_fract_z
 _atom_site_occupancy
  Er  Er0  1  0.652517  0.750000  0.698179  1
  Er  Er1  1  0.346840  0.250000  0.301526  1
  Er  Er2  1  0.155425  0.250000  0.799070  1
  Er  Er3  1  0.838202  0.750000  0.210912  1
  Er  Er4  1  0.126990  0.750000  0.804733  1
  Er  Er5  1  0.881661  0.250000  0.186664  1
  Er  Er6  1  0.616525  0.250000  0.687553  1
  Er  Er7  1  0.381144  0.750000  0.312496  1
  Er  Er8  1  0.552343  0.750000  0.998422  1
  Er  Er9  1  0.447042  0.250000  0.001527  1
  Er  Er10  1  0.056119  0.250000  0.503222  1
  Er  Er11  1  0.947076  0.750000  0.499003  1
  Lu  Lu12  1  0.825957  0.451199  0.933796  1
  Lu  Lu13  1  0.173032  0.531697  0.065579  1
  Lu  Lu14  1  0.328763  0.538487  0.562221  1
  Lu  Lu15  1  0.173032  0.968303  0.065579  1
  Lu  Lu16  1  0.672602  0.462605  0.437255  1
  Lu  Lu17  1  0.825957  0.048801  0.933796  1
  Lu  Lu18  1  0.672602  0.037395  0.437255  1
  Lu  Lu19  1  0.328763  0.961513  0.562221  1
  Co  Co20  1  0.066016  0.250000  0.007121  1
  Co  Co21  1  0.435500  0.250000  0.507835  1
  Co  Co22  1  0.566750  0.750000  0.490636  1
  Bi  Bi23  1  0.931694  0.009094  0.673066  1
  Bi  Bi24  1  0.067379  0.992095  0.327459  1
  Bi  Bi25  1  0.432711  0.990861  0.826709  1
  Bi  Bi26  1  0.067379  0.507905  0.327459  1
  Bi  Bi27  1  0.567017  0.009801  0.173453  1
  Bi  Bi28  1  0.931694  0.490906  0.673066  1
  Bi  Bi29  1  0.567017  0.490199  0.173453  1
  Bi  Bi30  1  0.432711  0.509139  0.826709  1
  Pt  Pt31  1  0.931536  0.750000  0.992024  1
