# generated using pymatgen
data_Tm4Lu8Tc3Pt
_symmetry_space_group_name_H-M   'P 1'
_cell_length_a   6.18385102
_cell_length_b   7.31537006
_cell_length_c   8.96118200
_cell_angle_alpha   90.00000000
_cell_angle_beta   90.00000000
_cell_angle_gamma   90.00329614
_symmetry_Int_Tables_number   1
_chemical_formula_structural   Tm4Lu8Tc3Pt
_chemical_formula_sum   'Tm4 Lu8 Tc3 Pt1'
_cell_volume   405.37841064
_cell_formula_units_Z   1
loop_
 _symmetry_equiv_pos_site_id
 _symmetry_equiv_pos_as_xyz
  1  'x, y, z'
loop_
 _atom_site_type_symbol
 _atom_site_label
 _atom_site_symmetry_multiplicity
 _atom_site_fract_x
 _atom_site_fract_y
 _atom_site_fract_z
 _atom_site_occupancy
  Tm  Tm0  1  0.874843  0.542073  0.250000  1
  Tm  Tm1  1  0.620692  0.037337  0.250000  1
  Tm  Tm2  1  0.127243  0.455722  0.750000  1
  Tm  Tm3  1  0.373933  0.965090  0.750000  1
  Lu  Lu4  1  0.331281  0.675754  0.066236  1
  Lu  Lu5  1  0.162957  0.177191  0.436815  1
  Lu  Lu6  1  0.665209  0.318849  0.558330  1
  Lu  Lu7  1  0.839030  0.828113  0.941004  1
  Lu  Lu8  1  0.665209  0.318849  0.941670  1
  Lu  Lu9  1  0.839030  0.828113  0.558996  1
  Lu  Lu10  1  0.331281  0.675754  0.433764  1
  Lu  Lu11  1  0.162957  0.177191  0.063185  1
  Tc  Tc12  1  0.038326  0.884932  0.250000  1
  Tc  Tc13  1  0.464097  0.385851  0.250000  1
  Tc  Tc14  1  0.958139  0.115230  0.750000  1
  Pt  Pt15  1  0.545773  0.613951  0.750000  1
