# generated using pymatgen
data_La5Ho15Sn16
_symmetry_space_group_name_H-M   'P 1'
_cell_length_a   8.10753494
_cell_length_b   8.25967062
_cell_length_c   15.59007700
_cell_angle_alpha   90.01328399
_cell_angle_beta   89.89764182
_cell_angle_gamma   89.92868566
_symmetry_Int_Tables_number   1
_chemical_formula_structural   La5Ho15Sn16
_chemical_formula_sum   'La5 Ho15 Sn16'
_cell_volume   1043.99586071
_cell_formula_units_Z   1
loop_
 _symmetry_equiv_pos_site_id
 _symmetry_equiv_pos_as_xyz
  1  'x, y, z'
loop_
 _atom_site_type_symbol
 _atom_site_label
 _atom_site_symmetry_multiplicity
 _atom_site_fract_x
 _atom_site_fract_y
 _atom_site_fract_z
 _atom_site_occupancy
  La  La0  1  0.987064  0.820302  0.096521  1
  La  La1  1  0.486061  0.675715  0.094280  1
  La  La2  1  0.985143  0.821924  0.405147  1
  La  La3  1  0.513615  0.322200  0.594633  1
  La  La4  1  0.011922  0.178433  0.904444  1
  Ho  Ho5  1  0.358530  0.835386  0.875229  1
  Ho  Ho6  1  0.861109  0.662955  0.622508  1
  Ho  Ho7  1  0.638716  0.162867  0.377972  1
  Ho  Ho8  1  0.140061  0.337274  0.122557  1
  Ho  Ho9  1  0.639499  0.164013  0.124757  1
  Ho  Ho10  1  0.137241  0.336667  0.378772  1
  Ho  Ho11  1  0.362681  0.837599  0.623575  1
  Ho  Ho12  1  0.860033  0.662171  0.876075  1
  Ho  Ho13  1  0.518573  0.321229  0.899784  1
  Ho  Ho14  1  0.019688  0.178902  0.599977  1
  Ho  Ho15  1  0.480890  0.678286  0.402537  1
  Ho  Ho16  1  0.194663  0.501671  0.749257  1
  Ho  Ho17  1  0.693894  0.997704  0.749460  1
  Ho  Ho18  1  0.804804  0.497579  0.251141  1
  Ho  Ho19  1  0.305887  0.003322  0.251791  1
  Sn  Sn20  1  0.309690  0.043594  0.041181  1
  Sn  Sn21  1  0.798105  0.463624  0.456112  1
  Sn  Sn22  1  0.701401  0.964043  0.544714  1
  Sn  Sn23  1  0.201500  0.535670  0.954744  1
  Sn  Sn24  1  0.688686  0.961036  0.957357  1
  Sn  Sn25  1  0.197939  0.543459  0.540781  1
  Sn  Sn26  1  0.301447  0.041484  0.460346  1
  Sn  Sn27  1  0.800656  0.453904  0.039445  1
  Sn  Sn28  1  0.559755  0.622118  0.750115  1
  Sn  Sn29  1  0.058382  0.876512  0.748906  1
  Sn  Sn30  1  0.440129  0.376491  0.251585  1
  Sn  Sn31  1  0.941203  0.125683  0.249919  1
  Sn  Sn32  1  0.324589  0.144832  0.751500  1
  Sn  Sn33  1  0.825080  0.355685  0.747907  1
  Sn  Sn34  1  0.671416  0.854694  0.253251  1
  Sn  Sn35  1  0.179949  0.640970  0.251719  1
