# generated using pymatgen
data_BaNi9Sb2P3
_symmetry_space_group_name_H-M   'P 1'
_cell_length_a   6.84095600
_cell_length_b   6.84098839
_cell_length_c   11.32636800
_cell_angle_alpha   90.00000000
_cell_angle_beta   90.00000000
_cell_angle_gamma   120.00011278
_symmetry_Int_Tables_number   1
_chemical_formula_structural   BaNi9Sb2P3
_chemical_formula_sum   'Ba2 Ni18 Sb4 P6'
_cell_volume   459.04626341
_cell_formula_units_Z   2
loop_
 _symmetry_equiv_pos_site_id
 _symmetry_equiv_pos_as_xyz
  1  'x, y, z'
loop_
 _atom_site_type_symbol
 _atom_site_label
 _atom_site_symmetry_multiplicity
 _atom_site_fract_x
 _atom_site_fract_y
 _atom_site_fract_z
 _atom_site_occupancy
  Ba  Ba0  1  0.000000  0.000000  0.500000  1
  Ba  Ba1  1  0.000000  0.000000  0.000000  1
  Ni  Ni2  1  0.458846  0.917693  0.874754  1
  Ni  Ni3  1  0.917694  0.458846  0.125245  1
  Ni  Ni4  1  0.541154  0.082307  0.125246  1
  Ni  Ni5  1  0.082306  0.541154  0.625245  1
  Ni  Ni6  1  0.193784  0.387567  0.250000  1
  Ni  Ni7  1  0.806216  0.193784  0.750000  1
  Ni  Ni8  1  0.387567  0.193785  0.750000  1
  Ni  Ni9  1  0.612433  0.806215  0.250000  1
  Ni  Ni10  1  0.193784  0.806216  0.250000  1
  Ni  Ni11  1  0.806216  0.612433  0.750000  1
  Ni  Ni12  1  0.458846  0.917693  0.625246  1
  Ni  Ni13  1  0.541153  0.458847  0.374755  1
  Ni  Ni14  1  0.917694  0.458846  0.374755  1
  Ni  Ni15  1  0.082306  0.541154  0.874755  1
  Ni  Ni16  1  0.458847  0.541153  0.874755  1
  Ni  Ni17  1  0.541154  0.082307  0.374754  1
  Ni  Ni18  1  0.541153  0.458847  0.125245  1
  Ni  Ni19  1  0.458847  0.541153  0.625245  1
  Sb  Sb20  1  0.333333  0.666666  0.438873  1
  Sb  Sb21  1  0.666667  0.333334  0.938873  1
  Sb  Sb22  1  0.666667  0.333334  0.561127  1
  Sb  Sb23  1  0.333333  0.666666  0.061127  1
  P  P24  1  0.170218  0.340434  0.750000  1
  P  P25  1  0.829784  0.170216  0.250000  1
  P  P26  1  0.170216  0.829784  0.750000  1
  P  P27  1  0.829782  0.659566  0.250000  1
  P  P28  1  0.340436  0.170218  0.250000  1
  P  P29  1  0.659564  0.829782  0.750000  1
