# generated using pymatgen
data_ErSc2Al3SiPd2
_symmetry_space_group_name_H-M   'P 1'
_cell_length_a   6.85580735
_cell_length_b   6.86346818
_cell_length_c   4.05478700
_cell_angle_alpha   90.00000000
_cell_angle_beta   90.00000000
_cell_angle_gamma   120.45954934
_symmetry_Int_Tables_number   1
_chemical_formula_structural   ErSc2Al3SiPd2
_chemical_formula_sum   'Er1 Sc2 Al3 Si1 Pd2'
_cell_volume   164.46410490
_cell_formula_units_Z   1
loop_
 _symmetry_equiv_pos_site_id
 _symmetry_equiv_pos_as_xyz
  1  'x, y, z'
loop_
 _atom_site_type_symbol
 _atom_site_label
 _atom_site_symmetry_multiplicity
 _atom_site_fract_x
 _atom_site_fract_y
 _atom_site_fract_z
 _atom_site_occupancy
  Er  Er0  1  0.580031  0.577663  0.500000  1
  Sc  Sc1  1  0.418044  0.999399  0.500000  1
  Sc  Sc2  1  0.998140  0.418999  0.500000  1
  Al  Al3  1  0.760202  0.010282  0.000000  1
  Al  Al4  1  0.995448  0.752626  0.000000  1
  Al  Al5  1  0.245506  0.237176  0.000000  1
  Si  Si6  1  0.327875  0.668883  0.000000  1
  Pd  Pd7  1  0.668123  0.328664  0.000000  1
  Pd  Pd8  1  0.006629  0.006311  0.500000  1
