# generated using pymatgen
data_ErRhF7
_symmetry_space_group_name_H-M   'P 1'
_cell_length_a   5.48998100
_cell_length_b   8.78859048
_cell_length_c   11.87404453
_cell_angle_alpha   62.64541727
_cell_angle_beta   90.00000000
_cell_angle_gamma   90.00000000
_symmetry_Int_Tables_number   1
_chemical_formula_structural   ErRhF7
_chemical_formula_sum   'Er4 Rh4 F28'
_cell_volume   508.84988708
_cell_formula_units_Z   4
loop_
 _symmetry_equiv_pos_site_id
 _symmetry_equiv_pos_as_xyz
  1  'x, y, z'
loop_
 _atom_site_type_symbol
 _atom_site_label
 _atom_site_symmetry_multiplicity
 _atom_site_fract_x
 _atom_site_fract_y
 _atom_site_fract_z
 _atom_site_occupancy
  Er  Er0  1  0.760796  0.813154  0.765074  1
  Er  Er1  1  0.260796  0.186846  0.734926  1
  Er  Er2  1  0.239204  0.186846  0.234926  1
  Er  Er3  1  0.739204  0.813154  0.265074  1
  Rh  Rh4  1  0.758599  0.272822  0.956510  1
  Rh  Rh5  1  0.258599  0.727178  0.543490  1
  Rh  Rh6  1  0.241401  0.727178  0.043490  1
  Rh  Rh7  1  0.741401  0.272822  0.456510  1
  F  F8  1  0.436056  0.703126  0.915536  1
  F  F9  1  0.936056  0.296874  0.584464  1
  F  F10  1  0.563944  0.296874  0.084464  1
  F  F11  1  0.063944  0.703126  0.415536  1
  F  F12  1  0.438339  0.276614  0.542768  1
  F  F13  1  0.938339  0.723386  0.957232  1
  F  F14  1  0.561661  0.723386  0.457232  1
  F  F15  1  0.061661  0.276614  0.042768  1
  F  F16  1  0.777058  0.520293  0.859398  1
  F  F17  1  0.277058  0.479707  0.640602  1
  F  F18  1  0.222942  0.479707  0.140602  1
  F  F19  1  0.722942  0.520293  0.359398  1
  F  F20  1  0.753862  0.025583  0.049285  1
  F  F21  1  0.253862  0.974417  0.450715  1
  F  F22  1  0.246138  0.974417  0.950715  1
  F  F23  1  0.746138  0.025583  0.549285  1
  F  F24  1  0.964890  0.724548  0.636803  1
  F  F25  1  0.464890  0.275452  0.863197  1
  F  F26  1  0.035110  0.275452  0.363197  1
  F  F27  1  0.535110  0.724548  0.136803  1
  F  F28  1  0.051527  0.746265  0.175776  1
  F  F29  1  0.551527  0.253735  0.324224  1
  F  F30  1  0.948473  0.253735  0.824224  1
  F  F31  1  0.448473  0.746265  0.675776  1
  F  F32  1  0.414826  0.969784  0.232049  1
  F  F33  1  0.914826  0.030216  0.267951  1
  F  F34  1  0.585174  0.030216  0.767951  1
  F  F35  1  0.085174  0.969784  0.732049  1
