# generated using pymatgen
data_Er3Tm2Co(P2Ru3)6
_symmetry_space_group_name_H-M   'P 1'
_cell_length_a   12.46587100
_cell_length_b   12.46587041
_cell_length_c   3.96227600
_cell_angle_alpha   90.00000000
_cell_angle_beta   90.00000000
_cell_angle_gamma   120.00000421
_symmetry_Int_Tables_number   1
_chemical_formula_structural   Er3Tm2Co(P2Ru3)6
_chemical_formula_sum   'Er3 Tm2 Co1 P12 Ru18'
_cell_volume   533.23736475
_cell_formula_units_Z   1
loop_
 _symmetry_equiv_pos_site_id
 _symmetry_equiv_pos_as_xyz
  1  'x, y, z'
loop_
 _atom_site_type_symbol
 _atom_site_label
 _atom_site_symmetry_multiplicity
 _atom_site_fract_x
 _atom_site_fract_y
 _atom_site_fract_z
 _atom_site_occupancy
  Er  Er0  1  0.182519  0.182519  0.500000  1
  Er  Er1  1  0.817481  0.000000  0.500000  1
  Er  Er2  1  0.000000  0.817481  0.500000  1
  Tm  Tm3  1  0.666667  0.333333  0.000000  1
  Tm  Tm4  1  0.333333  0.666667  0.000000  1
  Co  Co5  1  0.000000  0.000000  0.000000  1
  P  P6  1  0.372371  0.372371  0.000000  1
  P  P7  1  0.627629  0.000000  0.000000  1
  P  P8  1  0.000000  0.627629  0.000000  1
  P  P9  1  0.830547  0.307031  0.500000  1
  P  P10  1  0.692969  0.523517  0.500000  1
  P  P11  1  0.476483  0.169453  0.500000  1
  P  P12  1  0.307031  0.830547  0.500000  1
  P  P13  1  0.523517  0.692969  0.500000  1
  P  P14  1  0.169453  0.476483  0.500000  1
  P  P15  1  0.823662  0.823662  0.000000  1
  P  P16  1  0.176338  0.000000  0.000000  1
  P  P17  1  0.000000  0.176338  0.000000  1
  Ru  Ru18  1  0.815936  0.190522  0.000000  1
  Ru  Ru19  1  0.809478  0.625414  0.000000  1
  Ru  Ru20  1  0.374586  0.184064  0.000000  1
  Ru  Ru21  1  0.190522  0.815936  0.000000  1
  Ru  Ru22  1  0.625414  0.809478  0.000000  1
  Ru  Ru23  1  0.184064  0.374586  0.000000  1
  Ru  Ru24  1  0.556028  0.556028  0.000000  1
  Ru  Ru25  1  0.443972  0.000000  0.000000  1
  Ru  Ru26  1  0.000000  0.443972  0.000000  1
  Ru  Ru27  1  0.635013  0.126744  0.500000  1
  Ru  Ru28  1  0.873256  0.508270  0.500000  1
  Ru  Ru29  1  0.491730  0.364987  0.500000  1
  Ru  Ru30  1  0.126744  0.635013  0.500000  1
  Ru  Ru31  1  0.508270  0.873256  0.500000  1
  Ru  Ru32  1  0.364987  0.491730  0.500000  1
  Ru  Ru33  1  0.721398  0.721398  0.500000  1
  Ru  Ru34  1  0.278602  0.000000  0.500000  1
  Ru  Ru35  1  0.000000  0.278602  0.500000  1
