# generated using pymatgen
data_Tb2Fe8Ni4P7
_symmetry_space_group_name_H-M   'P 1'
_cell_length_a   9.05959236
_cell_length_b   9.05202531
_cell_length_c   3.64665200
_cell_angle_alpha   90.00000000
_cell_angle_beta   90.00000000
_cell_angle_gamma   120.21486692
_symmetry_Int_Tables_number   1
_chemical_formula_structural   Tb2Fe8Ni4P7
_chemical_formula_sum   'Tb2 Fe8 Ni4 P7'
_cell_volume   258.42527191
_cell_formula_units_Z   1
loop_
 _symmetry_equiv_pos_site_id
 _symmetry_equiv_pos_as_xyz
  1  'x, y, z'
loop_
 _atom_site_type_symbol
 _atom_site_label
 _atom_site_symmetry_multiplicity
 _atom_site_fract_x
 _atom_site_fract_y
 _atom_site_fract_z
 _atom_site_occupancy
  Tb  Tb0  1  0.334345  0.665688  0.000000  1
  Tb  Tb1  1  0.998294  0.000539  0.500000  1
  Fe  Fe2  1  0.943640  0.492096  0.000000  1
  Fe  Fe3  1  0.511945  0.449568  0.000000  1
  Fe  Fe4  1  0.548290  0.061420  0.000000  1
  Fe  Fe5  1  0.279086  0.378814  0.500000  1
  Fe  Fe6  1  0.618048  0.898281  0.500000  1
  Fe  Fe7  1  0.763302  0.554106  0.500000  1
  Fe  Fe8  1  0.453081  0.215030  0.500000  1
  Fe  Fe9  1  0.788146  0.237509  0.500000  1
  Ni  Ni10  1  0.725935  0.762607  0.000000  1
  Ni  Ni11  1  0.233690  0.963273  0.000000  1
  Ni  Ni12  1  0.032571  0.269231  0.000000  1
  Ni  Ni13  1  0.104557  0.722250  0.500000  1
  P  P14  1  0.959884  0.738890  0.000000  1
  P  P15  1  0.259039  0.225671  0.000000  1
  P  P16  1  0.771625  0.031970  0.000000  1
  P  P17  1  0.067789  0.445012  0.500000  1
  P  P18  1  0.547370  0.615677  0.500000  1
  P  P19  1  0.389144  0.936693  0.500000  1
  P  P20  1  0.670220  0.335674  0.000000  1
