# generated using pymatgen
data_DyZr3(Ga3Rh)6
_symmetry_space_group_name_H-M   'P 1'
_cell_length_a   7.49473300
_cell_length_b   7.48829043
_cell_length_c   9.40837500
_cell_angle_alpha   90.00000000
_cell_angle_beta   90.00000000
_cell_angle_gamma   120.09846067
_symmetry_Int_Tables_number   1
_chemical_formula_structural   DyZr3(Ga3Rh)6
_chemical_formula_sum   'Dy1 Zr3 Ga18 Rh6'
_cell_volume   456.82762017
_cell_formula_units_Z   1
loop_
 _symmetry_equiv_pos_site_id
 _symmetry_equiv_pos_as_xyz
  1  'x, y, z'
loop_
 _atom_site_type_symbol
 _atom_site_label
 _atom_site_symmetry_multiplicity
 _atom_site_fract_x
 _atom_site_fract_y
 _atom_site_fract_z
 _atom_site_occupancy
  Dy  Dy0  1  0.330983  0.003772  0.750000  1
  Zr  Zr1  1  0.996189  0.669619  0.250000  1
  Zr  Zr2  1  0.004221  0.331469  0.750000  1
  Zr  Zr3  1  0.669251  0.996200  0.250000  1
  Ga  Ga4  1  0.122176  0.124242  0.250000  1
  Ga  Ga5  1  0.872896  0.875329  0.750000  1
  Ga  Ga6  1  0.995802  0.333741  0.079327  1
  Ga  Ga7  1  0.001188  0.662986  0.922641  1
  Ga  Ga8  1  0.001188  0.662986  0.577359  1
  Ga  Ga9  1  0.333942  0.996459  0.415989  1
  Ga  Ga10  1  0.995802  0.333741  0.420673  1
  Ga  Ga11  1  0.669412  0.003776  0.577655  1
  Ga  Ga12  1  0.669412  0.003776  0.922345  1
  Ga  Ga13  1  0.333942  0.996459  0.084011  1
  Ga  Ga14  1  0.330662  0.333304  0.568635  1
  Ga  Ga15  1  0.669172  0.669260  0.427654  1
  Ga  Ga16  1  0.669172  0.669260  0.072346  1
  Ga  Ga17  1  0.330662  0.333304  0.931365  1
  Ga  Ga18  1  0.335715  0.549808  0.250000  1
  Ga  Ga19  1  0.666667  0.453766  0.750000  1
  Ga  Ga20  1  0.552294  0.337619  0.250000  1
  Ga  Ga21  1  0.449353  0.660622  0.750000  1
  Rh  Rh22  1  0.670678  0.328172  0.000867  1
  Rh  Rh23  1  0.329542  0.672671  0.001722  1
  Rh  Rh24  1  0.329542  0.672671  0.498278  1
  Rh  Rh25  1  0.670678  0.328172  0.499133  1
  Rh  Rh26  1  0.999730  0.998409  0.001338  1
  Rh  Rh27  1  0.999730  0.998409  0.498662  1
