# generated using pymatgen
data_SrNb10SiO19
_symmetry_space_group_name_H-M   'P 1'
_cell_length_a   7.86315900
_cell_length_b   7.86315873
_cell_length_c   14.72364300
_cell_angle_alpha   90.00000000
_cell_angle_beta   90.00000000
_cell_angle_gamma   119.99998852
_symmetry_Int_Tables_number   1
_chemical_formula_structural   SrNb10SiO19
_chemical_formula_sum   'Sr2 Nb20 Si2 O38'
_cell_volume   788.38810064
_cell_formula_units_Z   2
loop_
 _symmetry_equiv_pos_site_id
 _symmetry_equiv_pos_as_xyz
  1  'x, y, z'
loop_
 _atom_site_type_symbol
 _atom_site_label
 _atom_site_symmetry_multiplicity
 _atom_site_fract_x
 _atom_site_fract_y
 _atom_site_fract_z
 _atom_site_occupancy
  Sr  Sr0  1  0.666667  0.333333  0.599128  1
  Sr  Sr1  1  0.333333  0.666667  0.099128  1
  Nb  Nb2  1  0.314096  0.449691  0.500024  1
  Nb  Nb3  1  0.666667  0.333333  0.333358  1
  Nb  Nb4  1  0.524507  0.638071  0.338635  1
  Nb  Nb5  1  0.550309  0.864406  0.500024  1
  Nb  Nb6  1  0.047678  0.228281  0.672745  1
  Nb  Nb7  1  0.886436  0.524507  0.838635  1
  Nb  Nb8  1  0.135594  0.685904  0.500024  1
  Nb  Nb9  1  0.228281  0.180603  0.172745  1
  Nb  Nb10  1  0.361929  0.886436  0.338635  1
  Nb  Nb11  1  0.638071  0.113564  0.838635  1
  Nb  Nb12  1  0.475493  0.361929  0.838635  1
  Nb  Nb13  1  0.819397  0.047678  0.172745  1
  Nb  Nb14  1  0.449691  0.135594  0.000024  1
  Nb  Nb15  1  0.333333  0.666667  0.833358  1
  Nb  Nb16  1  0.113564  0.475493  0.338635  1
  Nb  Nb17  1  0.685904  0.550309  0.000024  1
  Nb  Nb18  1  0.180603  0.952322  0.672745  1
  Nb  Nb19  1  0.771719  0.819397  0.672745  1
  Nb  Nb20  1  0.952322  0.771719  0.172745  1
  Nb  Nb21  1  0.864406  0.314096  0.000024  1
  Si  Si22  1  0.000000  0.000000  0.888798  1
  Si  Si23  1  0.000000  0.000000  0.388798  1
  O  O24  1  0.000000  0.000000  0.275313  1
  O  O25  1  0.919566  0.771942  0.918793  1
  O  O26  1  0.864302  0.302385  0.751512  1
  O  O27  1  0.771942  0.852376  0.418793  1
  O  O28  1  0.135698  0.697615  0.251512  1
  O  O29  1  0.697615  0.561917  0.751512  1
  O  O30  1  0.547619  0.641048  0.580816  1
  O  O31  1  0.592106  0.099728  0.420579  1
  O  O32  1  0.852376  0.080434  0.918793  1
  O  O33  1  0.492379  0.592106  0.920579  1
  O  O34  1  0.407894  0.900272  0.920579  1
  O  O35  1  0.906571  0.547619  0.080816  1
  O  O36  1  0.263971  0.210106  0.599532  1
  O  O37  1  0.576405  0.840561  0.762398  1
  O  O38  1  0.053865  0.263971  0.099532  1
  O  O39  1  0.093429  0.452381  0.580816  1
  O  O40  1  0.302385  0.438083  0.251512  1
  O  O41  1  0.438083  0.135698  0.751512  1
  O  O42  1  0.900272  0.492379  0.420579  1
  O  O43  1  0.452381  0.358952  0.080816  1
  O  O44  1  0.000000  0.000000  0.775313  1
  O  O45  1  0.946135  0.736029  0.599532  1
  O  O46  1  0.423595  0.159439  0.262398  1
  O  O47  1  0.735844  0.576405  0.262398  1
  O  O48  1  0.789894  0.053865  0.599532  1
  O  O49  1  0.736029  0.789894  0.099532  1
  O  O50  1  0.641048  0.093429  0.080816  1
  O  O51  1  0.358952  0.906571  0.580816  1
  O  O52  1  0.840561  0.264156  0.262398  1
  O  O53  1  0.561917  0.864302  0.251512  1
  O  O54  1  0.159439  0.735844  0.762398  1
  O  O55  1  0.228058  0.147624  0.918793  1
  O  O56  1  0.264156  0.423595  0.762398  1
  O  O57  1  0.099728  0.507621  0.920579  1
  O  O58  1  0.210106  0.946135  0.099532  1
  O  O59  1  0.147624  0.919566  0.418793  1
  O  O60  1  0.080434  0.228058  0.418793  1
  O  O61  1  0.507621  0.407894  0.420579  1
