# generated using pymatgen
data_Li4DyEr3(SiO4)4
_symmetry_space_group_name_H-M   'P 1'
_cell_length_a   6.20110644
_cell_length_b   5.42233921
_cell_length_c   10.88462437
_cell_angle_alpha   66.31682880
_cell_angle_beta   90.07553185
_cell_angle_gamma   90.04846170
_symmetry_Int_Tables_number   1
_chemical_formula_structural   Li4DyEr3(SiO4)4
_chemical_formula_sum   'Li4 Dy1 Er3 Si4 O16'
_cell_volume   335.16630927
_cell_formula_units_Z   1
loop_
 _symmetry_equiv_pos_site_id
 _symmetry_equiv_pos_as_xyz
  1  'x, y, z'
loop_
 _atom_site_type_symbol
 _atom_site_label
 _atom_site_symmetry_multiplicity
 _atom_site_fract_x
 _atom_site_fract_y
 _atom_site_fract_z
 _atom_site_occupancy
  Li  Li0  1  0.134024  0.918786  0.430325  1
  Li  Li1  1  0.634192  0.080861  0.069946  1
  Li  Li2  1  0.865855  0.081538  0.569594  1
  Li  Li3  1  0.366242  0.918579  0.930499  1
  Dy  Dy4  1  0.116588  0.445914  0.847369  1
  Er  Er5  1  0.883491  0.553423  0.152665  1
  Er  Er6  1  0.616369  0.554080  0.651753  1
  Er  Er7  1  0.383884  0.446447  0.347503  1
  Si  Si8  1  0.651716  0.903703  0.359358  1
  Si  Si9  1  0.349360  0.096814  0.639852  1
  Si  Si10  1  0.151904  0.095517  0.141406  1
  Si  Si11  1  0.846844  0.903789  0.859377  1
  O  O12  1  0.856747  0.232260  0.775187  1
  O  O13  1  0.640981  0.232606  0.276032  1
  O  O14  1  0.163578  0.187666  0.522689  1
  O  O15  1  0.835960  0.757978  0.751994  1
  O  O16  1  0.140786  0.766675  0.224492  1
  O  O17  1  0.572364  0.230169  0.553437  1
  O  O18  1  0.662354  0.756599  0.252425  1
  O  O19  1  0.427928  0.771231  0.445395  1
  O  O20  1  0.071274  0.773617  0.945565  1
  O  O21  1  0.663067  0.811928  0.977494  1
  O  O22  1  0.162525  0.243160  0.248042  1
  O  O23  1  0.927698  0.228016  0.055561  1
  O  O24  1  0.337332  0.185541  0.024278  1
  O  O25  1  0.339446  0.242217  0.747335  1
  O  O26  1  0.360843  0.768399  0.723211  1
  O  O27  1  0.836648  0.812490  0.477217  1
