# generated using pymatgen
data_Er12Th4MgCd2AgIr4
_symmetry_space_group_name_H-M   'P 1'
_cell_length_a   9.70756435
_cell_length_b   9.70756465
_cell_length_c   9.70756500
_cell_angle_alpha   59.85821857
_cell_angle_beta   59.85821073
_cell_angle_gamma   59.85822201
_symmetry_Int_Tables_number   1
_chemical_formula_structural   Er12Th4MgCd2AgIr4
_chemical_formula_sum   'Er12 Th4 Mg1 Cd2 Ag1 Ir4'
_cell_volume   644.78706232
_cell_formula_units_Z   1
loop_
 _symmetry_equiv_pos_site_id
 _symmetry_equiv_pos_as_xyz
  1  'x, y, z'
loop_
 _atom_site_type_symbol
 _atom_site_label
 _atom_site_symmetry_multiplicity
 _atom_site_fract_x
 _atom_site_fract_y
 _atom_site_fract_z
 _atom_site_occupancy
  Er  Er0  1  0.061088  0.439430  0.438749  1
  Er  Er1  1  0.436509  0.063809  0.063249  1
  Er  Er2  1  0.439430  0.061088  0.438749  1
  Er  Er3  1  0.063809  0.436509  0.063249  1
  Er  Er4  1  0.438783  0.438783  0.061273  1
  Er  Er5  1  0.063986  0.063986  0.436306  1
  Er  Er6  1  0.186062  0.816178  0.817689  1
  Er  Er7  1  0.815589  0.182000  0.188895  1
  Er  Er8  1  0.816178  0.186062  0.817689  1
  Er  Er9  1  0.182000  0.815589  0.188895  1
  Er  Er10  1  0.816453  0.816453  0.188363  1
  Er  Er11  1  0.184612  0.184612  0.817025  1
  Th  Th12  1  0.600269  0.600269  0.599074  1
  Th  Th13  1  0.600119  0.600119  0.200585  1
  Th  Th14  1  0.600285  0.199333  0.600436  1
  Th  Th15  1  0.199333  0.600285  0.600436  1
  Mg  Mg16  1  0.827197  0.827197  0.824195  1
  Cd  Cd17  1  0.832210  0.500088  0.831593  1
  Cd  Cd18  1  0.500088  0.832210  0.831593  1
  Ag  Ag19  1  0.835481  0.835481  0.491987  1
  Ir  Ir20  1  0.392878  0.392878  0.393014  1
  Ir  Ir21  1  0.393021  0.393021  0.822108  1
  Ir  Ir22  1  0.392270  0.822348  0.392423  1
  Ir  Ir23  1  0.822348  0.392270  0.392423  1
