# generated using pymatgen
data_Sm2Al20TcRh3
_symmetry_space_group_name_H-M   'P 1'
_cell_length_a   6.87873177
_cell_length_b   6.88238825
_cell_length_c   9.20491523
_cell_angle_alpha   90.26778493
_cell_angle_beta   90.26784416
_cell_angle_gamma   97.23063764
_symmetry_Int_Tables_number   1
_chemical_formula_structural   Sm2Al20TcRh3
_chemical_formula_sum   'Sm2 Al20 Tc1 Rh3'
_cell_volume   432.30371395
_cell_formula_units_Z   1
loop_
 _symmetry_equiv_pos_site_id
 _symmetry_equiv_pos_as_xyz
  1  'x, y, z'
loop_
 _atom_site_type_symbol
 _atom_site_label
 _atom_site_symmetry_multiplicity
 _atom_site_fract_x
 _atom_site_fract_y
 _atom_site_fract_z
 _atom_site_occupancy
  Sm  Sm0  1  0.870116  0.125490  0.749931  1
  Sm  Sm1  1  0.129884  0.874510  0.250069  1
  Al  Al2  1  0.620684  0.375812  0.548268  1
  Al  Al3  1  0.379316  0.624188  0.451732  1
  Al  Al4  1  0.378331  0.622260  0.049821  1
  Al  Al5  1  0.621669  0.377740  0.950179  1
  Al  Al6  1  0.224161  0.222644  0.499021  1
  Al  Al7  1  0.775839  0.777356  0.500979  1
  Al  Al8  1  0.775222  0.775457  0.999777  1
  Al  Al9  1  0.224778  0.224543  0.000223  1
  Al  Al10  1  0.843565  0.157807  0.103467  1
  Al  Al11  1  0.156435  0.842193  0.896533  1
  Al  Al12  1  0.157370  0.844139  0.601831  1
  Al  Al13  1  0.842630  0.155861  0.398169  1
  Al  Al14  1  0.857825  0.590641  0.749573  1
  Al  Al15  1  0.142175  0.409359  0.250427  1
  Al  Al16  1  0.410099  0.141700  0.749262  1
  Al  Al17  1  0.589901  0.858300  0.250738  1
  Al  Al18  1  0.224540  0.481435  0.750345  1
  Al  Al19  1  0.775460  0.518565  0.249655  1
  Al  Al20  1  0.518369  0.776727  0.746464  1
  Al  Al21  1  0.481631  0.223273  0.253536  1
  Tc  Tc22  1  0.500000  0.000000  0.500000  1
  Rh  Rh23  1  0.000000  0.500000  0.500000  1
  Rh  Rh24  1  0.000000  0.500000  0.000000  1
  Rh  Rh25  1  0.500000  0.000000  0.000000  1
