# generated using pymatgen
data_Ho4OsBr4
_symmetry_space_group_name_H-M   'P 1'
_cell_length_a   8.95928248
_cell_length_b   8.95928302
_cell_length_c   6.52740052
_cell_angle_alpha   89.65328964
_cell_angle_beta   89.65328185
_cell_angle_gamma   89.39194021
_symmetry_Int_Tables_number   1
_chemical_formula_structural   Ho4OsBr4
_chemical_formula_sum   'Ho8 Os2 Br8'
_cell_volume   523.89777437
_cell_formula_units_Z   2
loop_
 _symmetry_equiv_pos_site_id
 _symmetry_equiv_pos_as_xyz
  1  'x, y, z'
loop_
 _atom_site_type_symbol
 _atom_site_label
 _atom_site_symmetry_multiplicity
 _atom_site_fract_x
 _atom_site_fract_y
 _atom_site_fract_z
 _atom_site_occupancy
  Ho  Ho0  1  0.247803  0.902285  0.010952  1
  Ho  Ho1  1  0.752197  0.097715  0.989048  1
  Ho  Ho2  1  0.097715  0.752197  0.489048  1
  Ho  Ho3  1  0.902285  0.247803  0.510952  1
  Ho  Ho4  1  0.753050  0.903428  0.507093  1
  Ho  Ho5  1  0.246950  0.096572  0.492907  1
  Ho  Ho6  1  0.096572  0.246950  0.992907  1
  Ho  Ho7  1  0.903428  0.753050  0.007093  1
  Os  Os8  1  0.995645  0.004355  0.250000  1
  Os  Os9  1  0.004355  0.995645  0.750000  1
  Br  Br10  1  0.417291  0.818445  0.409175  1
  Br  Br11  1  0.582709  0.181555  0.590825  1
  Br  Br12  1  0.181555  0.582709  0.090825  1
  Br  Br13  1  0.818445  0.417291  0.909175  1
  Br  Br14  1  0.412516  0.189701  0.093608  1
  Br  Br15  1  0.587484  0.810299  0.906392  1
  Br  Br16  1  0.810299  0.587484  0.406392  1
  Br  Br17  1  0.189701  0.412516  0.593608  1
