# generated using pymatgen
data_Er12Fe2Ni3Bi
_symmetry_space_group_name_H-M   'P 1'
_cell_length_a   8.25837755
_cell_length_b   8.25837776
_cell_length_c   8.25837784
_cell_angle_alpha   109.59336294
_cell_angle_beta   110.57849754
_cell_angle_gamma   108.25020336
_symmetry_Int_Tables_number   1
_chemical_formula_structural   Er12Fe2Ni3Bi
_chemical_formula_sum   'Er12 Fe2 Ni3 Bi1'
_cell_volume   433.39305549
_cell_formula_units_Z   1
loop_
 _symmetry_equiv_pos_site_id
 _symmetry_equiv_pos_as_xyz
  1  'x, y, z'
loop_
 _atom_site_type_symbol
 _atom_site_label
 _atom_site_symmetry_multiplicity
 _atom_site_fract_x
 _atom_site_fract_y
 _atom_site_fract_z
 _atom_site_occupancy
  Er  Er0  1  0.288666  0.180886  0.469552  1
  Er  Er1  1  0.711334  0.819114  0.530448  1
  Er  Er2  1  0.288666  0.819114  0.107780  1
  Er  Er3  1  0.711334  0.180886  0.892220  1
  Er  Er4  1  0.622646  0.314955  0.307690  1
  Er  Er5  1  0.377354  0.685045  0.692310  1
  Er  Er6  1  0.007266  0.314955  0.692310  1
  Er  Er7  1  0.992734  0.685045  0.307690  1
  Er  Er8  1  0.211478  0.408137  0.196659  1
  Er  Er9  1  0.788522  0.591863  0.803341  1
  Er  Er10  1  0.211478  0.014819  0.803341  1
  Er  Er11  1  0.788522  0.985181  0.196659  1
  Fe  Fe12  1  0.389767  0.889767  0.500000  1
  Fe  Fe13  1  0.610233  0.110233  0.500000  1
  Ni  Ni14  1  0.000000  0.367794  0.367794  1
  Ni  Ni15  1  0.000000  0.632206  0.632206  1
  Ni  Ni16  1  0.000000  0.000000  0.000000  1
  Bi  Bi17  1  0.500000  0.500000  0.000000  1
