# generated using pymatgen
data_TbHo6CoSn23Ru5
_symmetry_space_group_name_H-M   'P 1'
_cell_length_a   9.82997050
_cell_length_b   9.82996986
_cell_length_c   10.07279414
_cell_angle_alpha   90.00945911
_cell_angle_beta   89.99054314
_cell_angle_gamma   119.97297580
_symmetry_Int_Tables_number   1
_chemical_formula_structural   TbHo6CoSn23Ru5
_chemical_formula_sum   'Tb1 Ho6 Co1 Sn23 Ru5'
_cell_volume   843.14677456
_cell_formula_units_Z   1
loop_
 _symmetry_equiv_pos_site_id
 _symmetry_equiv_pos_as_xyz
  1  'x, y, z'
loop_
 _atom_site_type_symbol
 _atom_site_label
 _atom_site_symmetry_multiplicity
 _atom_site_fract_x
 _atom_site_fract_y
 _atom_site_fract_z
 _atom_site_occupancy
  Tb  Tb0  1  0.003959  0.996041  0.995331  1
  Ho  Ho1  1  0.515629  0.484371  0.696816  1
  Ho  Ho2  1  0.516297  0.032154  0.695986  1
  Ho  Ho3  1  0.967846  0.483703  0.695986  1
  Ho  Ho4  1  0.032941  0.517204  0.304450  1
  Ho  Ho5  1  0.482796  0.967059  0.304450  1
  Ho  Ho6  1  0.482979  0.517021  0.303704  1
  Co  Co7  1  0.829026  0.170974  0.200416  1
  Sn  Sn8  1  0.667777  0.332223  0.181343  1
  Sn  Sn9  1  0.666565  0.333435  0.873957  1
  Sn  Sn10  1  0.332957  0.667043  0.126562  1
  Sn  Sn11  1  0.349138  0.349077  0.000064  1
  Sn  Sn12  1  0.999029  0.648519  0.000303  1
  Sn  Sn13  1  0.654721  0.002493  0.004441  1
  Sn  Sn14  1  0.650923  0.650862  0.000064  1
  Sn  Sn15  1  0.333300  0.666700  0.820632  1
  Sn  Sn16  1  0.439137  0.219739  0.461768  1
  Sn  Sn17  1  0.219964  0.780036  0.539081  1
  Sn  Sn18  1  0.219412  0.439187  0.538646  1
  Sn  Sn19  1  0.560813  0.780588  0.538646  1
  Sn  Sn20  1  0.118978  0.881022  0.272999  1
  Sn  Sn21  1  0.780261  0.560863  0.461768  1
  Sn  Sn22  1  0.782347  0.217653  0.455777  1
  Sn  Sn23  1  0.351481  0.000971  0.000303  1
  Sn  Sn24  1  0.111155  0.233878  0.271707  1
  Sn  Sn25  1  0.766122  0.888845  0.271707  1
  Sn  Sn26  1  0.236440  0.118575  0.725155  1
  Sn  Sn27  1  0.881425  0.763560  0.725155  1
  Sn  Sn28  1  0.881381  0.118619  0.727075  1
  Sn  Sn29  1  0.000287  0.999713  0.498866  1
  Sn  Sn30  1  0.997507  0.345279  0.004441  1
  Ru  Ru31  1  0.169423  0.830577  0.799839  1
  Ru  Ru32  1  0.168476  0.339233  0.799258  1
  Ru  Ru33  1  0.660767  0.831524  0.799258  1
  Ru  Ru34  1  0.338819  0.170078  0.202022  1
  Ru  Ru35  1  0.829922  0.661181  0.202022  1
