# generated using pymatgen
data_PrNd3(HoPt)4
_symmetry_space_group_name_H-M   'P 1'
_cell_length_a   4.81340300
_cell_length_b   7.34573012
_cell_length_c   8.78838000
_cell_angle_alpha   89.98979776
_cell_angle_beta   90.00000000
_cell_angle_gamma   90.00000000
_symmetry_Int_Tables_number   1
_chemical_formula_structural   PrNd3(HoPt)4
_chemical_formula_sum   'Pr1 Nd3 Ho4 Pt4'
_cell_volume   310.73917813
_cell_formula_units_Z   1
loop_
 _symmetry_equiv_pos_site_id
 _symmetry_equiv_pos_as_xyz
  1  'x, y, z'
loop_
 _atom_site_type_symbol
 _atom_site_label
 _atom_site_symmetry_multiplicity
 _atom_site_fract_x
 _atom_site_fract_y
 _atom_site_fract_z
 _atom_site_occupancy
  Pr  Pr0  1  0.250000  0.012793  0.673836  1
  Nd  Nd1  1  0.250000  0.513248  0.827052  1
  Nd  Nd2  1  0.750000  0.986531  0.326016  1
  Nd  Nd3  1  0.750000  0.486467  0.173849  1
  Ho  Ho4  1  0.250000  0.143023  0.078910  1
  Ho  Ho5  1  0.250000  0.643190  0.421128  1
  Ho  Ho6  1  0.750000  0.856753  0.922284  1
  Ho  Ho7  1  0.750000  0.357361  0.578325  1
  Pt  Pt8  1  0.250000  0.255531  0.406663  1
  Pt  Pt9  1  0.250000  0.754835  0.091982  1
  Pt  Pt10  1  0.750000  0.744283  0.591244  1
  Pt  Pt11  1  0.750000  0.245987  0.908712  1
