# generated using pymatgen
data_Tb5Nd2Y(Si3Pd)4
_symmetry_space_group_name_H-M   'P 1'
_cell_length_a   8.20671000
_cell_length_b   8.20497945
_cell_length_c   8.23870500
_cell_angle_alpha   90.00000000
_cell_angle_beta   90.00000000
_cell_angle_gamma   120.00697726
_symmetry_Int_Tables_number   1
_chemical_formula_structural   Tb5Nd2Y(Si3Pd)4
_chemical_formula_sum   'Tb5 Nd2 Y1 Si12 Pd4'
_cell_volume   480.40291096
_cell_formula_units_Z   1
loop_
 _symmetry_equiv_pos_site_id
 _symmetry_equiv_pos_as_xyz
  1  'x, y, z'
loop_
 _atom_site_type_symbol
 _atom_site_label
 _atom_site_symmetry_multiplicity
 _atom_site_fract_x
 _atom_site_fract_y
 _atom_site_fract_z
 _atom_site_occupancy
  Tb  Tb0  1  0.499957  0.500113  0.750000  1
  Tb  Tb1  1  0.500093  0.499923  0.250000  1
  Tb  Tb2  1  0.000156  0.500113  0.750000  1
  Tb  Tb3  1  0.999830  0.499923  0.250000  1
  Tb  Tb4  1  0.499882  0.999763  0.750000  1
  Nd  Nd5  1  0.000000  0.000000  0.750000  1
  Nd  Nd6  1  0.000015  0.000030  0.250000  1
  Y  Y7  1  0.500119  0.000237  0.250000  1
  Si  Si8  1  0.833251  0.166243  0.999348  1
  Si  Si9  1  0.166758  0.833754  0.000079  1
  Si  Si10  1  0.332992  0.166243  0.999348  1
  Si  Si11  1  0.166758  0.833754  0.499921  1
  Si  Si12  1  0.666996  0.833754  0.000079  1
  Si  Si13  1  0.833251  0.166243  0.500652  1
  Si  Si14  1  0.833580  0.667159  0.000189  1
  Si  Si15  1  0.666996  0.833754  0.499921  1
  Si  Si16  1  0.166411  0.332823  0.000769  1
  Si  Si17  1  0.332992  0.166243  0.500652  1
  Si  Si18  1  0.166411  0.332823  0.499231  1
  Si  Si19  1  0.833580  0.667159  0.499811  1
  Pd  Pd20  1  0.666591  0.333182  0.999465  1
  Pd  Pd21  1  0.333395  0.666791  0.999789  1
  Pd  Pd22  1  0.333395  0.666791  0.500211  1
  Pd  Pd23  1  0.666591  0.333182  0.500535  1
