# generated using pymatgen
data_Ho9Er(IrPb3)2
_symmetry_space_group_name_H-M   'P 1'
_cell_length_a   9.17478414
_cell_length_b   9.17478524
_cell_length_c   6.83720000
_cell_angle_alpha   90.00000000
_cell_angle_beta   90.00000000
_cell_angle_gamma   120.02018948
_symmetry_Int_Tables_number   1
_chemical_formula_structural   Ho9Er(IrPb3)2
_chemical_formula_sum   'Ho9 Er1 Ir2 Pb6'
_cell_volume   498.32455595
_cell_formula_units_Z   1
loop_
 _symmetry_equiv_pos_site_id
 _symmetry_equiv_pos_as_xyz
  1  'x, y, z'
loop_
 _atom_site_type_symbol
 _atom_site_label
 _atom_site_symmetry_multiplicity
 _atom_site_fract_x
 _atom_site_fract_y
 _atom_site_fract_z
 _atom_site_occupancy
  Ho  Ho0  1  0.999993  0.764169  0.750000  1
  Ho  Ho1  1  0.235829  0.999985  0.250000  1
  Ho  Ho2  1  0.764169  0.999993  0.750000  1
  Ho  Ho3  1  0.333290  0.666623  0.500022  1
  Ho  Ho4  1  0.999985  0.235829  0.250000  1
  Ho  Ho5  1  0.666623  0.333290  0.500022  1
  Ho  Ho6  1  0.764111  0.764111  0.250000  1
  Ho  Ho7  1  0.333290  0.666623  0.999978  1
  Ho  Ho8  1  0.666623  0.333290  0.999978  1
  Er  Er9  1  0.235615  0.235615  0.750000  1
  Ir  Ir10  1  0.000350  0.000350  0.999659  1
  Ir  Ir11  1  0.000350  0.000350  0.500341  1
  Pb  Pb12  1  0.405338  0.405338  0.250000  1
  Pb  Pb13  1  0.000224  0.405272  0.750000  1
  Pb  Pb14  1  0.000012  0.594588  0.250000  1
  Pb  Pb15  1  0.594588  0.000012  0.250000  1
  Pb  Pb16  1  0.405272  0.000224  0.750000  1
  Pb  Pb17  1  0.594338  0.594338  0.750000  1
