# generated using pymatgen
data_TbDy2Tl(SbO4)4
_symmetry_space_group_name_H-M   'P 1'
_cell_length_a   5.40719518
_cell_length_b   7.73459984
_cell_length_c   7.59426658
_cell_angle_alpha   80.47932942
_cell_angle_beta   91.07223406
_cell_angle_gamma   91.14719811
_symmetry_Int_Tables_number   1
_chemical_formula_structural   TbDy2Tl(SbO4)4
_chemical_formula_sum   'Tb1 Dy2 Tl1 Sb4 O16'
_cell_volume   313.13537738
_cell_formula_units_Z   1
loop_
 _symmetry_equiv_pos_site_id
 _symmetry_equiv_pos_as_xyz
  1  'x, y, z'
loop_
 _atom_site_type_symbol
 _atom_site_label
 _atom_site_symmetry_multiplicity
 _atom_site_fract_x
 _atom_site_fract_y
 _atom_site_fract_z
 _atom_site_occupancy
  Tb  Tb0  1  0.732698  0.859718  0.384541  1
  Dy  Dy1  1  0.218372  0.153151  0.109719  1
  Dy  Dy2  1  0.782772  0.845824  0.891676  1
  Tl  Tl3  1  0.262053  0.142283  0.619473  1
  Sb  Sb4  1  0.238643  0.661654  0.194681  1
  Sb  Sb5  1  0.761016  0.339551  0.804579  1
  Sb  Sb6  1  0.731880  0.336311  0.306310  1
  Sb  Sb7  1  0.266031  0.666481  0.692908  1
  O  O8  1  0.081928  0.439558  0.695305  1
  O  O9  1  0.913673  0.563750  0.306894  1
  O  O10  1  0.614749  0.327823  0.557020  1
  O  O11  1  0.383265  0.675414  0.441266  1
  O  O12  1  0.878768  0.330846  0.061476  1
  O  O13  1  0.124426  0.671793  0.940005  1
  O  O14  1  0.403568  0.431322  0.196190  1
  O  O15  1  0.591140  0.568835  0.806184  1
  O  O16  1  0.038845  0.885312  0.173662  1
  O  O17  1  0.959654  0.115273  0.830508  1
  O  O18  1  0.538857  0.113828  0.304157  1
  O  O19  1  0.478497  0.889777  0.675579  1
  O  O20  1  0.474943  0.185626  0.880759  1
  O  O21  1  0.528849  0.809727  0.120412  1
  O  O22  1  0.012783  0.169206  0.383578  1
  O  O23  1  0.982589  0.816938  0.623119  1
