# generated using pymatgen
data_Cs4Ti2Ag3Te8Au
_symmetry_space_group_name_H-M   'P 1'
_cell_length_a   6.53878800
_cell_length_b   6.61719000
_cell_length_c   15.50349900
_cell_angle_alpha   90.00000000
_cell_angle_beta   90.00000000
_cell_angle_gamma   90.00000000
_symmetry_Int_Tables_number   1
_chemical_formula_structural   Cs4Ti2Ag3Te8Au
_chemical_formula_sum   'Cs4 Ti2 Ag3 Te8 Au1'
_cell_volume   670.81163591
_cell_formula_units_Z   1
loop_
 _symmetry_equiv_pos_site_id
 _symmetry_equiv_pos_as_xyz
  1  'x, y, z'
loop_
 _atom_site_type_symbol
 _atom_site_label
 _atom_site_symmetry_multiplicity
 _atom_site_fract_x
 _atom_site_fract_y
 _atom_site_fract_z
 _atom_site_occupancy
  Cs  Cs0  1  0.758910  0.754794  0.999722  1
  Cs  Cs1  1  0.241090  0.754794  0.500278  1
  Cs  Cs2  1  0.758910  0.245206  0.500278  1
  Cs  Cs3  1  0.241090  0.245206  0.999722  1
  Ti  Ti4  1  0.500000  0.500000  0.250000  1
  Ti  Ti5  1  0.500000  0.500000  0.750000  1
  Ag  Ag6  1  0.500000  0.000000  0.750000  1
  Ag  Ag7  1  0.500000  0.000000  0.250000  1
  Ag  Ag8  1  0.000000  0.500000  0.250000  1
  Te  Te9  1  0.728762  0.271107  0.147257  1
  Te  Te10  1  0.728762  0.728893  0.352743  1
  Te  Te11  1  0.267189  0.271434  0.648082  1
  Te  Te12  1  0.732811  0.728566  0.648082  1
  Te  Te13  1  0.271238  0.271107  0.352743  1
  Te  Te14  1  0.732811  0.271434  0.851918  1
  Te  Te15  1  0.267189  0.728566  0.851918  1
  Te  Te16  1  0.271238  0.728893  0.147257  1
  Au  Au17  1  0.000000  0.500000  0.750000  1
