# generated using pymatgen
data_Tb2Re7Si4Mo
_symmetry_space_group_name_H-M   'P 1'
_cell_length_a   7.15114904
_cell_length_b   7.70059736
_cell_length_c   4.17708200
_cell_angle_alpha   90.00000000
_cell_angle_beta   90.00000000
_cell_angle_gamma   90.11291098
_symmetry_Int_Tables_number   1
_chemical_formula_structural   Tb2Re7Si4Mo
_chemical_formula_sum   'Tb2 Re7 Si4 Mo1'
_cell_volume   230.02360378
_cell_formula_units_Z   1
loop_
 _symmetry_equiv_pos_site_id
 _symmetry_equiv_pos_as_xyz
  1  'x, y, z'
loop_
 _atom_site_type_symbol
 _atom_site_label
 _atom_site_symmetry_multiplicity
 _atom_site_fract_x
 _atom_site_fract_y
 _atom_site_fract_z
 _atom_site_occupancy
  Tb  Tb0  1  0.500733  0.498828  0.000000  1
  Tb  Tb1  1  0.999104  0.999959  0.500000  1
  Re  Re2  1  0.155690  0.604990  0.500000  1
  Re  Re3  1  0.082973  0.340512  0.000000  1
  Re  Re4  1  0.919111  0.657521  0.000000  1
  Re  Re5  1  0.417121  0.840423  0.500000  1
  Re  Re6  1  0.581574  0.163611  0.500000  1
  Re  Re7  1  0.343830  0.107156  0.000000  1
  Re  Re8  1  0.846125  0.393742  0.500000  1
  Si  Si9  1  0.223647  0.806230  0.000000  1
  Si  Si10  1  0.778010  0.195465  0.000000  1
  Si  Si11  1  0.723793  0.692999  0.500000  1
  Si  Si12  1  0.276822  0.305541  0.500000  1
  Mo  Mo13  1  0.651466  0.893025  0.000000  1
