# generated using pymatgen
data_Ce3TaWN6
_symmetry_space_group_name_H-M   'P 1'
_cell_length_a   4.00327110
_cell_length_b   4.00327086
_cell_length_c   10.16096380
_cell_angle_alpha   101.36115326
_cell_angle_beta   101.36115541
_cell_angle_gamma   90.00000736
_symmetry_Int_Tables_number   1
_chemical_formula_structural   Ce3TaWN6
_chemical_formula_sum   'Ce3 Ta1 W1 N6'
_cell_volume   156.39456096
_cell_formula_units_Z   1
loop_
 _symmetry_equiv_pos_site_id
 _symmetry_equiv_pos_as_xyz
  1  'x, y, z'
loop_
 _atom_site_type_symbol
 _atom_site_label
 _atom_site_symmetry_multiplicity
 _atom_site_fract_x
 _atom_site_fract_y
 _atom_site_fract_z
 _atom_site_occupancy
  Ce  Ce0  1  0.998269  0.998269  0.996538  1
  Ce  Ce1  1  0.179034  0.179034  0.358066  1
  Ce  Ce2  1  0.813033  0.813033  0.626065  1
  Ta  Ta3  1  0.400903  0.400903  0.801806  1
  W  W4  1  0.595453  0.595453  0.190906  1
  N  N5  1  0.588080  0.088080  0.176160  1
  N  N6  1  0.088080  0.588080  0.176160  1
  N  N7  1  0.700412  0.700412  0.400824  1
  N  N8  1  0.299373  0.299373  0.598746  1
  N  N9  1  0.918682  0.418682  0.837365  1
  N  N10  1  0.418682  0.918682  0.837365  1
