# generated using pymatgen
data_Sc8In3Co
_symmetry_space_group_name_H-M   'P 1'
_cell_length_a   9.75075135
_cell_length_b   9.74576101
_cell_length_c   6.51273200
_cell_angle_alpha   90.00000000
_cell_angle_beta   90.00000000
_cell_angle_gamma   119.98612290
_symmetry_Int_Tables_number   1
_chemical_formula_structural   Sc8In3Co
_chemical_formula_sum   'Sc16 In6 Co2'
_cell_volume   536.05381440
_cell_formula_units_Z   2
loop_
 _symmetry_equiv_pos_site_id
 _symmetry_equiv_pos_as_xyz
  1  'x, y, z'
loop_
 _atom_site_type_symbol
 _atom_site_label
 _atom_site_symmetry_multiplicity
 _atom_site_fract_x
 _atom_site_fract_y
 _atom_site_fract_z
 _atom_site_occupancy
  Sc  Sc0  1  0.531487  0.062969  0.519653  1
  Sc  Sc1  1  0.937020  0.468512  0.519625  1
  Sc  Sc2  1  0.531491  0.468512  0.519627  1
  Sc  Sc3  1  0.468513  0.937031  0.019653  1
  Sc  Sc4  1  0.062980  0.531488  0.019625  1
  Sc  Sc5  1  0.468509  0.531488  0.019627  1
  Sc  Sc6  1  0.180241  0.360536  0.733936  1
  Sc  Sc7  1  0.639455  0.819751  0.733937  1
  Sc  Sc8  1  0.180253  0.819724  0.733958  1
  Sc  Sc9  1  0.819759  0.639464  0.233936  1
  Sc  Sc10  1  0.360545  0.180249  0.233937  1
  Sc  Sc11  1  0.819747  0.180276  0.233958  1
  Sc  Sc12  1  0.666660  0.333312  0.909764  1
  Sc  Sc13  1  0.333340  0.666688  0.409764  1
  Sc  Sc14  1  0.000004  0.999994  0.510176  1
  Sc  Sc15  1  0.999996  0.000006  0.010176  1
  In  In16  1  0.837109  0.674238  0.766129  1
  In  In17  1  0.325699  0.162844  0.766053  1
  In  In18  1  0.837124  0.162860  0.766118  1
  In  In19  1  0.162891  0.325762  0.266129  1
  In  In20  1  0.674301  0.837156  0.266053  1
  In  In21  1  0.162876  0.837140  0.266118  1
  Co  Co22  1  0.666681  0.333332  0.298864  1
  Co  Co23  1  0.333319  0.666668  0.798864  1
