# generated using pymatgen
data_Tb16Zr4(Ir3Rh)3
_symmetry_space_group_name_H-M   'P 1'
_cell_length_a   10.87981700
_cell_length_b   10.87981700
_cell_length_c   6.29477800
_cell_angle_alpha   90.00000000
_cell_angle_beta   90.00000000
_cell_angle_gamma   90.00000000
_symmetry_Int_Tables_number   1
_chemical_formula_structural   Tb16Zr4(Ir3Rh)3
_chemical_formula_sum   'Tb16 Zr4 Ir9 Rh3'
_cell_volume   745.11550278
_cell_formula_units_Z   1
loop_
 _symmetry_equiv_pos_site_id
 _symmetry_equiv_pos_as_xyz
  1  'x, y, z'
loop_
 _atom_site_type_symbol
 _atom_site_label
 _atom_site_symmetry_multiplicity
 _atom_site_fract_x
 _atom_site_fract_y
 _atom_site_fract_z
 _atom_site_occupancy
  Tb  Tb0  1  0.288727  0.087114  0.375063  1
  Tb  Tb1  1  0.288711  0.912672  0.874967  1
  Tb  Tb2  1  0.711289  0.087328  0.874967  1
  Tb  Tb3  1  0.711273  0.912886  0.375063  1
  Tb  Tb4  1  0.587328  0.788711  0.874967  1
  Tb  Tb5  1  0.587114  0.211273  0.375063  1
  Tb  Tb6  1  0.412886  0.788727  0.375063  1
  Tb  Tb7  1  0.412672  0.211289  0.874967  1
  Tb  Tb8  1  0.210646  0.412756  0.623944  1
  Tb  Tb9  1  0.210924  0.587424  0.125931  1
  Tb  Tb10  1  0.789076  0.412576  0.125931  1
  Tb  Tb11  1  0.789354  0.587244  0.623944  1
  Tb  Tb12  1  0.912576  0.710924  0.125931  1
  Tb  Tb13  1  0.912756  0.289354  0.623944  1
  Tb  Tb14  1  0.087244  0.710646  0.623944  1
  Tb  Tb15  1  0.087424  0.289076  0.125931  1
  Zr  Zr16  1  0.000000  0.000000  0.500057  1
  Zr  Zr17  1  0.000000  0.000000  0.999920  1
  Zr  Zr18  1  0.500000  0.500000  0.999920  1
  Zr  Zr19  1  0.500000  0.500000  0.500057  1
  Ir  Ir20  1  0.854829  0.144156  0.249841  1
  Ir  Ir21  1  0.855066  0.855466  0.749970  1
  Ir  Ir22  1  0.144934  0.144534  0.749970  1
  Ir  Ir23  1  0.145171  0.855844  0.249841  1
  Ir  Ir24  1  0.644534  0.355066  0.749970  1
  Ir  Ir25  1  0.644156  0.645171  0.249841  1
  Ir  Ir26  1  0.355844  0.354829  0.249841  1
  Ir  Ir27  1  0.355466  0.644934  0.749970  1
  Ir  Ir28  1  0.000000  0.500000  0.380451  1
  Rh  Rh29  1  0.500000  0.000000  0.118785  1
  Rh  Rh30  1  0.500000  0.000000  0.619086  1
  Rh  Rh31  1  0.000000  0.500000  0.882856  1
