# generated using pymatgen
data_Ho3(Si2Pd)2
_symmetry_space_group_name_H-M   'P 1'
_cell_length_a   4.23293000
_cell_length_b   12.32994300
_cell_length_c   12.91892400
_cell_angle_alpha   90.00000000
_cell_angle_beta   90.00000000
_cell_angle_gamma   90.00000000
_symmetry_Int_Tables_number   1
_chemical_formula_structural   Ho3(Si2Pd)2
_chemical_formula_sum   'Ho12 Si16 Pd8'
_cell_volume   674.26171189
_cell_formula_units_Z   4
loop_
 _symmetry_equiv_pos_site_id
 _symmetry_equiv_pos_as_xyz
  1  'x, y, z'
loop_
 _atom_site_type_symbol
 _atom_site_label
 _atom_site_symmetry_multiplicity
 _atom_site_fract_x
 _atom_site_fract_y
 _atom_site_fract_z
 _atom_site_occupancy
  Ho  Ho0  1  0.750000  0.981161  0.814881  1
  Ho  Ho1  1  0.250000  0.018839  0.185119  1
  Ho  Ho2  1  0.750000  0.481161  0.685119  1
  Ho  Ho3  1  0.250000  0.518839  0.314881  1
  Ho  Ho4  1  0.750000  0.759394  0.650506  1
  Ho  Ho5  1  0.250000  0.240606  0.349494  1
  Ho  Ho6  1  0.750000  0.259394  0.849494  1
  Ho  Ho7  1  0.250000  0.740606  0.150506  1
  Ho  Ho8  1  0.750000  0.691323  0.917205  1
  Ho  Ho9  1  0.250000  0.308677  0.082795  1
  Ho  Ho10  1  0.750000  0.191323  0.582795  1
  Ho  Ho11  1  0.250000  0.808677  0.417205  1
  Si  Si12  1  0.750000  0.945382  0.530143  1
  Si  Si13  1  0.250000  0.054618  0.469857  1
  Si  Si14  1  0.750000  0.445382  0.969857  1
  Si  Si15  1  0.250000  0.554618  0.030143  1
  Si  Si16  1  0.750000  0.888094  0.068295  1
  Si  Si17  1  0.250000  0.111906  0.931705  1
  Si  Si18  1  0.750000  0.388094  0.431705  1
  Si  Si19  1  0.250000  0.611906  0.568295  1
  Si  Si20  1  0.750000  0.870873  0.256678  1
  Si  Si21  1  0.250000  0.129127  0.743322  1
  Si  Si22  1  0.750000  0.370873  0.243322  1
  Si  Si23  1  0.250000  0.629127  0.756678  1
  Si  Si24  1  0.750000  0.676645  0.296535  1
  Si  Si25  1  0.250000  0.323355  0.703465  1
  Si  Si26  1  0.750000  0.176645  0.203465  1
  Si  Si27  1  0.250000  0.823355  0.796535  1
  Pd  Pd28  1  0.750000  0.544083  0.137355  1
  Pd  Pd29  1  0.250000  0.455917  0.862645  1
  Pd  Pd30  1  0.750000  0.044083  0.362645  1
  Pd  Pd31  1  0.250000  0.955917  0.637355  1
  Pd  Pd32  1  0.750000  0.592874  0.472227  1
  Pd  Pd33  1  0.250000  0.407126  0.527773  1
  Pd  Pd34  1  0.750000  0.092874  0.027773  1
  Pd  Pd35  1  0.250000  0.907126  0.972227  1
