# generated using pymatgen
data_Ca3Yb4PrBi6
_symmetry_space_group_name_H-M   'P 1'
_cell_length_a   8.42545435
_cell_length_b   8.42545472
_cell_length_c   8.35946600
_cell_angle_alpha   109.31264533
_cell_angle_beta   109.31264621
_cell_angle_gamma   109.62933100
_symmetry_Int_Tables_number   1
_chemical_formula_structural   Ca3Yb4PrBi6
_chemical_formula_sum   'Ca3 Yb4 Pr1 Bi6'
_cell_volume   457.70904911
_cell_formula_units_Z   1
loop_
 _symmetry_equiv_pos_site_id
 _symmetry_equiv_pos_as_xyz
  1  'x, y, z'
loop_
 _atom_site_type_symbol
 _atom_site_label
 _atom_site_symmetry_multiplicity
 _atom_site_fract_x
 _atom_site_fract_y
 _atom_site_fract_z
 _atom_site_occupancy
  Ca  Ca0  1  0.999728  0.146089  0.499917  1
  Ca  Ca1  1  0.353911  0.353640  0.353827  1
  Ca  Ca2  1  0.146360  0.500272  0.000187  1
  Yb  Yb3  1  0.500000  0.000000  0.145741  1
  Yb  Yb4  1  0.645576  0.502333  0.002037  1
  Yb  Yb5  1  0.997667  0.643244  0.499704  1
  Yb  Yb6  1  0.856756  0.854424  0.856460  1
  Pr  Pr7  1  0.500000  0.000000  0.642542  1
  Bi  Bi8  1  0.626823  0.749625  0.376200  1
  Bi  Bi9  1  0.750375  0.377200  0.626575  1
  Bi  Bi10  1  0.251450  0.124460  0.874448  1
  Bi  Bi11  1  0.375540  0.626990  0.749988  1
  Bi  Bi12  1  0.122800  0.873177  0.249376  1
  Bi  Bi13  1  0.873010  0.248550  0.122998  1
