# generated using pymatgen
data_Er3Sn3PdRuPt
_symmetry_space_group_name_H-M   'P 1'
_cell_length_a   7.63218000
_cell_length_b   7.63218070
_cell_length_c   3.80601400
_cell_angle_alpha   90.00000000
_cell_angle_beta   90.00000000
_cell_angle_gamma   120.00000562
_symmetry_Int_Tables_number   1
_chemical_formula_structural   Er3Sn3PdRuPt
_chemical_formula_sum   'Er3 Sn3 Pd1 Ru1 Pt1'
_cell_volume   191.99867749
_cell_formula_units_Z   1
loop_
 _symmetry_equiv_pos_site_id
 _symmetry_equiv_pos_as_xyz
  1  'x, y, z'
loop_
 _atom_site_type_symbol
 _atom_site_label
 _atom_site_symmetry_multiplicity
 _atom_site_fract_x
 _atom_site_fract_y
 _atom_site_fract_z
 _atom_site_occupancy
  Er  Er0  1  0.399311  0.403782  0.500000  1
  Er  Er1  1  0.596218  0.995529  0.500000  1
  Er  Er2  1  0.004471  0.600689  0.500000  1
  Sn  Sn3  1  0.740416  0.737930  0.000000  1
  Sn  Sn4  1  0.262070  0.002486  0.000000  1
  Sn  Sn5  1  0.997514  0.259584  0.000000  1
  Pd  Pd6  1  0.666667  0.333333  0.000000  1
  Ru  Ru7  1  0.000000  0.000000  0.500000  1
  Pt  Pt8  1  0.333333  0.666667  0.000000  1
