# generated using pymatgen
data_LiHo8Si16Tc11
_symmetry_space_group_name_H-M   'P 1'
_cell_length_a   6.77816032
_cell_length_b   6.77815985
_cell_length_c   12.71020800
_cell_angle_alpha   89.93533454
_cell_angle_beta   90.06466545
_cell_angle_gamma   90.34034180
_symmetry_Int_Tables_number   1
_chemical_formula_structural   LiHo8Si16Tc11
_chemical_formula_sum   'Li1 Ho8 Si16 Tc11'
_cell_volume   583.93981626
_cell_formula_units_Z   1
loop_
 _symmetry_equiv_pos_site_id
 _symmetry_equiv_pos_as_xyz
  1  'x, y, z'
loop_
 _atom_site_type_symbol
 _atom_site_label
 _atom_site_symmetry_multiplicity
 _atom_site_fract_x
 _atom_site_fract_y
 _atom_site_fract_z
 _atom_site_occupancy
  Li  Li0  1  0.335203  0.335203  0.000000  1
  Ho  Ho1  1  0.338261  0.995256  0.468842  1
  Ho  Ho2  1  0.507781  0.838044  0.718447  1
  Ho  Ho3  1  0.496250  0.163168  0.219981  1
  Ho  Ho4  1  0.838044  0.507781  0.281553  1
  Ho  Ho5  1  0.163168  0.496250  0.780019  1
  Ho  Ho6  1  0.664142  0.006679  0.966986  1
  Ho  Ho7  1  0.995256  0.338261  0.531158  1
  Ho  Ho8  1  0.006679  0.664142  0.033014  1
  Si  Si9  1  0.194033  0.113737  0.686523  1
  Si  Si10  1  0.380524  0.700530  0.935117  1
  Si  Si11  1  0.615437  0.305826  0.435396  1
  Si  Si12  1  0.700530  0.380524  0.064883  1
  Si  Si13  1  0.305826  0.615437  0.564604  1
  Si  Si14  1  0.804953  0.883804  0.183157  1
  Si  Si15  1  0.113737  0.194033  0.313477  1
  Si  Si16  1  0.883804  0.804953  0.816843  1
  Si  Si17  1  0.285007  0.970631  0.065337  1
  Si  Si18  1  0.518864  0.773886  0.311541  1
  Si  Si19  1  0.482251  0.226283  0.807186  1
  Si  Si20  1  0.773886  0.518864  0.688459  1
  Si  Si21  1  0.226283  0.482251  0.192814  1
  Si  Si22  1  0.731741  0.015693  0.559941  1
  Si  Si23  1  0.970631  0.285007  0.934663  1
  Si  Si24  1  0.015693  0.731741  0.440059  1
  Tc  Tc25  1  0.162504  0.833000  0.253487  1
  Tc  Tc26  1  0.833000  0.162504  0.746513  1
  Tc  Tc27  1  0.664822  0.664822  0.500000  1
  Tc  Tc28  1  0.177542  0.993529  0.873999  1
  Tc  Tc29  1  0.513681  0.679244  0.119992  1
  Tc  Tc30  1  0.482810  0.315594  0.617991  1
  Tc  Tc31  1  0.679244  0.513681  0.880008  1
  Tc  Tc32  1  0.315594  0.482810  0.382009  1
  Tc  Tc33  1  0.809476  0.019813  0.366934  1
  Tc  Tc34  1  0.993529  0.177542  0.126001  1
  Tc  Tc35  1  0.019813  0.809476  0.633066  1
