# generated using pymatgen
data_Zr10BeGa3Sb4
_symmetry_space_group_name_H-M   'P 1'
_cell_length_a   8.54602070
_cell_length_b   8.56235713
_cell_length_c   5.80698868
_cell_angle_alpha   89.91265053
_cell_angle_beta   90.04375591
_cell_angle_gamma   120.06325347
_symmetry_Int_Tables_number   1
_chemical_formula_structural   Zr10BeGa3Sb4
_chemical_formula_sum   'Zr10 Be1 Ga3 Sb4'
_cell_volume   367.75723039
_cell_formula_units_Z   1
loop_
 _symmetry_equiv_pos_site_id
 _symmetry_equiv_pos_as_xyz
  1  'x, y, z'
loop_
 _atom_site_type_symbol
 _atom_site_label
 _atom_site_symmetry_multiplicity
 _atom_site_fract_x
 _atom_site_fract_y
 _atom_site_fract_z
 _atom_site_occupancy
  Zr  Zr0  1  0.275620  0.264868  0.739190  1
  Zr  Zr1  1  0.742464  0.743441  0.263897  1
  Zr  Zr2  1  0.724380  0.989249  0.739190  1
  Zr  Zr3  1  0.000000  0.258863  0.260606  1
  Zr  Zr4  1  0.336989  0.669759  0.504773  1
  Zr  Zr5  1  0.663011  0.332769  0.504773  1
  Zr  Zr6  1  0.000000  0.736279  0.737463  1
  Zr  Zr7  1  0.336901  0.669533  0.995008  1
  Zr  Zr8  1  0.257536  0.000977  0.263897  1
  Zr  Zr9  1  0.663099  0.332632  0.995008  1
  Be  Be10  1  0.000000  0.000986  0.518867  1
  Ga  Ga11  1  0.616845  0.614892  0.750212  1
  Ga  Ga12  1  0.383155  0.998047  0.750212  1
  Ga  Ga13  1  0.000000  0.000446  0.984756  1
  Sb  Sb14  1  0.606810  0.000385  0.246938  1
  Sb  Sb15  1  0.393190  0.393576  0.246938  1
  Sb  Sb16  1  0.000000  0.382852  0.751730  1
  Sb  Sb17  1  0.000000  0.610447  0.246541  1
