# generated using pymatgen
data_CaLaHo5FeBr12
_symmetry_space_group_name_H-M   'P 1'
_cell_length_a   9.05634340
_cell_length_b   9.30621034
_cell_length_c   9.32468070
_cell_angle_alpha   106.80182658
_cell_angle_beta   106.13717719
_cell_angle_gamma   107.14832320
_symmetry_Int_Tables_number   1
_chemical_formula_structural   CaLaHo5FeBr12
_chemical_formula_sum   'Ca1 La1 Ho5 Fe1 Br12'
_cell_volume   659.80868941
_cell_formula_units_Z   1
loop_
 _symmetry_equiv_pos_site_id
 _symmetry_equiv_pos_as_xyz
  1  'x, y, z'
loop_
 _atom_site_type_symbol
 _atom_site_label
 _atom_site_symmetry_multiplicity
 _atom_site_fract_x
 _atom_site_fract_y
 _atom_site_fract_z
 _atom_site_occupancy
  Ca  Ca0  1  0.501668  0.499678  0.497929  1
  La  La1  1  0.711267  0.904372  0.978932  1
  Ho  Ho2  1  0.282575  0.095830  0.022546  1
  Ho  Ho3  1  0.021130  0.311576  0.104570  1
  Ho  Ho4  1  0.105988  0.024084  0.310305  1
  Ho  Ho5  1  0.897672  0.976478  0.691796  1
  Ho  Ho6  1  0.974951  0.688294  0.894768  1
  Fe  Fe7  1  0.978798  0.993134  0.000574  1
  Br  Br8  1  0.684362  0.237451  0.077668  1
  Br  Br9  1  0.372343  0.447271  0.152498  1
  Br  Br10  1  0.073513  0.680600  0.214825  1
  Br  Br11  1  0.792646  0.932454  0.337411  1
  Br  Br12  1  0.454283  0.154479  0.366771  1
  Br  Br13  1  0.151745  0.371477  0.452943  1
  Br  Br14  1  0.853777  0.628950  0.548197  1
  Br  Br15  1  0.542981  0.840359  0.608588  1
  Br  Br16  1  0.224688  0.075340  0.690753  1
  Br  Br17  1  0.931984  0.320387  0.785676  1
  Br  Br18  1  0.625962  0.528976  0.832425  1
  Br  Br19  1  0.317667  0.788811  0.930823  1
