# generated using pymatgen
data_Tb5YHo4(CoSb2)2
_symmetry_space_group_name_H-M   'P 1'
_cell_length_a   7.90073600
_cell_length_b   8.77993900
_cell_length_c   12.25285300
_cell_angle_alpha   90.00000000
_cell_angle_beta   90.00000000
_cell_angle_gamma   90.00000000
_symmetry_Int_Tables_number   1
_chemical_formula_structural   Tb5YHo4(CoSb2)2
_chemical_formula_sum   'Tb10 Y2 Ho8 Co4 Sb8'
_cell_volume   849.95566350
_cell_formula_units_Z   2
loop_
 _symmetry_equiv_pos_site_id
 _symmetry_equiv_pos_as_xyz
  1  'x, y, z'
loop_
 _atom_site_type_symbol
 _atom_site_label
 _atom_site_symmetry_multiplicity
 _atom_site_fract_x
 _atom_site_fract_y
 _atom_site_fract_z
 _atom_site_occupancy
  Tb  Tb0  1  0.846403  0.250000  0.797008  1
  Tb  Tb1  1  0.346403  0.750000  0.702992  1
  Tb  Tb2  1  0.454240  0.750000  0.997771  1
  Tb  Tb3  1  0.954240  0.250000  0.502229  1
  Tb  Tb4  1  0.545678  0.250000  0.002112  1
  Tb  Tb5  1  0.045678  0.750000  0.497888  1
  Tb  Tb6  1  0.622116  0.750000  0.306946  1
  Tb  Tb7  1  0.122116  0.250000  0.193054  1
  Tb  Tb8  1  0.377738  0.250000  0.693177  1
  Tb  Tb9  1  0.877738  0.750000  0.806823  1
  Y  Y10  1  0.153837  0.750000  0.203374  1
  Y  Y11  1  0.653837  0.250000  0.296626  1
  Ho  Ho12  1  0.822161  0.964599  0.065083  1
  Ho  Ho13  1  0.322161  0.035401  0.434917  1
  Ho  Ho14  1  0.177784  0.464663  0.934941  1
  Ho  Ho15  1  0.677784  0.535337  0.565059  1
  Ho  Ho16  1  0.177784  0.035337  0.934941  1
  Ho  Ho17  1  0.677784  0.964663  0.565059  1
  Ho  Ho18  1  0.822161  0.535401  0.065083  1
  Ho  Ho19  1  0.322161  0.464599  0.434917  1
  Co  Co20  1  0.435289  0.750000  0.490811  1
  Co  Co21  1  0.935289  0.250000  0.009189  1
  Co  Co22  1  0.564736  0.250000  0.509627  1
  Co  Co23  1  0.064736  0.750000  0.990373  1
  Sb  Sb24  1  0.928508  0.991987  0.326748  1
  Sb  Sb25  1  0.428508  0.008013  0.173252  1
  Sb  Sb26  1  0.071529  0.492030  0.673126  1
  Sb  Sb27  1  0.571529  0.507970  0.826874  1
  Sb  Sb28  1  0.071529  0.007970  0.673126  1
  Sb  Sb29  1  0.571529  0.992030  0.826874  1
  Sb  Sb30  1  0.928508  0.508013  0.326748  1
  Sb  Sb31  1  0.428508  0.491987  0.173252  1
