# generated using pymatgen
data_Ho3Lu3Co2
_symmetry_space_group_name_H-M   'P 1'
_cell_length_a   6.12049505
_cell_length_b   6.86858300
_cell_length_c   9.19074636
_cell_angle_alpha   90.00000000
_cell_angle_beta   90.28433906
_cell_angle_gamma   90.00000000
_symmetry_Int_Tables_number   1
_chemical_formula_structural   Ho3Lu3Co2
_chemical_formula_sum   'Ho6 Lu6 Co4'
_cell_volume   386.36620748
_cell_formula_units_Z   2
loop_
 _symmetry_equiv_pos_site_id
 _symmetry_equiv_pos_as_xyz
  1  'x, y, z'
loop_
 _atom_site_type_symbol
 _atom_site_label
 _atom_site_symmetry_multiplicity
 _atom_site_fract_x
 _atom_site_fract_y
 _atom_site_fract_z
 _atom_site_occupancy
  Ho  Ho0  1  0.322330  0.675284  0.066944  1
  Ho  Ho1  1  0.177670  0.175284  0.433056  1
  Ho  Ho2  1  0.861419  0.540823  0.250961  1
  Ho  Ho3  1  0.638581  0.040823  0.249039  1
  Ho  Ho4  1  0.134570  0.459033  0.749836  1
  Ho  Ho5  1  0.365430  0.959033  0.750164  1
  Lu  Lu6  1  0.675294  0.324908  0.568117  1
  Lu  Lu7  1  0.824706  0.824908  0.931883  1
  Lu  Lu8  1  0.675240  0.324804  0.932711  1
  Lu  Lu9  1  0.824760  0.824804  0.567289  1
  Lu  Lu10  1  0.325740  0.674775  0.434470  1
  Lu  Lu11  1  0.174260  0.174775  0.065530  1
  Co  Co12  1  0.048646  0.887086  0.250406  1
  Co  Co13  1  0.451354  0.387086  0.249594  1
  Co  Co14  1  0.950118  0.113285  0.752925  1
  Co  Co15  1  0.549882  0.613285  0.747075  1
