# generated using pymatgen
data_Dy8In2NiRh
_symmetry_space_group_name_H-M   'P 1'
_cell_length_a   9.63334792
_cell_length_b   9.62061640
_cell_length_c   9.62061597
_cell_angle_alpha   60.24114108
_cell_angle_beta   59.95621125
_cell_angle_gamma   59.95621259
_symmetry_Int_Tables_number   1
_chemical_formula_structural   Dy8In2NiRh
_chemical_formula_sum   'Dy16 In4 Ni2 Rh2'
_cell_volume   631.19628683
_cell_formula_units_Z   2
loop_
 _symmetry_equiv_pos_site_id
 _symmetry_equiv_pos_as_xyz
  1  'x, y, z'
loop_
 _atom_site_type_symbol
 _atom_site_label
 _atom_site_symmetry_multiplicity
 _atom_site_fract_x
 _atom_site_fract_y
 _atom_site_fract_z
 _atom_site_occupancy
  Dy  Dy0  1  0.689708  0.310292  0.310292  1
  Dy  Dy1  1  0.691148  0.687809  0.309187  1
  Dy  Dy2  1  0.311856  0.687809  0.309187  1
  Dy  Dy3  1  0.940199  0.935430  0.561995  1
  Dy  Dy4  1  0.149785  0.152649  0.547781  1
  Dy  Dy5  1  0.562376  0.935430  0.561995  1
  Dy  Dy6  1  0.150127  0.152634  0.152634  1
  Dy  Dy7  1  0.311856  0.309187  0.687809  1
  Dy  Dy8  1  0.938528  0.561472  0.561472  1
  Dy  Dy9  1  0.562376  0.561995  0.935430  1
  Dy  Dy10  1  0.562482  0.937518  0.937518  1
  Dy  Dy11  1  0.940199  0.561995  0.935430  1
  Dy  Dy12  1  0.149785  0.547781  0.152649  1
  Dy  Dy13  1  0.310320  0.689680  0.689680  1
  Dy  Dy14  1  0.691148  0.309187  0.687809  1
  Dy  Dy15  1  0.544604  0.152634  0.152634  1
  In  In16  1  0.917131  0.918317  0.247421  1
  In  In17  1  0.247660  0.917938  0.917938  1
  In  In18  1  0.917131  0.247421  0.918317  1
  In  In19  1  0.916463  0.917938  0.917938  1
  Ni  Ni20  1  0.353945  0.359700  0.359700  1
  Ni  Ni21  1  0.926655  0.359700  0.359700  1
  Rh  Rh22  1  0.357259  0.359005  0.926478  1
  Rh  Rh23  1  0.357259  0.926478  0.359005  1
