# generated using pymatgen
data_Tm2Ni9P7Pd3
_symmetry_space_group_name_H-M   'P 1'
_cell_length_a   9.18806000
_cell_length_b   9.18805795
_cell_length_c   3.74227900
_cell_angle_alpha   90.00000000
_cell_angle_beta   90.00000000
_cell_angle_gamma   120.00000739
_symmetry_Int_Tables_number   1
_chemical_formula_structural   Tm2Ni9P7Pd3
_chemical_formula_sum   'Tm2 Ni9 P7 Pd3'
_cell_volume   273.59887667
_cell_formula_units_Z   1
loop_
 _symmetry_equiv_pos_site_id
 _symmetry_equiv_pos_as_xyz
  1  'x, y, z'
loop_
 _atom_site_type_symbol
 _atom_site_label
 _atom_site_symmetry_multiplicity
 _atom_site_fract_x
 _atom_site_fract_y
 _atom_site_fract_z
 _atom_site_occupancy
  Tm  Tm0  1  0.333333  0.666667  0.000000  1
  Tm  Tm1  1  0.000000  0.000000  0.500000  1
  Ni  Ni2  1  0.280056  0.387752  0.500000  1
  Ni  Ni3  1  0.612248  0.892303  0.500000  1
  Ni  Ni4  1  0.107697  0.719944  0.500000  1
  Ni  Ni5  1  0.508901  0.455560  0.000000  1
  Ni  Ni6  1  0.544440  0.053340  0.000000  1
  Ni  Ni7  1  0.946660  0.491099  0.000000  1
  Ni  Ni8  1  0.731822  0.765554  0.000000  1
  Ni  Ni9  1  0.234446  0.966268  0.000000  1
  Ni  Ni10  1  0.033732  0.268178  0.000000  1
  P  P11  1  0.973950  0.750568  0.000000  1
  P  P12  1  0.249432  0.223382  0.000000  1
  P  P13  1  0.776618  0.026050  0.000000  1
  P  P14  1  0.666667  0.333333  0.000000  1
  P  P15  1  0.544518  0.625025  0.500000  1
  P  P16  1  0.374975  0.919492  0.500000  1
  P  P17  1  0.080508  0.455482  0.500000  1
  Pd  Pd18  1  0.767269  0.559318  0.500000  1
  Pd  Pd19  1  0.440682  0.207952  0.500000  1
  Pd  Pd20  1  0.792048  0.232731  0.500000  1
