# generated using pymatgen
data_Dy15Lu(InNi)4
_symmetry_space_group_name_H-M   'P 1'
_cell_length_a   9.58118643
_cell_length_b   9.56269817
_cell_length_c   9.56269798
_cell_angle_alpha   59.97809180
_cell_angle_beta   59.93602220
_cell_angle_gamma   59.93602254
_symmetry_Int_Tables_number   1
_chemical_formula_structural   Dy15Lu(InNi)4
_chemical_formula_sum   'Dy15 Lu1 In4 Ni4'
_cell_volume   618.83192766
_cell_formula_units_Z   1
loop_
 _symmetry_equiv_pos_site_id
 _symmetry_equiv_pos_as_xyz
  1  'x, y, z'
loop_
 _atom_site_type_symbol
 _atom_site_label
 _atom_site_symmetry_multiplicity
 _atom_site_fract_x
 _atom_site_fract_y
 _atom_site_fract_z
 _atom_site_occupancy
  Dy  Dy0  1  0.688604  0.686273  0.311095  1
  Dy  Dy1  1  0.314027  0.686273  0.311095  1
  Dy  Dy2  1  0.936864  0.937606  0.562256  1
  Dy  Dy3  1  0.150914  0.154370  0.543801  1
  Dy  Dy4  1  0.563273  0.937606  0.562256  1
  Dy  Dy5  1  0.150575  0.153632  0.153632  1
  Dy  Dy6  1  0.314027  0.311095  0.686273  1
  Dy  Dy7  1  0.936609  0.563391  0.563391  1
  Dy  Dy8  1  0.563273  0.562256  0.937606  1
  Dy  Dy9  1  0.562771  0.937229  0.937229  1
  Dy  Dy10  1  0.936864  0.562256  0.937606  1
  Dy  Dy11  1  0.150914  0.543801  0.154370  1
  Dy  Dy12  1  0.311774  0.688226  0.688226  1
  Dy  Dy13  1  0.688604  0.311095  0.686273  1
  Dy  Dy14  1  0.542162  0.153632  0.153632  1
  Lu  Lu15  1  0.689035  0.310965  0.310965  1
  In  In16  1  0.917994  0.918236  0.245776  1
  In  In17  1  0.247206  0.917836  0.917836  1
  In  In18  1  0.917994  0.245776  0.918236  1
  In  In19  1  0.917120  0.917836  0.917836  1
  Ni  Ni20  1  0.359533  0.357201  0.357201  1
  Ni  Ni21  1  0.926067  0.357201  0.357201  1
  Ni  Ni22  1  0.356898  0.359086  0.927120  1
  Ni  Ni23  1  0.356898  0.927120  0.359086  1
