# generated using pymatgen
data_Hf3Zr2Fe15(CoP3)4
_symmetry_space_group_name_H-M   'P 1'
_cell_length_a   11.75847988
_cell_length_b   11.76278751
_cell_length_c   3.61989200
_cell_angle_alpha   90.00000000
_cell_angle_beta   90.00000000
_cell_angle_gamma   120.03225518
_symmetry_Int_Tables_number   1
_chemical_formula_structural   Hf3Zr2Fe15(CoP3)4
_chemical_formula_sum   'Hf3 Zr2 Fe15 Co4 P12'
_cell_volume   433.45740772
_cell_formula_units_Z   1
loop_
 _symmetry_equiv_pos_site_id
 _symmetry_equiv_pos_as_xyz
  1  'x, y, z'
loop_
 _atom_site_type_symbol
 _atom_site_label
 _atom_site_symmetry_multiplicity
 _atom_site_fract_x
 _atom_site_fract_y
 _atom_site_fract_z
 _atom_site_occupancy
  Hf  Hf0  1  0.333378  0.666713  0.500000  1
  Hf  Hf1  1  0.811238  0.999472  0.000000  1
  Hf  Hf2  1  0.000498  0.811715  0.000000  1
  Zr  Zr3  1  0.666679  0.333397  0.500000  1
  Zr  Zr4  1  0.188296  0.188755  0.000000  1
  Fe  Fe5  1  0.623923  0.802716  0.500000  1
  Fe  Fe6  1  0.197171  0.820807  0.500000  1
  Fe  Fe7  1  0.178665  0.376885  0.500000  1
  Fe  Fe8  1  0.378680  0.182354  0.500000  1
  Fe  Fe9  1  0.804613  0.622183  0.500000  1
  Fe  Fe10  1  0.817203  0.195264  0.500000  1
  Fe  Fe11  1  0.282763  0.000502  0.000000  1
  Fe  Fe12  1  0.998514  0.281765  0.000000  1
  Fe  Fe13  1  0.718287  0.717273  0.000000  1
  Fe  Fe14  1  0.445480  0.002037  0.500000  1
  Fe  Fe15  1  0.997713  0.443374  0.500000  1
  Fe  Fe16  1  0.557145  0.554845  0.500000  1
  Fe  Fe17  1  0.513648  0.873986  0.000000  1
  Fe  Fe18  1  0.126095  0.639526  0.000000  1
  Fe  Fe19  1  0.360781  0.486943  0.000000  1
  Co  Co20  1  0.486865  0.362470  0.000000  1
  Co  Co21  1  0.875640  0.513490  0.000000  1
  Co  Co22  1  0.637682  0.124326  0.000000  1
  Co  Co23  1  0.999270  0.999291  0.500000  1
  P  P24  1  0.179676  0.000117  0.500000  1
  P  P25  1  0.998213  0.178675  0.500000  1
  P  P26  1  0.820915  0.819906  0.500000  1
  P  P27  1  0.519572  0.687522  0.000000  1
  P  P28  1  0.312833  0.832008  0.000000  1
  P  P29  1  0.167800  0.480638  0.000000  1
  P  P30  1  0.479087  0.167348  0.000000  1
  P  P31  1  0.688386  0.521033  0.000000  1
  P  P32  1  0.832406  0.311761  0.000000  1
  P  P33  1  0.632437  0.997109  0.500000  1
  P  P34  1  0.002719  0.635259  0.500000  1
  P  P35  1  0.365723  0.368536  0.500000  1
