# generated using pymatgen
data_Lu16Al4OsRh3
_symmetry_space_group_name_H-M   'P 1'
_cell_length_a   9.35650602
_cell_length_b   9.35650686
_cell_length_c   9.35650732
_cell_angle_alpha   59.71548398
_cell_angle_beta   59.71548145
_cell_angle_gamma   59.71547681
_symmetry_Int_Tables_number   1
_chemical_formula_structural   Lu16Al4OsRh3
_chemical_formula_sum   'Lu16 Al4 Os1 Rh3'
_cell_volume   575.45397796
_cell_formula_units_Z   1
loop_
 _symmetry_equiv_pos_site_id
 _symmetry_equiv_pos_as_xyz
  1  'x, y, z'
loop_
 _atom_site_type_symbol
 _atom_site_label
 _atom_site_symmetry_multiplicity
 _atom_site_fract_x
 _atom_site_fract_y
 _atom_site_fract_z
 _atom_site_occupancy
  Lu  Lu0  1  0.603167  0.603167  0.603167  1
  Lu  Lu1  1  0.601744  0.601744  0.193920  1
  Lu  Lu2  1  0.601744  0.193920  0.601744  1
  Lu  Lu3  1  0.193920  0.601744  0.601744  1
  Lu  Lu4  1  0.055996  0.444687  0.444687  1
  Lu  Lu5  1  0.444299  0.054956  0.054956  1
  Lu  Lu6  1  0.444687  0.055996  0.444687  1
  Lu  Lu7  1  0.054956  0.444299  0.054956  1
  Lu  Lu8  1  0.444687  0.444687  0.055996  1
  Lu  Lu9  1  0.054956  0.054956  0.444299  1
  Lu  Lu10  1  0.186785  0.812889  0.812889  1
  Lu  Lu11  1  0.806426  0.189754  0.189754  1
  Lu  Lu12  1  0.812889  0.186785  0.812889  1
  Lu  Lu13  1  0.189754  0.806426  0.189754  1
  Lu  Lu14  1  0.812889  0.812889  0.186785  1
  Lu  Lu15  1  0.189754  0.189754  0.806426  1
  Al  Al16  1  0.828604  0.828604  0.828604  1
  Al  Al17  1  0.828739  0.828739  0.514023  1
  Al  Al18  1  0.828739  0.514023  0.828739  1
  Al  Al19  1  0.514023  0.828739  0.828739  1
  Os  Os20  1  0.391383  0.391383  0.391383  1
  Rh  Rh21  1  0.392107  0.392107  0.825643  1
  Rh  Rh22  1  0.392107  0.825643  0.392107  1
  Rh  Rh23  1  0.825643  0.392107  0.392107  1
