# generated using pymatgen
data_Li22PtRh3
_symmetry_space_group_name_H-M   'P 1'
_cell_length_a   8.14743206
_cell_length_b   8.12388188
_cell_length_c   8.14743225
_cell_angle_alpha   109.41267861
_cell_angle_beta   109.52970027
_cell_angle_gamma   109.41266750
_symmetry_Int_Tables_number   1
_chemical_formula_structural   Li22PtRh3
_chemical_formula_sum   'Li22 Pt1 Rh3'
_cell_volume   415.42873268
_cell_formula_units_Z   1
loop_
 _symmetry_equiv_pos_site_id
 _symmetry_equiv_pos_as_xyz
  1  'x, y, z'
loop_
 _atom_site_type_symbol
 _atom_site_label
 _atom_site_symmetry_multiplicity
 _atom_site_fract_x
 _atom_site_fract_y
 _atom_site_fract_z
 _atom_site_occupancy
  Li  Li0  1  0.000000  0.801042  0.000000  1
  Li  Li1  1  0.800273  0.999823  0.000000  1
  Li  Li2  1  0.000000  0.999823  0.800273  1
  Li  Li3  1  0.199727  0.199551  0.199727  1
  Li  Li4  1  0.352123  0.603860  0.352123  1
  Li  Li5  1  0.252071  0.999992  0.648709  1
  Li  Li6  1  0.648709  0.999992  0.252071  1
  Li  Li7  1  0.252479  0.649249  0.000000  1
  Li  Li8  1  0.747929  0.747921  0.396638  1
  Li  Li9  1  0.396638  0.747921  0.747929  1
  Li  Li10  1  0.000000  0.649249  0.252479  1
  Li  Li11  1  0.000000  0.251737  0.647877  1
  Li  Li12  1  0.647877  0.251737  0.000000  1
  Li  Li13  1  0.351291  0.351283  0.603362  1
  Li  Li14  1  0.603362  0.351283  0.351291  1
  Li  Li15  1  0.747521  0.396771  0.747521  1
  Li  Li16  1  0.340287  0.339628  0.000000  1
  Li  Li17  1  0.000000  0.660838  0.660118  1
  Li  Li18  1  0.000000  0.339628  0.340287  1
  Li  Li19  1  0.339882  0.000720  0.339882  1
  Li  Li20  1  0.659713  0.999341  0.659713  1
  Li  Li21  1  0.660118  0.660838  0.000000  1
  Pt  Pt22  1  0.000000  0.341924  0.000000  1
  Rh  Rh23  1  0.343952  0.999933  0.000000  1
  Rh  Rh24  1  0.000000  0.999933  0.343952  1
  Rh  Rh25  1  0.656048  0.655982  0.656048  1
