# generated using pymatgen
data_Nd11In9(CoCu)2
_symmetry_space_group_name_H-M   'P 1'
_cell_length_a   13.40655393
_cell_length_b   13.47938469
_cell_length_c   3.74367600
_cell_angle_alpha   90.00000000
_cell_angle_beta   90.00000000
_cell_angle_gamma   111.19120600
_symmetry_Int_Tables_number   1
_chemical_formula_structural   Nd11In9(CoCu)2
_chemical_formula_sum   'Nd11 In9 Co2 Cu2'
_cell_volume   630.78027310
_cell_formula_units_Z   1
loop_
 _symmetry_equiv_pos_site_id
 _symmetry_equiv_pos_as_xyz
  1  'x, y, z'
loop_
 _atom_site_type_symbol
 _atom_site_label
 _atom_site_symmetry_multiplicity
 _atom_site_fract_x
 _atom_site_fract_y
 _atom_site_fract_z
 _atom_site_occupancy
  Nd  Nd0  1  0.072920  0.419280  0.000000  1
  Nd  Nd1  1  0.927042  0.580747  0.000000  1
  Nd  Nd2  1  0.419617  0.078150  0.000000  1
  Nd  Nd3  1  0.580290  0.921450  0.000000  1
  Nd  Nd4  1  0.617373  0.364186  0.000000  1
  Nd  Nd5  1  0.382891  0.636008  0.000000  1
  Nd  Nd6  1  0.841119  0.159580  0.000000  1
  Nd  Nd7  1  0.158787  0.840366  0.000000  1
  Nd  Nd8  1  0.000031  0.000010  0.000000  1
  Nd  Nd9  1  0.318554  0.305121  0.000000  1
  Nd  Nd10  1  0.681257  0.694982  0.000000  1
  In  In11  1  0.838236  0.367505  0.500000  1
  In  In12  1  0.161851  0.632431  0.500000  1
  In  In13  1  0.366949  0.837632  0.500000  1
  In  In14  1  0.632911  0.162336  0.500000  1
  In  In15  1  0.078430  0.220443  0.500000  1
  In  In16  1  0.921593  0.779618  0.500000  1
  In  In17  1  0.221330  0.079564  0.500000  1
  In  In18  1  0.778718  0.920586  0.500000  1
  In  In19  1  0.500032  0.499990  0.500000  1
  Co  Co20  1  0.451007  0.242856  0.500000  1
  Co  Co21  1  0.549016  0.756928  0.500000  1
  Cu  Cu22  1  0.252002  0.451256  0.500000  1
  Cu  Cu23  1  0.748043  0.548978  0.500000  1
