# generated using pymatgen
data_Nd15Dy5Si15Os
_symmetry_space_group_name_H-M   'P 1'
_cell_length_a   7.61737941
_cell_length_b   7.95177397
_cell_length_c   15.03670954
_cell_angle_alpha   89.96923364
_cell_angle_beta   89.92791055
_cell_angle_gamma   89.93393924
_symmetry_Int_Tables_number   1
_chemical_formula_structural   Nd15Dy5Si15Os
_chemical_formula_sum   'Nd15 Dy5 Si15 Os1'
_cell_volume   910.79729097
_cell_formula_units_Z   1
loop_
 _symmetry_equiv_pos_site_id
 _symmetry_equiv_pos_as_xyz
  1  'x, y, z'
loop_
 _atom_site_type_symbol
 _atom_site_label
 _atom_site_symmetry_multiplicity
 _atom_site_fract_x
 _atom_site_fract_y
 _atom_site_fract_z
 _atom_site_occupancy
  Nd  Nd0  1  0.464555  0.687462  0.899609  1
  Nd  Nd1  1  0.964791  0.815311  0.901078  1
  Nd  Nd2  1  0.198386  0.675077  0.127251  1
  Nd  Nd3  1  0.681811  0.814513  0.124257  1
  Nd  Nd4  1  0.309895  0.179959  0.876122  1
  Nd  Nd5  1  0.197226  0.674447  0.374369  1
  Nd  Nd6  1  0.034800  0.184924  0.098443  1
  Nd  Nd7  1  0.311160  0.180831  0.623141  1
  Nd  Nd8  1  0.530161  0.322998  0.401065  1
  Nd  Nd9  1  0.809920  0.322282  0.877428  1
  Nd  Nd10  1  0.965176  0.815340  0.598071  1
  Nd  Nd11  1  0.465555  0.687986  0.599119  1
  Nd  Nd12  1  0.033327  0.184357  0.402422  1
  Nd  Nd13  1  0.681943  0.814580  0.376152  1
  Nd  Nd14  1  0.529761  0.323223  0.099357  1
  Dy  Dy15  1  0.142168  0.517527  0.749741  1
  Dy  Dy16  1  0.810316  0.323706  0.623082  1
  Dy  Dy17  1  0.846295  0.485867  0.250131  1
  Dy  Dy18  1  0.363631  0.015875  0.250224  1
  Dy  Dy19  1  0.638964  0.985630  0.749649  1
  Si  Si20  1  0.244562  0.365698  0.250386  1
  Si  Si21  1  0.863301  0.522211  0.460694  1
  Si  Si22  1  0.518399  0.403570  0.747873  1
  Si  Si23  1  0.635594  0.025026  0.957925  1
  Si  Si24  1  0.008346  0.101907  0.747812  1
  Si  Si25  1  0.758778  0.624368  0.748092  1
  Si  Si26  1  0.751134  0.122495  0.250252  1
  Si  Si27  1  0.361555  0.977026  0.459271  1
  Si  Si28  1  0.987618  0.904285  0.250330  1
  Si  Si29  1  0.359442  0.976215  0.040965  1
  Si  Si30  1  0.640229  0.029039  0.542368  1
  Si  Si31  1  0.141273  0.474654  0.959603  1
  Si  Si32  1  0.136273  0.472730  0.542007  1
  Si  Si33  1  0.868096  0.524609  0.041836  1
  Si  Si34  1  0.254573  0.873571  0.749354  1
  Os  Os35  1  0.490989  0.590701  0.250521  1
