# generated using pymatgen
data_RbCaH6Rh
_symmetry_space_group_name_H-M   'P 1'
_cell_length_a   7.82750900
_cell_length_b   7.82750900
_cell_length_c   7.82750900
_cell_angle_alpha   90.00000000
_cell_angle_beta   90.00000000
_cell_angle_gamma   90.00000000
_symmetry_Int_Tables_number   1
_chemical_formula_structural   RbCaH6Rh
_chemical_formula_sum   'Rb4 Ca4 H24 Rh4'
_cell_volume   479.59067133
_cell_formula_units_Z   4
loop_
 _symmetry_equiv_pos_site_id
 _symmetry_equiv_pos_as_xyz
  1  'x, y, z'
loop_
 _atom_site_type_symbol
 _atom_site_label
 _atom_site_symmetry_multiplicity
 _atom_site_fract_x
 _atom_site_fract_y
 _atom_site_fract_z
 _atom_site_occupancy
  Rb  Rb0  1  0.000000  0.000000  0.500000  1
  Rb  Rb1  1  0.000000  0.500000  0.000000  1
  Rb  Rb2  1  0.500000  0.000000  0.000000  1
  Rb  Rb3  1  0.000000  0.000000  0.000000  1
  Ca  Ca4  1  0.500000  0.500000  0.500000  1
  Ca  Ca5  1  0.000000  0.500000  0.500000  1
  Ca  Ca6  1  0.500000  0.000000  0.500000  1
  Ca  Ca7  1  0.500000  0.500000  0.000000  1
  H  H8  1  0.724058  0.724058  0.492855  1
  H  H9  1  0.275942  0.275942  0.492855  1
  H  H10  1  0.065029  0.717811  0.717811  1
  H  H11  1  0.282189  0.934971  0.717811  1
  H  H12  1  0.717811  0.065029  0.717811  1
  H  H13  1  0.934971  0.282189  0.717811  1
  H  H14  1  0.724058  0.492855  0.724058  1
  H  H15  1  0.492855  0.724058  0.724058  1
  H  H16  1  0.507145  0.275942  0.724058  1
  H  H17  1  0.275942  0.507145  0.724058  1
  H  H18  1  0.282189  0.717811  0.934971  1
  H  H19  1  0.717811  0.282189  0.934971  1
  H  H20  1  0.717811  0.717811  0.065029  1
  H  H21  1  0.282189  0.282189  0.065029  1
  H  H22  1  0.275942  0.492855  0.275942  1
  H  H23  1  0.507145  0.724058  0.275942  1
  H  H24  1  0.492855  0.275942  0.275942  1
  H  H25  1  0.724058  0.507145  0.275942  1
  H  H26  1  0.934971  0.717811  0.282189  1
  H  H27  1  0.717811  0.934971  0.282189  1
  H  H28  1  0.282189  0.065029  0.282189  1
  H  H29  1  0.065029  0.282189  0.282189  1
  H  H30  1  0.275942  0.724058  0.507145  1
  H  H31  1  0.724058  0.275942  0.507145  1
  Rh  Rh32  1  0.280118  0.719882  0.719882  1
  Rh  Rh33  1  0.719882  0.280118  0.719882  1
  Rh  Rh34  1  0.719882  0.719882  0.280118  1
  Rh  Rh35  1  0.280118  0.280118  0.280118  1
