# generated using pymatgen
data_Tb2YbPr17Ir12
_symmetry_space_group_name_H-M   'P 1'
_cell_length_a   11.31643400
_cell_length_b   11.31643400
_cell_length_c   6.57213000
_cell_angle_alpha   90.00000000
_cell_angle_beta   90.00000000
_cell_angle_gamma   90.00000000
_symmetry_Int_Tables_number   1
_chemical_formula_structural   Tb2YbPr17Ir12
_chemical_formula_sum   'Tb2 Yb1 Pr17 Ir12'
_cell_volume   841.63799896
_cell_formula_units_Z   1
loop_
 _symmetry_equiv_pos_site_id
 _symmetry_equiv_pos_as_xyz
  1  'x, y, z'
loop_
 _atom_site_type_symbol
 _atom_site_label
 _atom_site_symmetry_multiplicity
 _atom_site_fract_x
 _atom_site_fract_y
 _atom_site_fract_z
 _atom_site_occupancy
  Tb  Tb0  1  0.000000  0.000000  0.500000  1
  Tb  Tb1  1  0.000000  0.000000  0.000000  1
  Yb  Yb2  1  0.500000  0.500000  0.000000  1
  Pr  Pr3  1  0.288273  0.089021  0.383508  1
  Pr  Pr4  1  0.288959  0.912158  0.883009  1
  Pr  Pr5  1  0.711041  0.087842  0.883009  1
  Pr  Pr6  1  0.711727  0.910979  0.383508  1
  Pr  Pr7  1  0.587586  0.787577  0.884314  1
  Pr  Pr8  1  0.588878  0.208925  0.384062  1
  Pr  Pr9  1  0.411122  0.791075  0.384062  1
  Pr  Pr10  1  0.412414  0.212423  0.884314  1
  Pr  Pr11  1  0.208925  0.411122  0.615938  1
  Pr  Pr12  1  0.212423  0.587586  0.115686  1
  Pr  Pr13  1  0.787577  0.412414  0.115686  1
  Pr  Pr14  1  0.791075  0.588878  0.615938  1
  Pr  Pr15  1  0.912158  0.711041  0.116991  1
  Pr  Pr16  1  0.910979  0.288273  0.616492  1
  Pr  Pr17  1  0.089021  0.711727  0.616492  1
  Pr  Pr18  1  0.087842  0.288959  0.116991  1
  Pr  Pr19  1  0.500000  0.500000  0.500000  1
  Ir  Ir20  1  0.851523  0.148655  0.249051  1
  Ir  Ir21  1  0.851345  0.851523  0.750949  1
  Ir  Ir22  1  0.148655  0.148477  0.750949  1
  Ir  Ir23  1  0.148477  0.851345  0.249051  1
  Ir  Ir24  1  0.654883  0.345423  0.748091  1
  Ir  Ir25  1  0.654577  0.654883  0.251909  1
  Ir  Ir26  1  0.345423  0.345117  0.251909  1
  Ir  Ir27  1  0.345117  0.654577  0.748091  1
  Ir  Ir28  1  0.500000  0.000000  0.116370  1
  Ir  Ir29  1  0.500000  0.000000  0.618156  1
  Ir  Ir30  1  0.000000  0.500000  0.883630  1
  Ir  Ir31  1  0.000000  0.500000  0.381844  1
