# generated using pymatgen
data_CsI28
_symmetry_space_group_name_H-M   'P 1'
_cell_length_a   10.67681737
_cell_length_b   14.33344904
_cell_length_c   12.98270300
_cell_angle_alpha   108.44914254
_cell_angle_beta   105.43469067
_cell_angle_gamma   86.57346759
_symmetry_Int_Tables_number   1
_chemical_formula_structural   CsI28
_chemical_formula_sum   'Cs1 I28'
_cell_volume   1816.08072199
_cell_formula_units_Z   1
loop_
 _symmetry_equiv_pos_site_id
 _symmetry_equiv_pos_as_xyz
  1  'x, y, z'
loop_
 _atom_site_type_symbol
 _atom_site_label
 _atom_site_symmetry_multiplicity
 _atom_site_fract_x
 _atom_site_fract_y
 _atom_site_fract_z
 _atom_site_occupancy
  Cs  Cs0  1  0.500000  0.000000  0.000000  1
  I  I1  1  0.131686  0.144693  0.439335  1
  I  I2  1  0.619537  0.148937  0.465376  1
  I  I3  1  0.304155  0.295904  0.851027  1
  I  I4  1  0.780064  0.309355  0.859312  1
  I  I5  1  0.215652  0.513434  0.668617  1
  I  I6  1  0.722958  0.513245  0.693025  1
  I  I7  1  0.380463  0.851063  0.534624  1
  I  I8  1  0.868314  0.855307  0.560665  1
  I  I9  1  0.219936  0.690645  0.140688  1
  I  I10  1  0.695845  0.704096  0.148973  1
  I  I11  1  0.277042  0.486755  0.306975  1
  I  I12  1  0.784348  0.486566  0.331383  1
  I  I13  1  0.835144  0.030822  0.720925  1
  I  I14  1  0.298418  0.000157  0.707632  1
  I  I15  1  0.011041  0.666109  0.951050  1
  I  I16  1  0.482907  0.720311  0.972114  1
  I  I17  1  0.652024  0.312899  0.305986  1
  I  I18  1  0.205603  0.323228  0.351458  1
  I  I19  1  0.701582  0.999843  0.292368  1
  I  I20  1  0.164856  0.969178  0.279075  1
  I  I21  1  0.517093  0.279689  0.027886  1
  I  I22  1  0.988959  0.333891  0.048950  1
  I  I23  1  0.794397  0.676772  0.648542  1
  I  I24  1  0.347976  0.687101  0.694014  1
  I  I25  1  0.085163  0.324102  0.649369  1
  I  I26  1  0.544250  0.301983  0.654074  1
  I  I27  1  0.455750  0.698017  0.345926  1
  I  I28  1  0.914837  0.675898  0.350631  1
