# generated using pymatgen
data_Y6Al24GaOs7
_symmetry_space_group_name_H-M   'P 1'
_cell_length_a   8.86222885
_cell_length_b   8.86222872
_cell_length_c   9.55168816
_cell_angle_alpha   90.13778887
_cell_angle_beta   89.86221269
_cell_angle_gamma   119.83119560
_symmetry_Int_Tables_number   1
_chemical_formula_structural   Y6Al24GaOs7
_chemical_formula_sum   'Y6 Al24 Ga1 Os7'
_cell_volume   650.77554256
_cell_formula_units_Z   1
loop_
 _symmetry_equiv_pos_site_id
 _symmetry_equiv_pos_as_xyz
  1  'x, y, z'
loop_
 _atom_site_type_symbol
 _atom_site_label
 _atom_site_symmetry_multiplicity
 _atom_site_fract_x
 _atom_site_fract_y
 _atom_site_fract_z
 _atom_site_occupancy
  Y  Y0  1  0.191456  0.384809  0.245909  1
  Y  Y1  1  0.808544  0.615191  0.754091  1
  Y  Y2  1  0.615191  0.808544  0.245909  1
  Y  Y3  1  0.384809  0.191456  0.754091  1
  Y  Y4  1  0.194313  0.805687  0.255205  1
  Y  Y5  1  0.805687  0.194313  0.744795  1
  Al  Al6  1  0.327220  0.672780  0.021463  1
  Al  Al7  1  0.672780  0.327220  0.978537  1
  Al  Al8  1  0.665970  0.334030  0.518053  1
  Al  Al9  1  0.334030  0.665970  0.481947  1
  Al  Al10  1  0.162665  0.325821  0.571815  1
  Al  Al11  1  0.837335  0.674179  0.428185  1
  Al  Al12  1  0.674179  0.837335  0.571815  1
  Al  Al13  1  0.852435  0.678615  0.081600  1
  Al  Al14  1  0.325821  0.162665  0.428185  1
  Al  Al15  1  0.147565  0.321385  0.918400  1
  Al  Al16  1  0.163088  0.836912  0.575851  1
  Al  Al17  1  0.321385  0.147565  0.081600  1
  Al  Al18  1  0.836912  0.163088  0.424149  1
  Al  Al19  1  0.678615  0.852435  0.918400  1
  Al  Al20  1  0.836735  0.163265  0.076802  1
  Al  Al21  1  0.163265  0.836735  0.923198  1
  Al  Al22  1  0.561897  0.121296  0.249550  1
  Al  Al23  1  0.438103  0.878704  0.750450  1
  Al  Al24  1  0.878704  0.438103  0.249550  1
  Al  Al25  1  0.121296  0.561897  0.750450  1
  Al  Al26  1  0.565523  0.434477  0.258161  1
  Al  Al27  1  0.434477  0.565523  0.741839  1
  Al  Al28  1  0.998866  0.001134  0.250756  1
  Al  Al29  1  0.001134  0.998866  0.749244  1
  Ga  Ga30  1  0.500000  0.500000  0.000000  1
  Os  Os31  1  0.500000  0.000000  0.000000  1
  Os  Os32  1  0.000000  0.500000  0.000000  1
  Os  Os33  1  0.500000  0.000000  0.500000  1
  Os  Os34  1  0.000000  0.500000  0.500000  1
  Os  Os35  1  0.500000  0.500000  0.500000  1
  Os  Os36  1  0.000000  0.000000  0.000000  1
  Os  Os37  1  0.000000  0.000000  0.500000  1
