# generated using pymatgen
data_TmThB2Ir5
_symmetry_space_group_name_H-M   'P 1'
_cell_length_a   11.07118250
_cell_length_b   11.07118299
_cell_length_c   11.07118393
_cell_angle_alpha   28.81655998
_cell_angle_beta   28.81655586
_cell_angle_gamma   28.81655873
_symmetry_Int_Tables_number   1
_chemical_formula_structural   TmThB2Ir5
_chemical_formula_sum   'Tm2 Th2 B4 Ir10'
_cell_volume   278.78388344
_cell_formula_units_Z   2
loop_
 _symmetry_equiv_pos_site_id
 _symmetry_equiv_pos_as_xyz
  1  'x, y, z'
loop_
 _atom_site_type_symbol
 _atom_site_label
 _atom_site_symmetry_multiplicity
 _atom_site_fract_x
 _atom_site_fract_y
 _atom_site_fract_z
 _atom_site_occupancy
  Tm  Tm0  1  0.846060  0.846060  0.846060  1
  Tm  Tm1  1  0.050675  0.050675  0.050675  1
  Th  Th2  1  0.151712  0.151712  0.151712  1
  Th  Th3  1  0.949327  0.949327  0.949327  1
  B  B4  1  0.617946  0.617946  0.617946  1
  B  B5  1  0.716967  0.716967  0.716967  1
  B  B6  1  0.383040  0.383040  0.383040  1
  B  B7  1  0.283534  0.283534  0.283534  1
  Ir  Ir8  1  0.407188  0.898321  0.407188  1
  Ir  Ir9  1  0.898321  0.407188  0.407188  1
  Ir  Ir10  1  0.500521  0.500521  0.000995  1
  Ir  Ir11  1  0.500521  0.000995  0.500521  1
  Ir  Ir12  1  0.000995  0.500521  0.500521  1
  Ir  Ir13  1  0.500134  0.500134  0.500134  1
  Ir  Ir14  1  0.593366  0.099138  0.593366  1
  Ir  Ir15  1  0.593366  0.593366  0.099138  1
  Ir  Ir16  1  0.099138  0.593366  0.593366  1
  Ir  Ir17  1  0.407188  0.407188  0.898321  1
