# generated using pymatgen
data_LuSb(SeO3)4
_symmetry_space_group_name_H-M   'P 1'
_cell_length_a   8.43981700
_cell_length_b   8.70382029
_cell_length_c   8.51550075
_cell_angle_alpha   90.51448171
_cell_angle_beta   90.00000000
_cell_angle_gamma   90.00000000
_symmetry_Int_Tables_number   1
_chemical_formula_structural   LuSb(SeO3)4
_chemical_formula_sum   'Lu2 Sb2 Se8 O24'
_cell_volume   625.51197484
_cell_formula_units_Z   2
loop_
 _symmetry_equiv_pos_site_id
 _symmetry_equiv_pos_as_xyz
  1  'x, y, z'
loop_
 _atom_site_type_symbol
 _atom_site_label
 _atom_site_symmetry_multiplicity
 _atom_site_fract_x
 _atom_site_fract_y
 _atom_site_fract_z
 _atom_site_occupancy
  Lu  Lu0  1  0.000000  0.500000  0.000000  1
  Lu  Lu1  1  0.500000  0.500000  0.500000  1
  Sb  Sb2  1  0.000000  0.000000  0.500000  1
  Sb  Sb3  1  0.500000  0.000000  0.000000  1
  Se  Se4  1  0.339242  0.687776  0.167238  1
  Se  Se5  1  0.839242  0.312224  0.332762  1
  Se  Se6  1  0.689770  0.840663  0.685035  1
  Se  Se7  1  0.189770  0.159337  0.814965  1
  Se  Se8  1  0.660758  0.312224  0.832762  1
  Se  Se9  1  0.160758  0.687776  0.667238  1
  Se  Se10  1  0.310230  0.159337  0.314965  1
  Se  Se11  1  0.810230  0.840663  0.185035  1
  O  O12  1  0.245195  0.565932  0.042855  1
  O  O13  1  0.745195  0.434068  0.457145  1
  O  O14  1  0.765099  0.978366  0.550202  1
  O  O15  1  0.265099  0.021634  0.949798  1
  O  O16  1  0.547239  0.969243  0.767375  1
  O  O17  1  0.472824  0.573809  0.257168  1
  O  O18  1  0.972824  0.426191  0.242832  1
  O  O19  1  0.047239  0.030757  0.732625  1
  O  O20  1  0.976503  0.225790  0.473999  1
  O  O21  1  0.573556  0.737786  0.565189  1
  O  O22  1  0.476503  0.774210  0.026001  1
  O  O23  1  0.073556  0.262214  0.934811  1
  O  O24  1  0.754805  0.434068  0.957145  1
  O  O25  1  0.254805  0.565932  0.542855  1
  O  O26  1  0.234901  0.021634  0.449798  1
  O  O27  1  0.734901  0.978366  0.050202  1
  O  O28  1  0.452761  0.030757  0.232625  1
  O  O29  1  0.527176  0.426191  0.742832  1
  O  O30  1  0.027176  0.573809  0.757168  1
  O  O31  1  0.952761  0.969243  0.267375  1
  O  O32  1  0.023497  0.774210  0.526001  1
  O  O33  1  0.426444  0.262214  0.434811  1
  O  O34  1  0.523497  0.225790  0.973999  1
  O  O35  1  0.926444  0.737786  0.065189  1
