# generated using pymatgen
data_Dy4Tm4B24Os3W
_symmetry_space_group_name_H-M   'P 1'
_cell_length_a   3.62564700
_cell_length_b   9.14430426
_cell_length_c   11.54485604
_cell_angle_alpha   89.89435558
_cell_angle_beta   90.00000000
_cell_angle_gamma   90.00000000
_symmetry_Int_Tables_number   1
_chemical_formula_structural   Dy4Tm4B24Os3W
_chemical_formula_sum   'Dy4 Tm4 B24 Os3 W1'
_cell_volume   382.75772909
_cell_formula_units_Z   1
loop_
 _symmetry_equiv_pos_site_id
 _symmetry_equiv_pos_as_xyz
  1  'x, y, z'
loop_
 _atom_site_type_symbol
 _atom_site_label
 _atom_site_symmetry_multiplicity
 _atom_site_fract_x
 _atom_site_fract_y
 _atom_site_fract_z
 _atom_site_occupancy
  Dy  Dy0  1  0.000000  0.320672  0.413375  1
  Dy  Dy1  1  0.000000  0.678156  0.585696  1
  Dy  Dy2  1  0.000000  0.820152  0.086676  1
  Dy  Dy3  1  0.000000  0.177473  0.914289  1
  Tm  Tm4  1  0.000000  0.945784  0.373536  1
  Tm  Tm5  1  0.000000  0.057309  0.628137  1
  Tm  Tm6  1  0.000000  0.442880  0.125885  1
  Tm  Tm7  1  0.000000  0.556606  0.871779  1
  B  B8  1  0.500000  0.550121  0.436187  1
  B  B9  1  0.500000  0.445777  0.568787  1
  B  B10  1  0.500000  0.054141  0.067053  1
  B  B11  1  0.500000  0.946207  0.932810  1
  B  B12  1  0.500000  0.752712  0.422120  1
  B  B13  1  0.500000  0.251206  0.581685  1
  B  B14  1  0.500000  0.248956  0.080207  1
  B  B15  1  0.500000  0.750982  0.918662  1
  B  B16  1  0.500000  0.795767  0.264342  1
  B  B17  1  0.500000  0.208461  0.734182  1
  B  B18  1  0.500000  0.290635  0.232149  1
  B  B19  1  0.500000  0.709297  0.766163  1
  B  B20  1  0.500000  0.631426  0.181846  1
  B  B21  1  0.500000  0.368656  0.815185  1
  B  B22  1  0.500000  0.131157  0.314079  1
  B  B23  1  0.500000  0.870000  0.685522  1
  B  B24  1  0.500000  0.983553  0.213111  1
  B  B25  1  0.500000  0.017444  0.787646  1
  B  B26  1  0.500000  0.476984  0.285698  1
  B  B27  1  0.500000  0.516584  0.713725  1
  B  B28  1  0.500000  0.604465  0.027207  1
  B  B29  1  0.500000  0.394534  0.970008  1
  B  B30  1  0.500000  0.105725  0.471595  1
  B  B31  1  0.500000  0.897823  0.530240  1
  Os  Os32  1  0.000000  0.361189  0.680680  1
  Os  Os33  1  0.000000  0.137528  0.178181  1
  Os  Os34  1  0.000000  0.862117  0.820404  1
  W  W35  1  0.000000  0.637521  0.321155  1
