# generated using pymatgen
data_Er16Lu4IrPt11
_symmetry_space_group_name_H-M   'P 1'
_cell_length_a   10.91425100
_cell_length_b   10.91425100
_cell_length_c   6.40190900
_cell_angle_alpha   90.00000000
_cell_angle_beta   90.00000000
_cell_angle_gamma   90.00000000
_symmetry_Int_Tables_number   1
_chemical_formula_structural   Er16Lu4IrPt11
_chemical_formula_sum   'Er16 Lu4 Ir1 Pt11'
_cell_volume   762.60100105
_cell_formula_units_Z   1
loop_
 _symmetry_equiv_pos_site_id
 _symmetry_equiv_pos_as_xyz
  1  'x, y, z'
loop_
 _atom_site_type_symbol
 _atom_site_label
 _atom_site_symmetry_multiplicity
 _atom_site_fract_x
 _atom_site_fract_y
 _atom_site_fract_z
 _atom_site_occupancy
  Er  Er0  1  0.291246  0.087552  0.378011  1
  Er  Er1  1  0.291232  0.912285  0.877700  1
  Er  Er2  1  0.708768  0.087715  0.877700  1
  Er  Er3  1  0.708754  0.912448  0.378011  1
  Er  Er4  1  0.587715  0.791232  0.877700  1
  Er  Er5  1  0.587552  0.208754  0.378011  1
  Er  Er6  1  0.412448  0.791246  0.378011  1
  Er  Er7  1  0.412285  0.208768  0.877700  1
  Er  Er8  1  0.207549  0.412940  0.620540  1
  Er  Er9  1  0.207748  0.587132  0.124211  1
  Er  Er10  1  0.792252  0.412868  0.124211  1
  Er  Er11  1  0.792451  0.587060  0.620540  1
  Er  Er12  1  0.912868  0.707748  0.124211  1
  Er  Er13  1  0.912940  0.292451  0.620540  1
  Er  Er14  1  0.087060  0.707549  0.620540  1
  Er  Er15  1  0.087132  0.292252  0.124211  1
  Lu  Lu16  1  0.000000  0.000000  0.500233  1
  Lu  Lu17  1  0.000000  0.000000  0.999825  1
  Lu  Lu18  1  0.500000  0.500000  0.999825  1
  Lu  Lu19  1  0.500000  0.500000  0.500233  1
  Ir  Ir20  1  0.000000  0.500000  0.379620  1
  Pt  Pt21  1  0.847559  0.152061  0.249777  1
  Pt  Pt22  1  0.847605  0.847936  0.750073  1
  Pt  Pt23  1  0.152395  0.152064  0.750073  1
  Pt  Pt24  1  0.152441  0.847939  0.249777  1
  Pt  Pt25  1  0.652064  0.347605  0.750073  1
  Pt  Pt26  1  0.652061  0.652441  0.249777  1
  Pt  Pt27  1  0.347939  0.347559  0.249777  1
  Pt  Pt28  1  0.347936  0.652395  0.750073  1
  Pt  Pt29  1  0.500000  0.000000  0.119427  1
  Pt  Pt30  1  0.500000  0.000000  0.619650  1
  Pt  Pt31  1  0.000000  0.500000  0.879936  1
