# generated using pymatgen
data_Cs4Fe3CoS8
_symmetry_space_group_name_H-M   'P 1'
_cell_length_a   5.38874153
_cell_length_b   7.19216200
_cell_length_c   12.19669505
_cell_angle_alpha   88.23517008
_cell_angle_beta   83.42428383
_cell_angle_gamma   79.42779132
_symmetry_Int_Tables_number   1
_chemical_formula_structural   Cs4Fe3CoS8
_chemical_formula_sum   'Cs4 Fe3 Co1 S8'
_cell_volume   461.59915167
_cell_formula_units_Z   1
loop_
 _symmetry_equiv_pos_site_id
 _symmetry_equiv_pos_as_xyz
  1  'x, y, z'
loop_
 _atom_site_type_symbol
 _atom_site_label
 _atom_site_symmetry_multiplicity
 _atom_site_fract_x
 _atom_site_fract_y
 _atom_site_fract_z
 _atom_site_occupancy
  Cs  Cs0  1  0.070830  0.029964  0.682110  1
  Cs  Cs1  1  0.575704  0.529174  0.170091  1
  Cs  Cs2  1  0.424875  0.470587  0.829723  1
  Cs  Cs3  1  0.928753  0.970254  0.318013  1
  Fe  Fe4  1  0.253397  0.499728  0.499762  1
  Fe  Fe5  1  0.746532  0.500934  0.500330  1
  Fe  Fe6  1  0.249708  0.000851  0.000365  1
  Co  Co7  1  0.750269  0.998724  0.999605  1
  S  S8  1  0.949677  0.559471  0.632570  1
  S  S9  1  0.450387  0.060432  0.139169  1
  S  S10  1  0.951179  0.236697  0.960083  1
  S  S11  1  0.454541  0.730849  0.463243  1
  S  S12  1  0.549439  0.938062  0.861080  1
  S  S13  1  0.045793  0.441611  0.367443  1
  S  S14  1  0.549330  0.269787  0.536949  1
  S  S15  1  0.049585  0.762872  0.039463  1
