# generated using pymatgen
data_TbHoNiPt
_symmetry_space_group_name_H-M   'P 1'
_cell_length_a   4.36971800
_cell_length_b   5.49101200
_cell_length_c   7.09712200
_cell_angle_alpha   90.00000000
_cell_angle_beta   90.00000000
_cell_angle_gamma   90.00000000
_symmetry_Int_Tables_number   1
_chemical_formula_structural   TbHoNiPt
_chemical_formula_sum   'Tb2 Ho2 Ni2 Pt2'
_cell_volume   170.28957999
_cell_formula_units_Z   2
loop_
 _symmetry_equiv_pos_site_id
 _symmetry_equiv_pos_as_xyz
  1  'x, y, z'
loop_
 _atom_site_type_symbol
 _atom_site_label
 _atom_site_symmetry_multiplicity
 _atom_site_fract_x
 _atom_site_fract_y
 _atom_site_fract_z
 _atom_site_occupancy
  Tb  Tb0  1  0.000000  0.119061  0.678983  1
  Tb  Tb1  1  0.000000  0.880939  0.178983  1
  Ho  Ho2  1  0.500000  0.384102  0.318254  1
  Ho  Ho3  1  0.500000  0.615898  0.818254  1
  Ni  Ni4  1  0.000000  0.607216  0.542730  1
  Ni  Ni5  1  0.000000  0.392784  0.042730  1
  Pt  Pt6  1  0.500000  0.882419  0.460033  1
  Pt  Pt7  1  0.500000  0.117581  0.960033  1
