# generated using pymatgen
data_NdFeCoB2
_symmetry_space_group_name_H-M   'P 1'
_cell_length_a   5.51635987
_cell_length_b   5.51635961
_cell_length_c   5.51635994
_cell_angle_alpha   141.24580591
_cell_angle_beta   141.24580970
_cell_angle_gamma   55.96651811
_symmetry_Int_Tables_number   1
_chemical_formula_structural   NdFeCoB2
_chemical_formula_sum   'Nd1 Fe1 Co1 B2'
_cell_volume   65.27263411
_cell_formula_units_Z   1
loop_
 _symmetry_equiv_pos_site_id
 _symmetry_equiv_pos_as_xyz
  1  'x, y, z'
loop_
 _atom_site_type_symbol
 _atom_site_label
 _atom_site_symmetry_multiplicity
 _atom_site_fract_x
 _atom_site_fract_y
 _atom_site_fract_z
 _atom_site_occupancy
  Nd  Nd0  1  0.000000  0.000000  0.000000  1
  Fe  Fe1  1  0.750000  0.250000  0.500000  1
  Co  Co2  1  0.250000  0.750000  0.500000  1
  B  B3  1  0.669986  0.669986  0.000000  1
  B  B4  1  0.330014  0.330014  0.000000  1
