# generated using pymatgen
data_LiHoCo2Ni2P3
_symmetry_space_group_name_H-M   'P 1'
_cell_length_a   3.71884500
_cell_length_b   10.32572500
_cell_length_c   11.93063100
_cell_angle_alpha   90.00000000
_cell_angle_beta   90.00000000
_cell_angle_gamma   90.00000000
_symmetry_Int_Tables_number   1
_chemical_formula_structural   LiHoCo2Ni2P3
_chemical_formula_sum   'Li4 Ho4 Co8 Ni8 P12'
_cell_volume   458.13349575
_cell_formula_units_Z   4
loop_
 _symmetry_equiv_pos_site_id
 _symmetry_equiv_pos_as_xyz
  1  'x, y, z'
loop_
 _atom_site_type_symbol
 _atom_site_label
 _atom_site_symmetry_multiplicity
 _atom_site_fract_x
 _atom_site_fract_y
 _atom_site_fract_z
 _atom_site_occupancy
  Li  Li0  1  0.250000  0.701067  0.993120  1
  Li  Li1  1  0.250000  0.798933  0.493120  1
  Li  Li2  1  0.750000  0.298933  0.006880  1
  Li  Li3  1  0.750000  0.201067  0.506880  1
  Ho  Ho4  1  0.250000  0.579206  0.705175  1
  Ho  Ho5  1  0.250000  0.920794  0.205175  1
  Ho  Ho6  1  0.750000  0.420794  0.294825  1
  Ho  Ho7  1  0.750000  0.079206  0.794825  1
  Co  Co8  1  0.250000  0.878077  0.700963  1
  Co  Co9  1  0.250000  0.621923  0.200963  1
  Co  Co10  1  0.750000  0.121923  0.299037  1
  Co  Co11  1  0.750000  0.378077  0.799037  1
  Co  Co12  1  0.250000  0.466010  0.931865  1
  Co  Co13  1  0.250000  0.033990  0.431865  1
  Co  Co14  1  0.750000  0.533990  0.068135  1
  Co  Co15  1  0.750000  0.966010  0.568135  1
  Ni  Ni16  1  0.250000  0.406069  0.486534  1
  Ni  Ni17  1  0.250000  0.093931  0.986534  1
  Ni  Ni18  1  0.750000  0.593931  0.513466  1
  Ni  Ni19  1  0.750000  0.906069  0.013466  1
  Ni  Ni20  1  0.250000  0.222515  0.172463  1
  Ni  Ni21  1  0.250000  0.277485  0.672463  1
  Ni  Ni22  1  0.750000  0.777485  0.827537  1
  Ni  Ni23  1  0.750000  0.722515  0.327537  1
  P  P24  1  0.250000  0.428453  0.114175  1
  P  P25  1  0.250000  0.071547  0.614175  1
  P  P26  1  0.750000  0.571547  0.885825  1
  P  P27  1  0.750000  0.928453  0.385825  1
  P  P28  1  0.250000  0.272242  0.859763  1
  P  P29  1  0.250000  0.227758  0.359763  1
  P  P30  1  0.750000  0.727758  0.140237  1
  P  P31  1  0.750000  0.772242  0.640237  1
  P  P32  1  0.250000  0.600379  0.391086  1
  P  P33  1  0.250000  0.899621  0.891086  1
  P  P34  1  0.750000  0.399621  0.608914  1
  P  P35  1  0.750000  0.100379  0.108914  1
