# generated using pymatgen
data_TbY5Al24Os7Ru
_symmetry_space_group_name_H-M   'P 1'
_cell_length_a   8.83568325
_cell_length_b   8.83568385
_cell_length_c   9.56520300
_cell_angle_alpha   90.00264339
_cell_angle_beta   89.99735353
_cell_angle_gamma   119.97306253
_symmetry_Int_Tables_number   1
_chemical_formula_structural   TbY5Al24Os7Ru
_chemical_formula_sum   'Tb1 Y5 Al24 Os7 Ru1'
_cell_volume   646.87884679
_cell_formula_units_Z   1
loop_
 _symmetry_equiv_pos_site_id
 _symmetry_equiv_pos_as_xyz
  1  'x, y, z'
loop_
 _atom_site_type_symbol
 _atom_site_label
 _atom_site_symmetry_multiplicity
 _atom_site_fract_x
 _atom_site_fract_y
 _atom_site_fract_z
 _atom_site_occupancy
  Tb  Tb0  1  0.806935  0.193065  0.750497  1
  Y  Y1  1  0.193084  0.385996  0.249477  1
  Y  Y2  1  0.806839  0.613677  0.750523  1
  Y  Y3  1  0.614004  0.806916  0.249477  1
  Y  Y4  1  0.386323  0.193161  0.750523  1
  Y  Y5  1  0.192940  0.807060  0.249490  1
  Al  Al6  1  0.333353  0.666647  0.014645  1
  Al  Al7  1  0.666603  0.333397  0.985256  1
  Al  Al8  1  0.666612  0.333388  0.514759  1
  Al  Al9  1  0.333359  0.666641  0.485355  1
  Al  Al10  1  0.162559  0.324908  0.575942  1
  Al  Al11  1  0.837484  0.675143  0.424090  1
  Al  Al12  1  0.675092  0.837441  0.575942  1
  Al  Al13  1  0.837469  0.675099  0.075885  1
  Al  Al14  1  0.324857  0.162516  0.424090  1
  Al  Al15  1  0.162585  0.324949  0.924088  1
  Al  Al16  1  0.162452  0.837548  0.575853  1
  Al  Al17  1  0.324901  0.162531  0.075885  1
  Al  Al18  1  0.837576  0.162424  0.424015  1
  Al  Al19  1  0.675051  0.837415  0.924088  1
  Al  Al20  1  0.837546  0.162454  0.075951  1
  Al  Al21  1  0.162489  0.837511  0.924189  1
  Al  Al22  1  0.560370  0.120814  0.249802  1
  Al  Al23  1  0.439425  0.878891  0.750196  1
  Al  Al24  1  0.879186  0.439630  0.249802  1
  Al  Al25  1  0.121109  0.560575  0.750196  1
  Al  Al26  1  0.560395  0.439605  0.249822  1
  Al  Al27  1  0.439605  0.560395  0.750186  1
  Al  Al28  1  0.999976  0.000024  0.248266  1
  Al  Al29  1  0.999984  0.000016  0.751736  1
  Os  Os30  1  0.499934  0.999956  0.000064  1
  Os  Os31  1  0.000044  0.500066  0.000064  1
  Os  Os32  1  0.499910  0.999931  0.499918  1
  Os  Os33  1  0.499928  0.500072  0.000112  1
  Os  Os34  1  0.000069  0.500090  0.499918  1
  Os  Os35  1  0.499945  0.500055  0.499910  1
  Os  Os36  1  0.000003  0.999997  0.499890  1
  Ru  Ru37  1  0.000002  0.999998  0.000099  1
