# generated using pymatgen
data_YZr2Fe5Co4
_symmetry_space_group_name_H-M   'P 1'
_cell_length_a   4.99831945
_cell_length_b   4.99563402
_cell_length_c   8.38878518
_cell_angle_alpha   72.67708250
_cell_angle_beta   72.78217429
_cell_angle_gamma   60.01779612
_symmetry_Int_Tables_number   1
_chemical_formula_structural   YZr2Fe5Co4
_chemical_formula_sum   'Y1 Zr2 Fe5 Co4'
_cell_volume   170.43909739
_cell_formula_units_Z   1
loop_
 _symmetry_equiv_pos_site_id
 _symmetry_equiv_pos_as_xyz
  1  'x, y, z'
loop_
 _atom_site_type_symbol
 _atom_site_label
 _atom_site_symmetry_multiplicity
 _atom_site_fract_x
 _atom_site_fract_y
 _atom_site_fract_z
 _atom_site_occupancy
  Y  Y0  1  0.999522  0.999421  0.001637  1
  Zr  Zr1  1  0.140551  0.139334  0.580781  1
  Zr  Zr2  1  0.856369  0.857336  0.428959  1
  Fe  Fe3  1  0.412099  0.414111  0.253347  1
  Fe  Fe4  1  0.412099  0.920445  0.253347  1
  Fe  Fe5  1  0.335938  0.335376  0.993309  1
  Fe  Fe6  1  0.669033  0.667687  0.995594  1
  Fe  Fe7  1  0.500154  0.498662  0.502521  1
  Co  Co8  1  0.081504  0.586639  0.745216  1
  Co  Co9  1  0.587129  0.586806  0.745916  1
  Co  Co10  1  0.587129  0.080147  0.745916  1
  Co  Co11  1  0.918471  0.414037  0.253457  1
