# generated using pymatgen
data_CaCeTh(InRh)3
_symmetry_space_group_name_H-M   'P 1'
_cell_length_a   7.80982895
_cell_length_b   7.52274683
_cell_length_c   3.94906400
_cell_angle_alpha   90.00000000
_cell_angle_beta   90.00000000
_cell_angle_gamma   119.18414488
_symmetry_Int_Tables_number   1
_chemical_formula_structural   CaCeTh(InRh)3
_chemical_formula_sum   'Ca1 Ce1 Th1 In3 Rh3'
_cell_volume   202.56050080
_cell_formula_units_Z   1
loop_
 _symmetry_equiv_pos_site_id
 _symmetry_equiv_pos_as_xyz
  1  'x, y, z'
loop_
 _atom_site_type_symbol
 _atom_site_label
 _atom_site_symmetry_multiplicity
 _atom_site_fract_x
 _atom_site_fract_y
 _atom_site_fract_z
 _atom_site_occupancy
  Ca  Ca0  1  0.999540  0.405820  0.500000  1
  Ce  Ce1  1  0.586111  0.585226  0.500000  1
  Th  Th2  1  0.413564  0.000118  0.500000  1
  In  In3  1  0.764047  0.008313  0.000000  1
  In  In4  1  0.994113  0.728411  0.000000  1
  In  In5  1  0.241172  0.259707  0.000000  1
  Rh  Rh6  1  0.364327  0.698605  0.000000  1
  Rh  Rh7  1  0.630692  0.324592  0.000000  1
  Rh  Rh8  1  0.006434  0.989208  0.500000  1
