# generated using pymatgen
data_Tc4OsRuRh2
_symmetry_space_group_name_H-M   'P 1'
_cell_length_a   5.48776700
_cell_length_b   5.50497182
_cell_length_c   4.36414300
_cell_angle_alpha   90.00000000
_cell_angle_beta   90.00000000
_cell_angle_gamma   119.89666284
_symmetry_Int_Tables_number   1
_chemical_formula_structural   Tc4OsRuRh2
_chemical_formula_sum   'Tc4 Os1 Ru1 Rh2'
_cell_volume   114.29616417
_cell_formula_units_Z   1
loop_
 _symmetry_equiv_pos_site_id
 _symmetry_equiv_pos_as_xyz
  1  'x, y, z'
loop_
 _atom_site_type_symbol
 _atom_site_label
 _atom_site_symmetry_multiplicity
 _atom_site_fract_x
 _atom_site_fract_y
 _atom_site_fract_z
 _atom_site_occupancy
  Tc  Tc0  1  0.673288  0.834683  0.250000  1
  Tc  Tc1  1  0.161394  0.834683  0.250000  1
  Tc  Tc2  1  0.327133  0.164635  0.750000  1
  Tc  Tc3  1  0.837501  0.164635  0.750000  1
  Os  Os4  1  0.162682  0.325363  0.250000  1
  Ru  Ru5  1  0.836586  0.673171  0.750000  1
  Rh  Rh6  1  0.334037  0.668076  0.750000  1
  Rh  Rh7  1  0.667379  0.334756  0.250000  1
