# generated using pymatgen
data_Dy5TmSi11GePt8
_symmetry_space_group_name_H-M   'P 1'
_cell_length_a   4.26565200
_cell_length_b   8.56774078
_cell_length_c   12.93883000
_cell_angle_alpha   80.30526704
_cell_angle_beta   90.00000000
_cell_angle_gamma   90.00000000
_symmetry_Int_Tables_number   1
_chemical_formula_structural   Dy5TmSi11GePt8
_chemical_formula_sum   'Dy5 Tm1 Si11 Ge1 Pt8'
_cell_volume   466.12227200
_cell_formula_units_Z   1
loop_
 _symmetry_equiv_pos_site_id
 _symmetry_equiv_pos_as_xyz
  1  'x, y, z'
loop_
 _atom_site_type_symbol
 _atom_site_label
 _atom_site_symmetry_multiplicity
 _atom_site_fract_x
 _atom_site_fract_y
 _atom_site_fract_z
 _atom_site_occupancy
  Dy  Dy0  1  0.250000  0.584914  0.183791  1
  Dy  Dy1  1  0.750000  0.234279  0.561586  1
  Dy  Dy2  1  0.750000  0.416495  0.814907  1
  Dy  Dy3  1  0.750000  0.926672  0.816442  1
  Dy  Dy4  1  0.250000  0.074543  0.183521  1
  Tm  Tm5  1  0.250000  0.763795  0.439553  1
  Si  Si6  1  0.750000  0.588677  0.572197  1
  Si  Si7  1  0.750000  0.127499  0.003934  1
  Si  Si8  1  0.750000  0.871419  0.575106  1
  Si  Si9  1  0.250000  0.698170  0.714903  1
  Si  Si10  1  0.750000  0.305349  0.284724  1
  Si  Si11  1  0.750000  0.807977  0.276071  1
  Si  Si12  1  0.250000  0.873376  0.995531  1
  Si  Si13  1  0.250000  0.194267  0.723730  1
  Si  Si14  1  0.250000  0.378644  0.001571  1
  Si  Si15  1  0.250000  0.114751  0.430051  1
  Si  Si16  1  0.750000  0.622125  0.997841  1
  Ge  Ge17  1  0.250000  0.405413  0.425651  1
  Pt  Pt18  1  0.750000  0.352629  0.097949  1
  Pt  Pt19  1  0.250000  0.970936  0.623675  1
  Pt  Pt20  1  0.750000  0.850651  0.087879  1
  Pt  Pt21  1  0.750000  0.029254  0.375278  1
  Pt  Pt22  1  0.250000  0.648247  0.901868  1
  Pt  Pt23  1  0.250000  0.150542  0.911788  1
  Pt  Pt24  1  0.750000  0.540032  0.373627  1
  Pt  Pt25  1  0.250000  0.469342  0.626827  1
