# generated using pymatgen
data_Dy6OsO12
_symmetry_space_group_name_H-M   'P 1'
_cell_length_a   6.47662504
_cell_length_b   6.47662495
_cell_length_c   6.47662405
_cell_angle_alpha   98.64679465
_cell_angle_beta   98.64679071
_cell_angle_gamma   98.64681166
_symmetry_Int_Tables_number   1
_chemical_formula_structural   Dy6OsO12
_chemical_formula_sum   'Dy6 Os1 O12'
_cell_volume   261.34228220
_cell_formula_units_Z   1
loop_
 _symmetry_equiv_pos_site_id
 _symmetry_equiv_pos_as_xyz
  1  'x, y, z'
loop_
 _atom_site_type_symbol
 _atom_site_label
 _atom_site_symmetry_multiplicity
 _atom_site_fract_x
 _atom_site_fract_y
 _atom_site_fract_z
 _atom_site_occupancy
  Dy  Dy0  1  0.855821  0.389047  0.685841  1
  Dy  Dy1  1  0.610953  0.314159  0.144179  1
  Dy  Dy2  1  0.314159  0.144179  0.610953  1
  Dy  Dy3  1  0.685841  0.855821  0.389047  1
  Dy  Dy4  1  0.389047  0.685841  0.855821  1
  Dy  Dy5  1  0.144179  0.610953  0.314159  1
  Os  Os6  1  0.000000  0.000000  0.000000  1
  O  O7  1  0.927469  0.035394  0.703402  1
  O  O8  1  0.964606  0.296598  0.072531  1
  O  O9  1  0.591064  0.177338  0.434010  1
  O  O10  1  0.822662  0.565990  0.408936  1
  O  O11  1  0.296598  0.072531  0.964606  1
  O  O12  1  0.565990  0.408936  0.822662  1
  O  O13  1  0.434010  0.591064  0.177338  1
  O  O14  1  0.703402  0.927469  0.035394  1
  O  O15  1  0.177338  0.434010  0.591064  1
  O  O16  1  0.408936  0.822662  0.565990  1
  O  O17  1  0.035394  0.703402  0.927469  1
  O  O18  1  0.072531  0.964606  0.296598  1
