# generated using pymatgen
data_Rb4GdTaBr12
_symmetry_space_group_name_H-M   'P 1'
_cell_length_a   13.65657004
_cell_length_b   13.65650335
_cell_length_c   13.65665700
_cell_angle_alpha   132.03400478
_cell_angle_beta   132.03504610
_cell_angle_gamma   70.17452027
_symmetry_Int_Tables_number   1
_chemical_formula_structural   Rb4GdTaBr12
_chemical_formula_sum   'Rb8 Gd2 Ta2 Br24'
_cell_volume   1377.28798582
_cell_formula_units_Z   2
loop_
 _symmetry_equiv_pos_site_id
 _symmetry_equiv_pos_as_xyz
  1  'x, y, z'
loop_
 _atom_site_type_symbol
 _atom_site_label
 _atom_site_symmetry_multiplicity
 _atom_site_fract_x
 _atom_site_fract_y
 _atom_site_fract_z
 _atom_site_occupancy
  Rb  Rb0  1  0.372573  0.338090  0.459470  1
  Rb  Rb1  1  0.088470  0.627801  0.966395  1
  Rb  Rb2  1  0.877277  0.911659  0.538232  1
  Rb  Rb3  1  0.089053  0.126715  0.463375  1
  Rb  Rb4  1  0.376219  0.911980  0.038871  1
  Rb  Rb5  1  0.661666  0.623849  0.534506  1
  Rb  Rb6  1  0.661271  0.122707  0.035497  1
  Rb  Rb7  1  0.872427  0.337646  0.962985  1
  Gd  Gd8  1  0.752370  0.250374  0.502622  1
  Gd  Gd9  1  0.999260  0.999194  0.998455  1
  Ta  Ta10  1  0.248962  0.750122  0.499230  1
  Ta  Ta11  1  0.499065  0.500008  0.999215  1
  Br  Br12  1  0.019956  0.773058  0.296032  1
  Br  Br13  1  0.022903  0.258811  0.271696  1
  Br  Br14  1  0.275112  0.979140  0.751817  1
  Br  Br15  1  0.011029  0.236391  0.737127  1
  Br  Br16  1  0.135122  0.636070  0.498615  1
  Br  Br17  1  0.273120  0.526015  0.796154  1
  Br  Br18  1  0.475561  0.724160  0.703059  1
  Br  Br19  1  0.502897  0.274265  0.267150  1
  Br  Br20  1  0.473286  0.270737  0.747179  1
  Br  Br21  1  0.612912  0.613225  0.999480  1
  Br  Br22  1  0.521801  0.726363  0.251118  1
  Br  Br23  1  0.127072  0.126226  0.999368  1
  Br  Br24  1  0.872082  0.872331  0.998577  1
  Br  Br25  1  0.985781  0.750067  0.725607  1
  Br  Br26  1  0.739787  0.012749  0.762916  1
  Br  Br27  1  0.248980  0.975858  0.234703  1
  Br  Br28  1  0.728477  0.476864  0.202452  1
  Br  Br29  1  0.226743  0.523928  0.247528  1
  Br  Br30  1  0.362791  0.864150  0.499902  1
  Br  Br31  1  0.879438  0.377369  0.502711  1
  Br  Br32  1  0.386261  0.386882  0.999841  1
  Br  Br33  1  0.625288  0.123701  0.502322  1
  Br  Br34  1  0.766274  0.499736  0.776063  1
  Br  Br35  1  0.728713  0.991759  0.229732  1
