# generated using pymatgen
data_HfPaRh6
_symmetry_space_group_name_H-M   'P 1'
_cell_length_a   5.66846192
_cell_length_b   5.66846212
_cell_length_c   5.66846100
_cell_angle_alpha   60.00000070
_cell_angle_beta   59.99999953
_cell_angle_gamma   60.00000086
_symmetry_Int_Tables_number   1
_chemical_formula_structural   HfPaRh6
_chemical_formula_sum   'Hf1 Pa1 Rh6'
_cell_volume   128.78955747
_cell_formula_units_Z   1
loop_
 _symmetry_equiv_pos_site_id
 _symmetry_equiv_pos_as_xyz
  1  'x, y, z'
loop_
 _atom_site_type_symbol
 _atom_site_label
 _atom_site_symmetry_multiplicity
 _atom_site_fract_x
 _atom_site_fract_y
 _atom_site_fract_z
 _atom_site_occupancy
  Hf  Hf0  1  0.000000  0.000000  0.000000  1
  Pa  Pa1  1  0.500000  0.500000  0.500000  1
  Rh  Rh2  1  0.500001  0.000000  0.000000  1
  Rh  Rh3  1  0.000000  0.500001  0.000000  1
  Rh  Rh4  1  0.500000  0.500000  0.000000  1
  Rh  Rh5  1  0.000000  0.000000  0.500001  1
  Rh  Rh6  1  0.500000  0.000000  0.500000  1
  Rh  Rh7  1  0.000000  0.500000  0.500000  1
