# generated using pymatgen
data_Ba3In2(SbP)2
_symmetry_space_group_name_H-M   'P 1'
_cell_length_a   9.38614531
_cell_length_b   9.38614519
_cell_length_c   7.39942118
_cell_angle_alpha   89.21499538
_cell_angle_beta   89.21500519
_cell_angle_gamma   75.52634568
_symmetry_Int_Tables_number   1
_chemical_formula_structural   Ba3In2(SbP)2
_chemical_formula_sum   'Ba6 In4 Sb4 P4'
_cell_volume   631.10300780
_cell_formula_units_Z   2
loop_
 _symmetry_equiv_pos_site_id
 _symmetry_equiv_pos_as_xyz
  1  'x, y, z'
loop_
 _atom_site_type_symbol
 _atom_site_label
 _atom_site_symmetry_multiplicity
 _atom_site_fract_x
 _atom_site_fract_y
 _atom_site_fract_z
 _atom_site_occupancy
  Ba  Ba0  1  0.003802  0.732729  0.528600  1
  Ba  Ba1  1  0.267271  0.996198  0.971400  1
  Ba  Ba2  1  0.996198  0.267271  0.471400  1
  Ba  Ba3  1  0.732729  0.003802  0.028600  1
  Ba  Ba4  1  0.414975  0.585025  0.250000  1
  Ba  Ba5  1  0.585025  0.414975  0.750000  1
  In  In6  1  0.809400  0.590991  0.093301  1
  In  In7  1  0.409009  0.190600  0.406699  1
  In  In8  1  0.190600  0.409009  0.906699  1
  In  In9  1  0.590991  0.809400  0.593301  1
  Sb  Sb10  1  0.063014  0.711698  0.023756  1
  Sb  Sb11  1  0.288302  0.936986  0.476244  1
  Sb  Sb12  1  0.936986  0.288302  0.976244  1
  Sb  Sb13  1  0.711698  0.063014  0.523756  1
  P  P14  1  0.739029  0.568533  0.434612  1
  P  P15  1  0.431467  0.260971  0.065388  1
  P  P16  1  0.260971  0.431467  0.565388  1
  P  P17  1  0.568533  0.739029  0.934612  1
