# generated using pymatgen
data_NdDy(Ni5Sn)2
_symmetry_space_group_name_H-M   'P 1'
_cell_length_a   4.88221200
_cell_length_b   4.88221196
_cell_length_c   19.67791100
_cell_angle_alpha   90.00000000
_cell_angle_beta   90.00000000
_cell_angle_gamma   120.00001379
_symmetry_Int_Tables_number   1
_chemical_formula_structural   NdDy(Ni5Sn)2
_chemical_formula_sum   'Nd2 Dy2 Ni20 Sn4'
_cell_volume   406.20272059
_cell_formula_units_Z   2
loop_
 _symmetry_equiv_pos_site_id
 _symmetry_equiv_pos_as_xyz
  1  'x, y, z'
loop_
 _atom_site_type_symbol
 _atom_site_label
 _atom_site_symmetry_multiplicity
 _atom_site_fract_x
 _atom_site_fract_y
 _atom_site_fract_z
 _atom_site_occupancy
  Nd  Nd0  1  0.000000  0.000000  0.500000  1
  Nd  Nd1  1  0.000000  0.000000  0.000000  1
  Dy  Dy2  1  0.333333  0.666667  0.250000  1
  Dy  Dy3  1  0.666667  0.333333  0.750000  1
  Ni  Ni4  1  0.000000  0.000000  0.250000  1
  Ni  Ni5  1  0.000000  0.000000  0.750000  1
  Ni  Ni6  1  0.333333  0.666667  0.750000  1
  Ni  Ni7  1  0.666667  0.333333  0.250000  1
  Ni  Ni8  1  0.333333  0.666667  0.956821  1
  Ni  Ni9  1  0.666667  0.333333  0.043179  1
  Ni  Ni10  1  0.666667  0.333333  0.456821  1
  Ni  Ni11  1  0.333333  0.666667  0.543179  1
  Ni  Ni12  1  0.833800  0.166200  0.352861  1
  Ni  Ni13  1  0.833800  0.667601  0.352861  1
  Ni  Ni14  1  0.332399  0.166200  0.352861  1
  Ni  Ni15  1  0.166200  0.833800  0.647139  1
  Ni  Ni16  1  0.166200  0.332399  0.647139  1
  Ni  Ni17  1  0.667601  0.833800  0.647139  1
  Ni  Ni18  1  0.166200  0.833800  0.852861  1
  Ni  Ni19  1  0.166200  0.332399  0.852861  1
  Ni  Ni20  1  0.667601  0.833800  0.852861  1
  Ni  Ni21  1  0.833800  0.166200  0.147139  1
  Ni  Ni22  1  0.833800  0.667601  0.147139  1
  Ni  Ni23  1  0.332399  0.166200  0.147139  1
  Sn  Sn24  1  0.333333  0.666667  0.411868  1
  Sn  Sn25  1  0.666667  0.333333  0.588132  1
  Sn  Sn26  1  0.666667  0.333333  0.911868  1
  Sn  Sn27  1  0.333333  0.666667  0.088132  1
