# generated using pymatgen
data_Mg4UIn3Rh8
_symmetry_space_group_name_H-M   'P 1'
_cell_length_a   6.39626776
_cell_length_b   6.39502800
_cell_length_c   6.47632477
_cell_angle_alpha   90.00000000
_cell_angle_beta   90.05579744
_cell_angle_gamma   90.00000000
_symmetry_Int_Tables_number   1
_chemical_formula_structural   Mg4UIn3Rh8
_chemical_formula_sum   'Mg4 U1 In3 Rh8'
_cell_volume   264.90947947
_cell_formula_units_Z   1
loop_
 _symmetry_equiv_pos_site_id
 _symmetry_equiv_pos_as_xyz
  1  'x, y, z'
loop_
 _atom_site_type_symbol
 _atom_site_label
 _atom_site_symmetry_multiplicity
 _atom_site_fract_x
 _atom_site_fract_y
 _atom_site_fract_z
 _atom_site_occupancy
  Mg  Mg0  1  0.750146  0.250000  0.000052  1
  Mg  Mg1  1  0.249936  0.750001  0.999955  1
  Mg  Mg2  1  0.249998  0.750001  0.500050  1
  Mg  Mg3  1  0.749923  0.250000  0.499995  1
  U  U4  1  0.250068  0.250000  0.000028  1
  In  In5  1  0.749925  0.750001  0.999969  1
  In  In6  1  0.750022  0.750001  0.499889  1
  In  In7  1  0.249929  0.250000  0.500068  1
  Rh  Rh8  1  0.004530  0.004555  0.242703  1
  Rh  Rh9  1  0.004530  0.495446  0.242703  1
  Rh  Rh10  1  0.495423  0.004534  0.242655  1
  Rh  Rh11  1  0.495423  0.495465  0.242655  1
  Rh  Rh12  1  0.495491  0.004543  0.757313  1
  Rh  Rh13  1  0.495491  0.495458  0.757313  1
  Rh  Rh14  1  0.004584  0.004572  0.757327  1
  Rh  Rh15  1  0.004584  0.495427  0.757327  1
