# generated using pymatgen
data_SmDy3(B4W)4
_symmetry_space_group_name_H-M   'P 1'
_cell_length_a   6.05143812
_cell_length_b   11.70092317
_cell_length_c   3.64190100
_cell_angle_alpha   90.00000000
_cell_angle_beta   90.00000000
_cell_angle_gamma   89.93013910
_symmetry_Int_Tables_number   1
_chemical_formula_structural   SmDy3(B4W)4
_chemical_formula_sum   'Sm1 Dy3 B16 W4'
_cell_volume   257.87339503
_cell_formula_units_Z   1
loop_
 _symmetry_equiv_pos_site_id
 _symmetry_equiv_pos_as_xyz
  1  'x, y, z'
loop_
 _atom_site_type_symbol
 _atom_site_label
 _atom_site_symmetry_multiplicity
 _atom_site_fract_x
 _atom_site_fract_y
 _atom_site_fract_z
 _atom_site_occupancy
  Sm  Sm0  1  0.626423  0.349850  0.000000  1
  Dy  Dy1  1  0.373280  0.649934  0.000000  1
  Dy  Dy2  1  0.126616  0.149214  0.000000  1
  Dy  Dy3  1  0.873497  0.850370  0.000000  1
  B  B4  1  0.787109  0.185087  0.500000  1
  B  B5  1  0.213563  0.813696  0.500000  1
  B  B6  1  0.284179  0.313228  0.500000  1
  B  B7  1  0.713512  0.686873  0.500000  1
  B  B8  1  0.866452  0.031558  0.500000  1
  B  B9  1  0.133924  0.967752  0.500000  1
  B  B10  1  0.365237  0.468981  0.500000  1
  B  B11  1  0.634240  0.533314  0.500000  1
  B  B12  1  0.887995  0.453900  0.500000  1
  B  B13  1  0.114286  0.548059  0.500000  1
  B  B14  1  0.385728  0.046690  0.500000  1
  B  B15  1  0.613715  0.952375  0.500000  1
  B  B16  1  0.977390  0.306890  0.500000  1
  B  B17  1  0.024085  0.693591  0.500000  1
  B  B18  1  0.474610  0.191665  0.500000  1
  B  B19  1  0.523938  0.806859  0.500000  1
  W  W20  1  0.630483  0.083527  0.000000  1
  W  W21  1  0.369279  0.915120  0.000000  1
  W  W22  1  0.130494  0.416063  0.000000  1
  W  W23  1  0.869964  0.585404  0.000000  1
