# generated using pymatgen
data_TbLu3Th6(Ge3C)2
_symmetry_space_group_name_H-M   'P 1'
_cell_length_a   8.77889100
_cell_length_b   8.77868997
_cell_length_c   6.37789101
_cell_angle_alpha   90.00020221
_cell_angle_beta   89.99997403
_cell_angle_gamma   120.00006547
_symmetry_Int_Tables_number   1
_chemical_formula_structural   TbLu3Th6(Ge3C)2
_chemical_formula_sum   'Tb1 Lu3 Th6 Ge6 C2'
_cell_volume   425.67368877
_cell_formula_units_Z   1
loop_
 _symmetry_equiv_pos_site_id
 _symmetry_equiv_pos_as_xyz
  1  'x, y, z'
loop_
 _atom_site_type_symbol
 _atom_site_label
 _atom_site_symmetry_multiplicity
 _atom_site_fract_x
 _atom_site_fract_y
 _atom_site_fract_z
 _atom_site_occupancy
  Tb  Tb0  1  0.666666  0.333330  0.499999  1
  Lu  Lu1  1  0.333334  0.666682  0.499996  1
  Lu  Lu2  1  0.333328  0.666675  0.000000  1
  Lu  Lu3  1  0.666674  0.333332  0.999997  1
  Th  Th4  1  0.767503  0.767741  0.249615  1
  Th  Th5  1  0.232249  0.999760  0.249614  1
  Th  Th6  1  0.000240  0.232500  0.249616  1
  Th  Th7  1  0.232264  0.232511  0.750382  1
  Th  Th8  1  0.767515  0.999769  0.750389  1
  Th  Th9  1  0.000246  0.767754  0.750384  1
  Ge  Ge10  1  0.403087  0.404740  0.248698  1
  Ge  Ge11  1  0.595247  0.998343  0.248684  1
  Ge  Ge12  1  0.001643  0.596889  0.248725  1
  Ge  Ge13  1  0.595270  0.596910  0.751296  1
  Ge  Ge14  1  0.403096  0.998329  0.751315  1
  Ge  Ge15  1  0.001640  0.404748  0.751294  1
  C  C16  1  0.999996  0.999987  0.499997  1
  C  C17  1  0.000001  0.999996  0.999997  1
