# generated using pymatgen
data_Eu12Ho8Si15Rh
_symmetry_space_group_name_H-M   'P 1'
_cell_length_a   7.63112704
_cell_length_b   7.86077167
_cell_length_c   14.94557300
_cell_angle_alpha   89.66476321
_cell_angle_beta   89.59991654
_cell_angle_gamma   90.03969277
_symmetry_Int_Tables_number   1
_chemical_formula_structural   Eu12Ho8Si15Rh
_chemical_formula_sum   'Eu12 Ho8 Si15 Rh1'
_cell_volume   896.49587716
_cell_formula_units_Z   1
loop_
 _symmetry_equiv_pos_site_id
 _symmetry_equiv_pos_as_xyz
  1  'x, y, z'
loop_
 _atom_site_type_symbol
 _atom_site_label
 _atom_site_symmetry_multiplicity
 _atom_site_fract_x
 _atom_site_fract_y
 _atom_site_fract_z
 _atom_site_occupancy
  Eu  Eu0  1  0.653801  0.979096  0.248497  1
  Eu  Eu1  1  0.151893  0.523201  0.248323  1
  Eu  Eu2  1  0.847151  0.477456  0.756007  1
  Eu  Eu3  1  0.349808  0.021084  0.751806  1
  Eu  Eu4  1  0.975075  0.816426  0.091498  1
  Eu  Eu5  1  0.473045  0.678701  0.404133  1
  Eu  Eu6  1  0.520525  0.328158  0.904951  1
  Eu  Eu7  1  0.025967  0.180628  0.597193  1
  Eu  Eu8  1  0.023659  0.181278  0.905430  1
  Eu  Eu9  1  0.526712  0.320959  0.595786  1
  Eu  Eu10  1  0.475266  0.677660  0.095596  1
  Eu  Eu11  1  0.974929  0.822881  0.404528  1
  Ho  Ho12  1  0.680243  0.812293  0.881130  1
  Ho  Ho13  1  0.178959  0.679966  0.620661  1
  Ho  Ho14  1  0.820731  0.330617  0.117227  1
  Ho  Ho15  1  0.316938  0.179040  0.378536  1
  Ho  Ho16  1  0.320392  0.179724  0.121999  1
  Ho  Ho17  1  0.818575  0.318999  0.378997  1
  Ho  Ho18  1  0.180077  0.675288  0.879445  1
  Ho  Ho19  1  0.680166  0.820000  0.620808  1
  Si  Si20  1  0.755374  0.599481  0.250381  1
  Si  Si21  1  0.255540  0.901211  0.250774  1
  Si  Si22  1  0.743926  0.097801  0.749046  1
  Si  Si23  1  0.244102  0.399506  0.748480  1
  Si  Si24  1  0.028915  0.119113  0.249395  1
  Si  Si25  1  0.530349  0.381702  0.252109  1
  Si  Si26  1  0.467565  0.619275  0.746298  1
  Si  Si27  1  0.969111  0.880614  0.751064  1
  Si  Si28  1  0.359048  0.967731  0.538384  1
  Si  Si29  1  0.639979  0.034870  0.036267  1
  Si  Si30  1  0.138786  0.467641  0.461362  1
  Si  Si31  1  0.152881  0.462277  0.037251  1
  Si  Si32  1  0.638259  0.032313  0.461520  1
  Si  Si33  1  0.357962  0.966821  0.962658  1
  Si  Si34  1  0.858942  0.531754  0.538126  1
  Rh  Rh35  1  0.865345  0.534435  0.964338  1
