# generated using pymatgen
data_DyHo(Bi3O7)2
_symmetry_space_group_name_H-M   'P 1'
_cell_length_a   6.64977730
_cell_length_b   6.86054912
_cell_length_c   7.84766801
_cell_angle_alpha   106.67823996
_cell_angle_beta   89.38888461
_cell_angle_gamma   99.24528099
_symmetry_Int_Tables_number   1
_chemical_formula_structural   DyHo(Bi3O7)2
_chemical_formula_sum   'Dy1 Ho1 Bi6 O14'
_cell_volume   338.26502441
_cell_formula_units_Z   1
loop_
 _symmetry_equiv_pos_site_id
 _symmetry_equiv_pos_as_xyz
  1  'x, y, z'
loop_
 _atom_site_type_symbol
 _atom_site_label
 _atom_site_symmetry_multiplicity
 _atom_site_fract_x
 _atom_site_fract_y
 _atom_site_fract_z
 _atom_site_occupancy
  Dy  Dy0  1  0.460642  0.003558  0.248826  1
  Ho  Ho1  1  0.539148  0.996171  0.751101  1
  Bi  Bi2  1  0.999965  0.999967  0.500187  1
  Bi  Bi3  1  0.000060  0.999998  0.999775  1
  Bi  Bi4  1  0.260293  0.516692  0.878634  1
  Bi  Bi5  1  0.739749  0.483126  0.121248  1
  Bi  Bi6  1  0.722254  0.462467  0.608726  1
  Bi  Bi7  1  0.277732  0.537676  0.391485  1
  O  O8  1  0.464735  0.658885  0.183957  1
  O  O9  1  0.535276  0.339929  0.815783  1
  O  O10  1  0.304111  0.944027  0.952540  1
  O  O11  1  0.696141  0.056089  0.046437  1
  O  O12  1  0.297713  0.918599  0.512636  1
  O  O13  1  0.702481  0.081488  0.488253  1
  O  O14  1  0.530659  0.350363  0.351941  1
  O  O15  1  0.469691  0.650746  0.648466  1
  O  O16  1  0.916150  0.675269  0.960731  1
  O  O17  1  0.083900  0.324779  0.039303  1
  O  O18  1  0.097085  0.324499  0.623613  1
  O  O19  1  0.903000  0.675570  0.376368  1
  O  O20  1  0.876967  0.933669  0.733029  1
  O  O21  1  0.122248  0.066433  0.266964  1
