# generated using pymatgen
data_Ho6Er4Sn5Sb
_symmetry_space_group_name_H-M   'P 1'
_cell_length_a   8.90598300
_cell_length_b   8.91658888
_cell_length_c   6.47305000
_cell_angle_alpha   90.00000000
_cell_angle_beta   90.00000000
_cell_angle_gamma   119.96065724
_symmetry_Int_Tables_number   1
_chemical_formula_structural   Ho6Er4Sn5Sb
_chemical_formula_sum   'Ho6 Er4 Sn5 Sb1'
_cell_volume   445.34054366
_cell_formula_units_Z   1
loop_
 _symmetry_equiv_pos_site_id
 _symmetry_equiv_pos_as_xyz
  1  'x, y, z'
loop_
 _atom_site_type_symbol
 _atom_site_label
 _atom_site_symmetry_multiplicity
 _atom_site_fract_x
 _atom_site_fract_y
 _atom_site_fract_z
 _atom_site_occupancy
  Ho  Ho0  1  0.997415  0.760093  0.750000  1
  Ho  Ho1  1  0.000999  0.238825  0.250000  1
  Ho  Ho2  1  0.762174  0.761175  0.250000  1
  Ho  Ho3  1  0.761960  0.000000  0.750000  1
  Ho  Ho4  1  0.237322  0.239907  0.750000  1
  Ho  Ho5  1  0.238903  0.000000  0.250000  1
  Er  Er6  1  0.333305  0.665764  0.499790  1
  Er  Er7  1  0.667542  0.334236  0.000210  1
  Er  Er8  1  0.667542  0.334236  0.499790  1
  Er  Er9  1  0.333305  0.665764  0.000210  1
  Sn  Sn10  1  0.395572  0.394368  0.250000  1
  Sn  Sn11  1  0.001204  0.605632  0.250000  1
  Sn  Sn12  1  0.999618  0.395391  0.750000  1
  Sn  Sn13  1  0.604227  0.604609  0.750000  1
  Sn  Sn14  1  0.605689  0.000000  0.250000  1
  Sb  Sb15  1  0.393223  0.000000  0.750000  1
