# generated using pymatgen
data_TbTm4Bi2Te
_symmetry_space_group_name_H-M   'P 1'
_cell_length_a   8.07086600
_cell_length_b   9.32065400
_cell_length_c   11.74314900
_cell_angle_alpha   90.00000000
_cell_angle_beta   90.00000000
_cell_angle_gamma   90.00000000
_symmetry_Int_Tables_number   1
_chemical_formula_structural   TbTm4Bi2Te
_chemical_formula_sum   'Tb4 Tm16 Bi8 Te4'
_cell_volume   883.38718462
_cell_formula_units_Z   4
loop_
 _symmetry_equiv_pos_site_id
 _symmetry_equiv_pos_as_xyz
  1  'x, y, z'
loop_
 _atom_site_type_symbol
 _atom_site_label
 _atom_site_symmetry_multiplicity
 _atom_site_fract_x
 _atom_site_fract_y
 _atom_site_fract_z
 _atom_site_occupancy
  Tb  Tb0  1  0.322831  0.250000  0.216936  1
  Tb  Tb1  1  0.822831  0.250000  0.283064  1
  Tb  Tb2  1  0.677169  0.750000  0.783064  1
  Tb  Tb3  1  0.177169  0.750000  0.716936  1
  Tm  Tm4  1  0.354172  0.750000  0.216011  1
  Tm  Tm5  1  0.854172  0.750000  0.283989  1
  Tm  Tm6  1  0.645828  0.250000  0.783989  1
  Tm  Tm7  1  0.145828  0.250000  0.716011  1
  Tm  Tm8  1  0.687524  0.565059  0.058437  1
  Tm  Tm9  1  0.187524  0.934941  0.441563  1
  Tm  Tm10  1  0.312476  0.065059  0.941563  1
  Tm  Tm11  1  0.812476  0.434941  0.558437  1
  Tm  Tm12  1  0.312476  0.434941  0.941563  1
  Tm  Tm13  1  0.812476  0.065059  0.558437  1
  Tm  Tm14  1  0.687524  0.934941  0.058437  1
  Tm  Tm15  1  0.187524  0.565059  0.441563  1
  Tm  Tm16  1  0.479413  0.250000  0.489343  1
  Tm  Tm17  1  0.979413  0.250000  0.010657  1
  Tm  Tm18  1  0.520587  0.750000  0.510657  1
  Tm  Tm19  1  0.020587  0.750000  0.989343  1
  Bi  Bi20  1  0.570223  0.994501  0.326650  1
  Bi  Bi21  1  0.070223  0.505499  0.173350  1
  Bi  Bi22  1  0.429777  0.494501  0.673350  1
  Bi  Bi23  1  0.929777  0.005499  0.826650  1
  Bi  Bi24  1  0.429777  0.005499  0.673350  1
  Bi  Bi25  1  0.929777  0.494501  0.826650  1
  Bi  Bi26  1  0.570223  0.505499  0.326650  1
  Bi  Bi27  1  0.070223  0.994501  0.173350  1
  Te  Te28  1  0.399985  0.750000  0.959396  1
  Te  Te29  1  0.899985  0.750000  0.540604  1
  Te  Te30  1  0.600015  0.250000  0.040604  1
  Te  Te31  1  0.100015  0.250000  0.459396  1
