# generated using pymatgen
data_Y9Ho6Th(CdPt)4
_symmetry_space_group_name_H-M   'P 1'
_cell_length_a   9.69480816
_cell_length_b   9.69633614
_cell_length_c   9.70716287
_cell_angle_alpha   60.16212039
_cell_angle_beta   60.22631156
_cell_angle_gamma   60.28080285
_symmetry_Int_Tables_number   1
_chemical_formula_structural   Y9Ho6Th(CdPt)4
_chemical_formula_sum   'Y9 Ho6 Th1 Cd4 Pt4'
_cell_volume   648.50181012
_cell_formula_units_Z   1
loop_
 _symmetry_equiv_pos_site_id
 _symmetry_equiv_pos_as_xyz
  1  'x, y, z'
loop_
 _atom_site_type_symbol
 _atom_site_label
 _atom_site_symmetry_multiplicity
 _atom_site_fract_x
 _atom_site_fract_y
 _atom_site_fract_z
 _atom_site_occupancy
  Y  Y0  1  0.810349  0.190952  0.810452  1
  Y  Y1  1  0.188963  0.188612  0.812723  1
  Y  Y2  1  0.810585  0.810796  0.190778  1
  Y  Y3  1  0.936305  0.566415  0.565437  1
  Y  Y4  1  0.562970  0.936955  0.937183  1
  Y  Y5  1  0.565502  0.936288  0.565469  1
  Y  Y6  1  0.937150  0.563455  0.936964  1
  Y  Y7  1  0.565086  0.566018  0.936371  1
  Y  Y8  1  0.937727  0.937293  0.562535  1
  Ho  Ho9  1  0.353301  0.353396  0.940289  1
  Ho  Ho10  1  0.353851  0.939174  0.353475  1
  Ho  Ho11  1  0.939996  0.353769  0.353347  1
  Ho  Ho12  1  0.812900  0.188598  0.188977  1
  Ho  Ho13  1  0.190859  0.810738  0.810616  1
  Ho  Ho14  1  0.188550  0.813163  0.188567  1
  Th  Th15  1  0.349436  0.349936  0.349739  1
  Cd  Cd16  1  0.581919  0.581621  0.581792  1
  Cd  Cd17  1  0.582633  0.582525  0.253358  1
  Cd  Cd18  1  0.582449  0.253283  0.582712  1
  Cd  Cd19  1  0.253456  0.582302  0.582669  1
  Pt  Pt20  1  0.143140  0.143331  0.146370  1
  Pt  Pt21  1  0.141799  0.139282  0.568495  1
  Pt  Pt22  1  0.142425  0.569955  0.139697  1
  Pt  Pt23  1  0.568649  0.142143  0.141984  1
