# generated using pymatgen
data_HoTm2In3SnPt2
_symmetry_space_group_name_H-M   'P 1'
_cell_length_a   7.57606261
_cell_length_b   7.57179030
_cell_length_c   4.14870900
_cell_angle_alpha   90.00000000
_cell_angle_beta   90.00000000
_cell_angle_gamma   119.90671313
_symmetry_Int_Tables_number   1
_chemical_formula_structural   HoTm2In3SnPt2
_chemical_formula_sum   'Ho1 Tm2 In3 Sn1 Pt2'
_cell_volume   206.29714456
_cell_formula_units_Z   1
loop_
 _symmetry_equiv_pos_site_id
 _symmetry_equiv_pos_as_xyz
  1  'x, y, z'
loop_
 _atom_site_type_symbol
 _atom_site_label
 _atom_site_symmetry_multiplicity
 _atom_site_fract_x
 _atom_site_fract_y
 _atom_site_fract_z
 _atom_site_occupancy
  Ho  Ho0  1  0.978953  0.585077  0.500000  1
  Tm  Tm1  1  0.607546  0.022603  0.500000  1
  Tm  Tm2  1  0.414876  0.392087  0.500000  1
  In  In3  1  0.755257  0.744117  0.000000  1
  In  In4  1  0.988515  0.244542  0.000000  1
  In  In5  1  0.255808  0.011427  0.000000  1
  Sn  Sn6  1  0.334404  0.667049  0.000000  1
  Pt  Pt7  1  0.664816  0.331970  0.000000  1
  Pt  Pt8  1  0.999826  0.001128  0.500000  1
