# generated using pymatgen
data_Tb5Tm7ZnCo4Sn
_symmetry_space_group_name_H-M   'P 1'
_cell_length_a   8.26569751
_cell_length_b   8.26569716
_cell_length_c   8.26845586
_cell_angle_alpha   112.25616452
_cell_angle_beta   109.16253016
_cell_angle_gamma   107.02368092
_symmetry_Int_Tables_number   1
_chemical_formula_structural   Tb5Tm7ZnCo4Sn
_chemical_formula_sum   'Tb5 Tm7 Zn1 Co4 Sn1'
_cell_volume   434.02791835
_cell_formula_units_Z   1
loop_
 _symmetry_equiv_pos_site_id
 _symmetry_equiv_pos_as_xyz
  1  'x, y, z'
loop_
 _atom_site_type_symbol
 _atom_site_label
 _atom_site_symmetry_multiplicity
 _atom_site_fract_x
 _atom_site_fract_y
 _atom_site_fract_z
 _atom_site_occupancy
  Tb  Tb0  1  0.432478  0.229787  0.201306  1
  Tb  Tb1  1  0.569728  0.771624  0.799729  1
  Tb  Tb2  1  0.028105  0.230000  0.799729  1
  Tb  Tb3  1  0.971518  0.768827  0.201306  1
  Tb  Tb4  1  0.180582  0.283772  0.464354  1
  Tm  Tm5  1  0.819676  0.716483  0.536159  1
  Tm  Tm6  1  0.180398  0.716814  0.897211  1
  Tm  Tm7  1  0.818410  0.283712  0.102123  1
  Tm  Tm8  1  0.325168  0.637553  0.311854  1
  Tm  Tm9  1  0.676784  0.363576  0.688948  1
  Tm  Tm10  1  0.325370  0.012163  0.688948  1
  Tm  Tm11  1  0.674303  0.986687  0.311854  1
  Zn  Zn12  1  0.999507  0.998502  0.998009  1
  Co  Co13  1  0.346807  0.998393  0.345200  1
  Co  Co14  1  0.653499  0.999777  0.653276  1
  Co  Co15  1  0.113659  0.616018  0.500160  1
  Co  Co16  1  0.884142  0.386500  0.500160  1
  Sn  Sn17  1  0.499865  0.499809  0.999674  1
