# generated using pymatgen
data_ErLuCo3Si5
_symmetry_space_group_name_H-M   'P 1'
_cell_length_a   7.80339532
_cell_length_b   7.80339504
_cell_length_c   5.47236488
_cell_angle_alpha   70.90631367
_cell_angle_beta   70.90631670
_cell_angle_gamma   93.53224952
_symmetry_Int_Tables_number   1
_chemical_formula_structural   ErLuCo3Si5
_chemical_formula_sum   'Er2 Lu2 Co6 Si10'
_cell_volume   292.21930319
_cell_formula_units_Z   2
loop_
 _symmetry_equiv_pos_site_id
 _symmetry_equiv_pos_as_xyz
  1  'x, y, z'
loop_
 _atom_site_type_symbol
 _atom_site_label
 _atom_site_symmetry_multiplicity
 _atom_site_fract_x
 _atom_site_fract_y
 _atom_site_fract_z
 _atom_site_occupancy
  Er  Er0  1  0.129863  0.404257  0.736096  1
  Er  Er1  1  0.595743  0.870137  0.763904  1
  Lu  Lu2  1  0.869964  0.595632  0.264939  1
  Lu  Lu3  1  0.404368  0.130036  0.235061  1
  Co  Co4  1  0.997254  0.002746  0.750000  1
  Co  Co5  1  0.540028  0.262181  0.625598  1
  Co  Co6  1  0.261891  0.540332  0.125656  1
  Co  Co7  1  0.459668  0.738109  0.374344  1
  Co  Co8  1  0.003363  0.996637  0.250000  1
  Co  Co9  1  0.737819  0.459972  0.874402  1
  Si  Si10  1  0.771522  0.228478  0.250000  1
  Si  Si11  1  0.227469  0.772531  0.750000  1
  Si  Si12  1  0.511793  0.488207  0.250000  1
  Si  Si13  1  0.488769  0.511231  0.750000  1
  Si  Si14  1  0.213072  0.786928  0.250000  1
  Si  Si15  1  0.786516  0.213484  0.750000  1
  Si  Si16  1  0.737596  0.933147  0.166194  1
  Si  Si17  1  0.933295  0.736847  0.666558  1
  Si  Si18  1  0.263153  0.066705  0.833442  1
  Si  Si19  1  0.066853  0.262404  0.333806  1
