# generated using pymatgen
data_Tb2Nd3Dy2Y(CdPt)2
_symmetry_space_group_name_H-M   'P 1'
_cell_length_a   9.80684260
_cell_length_b   9.80515906
_cell_length_c   9.80515914
_cell_angle_alpha   60.01136571
_cell_angle_beta   59.99432255
_cell_angle_gamma   59.99432099
_symmetry_Int_Tables_number   1
_chemical_formula_structural   Tb2Nd3Dy2Y(CdPt)2
_chemical_formula_sum   'Tb4 Nd6 Dy4 Y2 Cd4 Pt4'
_cell_volume   666.68932662
_cell_formula_units_Z   2
loop_
 _symmetry_equiv_pos_site_id
 _symmetry_equiv_pos_as_xyz
  1  'x, y, z'
loop_
 _atom_site_type_symbol
 _atom_site_label
 _atom_site_symmetry_multiplicity
 _atom_site_fract_x
 _atom_site_fract_y
 _atom_site_fract_z
 _atom_site_occupancy
  Tb  Tb0  1  0.350651  0.350651  0.350651  1
  Tb  Tb1  1  0.350651  0.350651  0.948047  1
  Tb  Tb2  1  0.350651  0.948047  0.350651  1
  Tb  Tb3  1  0.948047  0.350651  0.350651  1
  Nd  Nd4  1  0.937779  0.562221  0.562221  1
  Nd  Nd5  1  0.562221  0.937779  0.937779  1
  Nd  Nd6  1  0.562252  0.937748  0.562252  1
  Nd  Nd7  1  0.937748  0.562252  0.937748  1
  Nd  Nd8  1  0.562252  0.562252  0.937748  1
  Nd  Nd9  1  0.937748  0.937748  0.562252  1
  Dy  Dy10  1  0.188246  0.811754  0.188246  1
  Dy  Dy11  1  0.811754  0.188246  0.811754  1
  Dy  Dy12  1  0.188246  0.188246  0.811754  1
  Dy  Dy13  1  0.811754  0.811754  0.188246  1
  Y  Y14  1  0.811595  0.188405  0.188405  1
  Y  Y15  1  0.188405  0.811595  0.811595  1
  Cd  Cd16  1  0.579905  0.579999  0.579999  1
  Cd  Cd17  1  0.579999  0.579905  0.260098  1
  Cd  Cd18  1  0.579999  0.260098  0.579905  1
  Cd  Cd19  1  0.260098  0.579999  0.579999  1
  Pt  Pt20  1  0.143121  0.142326  0.142326  1
  Pt  Pt21  1  0.142326  0.143121  0.572225  1
  Pt  Pt22  1  0.142326  0.572225  0.143121  1
  Pt  Pt23  1  0.572225  0.142326  0.142326  1
