# generated using pymatgen
data_Pr3SmTc4F28
_symmetry_space_group_name_H-M   'P 1'
_cell_length_a   5.72179227
_cell_length_b   9.20668802
_cell_length_c   12.37419304
_cell_angle_alpha   62.13291021
_cell_angle_beta   90.03489552
_cell_angle_gamma   90.01020944
_symmetry_Int_Tables_number   1
_chemical_formula_structural   Pr3SmTc4F28
_chemical_formula_sum   'Pr3 Sm1 Tc4 F28'
_cell_volume   576.26389816
_cell_formula_units_Z   1
loop_
 _symmetry_equiv_pos_site_id
 _symmetry_equiv_pos_as_xyz
  1  'x, y, z'
loop_
 _atom_site_type_symbol
 _atom_site_label
 _atom_site_symmetry_multiplicity
 _atom_site_fract_x
 _atom_site_fract_y
 _atom_site_fract_z
 _atom_site_occupancy
  Pr  Pr0  1  0.258477  0.186310  0.735734  1
  Pr  Pr1  1  0.240782  0.188768  0.235610  1
  Pr  Pr2  1  0.740942  0.809863  0.264477  1
  Sm  Sm3  1  0.759444  0.809766  0.764359  1
  Tc  Tc4  1  0.756376  0.276180  0.956122  1
  Tc  Tc5  1  0.257612  0.726577  0.544806  1
  Tc  Tc6  1  0.244082  0.726910  0.039905  1
  Tc  Tc7  1  0.744458  0.271382  0.459113  1
  F  F8  1  0.442221  0.710756  0.916824  1
  F  F9  1  0.938935  0.290178  0.582488  1
  F  F10  1  0.562099  0.292895  0.080355  1
  F  F11  1  0.060169  0.709513  0.421419  1
  F  F12  1  0.455865  0.280235  0.542951  1
  F  F13  1  0.957147  0.720734  0.953234  1
  F  F14  1  0.543401  0.718455  0.458656  1
  F  F15  1  0.044288  0.283878  0.040921  1
  F  F16  1  0.766335  0.517506  0.860947  1
  F  F17  1  0.267428  0.485883  0.640088  1
  F  F18  1  0.231465  0.486556  0.135795  1
  F  F19  1  0.733306  0.512401  0.363077  1
  F  F20  1  0.759233  0.035835  0.050173  1
  F  F21  1  0.259697  0.966650  0.450618  1
  F  F22  1  0.241506  0.967390  0.948113  1
  F  F23  1  0.740926  0.031449  0.553586  1
  F  F24  1  0.979410  0.731425  0.636605  1
  F  F25  1  0.476300  0.271416  0.865991  1
  F  F26  1  0.025528  0.269376  0.368749  1
  F  F27  1  0.523306  0.729505  0.131492  1
  F  F28  1  0.051502  0.742811  0.166236  1
  F  F29  1  0.554829  0.255751  0.332119  1
  F  F30  1  0.946101  0.259610  0.829538  1
  F  F31  1  0.452432  0.744990  0.669554  1
  F  F32  1  0.404981  0.965488  0.229748  1
  F  F33  1  0.904794  0.033569  0.270246  1
  F  F34  1  0.591183  0.025773  0.769079  1
  F  F35  1  0.083443  0.964217  0.731271  1
