# generated using pymatgen
data_Y10Be2I15
_symmetry_space_group_name_H-M   'P 1'
_cell_length_a   9.70740086
_cell_length_b   10.52770422
_cell_length_c   11.48162750
_cell_angle_alpha   91.33600966
_cell_angle_beta   114.55929395
_cell_angle_gamma   110.72228151
_symmetry_Int_Tables_number   1
_chemical_formula_structural   Y10Be2I15
_chemical_formula_sum   'Y10 Be2 I15'
_cell_volume   977.96064412
_cell_formula_units_Z   1
loop_
 _symmetry_equiv_pos_site_id
 _symmetry_equiv_pos_as_xyz
  1  'x, y, z'
loop_
 _atom_site_type_symbol
 _atom_site_label
 _atom_site_symmetry_multiplicity
 _atom_site_fract_x
 _atom_site_fract_y
 _atom_site_fract_z
 _atom_site_occupancy
  Y  Y0  1  0.790044  0.400237  0.272074  1
  Y  Y1  1  0.209956  0.599763  0.727926  1
  Y  Y2  1  0.667045  0.748725  0.823363  1
  Y  Y3  1  0.332955  0.251275  0.176637  1
  Y  Y4  1  0.524056  0.706150  0.090352  1
  Y  Y5  1  0.475944  0.293850  0.909648  1
  Y  Y6  1  0.583022  0.044410  0.318932  1
  Y  Y7  1  0.416978  0.955590  0.681068  1
  Y  Y8  1  0.722058  0.074460  0.048549  1
  Y  Y9  1  0.277942  0.925540  0.951451  1
  Be  Be10  1  0.469474  0.823390  0.880868  1
  Be  Be11  1  0.530526  0.176610  0.119132  1
  I  I12  1  0.000000  0.000000  0.000000  1
  I  I13  1  0.638563  0.884369  0.581684  1
  I  I14  1  0.361437  0.115631  0.418316  1
  I  I15  1  0.887110  0.301502  0.532134  1
  I  I16  1  0.112890  0.698498  0.467866  1
  I  I17  1  0.286580  0.760243  0.178936  1
  I  I18  1  0.713420  0.239757  0.821064  1
  I  I19  1  0.056604  0.339539  0.225331  1
  I  I20  1  0.162134  0.057006  0.701361  1
  I  I21  1  0.837866  0.942994  0.298639  1
  I  I22  1  0.230347  0.410482  0.942217  1
  I  I23  1  0.769653  0.589518  0.057783  1
  I  I24  1  0.410212  0.458288  0.661898  1
  I  I25  1  0.589788  0.541712  0.338102  1
  I  I26  1  0.943396  0.660461  0.774669  1
