# generated using pymatgen
data_Sr2YPuO6
_symmetry_space_group_name_H-M   'P 1'
_cell_length_a   6.09781500
_cell_length_b   5.99676910
_cell_length_c   10.40140470
_cell_angle_alpha   54.74650097
_cell_angle_beta   90.00000000
_cell_angle_gamma   90.00000000
_symmetry_Int_Tables_number   1
_chemical_formula_structural   Sr2YPuO6
_chemical_formula_sum   'Sr4 Y2 Pu2 O12'
_cell_volume   310.59631260
_cell_formula_units_Z   2
loop_
 _symmetry_equiv_pos_site_id
 _symmetry_equiv_pos_as_xyz
  1  'x, y, z'
loop_
 _atom_site_type_symbol
 _atom_site_label
 _atom_site_symmetry_multiplicity
 _atom_site_fract_x
 _atom_site_fract_y
 _atom_site_fract_z
 _atom_site_occupancy
  Sr  Sr0  1  0.458806  0.261159  0.749800  1
  Sr  Sr1  1  0.958806  0.738841  0.750200  1
  Sr  Sr2  1  0.041194  0.261159  0.249800  1
  Sr  Sr3  1  0.541194  0.738841  0.250200  1
  Y  Y4  1  0.500000  0.000000  0.500000  1
  Y  Y5  1  0.000000  0.000000  0.000000  1
  Pu  Pu6  1  0.000000  0.500000  0.500000  1
  Pu  Pu7  1  0.500000  0.500000  0.000000  1
  O  O8  1  0.195982  0.738069  0.547750  1
  O  O9  1  0.695982  0.261931  0.952250  1
  O  O10  1  0.804018  0.261931  0.452250  1
  O  O11  1  0.304018  0.738069  0.047750  1
  O  O12  1  0.708897  0.645902  0.553729  1
  O  O13  1  0.208897  0.354098  0.946271  1
  O  O14  1  0.291103  0.354098  0.446271  1
  O  O15  1  0.791103  0.645902  0.053729  1
  O  O16  1  0.033454  0.163817  0.740309  1
  O  O17  1  0.533454  0.836183  0.759691  1
  O  O18  1  0.966546  0.836183  0.259691  1
  O  O19  1  0.466546  0.163817  0.240309  1
