# generated using pymatgen
data_Tb5DyCo16(P6W)2
_symmetry_space_group_name_H-M   'P 1'
_cell_length_a   3.73735000
_cell_length_b   10.58663802
_cell_length_c   12.28549402
_cell_angle_alpha   89.99382775
_cell_angle_beta   90.00000000
_cell_angle_gamma   90.00000000
_symmetry_Int_Tables_number   1
_chemical_formula_structural   Tb5DyCo16(P6W)2
_chemical_formula_sum   'Tb5 Dy1 Co16 P12 W2'
_cell_volume   486.08750442
_cell_formula_units_Z   1
loop_
 _symmetry_equiv_pos_site_id
 _symmetry_equiv_pos_as_xyz
  1  'x, y, z'
loop_
 _atom_site_type_symbol
 _atom_site_label
 _atom_site_symmetry_multiplicity
 _atom_site_fract_x
 _atom_site_fract_y
 _atom_site_fract_z
 _atom_site_occupancy
  Tb  Tb0  1  0.000000  0.500043  0.524124  1
  Tb  Tb1  1  0.500000  0.999950  0.475719  1
  Tb  Tb2  1  0.500000  0.180582  0.205172  1
  Tb  Tb3  1  0.000000  0.680592  0.794890  1
  Tb  Tb4  1  0.000000  0.319438  0.794893  1
  Dy  Dy5  1  0.500000  0.819296  0.205074  1
  Co  Co6  1  0.500000  0.500043  0.701348  1
  Co  Co7  1  0.000000  0.999692  0.298486  1
  Co  Co8  1  0.000000  0.500056  0.987339  1
  Co  Co9  1  0.500000  0.999995  0.012921  1
  Co  Co10  1  0.500000  0.332708  0.990735  1
  Co  Co11  1  0.500000  0.667370  0.990796  1
  Co  Co12  1  0.000000  0.167176  0.009415  1
  Co  Co13  1  0.000000  0.832695  0.009611  1
  Co  Co14  1  0.500000  0.295829  0.431182  1
  Co  Co15  1  0.500000  0.704249  0.431032  1
  Co  Co16  1  0.000000  0.204170  0.568700  1
  Co  Co17  1  0.000000  0.795790  0.568564  1
  Co  Co18  1  0.500000  0.878611  0.707753  1
  Co  Co19  1  0.500000  0.121405  0.707803  1
  Co  Co20  1  0.000000  0.621609  0.292063  1
  Co  Co21  1  0.000000  0.378697  0.292223  1
  P  P22  1  0.500000  0.500122  0.881075  1
  P  P23  1  0.000000  0.999621  0.119201  1
  P  P24  1  0.500000  0.499955  0.349331  1
  P  P25  1  0.000000  0.000002  0.650612  1
  P  P26  1  0.500000  0.310779  0.615579  1
  P  P27  1  0.500000  0.689253  0.615484  1
  P  P28  1  0.000000  0.189170  0.384378  1
  P  P29  1  0.000000  0.810824  0.383999  1
  P  P30  1  0.500000  0.844408  0.893085  1
  P  P31  1  0.500000  0.155423  0.893078  1
  P  P32  1  0.000000  0.655890  0.107198  1
  P  P33  1  0.000000  0.344481  0.107047  1
  W  W34  1  0.500000  0.500174  0.156087  1
  W  W35  1  0.000000  0.999903  0.844003  1
