# generated using pymatgen
data_Dy6Nb4Al12Ru7
_symmetry_space_group_name_H-M   'P 1'
_cell_length_a   9.02949384
_cell_length_b   9.02949361
_cell_length_c   9.02949500
_cell_angle_alpha   59.99999859
_cell_angle_beta   59.99999941
_cell_angle_gamma   60.00000725
_symmetry_Int_Tables_number   1
_chemical_formula_structural   Dy6Nb4Al12Ru7
_chemical_formula_sum   'Dy6 Nb4 Al12 Ru7'
_cell_volume   520.56538028
_cell_formula_units_Z   1
loop_
 _symmetry_equiv_pos_site_id
 _symmetry_equiv_pos_as_xyz
  1  'x, y, z'
loop_
 _atom_site_type_symbol
 _atom_site_label
 _atom_site_symmetry_multiplicity
 _atom_site_fract_x
 _atom_site_fract_y
 _atom_site_fract_z
 _atom_site_occupancy
  Dy  Dy0  1  0.705578  0.705578  0.294422  1
  Dy  Dy1  1  0.294422  0.705578  0.294422  1
  Dy  Dy2  1  0.705578  0.294422  0.294422  1
  Dy  Dy3  1  0.294422  0.294422  0.705578  1
  Dy  Dy4  1  0.705578  0.294422  0.705578  1
  Dy  Dy5  1  0.294422  0.705578  0.705578  1
  Nb  Nb6  1  0.880058  0.880058  0.359828  1
  Nb  Nb7  1  0.880058  0.359828  0.880058  1
  Nb  Nb8  1  0.359828  0.880058  0.880058  1
  Nb  Nb9  1  0.880058  0.880058  0.880058  1
  Al  Al10  1  0.120282  0.120282  0.639152  1
  Al  Al11  1  0.120282  0.639152  0.120282  1
  Al  Al12  1  0.639152  0.120282  0.120282  1
  Al  Al13  1  0.120282  0.120282  0.120282  1
  Al  Al14  1  0.668264  0.668264  0.995206  1
  Al  Al15  1  0.668264  0.995206  0.668264  1
  Al  Al16  1  0.995206  0.668264  0.668264  1
  Al  Al17  1  0.668264  0.668264  0.668264  1
  Al  Al18  1  0.330260  0.330260  0.009219  1
  Al  Al19  1  0.330260  0.009219  0.330260  1
  Al  Al20  1  0.009219  0.330260  0.330260  1
  Al  Al21  1  0.330260  0.330260  0.330260  1
  Ru  Ru22  1  0.000000  0.000000  0.000000  1
  Ru  Ru23  1  0.996738  0.996738  0.503262  1
  Ru  Ru24  1  0.503262  0.996738  0.503262  1
  Ru  Ru25  1  0.996738  0.503262  0.503262  1
  Ru  Ru26  1  0.503262  0.503262  0.996738  1
  Ru  Ru27  1  0.996738  0.503262  0.996738  1
  Ru  Ru28  1  0.503262  0.996738  0.996738  1
