# generated using pymatgen
data_Sc4TcNiRu6
_symmetry_space_group_name_H-M   'P 1'
_cell_length_a   5.09513493
_cell_length_b   5.17365185
_cell_length_c   8.63986400
_cell_angle_alpha   90.00000000
_cell_angle_beta   90.00000000
_cell_angle_gamma   121.08406477
_symmetry_Int_Tables_number   1
_chemical_formula_structural   Sc4TcNiRu6
_chemical_formula_sum   'Sc4 Tc1 Ni1 Ru6'
_cell_volume   195.04817325
_cell_formula_units_Z   1
loop_
 _symmetry_equiv_pos_site_id
 _symmetry_equiv_pos_as_xyz
  1  'x, y, z'
loop_
 _atom_site_type_symbol
 _atom_site_label
 _atom_site_symmetry_multiplicity
 _atom_site_fract_x
 _atom_site_fract_y
 _atom_site_fract_z
 _atom_site_occupancy
  Sc  Sc0  1  0.332810  0.664610  0.431373  1
  Sc  Sc1  1  0.661497  0.329728  0.563893  1
  Sc  Sc2  1  0.661497  0.329728  0.936107  1
  Sc  Sc3  1  0.332810  0.664610  0.068627  1
  Tc  Tc4  1  0.667830  0.835026  0.750000  1
  Ni  Ni5  1  0.834435  0.170943  0.250000  1
  Ru  Ru6  1  0.988734  0.992920  0.496736  1
  Ru  Ru7  1  0.988734  0.992920  0.003264  1
  Ru  Ru8  1  0.829921  0.661623  0.250000  1
  Ru  Ru9  1  0.347999  0.177967  0.250000  1
  Ru  Ru10  1  0.174965  0.830744  0.750000  1
  Ru  Ru11  1  0.178765  0.349178  0.750000  1
