# generated using pymatgen
data_Ir2PdPtF24
_symmetry_space_group_name_H-M   'P 1'
_cell_length_a   5.15643528
_cell_length_b   8.91355000
_cell_length_c   9.68590346
_cell_angle_alpha   90.00000000
_cell_angle_beta   90.17951166
_cell_angle_gamma   90.00000000
_symmetry_Int_Tables_number   1
_chemical_formula_structural   Ir2PdPtF24
_chemical_formula_sum   'Ir2 Pd1 Pt1 F24'
_cell_volume   445.18270199
_cell_formula_units_Z   1
loop_
 _symmetry_equiv_pos_site_id
 _symmetry_equiv_pos_as_xyz
  1  'x, y, z'
loop_
 _atom_site_type_symbol
 _atom_site_label
 _atom_site_symmetry_multiplicity
 _atom_site_fract_x
 _atom_site_fract_y
 _atom_site_fract_z
 _atom_site_occupancy
  Ir  Ir0  1  0.406548  0.750000  0.126489  1
  Ir  Ir1  1  0.093843  0.750000  0.627415  1
  Pd  Pd2  1  0.593933  0.250000  0.873333  1
  Pt  Pt3  1  0.905618  0.250000  0.372883  1
  F  F4  1  0.247383  0.601349  0.517851  1
  F  F5  1  0.251773  0.898625  0.017281  1
  F  F6  1  0.940814  0.898495  0.736582  1
  F  F7  1  0.200697  0.250000  0.490467  1
  F  F8  1  0.748948  0.099304  0.985095  1
  F  F9  1  0.560111  0.898527  0.236522  1
  F  F10  1  0.298424  0.250000  0.989430  1
  F  F11  1  0.247383  0.898651  0.517851  1
  F  F12  1  0.750782  0.400707  0.483657  1
  F  F13  1  0.439250  0.400204  0.761304  1
  F  F14  1  0.748948  0.400696  0.985095  1
  F  F15  1  0.802964  0.750000  0.510709  1
  F  F16  1  0.696949  0.750000  0.010925  1
  F  F17  1  0.251773  0.601375  0.017281  1
  F  F18  1  0.439250  0.099796  0.761304  1
  F  F19  1  0.060585  0.400266  0.261939  1
  F  F20  1  0.610077  0.250000  0.255552  1
  F  F21  1  0.560111  0.601473  0.236522  1
  F  F22  1  0.889965  0.250000  0.757058  1
  F  F23  1  0.115536  0.750000  0.242218  1
  F  F24  1  0.060585  0.099734  0.261939  1
  F  F25  1  0.940814  0.601505  0.736582  1
  F  F26  1  0.386156  0.750000  0.743058  1
  F  F27  1  0.750782  0.099293  0.483657  1
