# generated using pymatgen
data_ErLu3(WN2)4
_symmetry_space_group_name_H-M   'P 1'
_cell_length_a   3.15986700
_cell_length_b   5.65135714
_cell_length_c   10.45952912
_cell_angle_alpha   90.07292847
_cell_angle_beta   90.00000000
_cell_angle_gamma   90.00000000
_symmetry_Int_Tables_number   1
_chemical_formula_structural   ErLu3(WN2)4
_chemical_formula_sum   'Er1 Lu3 W4 N8'
_cell_volume   186.78127636
_cell_formula_units_Z   1
loop_
 _symmetry_equiv_pos_site_id
 _symmetry_equiv_pos_as_xyz
  1  'x, y, z'
loop_
 _atom_site_type_symbol
 _atom_site_label
 _atom_site_symmetry_multiplicity
 _atom_site_fract_x
 _atom_site_fract_y
 _atom_site_fract_z
 _atom_site_occupancy
  Er  Er0  1  0.750000  0.419472  0.354287  1
  Lu  Lu1  1  0.250000  0.079599  0.854495  1
  Lu  Lu2  1  0.250000  0.579747  0.646007  1
  Lu  Lu3  1  0.750000  0.920250  0.145119  1
  W  W4  1  0.250000  0.431923  0.094851  1
  W  W5  1  0.250000  0.930844  0.404468  1
  W  W6  1  0.750000  0.568568  0.904466  1
  W  W7  1  0.750000  0.068482  0.595868  1
  N  N8  1  0.250000  0.161701  0.246780  1
  N  N9  1  0.250000  0.665976  0.250865  1
  N  N10  1  0.750000  0.836522  0.752753  1
  N  N11  1  0.750000  0.336786  0.747742  1
  N  N12  1  0.250000  0.769044  0.994653  1
  N  N13  1  0.250000  0.267136  0.506780  1
  N  N14  1  0.750000  0.231290  0.004759  1
  N  N15  1  0.750000  0.732661  0.496107  1
