# generated using pymatgen
data_Rb2U2CuAuSe6
_symmetry_space_group_name_H-M   'P 1'
_cell_length_a   4.20443200
_cell_length_b   8.02318118
_cell_length_c   10.76541396
_cell_angle_alpha   90.07771326
_cell_angle_beta   90.00000000
_cell_angle_gamma   74.81017708
_symmetry_Int_Tables_number   1
_chemical_formula_structural   Rb2U2CuAuSe6
_chemical_formula_sum   'Rb2 U2 Cu1 Au1 Se6'
_cell_volume   350.46118572
_cell_formula_units_Z   1
loop_
 _symmetry_equiv_pos_site_id
 _symmetry_equiv_pos_as_xyz
  1  'x, y, z'
loop_
 _atom_site_type_symbol
 _atom_site_label
 _atom_site_symmetry_multiplicity
 _atom_site_fract_x
 _atom_site_fract_y
 _atom_site_fract_z
 _atom_site_occupancy
  Rb  Rb0  1  0.254626  0.490747  0.249707  1
  Rb  Rb1  1  0.748777  0.502445  0.751215  1
  U  U2  1  0.001433  0.997133  0.999539  1
  U  U3  1  0.001185  0.997629  0.500181  1
  Cu  Cu4  1  0.534025  0.931950  0.249749  1
  Au  Au5  1  0.457023  0.085953  0.749939  1
  Se  Se6  1  0.619806  0.760388  0.059756  1
  Se  Se7  1  0.942572  0.114856  0.250065  1
  Se  Se8  1  0.619484  0.761031  0.439888  1
  Se  Se9  1  0.376540  0.246920  0.541165  1
  Se  Se10  1  0.067878  0.864245  0.749543  1
  Se  Se11  1  0.376650  0.246700  0.959254  1
