# generated using pymatgen
data_Lu4Zn2MoRu5
_symmetry_space_group_name_H-M   'P 1'
_cell_length_a   5.45212471
_cell_length_b   5.23719583
_cell_length_c   8.84626400
_cell_angle_alpha   90.00000000
_cell_angle_beta   90.00000000
_cell_angle_gamma   122.68648464
_symmetry_Int_Tables_number   1
_chemical_formula_structural   Lu4Zn2MoRu5
_chemical_formula_sum   'Lu4 Zn2 Mo1 Ru5'
_cell_volume   212.59347302
_cell_formula_units_Z   1
loop_
 _symmetry_equiv_pos_site_id
 _symmetry_equiv_pos_as_xyz
  1  'x, y, z'
loop_
 _atom_site_type_symbol
 _atom_site_label
 _atom_site_symmetry_multiplicity
 _atom_site_fract_x
 _atom_site_fract_y
 _atom_site_fract_z
 _atom_site_occupancy
  Lu  Lu0  1  0.330842  0.668569  0.439844  1
  Lu  Lu1  1  0.670387  0.345916  0.566144  1
  Lu  Lu2  1  0.670387  0.345916  0.933856  1
  Lu  Lu3  1  0.330842  0.668569  0.060156  1
  Zn  Zn4  1  0.342536  0.160063  0.250000  1
  Zn  Zn5  1  0.836040  0.652677  0.250000  1
  Mo  Mo6  1  0.161833  0.320701  0.750000  1
  Ru  Ru7  1  0.170804  0.818986  0.750000  1
  Ru  Ru8  1  0.650474  0.821019  0.750000  1
  Ru  Ru9  1  0.001263  0.021604  0.002705  1
  Ru  Ru10  1  0.833330  0.154373  0.250000  1
  Ru  Ru11  1  0.001263  0.021604  0.497295  1
