# generated using pymatgen
data_DyY8Th3Co4
_symmetry_space_group_name_H-M   'P 1'
_cell_length_a   6.34993413
_cell_length_b   6.95517367
_cell_length_c   9.62750811
_cell_angle_alpha   90.07528054
_cell_angle_beta   90.00119788
_cell_angle_gamma   91.14788368
_symmetry_Int_Tables_number   1
_chemical_formula_structural   DyY8Th3Co4
_chemical_formula_sum   'Dy1 Y8 Th3 Co4'
_cell_volume   425.11218514
_cell_formula_units_Z   1
loop_
 _symmetry_equiv_pos_site_id
 _symmetry_equiv_pos_as_xyz
  1  'x, y, z'
loop_
 _atom_site_type_symbol
 _atom_site_label
 _atom_site_symmetry_multiplicity
 _atom_site_fract_x
 _atom_site_fract_y
 _atom_site_fract_z
 _atom_site_occupancy
  Dy  Dy0  1  0.323427  0.671370  0.430418  1
  Y  Y1  1  0.672604  0.327190  0.931495  1
  Y  Y2  1  0.645020  0.044205  0.249984  1
  Y  Y3  1  0.176112  0.172575  0.428709  1
  Y  Y4  1  0.828984  0.827667  0.568822  1
  Y  Y5  1  0.176038  0.172590  0.071317  1
  Y  Y6  1  0.828445  0.827863  0.930939  1
  Y  Y7  1  0.672384  0.327487  0.568367  1
  Y  Y8  1  0.323772  0.672177  0.068498  1
  Th  Th9  1  0.157613  0.445255  0.749878  1
  Th  Th10  1  0.345851  0.944100  0.749707  1
  Th  Th11  1  0.841898  0.552981  0.250051  1
  Co  Co12  1  0.529949  0.628683  0.750046  1
  Co  Co13  1  0.971732  0.127851  0.749957  1
  Co  Co14  1  0.037207  0.865747  0.250649  1
  Co  Co15  1  0.468966  0.392257  0.251163  1
