# generated using pymatgen
data_Dy2SnB2Rh5
_symmetry_space_group_name_H-M   'P 1'
_cell_length_a   9.56997900
_cell_length_b   9.56997900
_cell_length_c   3.30109900
_cell_angle_alpha   90.00000000
_cell_angle_beta   90.00000000
_cell_angle_gamma   90.00000000
_symmetry_Int_Tables_number   1
_chemical_formula_structural   Dy2SnB2Rh5
_chemical_formula_sum   'Dy4 Sn2 B4 Rh10'
_cell_volume   302.32949496
_cell_formula_units_Z   2
loop_
 _symmetry_equiv_pos_site_id
 _symmetry_equiv_pos_as_xyz
  1  'x, y, z'
loop_
 _atom_site_type_symbol
 _atom_site_label
 _atom_site_symmetry_multiplicity
 _atom_site_fract_x
 _atom_site_fract_y
 _atom_site_fract_z
 _atom_site_occupancy
  Dy  Dy0  1  0.675285  0.175285  0.000000  1
  Dy  Dy1  1  0.324715  0.824715  0.000000  1
  Dy  Dy2  1  0.175285  0.324715  0.000000  1
  Dy  Dy3  1  0.824715  0.675285  0.000000  1
  Sn  Sn4  1  0.000000  0.000000  0.000000  1
  Sn  Sn5  1  0.500000  0.500000  0.000000  1
  B  B6  1  0.120104  0.620104  0.000000  1
  B  B7  1  0.879896  0.379896  0.000000  1
  B  B8  1  0.620104  0.879896  0.000000  1
  B  B9  1  0.379896  0.120104  0.000000  1
  Rh  Rh10  1  0.500000  0.000000  0.500000  1
  Rh  Rh11  1  0.000000  0.500000  0.500000  1
  Rh  Rh12  1  0.224661  0.070903  0.500000  1
  Rh  Rh13  1  0.775339  0.929097  0.500000  1
  Rh  Rh14  1  0.070903  0.775339  0.500000  1
  Rh  Rh15  1  0.724661  0.429097  0.500000  1
  Rh  Rh16  1  0.929097  0.224661  0.500000  1
  Rh  Rh17  1  0.275339  0.570903  0.500000  1
  Rh  Rh18  1  0.570903  0.724661  0.500000  1
  Rh  Rh19  1  0.429097  0.275339  0.500000  1
