# generated using pymatgen
data_LaY3CdPt
_symmetry_space_group_name_H-M   'P 1'
_cell_length_a   9.86976369
_cell_length_b   9.86976341
_cell_length_c   9.86976400
_cell_angle_alpha   59.99999803
_cell_angle_beta   59.99999897
_cell_angle_gamma   60.00000031
_symmetry_Int_Tables_number   1
_chemical_formula_structural   LaY3CdPt
_chemical_formula_sum   'La4 Y12 Cd4 Pt4'
_cell_volume   679.83772214
_cell_formula_units_Z   4
loop_
 _symmetry_equiv_pos_site_id
 _symmetry_equiv_pos_as_xyz
  1  'x, y, z'
loop_
 _atom_site_type_symbol
 _atom_site_label
 _atom_site_symmetry_multiplicity
 _atom_site_fract_x
 _atom_site_fract_y
 _atom_site_fract_z
 _atom_site_occupancy
  La  La0  1  0.353516  0.353516  0.353516  1
  La  La1  1  0.353516  0.353516  0.939452  1
  La  La2  1  0.353516  0.939452  0.353516  1
  La  La3  1  0.939452  0.353516  0.353516  1
  Y  Y4  1  0.813193  0.186807  0.186807  1
  Y  Y5  1  0.186807  0.813193  0.813193  1
  Y  Y6  1  0.186807  0.813193  0.186807  1
  Y  Y7  1  0.813193  0.186807  0.813193  1
  Y  Y8  1  0.186807  0.186807  0.813193  1
  Y  Y9  1  0.813193  0.813193  0.186807  1
  Y  Y10  1  0.932691  0.567309  0.567309  1
  Y  Y11  1  0.567309  0.932691  0.932691  1
  Y  Y12  1  0.567309  0.932691  0.567309  1
  Y  Y13  1  0.932691  0.567309  0.932691  1
  Y  Y14  1  0.567309  0.567309  0.932691  1
  Y  Y15  1  0.932691  0.932691  0.567309  1
  Cd  Cd16  1  0.583783  0.583783  0.583783  1
  Cd  Cd17  1  0.583783  0.583783  0.248650  1
  Cd  Cd18  1  0.583783  0.248650  0.583783  1
  Cd  Cd19  1  0.248650  0.583783  0.583783  1
  Pt  Pt20  1  0.141378  0.141378  0.141378  1
  Pt  Pt21  1  0.141378  0.141378  0.575867  1
  Pt  Pt22  1  0.141378  0.575867  0.141378  1
  Pt  Pt23  1  0.575867  0.141378  0.141378  1
