# generated using pymatgen
data_Sm4DyY5Sn8
_symmetry_space_group_name_H-M   'P 1'
_cell_length_a   8.06114600
_cell_length_b   8.21273821
_cell_length_c   15.50954500
_cell_angle_alpha   89.98706566
_cell_angle_beta   90.00000000
_cell_angle_gamma   90.00000000
_symmetry_Int_Tables_number   1
_chemical_formula_structural   Sm4DyY5Sn8
_chemical_formula_sum   'Sm8 Dy2 Y10 Sn16'
_cell_volume   1026.79515915
_cell_formula_units_Z   2
loop_
 _symmetry_equiv_pos_site_id
 _symmetry_equiv_pos_as_xyz
  1  'x, y, z'
loop_
 _atom_site_type_symbol
 _atom_site_label
 _atom_site_symmetry_multiplicity
 _atom_site_fract_x
 _atom_site_fract_y
 _atom_site_fract_z
 _atom_site_occupancy
  Sm  Sm0  1  0.518554  0.321021  0.902583  1
  Sm  Sm1  1  0.018554  0.178979  0.597417  1
  Sm  Sm2  1  0.481456  0.678967  0.402561  1
  Sm  Sm3  1  0.981456  0.821033  0.097439  1
  Sm  Sm4  1  0.481442  0.679042  0.097416  1
  Sm  Sm5  1  0.981442  0.820958  0.402584  1
  Sm  Sm6  1  0.518542  0.320989  0.597361  1
  Sm  Sm7  1  0.018542  0.179011  0.902639  1
  Dy  Dy8  1  0.365350  0.835903  0.877844  1
  Dy  Dy9  1  0.865350  0.664097  0.622156  1
  Y  Y10  1  0.634756  0.163893  0.377711  1
  Y  Y11  1  0.134756  0.336107  0.122289  1
  Y  Y12  1  0.634752  0.163900  0.122201  1
  Y  Y13  1  0.134752  0.336100  0.377799  1
  Y  Y14  1  0.365143  0.836072  0.622212  1
  Y  Y15  1  0.865143  0.663928  0.877788  1
  Y  Y16  1  0.197684  0.502613  0.749968  1
  Y  Y17  1  0.697684  0.997387  0.750032  1
  Y  Y18  1  0.802191  0.497417  0.249958  1
  Y  Y19  1  0.302191  0.002583  0.250042  1
  Sn  Sn20  1  0.297225  0.037837  0.041610  1
  Sn  Sn21  1  0.797225  0.462163  0.458390  1
  Sn  Sn22  1  0.702752  0.961982  0.541709  1
  Sn  Sn23  1  0.202752  0.538018  0.958291  1
  Sn  Sn24  1  0.702880  0.962090  0.958318  1
  Sn  Sn25  1  0.202880  0.537910  0.541682  1
  Sn  Sn26  1  0.297228  0.037862  0.458384  1
  Sn  Sn27  1  0.797228  0.462138  0.041616  1
  Sn  Sn28  1  0.564046  0.621040  0.750051  1
  Sn  Sn29  1  0.064046  0.878960  0.749949  1
  Sn  Sn30  1  0.435982  0.379090  0.249999  1
  Sn  Sn31  1  0.935982  0.120910  0.250001  1
  Sn  Sn32  1  0.326783  0.144345  0.750050  1
  Sn  Sn33  1  0.826783  0.355655  0.749950  1
  Sn  Sn34  1  0.673235  0.855546  0.250001  1
  Sn  Sn35  1  0.173235  0.644454  0.249999  1
