# generated using pymatgen
data_Dy2Tm3Nb2P12Ir17
_symmetry_space_group_name_H-M   'P 1'
_cell_length_a   12.57763902
_cell_length_b   12.77965549
_cell_length_c   3.99267500
_cell_angle_alpha   90.00000000
_cell_angle_beta   90.00000000
_cell_angle_gamma   119.43224194
_symmetry_Int_Tables_number   1
_chemical_formula_structural   Dy2Tm3Nb2P12Ir17
_chemical_formula_sum   'Dy2 Tm3 Nb2 P12 Ir17'
_cell_volume   558.94514449
_cell_formula_units_Z   1
loop_
 _symmetry_equiv_pos_site_id
 _symmetry_equiv_pos_as_xyz
  1  'x, y, z'
loop_
 _atom_site_type_symbol
 _atom_site_label
 _atom_site_symmetry_multiplicity
 _atom_site_fract_x
 _atom_site_fract_y
 _atom_site_fract_z
 _atom_site_occupancy
  Dy  Dy0  1  0.186064  0.185977  0.000000  1
  Dy  Dy1  1  0.815370  0.999779  0.000000  1
  Tm  Tm2  1  0.330248  0.660846  0.500000  1
  Tm  Tm3  1  0.668911  0.339168  0.500000  1
  Tm  Tm4  1  0.998862  0.814020  0.000000  1
  Nb  Nb5  1  0.996787  0.451030  0.500000  1
  Nb  Nb6  1  0.546558  0.549533  0.500000  1
  P  P7  1  0.002841  0.643093  0.500000  1
  P  P8  1  0.360442  0.357815  0.500000  1
  P  P9  1  0.645995  0.000117  0.500000  1
  P  P10  1  0.514163  0.683318  0.000000  1
  P  P11  1  0.308655  0.822531  0.000000  1
  P  P12  1  0.162787  0.480824  0.000000  1
  P  P13  1  0.485960  0.177138  0.000000  1
  P  P14  1  0.681866  0.518899  0.000000  1
  P  P15  1  0.830605  0.316680  0.000000  1
  P  P16  1  0.000309  0.175270  0.500000  1
  P  P17  1  0.825280  0.824725  0.500000  1
  P  P18  1  0.181610  0.999593  0.500000  1
  Ir  Ir19  1  0.504607  0.862751  0.000000  1
  Ir  Ir20  1  0.127797  0.640804  0.000000  1
  Ir  Ir21  1  0.354066  0.494622  0.000000  1
  Ir  Ir22  1  0.486765  0.359015  0.000000  1
  Ir  Ir23  1  0.859375  0.505593  0.000000  1
  Ir  Ir24  1  0.641766  0.136740  0.000000  1
  Ir  Ir25  1  0.464572  0.999750  0.500000  1
  Ir  Ir26  1  0.997116  0.281995  0.000000  1
  Ir  Ir27  1  0.715145  0.717644  0.000000  1
  Ir  Ir28  1  0.293038  0.999618  0.000000  1
  Ir  Ir29  1  0.624764  0.807395  0.500000  1
  Ir  Ir30  1  0.200565  0.823097  0.500000  1
  Ir  Ir31  1  0.177407  0.368759  0.500000  1
  Ir  Ir32  1  0.378475  0.176353  0.500000  1
  Ir  Ir33  1  0.810484  0.632989  0.500000  1
  Ir  Ir34  1  0.817168  0.193097  0.500000  1
  Ir  Ir35  1  0.003577  0.999418  0.500000  1
