# generated using pymatgen
data_Er10Ru2RhAu3
_symmetry_space_group_name_H-M   'P 1'
_cell_length_a   11.01527643
_cell_length_b   11.01505900
_cell_length_c   6.54049600
_cell_angle_alpha   90.00000000
_cell_angle_beta   90.01595815
_cell_angle_gamma   90.00000000
_symmetry_Int_Tables_number   1
_chemical_formula_structural   Er10Ru2RhAu3
_chemical_formula_sum   'Er20 Ru4 Rh2 Au6'
_cell_volume   793.58398599
_cell_formula_units_Z   2
loop_
 _symmetry_equiv_pos_site_id
 _symmetry_equiv_pos_as_xyz
  1  'x, y, z'
loop_
 _atom_site_type_symbol
 _atom_site_label
 _atom_site_symmetry_multiplicity
 _atom_site_fract_x
 _atom_site_fract_y
 _atom_site_fract_z
 _atom_site_occupancy
  Er  Er0  1  0.302296  0.084000  0.371319  1
  Er  Er1  1  0.302299  0.916014  0.871333  1
  Er  Er2  1  0.706433  0.083238  0.875714  1
  Er  Er3  1  0.706436  0.916770  0.375715  1
  Er  Er4  1  0.592097  0.801323  0.867198  1
  Er  Er5  1  0.592096  0.198684  0.367185  1
  Er  Er6  1  0.418641  0.801502  0.368535  1
  Er  Er7  1  0.418641  0.198509  0.868510  1
  Er  Er8  1  0.197849  0.416558  0.632735  1
  Er  Er9  1  0.197853  0.583428  0.132713  1
  Er  Er10  1  0.801137  0.410101  0.130855  1
  Er  Er11  1  0.801138  0.589895  0.630853  1
  Er  Er12  1  0.912089  0.701752  0.118822  1
  Er  Er13  1  0.912087  0.298245  0.618828  1
  Er  Er14  1  0.078874  0.704276  0.632890  1
  Er  Er15  1  0.078861  0.295716  0.132893  1
  Er  Er16  1  0.991313  0.001530  0.500567  1
  Er  Er17  1  0.991301  0.998471  0.000570  1
  Er  Er18  1  0.499612  0.500529  0.000470  1
  Er  Er19  1  0.499602  0.499456  0.500468  1
  Ru  Ru20  1  0.500649  0.000086  0.122912  1
  Ru  Ru21  1  0.500649  0.999931  0.622913  1
  Ru  Ru22  1  0.999493  0.499816  0.876886  1
  Ru  Ru23  1  0.999497  0.500181  0.376884  1
  Rh  Rh24  1  0.847745  0.151587  0.249650  1
  Rh  Rh25  1  0.847749  0.848420  0.749618  1
  Au  Au26  1  0.152791  0.153173  0.750976  1
  Au  Au27  1  0.152799  0.846819  0.250959  1
  Au  Au28  1  0.654181  0.345011  0.750496  1
  Au  Au29  1  0.654173  0.654982  0.250505  1
  Au  Au30  1  0.344800  0.345839  0.250015  1
  Au  Au31  1  0.344823  0.654158  0.750016  1
