# generated using pymatgen
data_Ta2Nb3AlSi2
_symmetry_space_group_name_H-M   'P 1'
_cell_length_a   7.63375542
_cell_length_b   7.63375436
_cell_length_c   7.63023199
_cell_angle_alpha   128.27373081
_cell_angle_beta   128.27371129
_cell_angle_gamma   76.21576820
_symmetry_Int_Tables_number   1
_chemical_formula_structural   Ta2Nb3AlSi2
_chemical_formula_sum   'Ta4 Nb6 Al2 Si4'
_cell_volume   266.30728383
_cell_formula_units_Z   2
loop_
 _symmetry_equiv_pos_site_id
 _symmetry_equiv_pos_as_xyz
  1  'x, y, z'
loop_
 _atom_site_type_symbol
 _atom_site_label
 _atom_site_symmetry_multiplicity
 _atom_site_fract_x
 _atom_site_fract_y
 _atom_site_fract_z
 _atom_site_occupancy
  Ta  Ta0  1  0.483549  0.983549  0.170593  1
  Ta  Ta1  1  0.812957  0.312957  0.829407  1
  Ta  Ta2  1  0.000218  0.000218  0.000000  1
  Ta  Ta3  1  0.500218  0.500218  0.000000  1
  Nb  Nb4  1  0.016479  0.187456  0.500000  1
  Nb  Nb5  1  0.687456  0.516479  0.500000  1
  Nb  Nb6  1  0.518337  0.018337  0.831281  1
  Nb  Nb7  1  0.187057  0.687057  0.168719  1
  Nb  Nb8  1  0.982214  0.811966  0.500000  1
  Nb  Nb9  1  0.311966  0.482214  0.500000  1
  Al  Al10  1  0.750015  0.750015  0.000000  1
  Al  Al11  1  0.250015  0.250015  0.000000  1
  Si  Si12  1  0.370307  0.129386  0.500000  1
  Si  Si13  1  0.629386  0.870307  0.500000  1
  Si  Si14  1  0.870261  0.370261  0.240696  1
  Si  Si15  1  0.129566  0.629566  0.759304  1
