# generated using pymatgen
data_Er9Sc11Pt16
_symmetry_space_group_name_H-M   'P 1'
_cell_length_a   7.23461132
_cell_length_b   7.29032038
_cell_length_c   14.17296171
_cell_angle_alpha   89.99260016
_cell_angle_beta   90.37181641
_cell_angle_gamma   90.12500005
_symmetry_Int_Tables_number   1
_chemical_formula_structural   Er9Sc11Pt16
_chemical_formula_sum   'Er9 Sc11 Pt16'
_cell_volume   747.50181316
_cell_formula_units_Z   1
loop_
 _symmetry_equiv_pos_site_id
 _symmetry_equiv_pos_as_xyz
  1  'x, y, z'
loop_
 _atom_site_type_symbol
 _atom_site_label
 _atom_site_symmetry_multiplicity
 _atom_site_fract_x
 _atom_site_fract_y
 _atom_site_fract_z
 _atom_site_occupancy
  Er  Er0  1  0.153985  0.333463  0.622496  1
  Er  Er1  1  0.499055  0.681394  0.592152  1
  Er  Er2  1  0.996184  0.822904  0.909416  1
  Er  Er3  1  0.503643  0.323323  0.092782  1
  Er  Er4  1  0.004832  0.175060  0.402649  1
  Er  Er5  1  0.503905  0.323125  0.406349  1
  Er  Er6  1  0.003585  0.176785  0.092978  1
  Er  Er7  1  0.497041  0.677036  0.909879  1
  Er  Er8  1  0.994918  0.822637  0.592935  1
  Sc  Sc9  1  0.653145  0.166776  0.625616  1
  Sc  Sc10  1  0.155206  0.332887  0.877119  1
  Sc  Sc11  1  0.345118  0.834232  0.123987  1
  Sc  Sc12  1  0.844112  0.668800  0.374039  1
  Sc  Sc13  1  0.350531  0.834807  0.373329  1
  Sc  Sc14  1  0.844932  0.666098  0.123947  1
  Sc  Sc15  1  0.655191  0.165936  0.877424  1
  Sc  Sc16  1  0.819489  0.501881  0.753624  1
  Sc  Sc17  1  0.322626  0.996883  0.752694  1
  Sc  Sc18  1  0.178196  0.500121  0.248940  1
  Sc  Sc19  1  0.679194  0.001223  0.247956  1
  Pt  Pt20  1  0.685960  0.959701  0.458487  1
  Pt  Pt21  1  0.181651  0.542740  0.041640  1
  Pt  Pt22  1  0.317170  0.042603  0.960430  1
  Pt  Pt23  1  0.810712  0.458528  0.538040  1
  Pt  Pt24  1  0.321671  0.033171  0.538910  1
  Pt  Pt25  1  0.818282  0.457226  0.959921  1
  Pt  Pt26  1  0.682688  0.956922  0.041132  1
  Pt  Pt27  1  0.180656  0.547692  0.454356  1
  Pt  Pt28  1  0.459087  0.384856  0.753150  1
  Pt  Pt29  1  0.954909  0.111788  0.754223  1
  Pt  Pt30  1  0.543603  0.617411  0.248371  1
  Pt  Pt31  1  0.044300  0.882210  0.248475  1
  Pt  Pt32  1  0.680558  0.849458  0.752120  1
  Pt  Pt33  1  0.183039  0.648603  0.753120  1
  Pt  Pt34  1  0.316337  0.148535  0.248770  1
  Pt  Pt35  1  0.814488  0.353184  0.248544  1
