# generated using pymatgen
data_Sc5P12Ru15Pt4
_symmetry_space_group_name_H-M   'P 1'
_cell_length_a   12.51517700
_cell_length_b   12.51517756
_cell_length_c   3.91330600
_cell_angle_alpha   90.00000000
_cell_angle_beta   90.00000000
_cell_angle_gamma   120.00000644
_symmetry_Int_Tables_number   1
_chemical_formula_structural   Sc5P12Ru15Pt4
_chemical_formula_sum   'Sc5 P12 Ru15 Pt4'
_cell_volume   530.82140131
_cell_formula_units_Z   1
loop_
 _symmetry_equiv_pos_site_id
 _symmetry_equiv_pos_as_xyz
  1  'x, y, z'
loop_
 _atom_site_type_symbol
 _atom_site_label
 _atom_site_symmetry_multiplicity
 _atom_site_fract_x
 _atom_site_fract_y
 _atom_site_fract_z
 _atom_site_occupancy
  Sc  Sc0  1  0.333333  0.666667  0.000000  1
  Sc  Sc1  1  0.666667  0.333333  0.000000  1
  Sc  Sc2  1  0.805255  0.994237  0.500000  1
  Sc  Sc3  1  0.005763  0.811017  0.500000  1
  Sc  Sc4  1  0.188983  0.194745  0.500000  1
  P  P5  1  0.176017  0.989771  0.000000  1
  P  P6  1  0.010229  0.186246  0.000000  1
  P  P7  1  0.813754  0.823983  0.000000  1
  P  P8  1  0.173792  0.482313  0.500000  1
  P  P9  1  0.517687  0.691479  0.500000  1
  P  P10  1  0.308521  0.826208  0.500000  1
  P  P11  1  0.678629  0.511949  0.500000  1
  P  P12  1  0.833319  0.321371  0.500000  1
  P  P13  1  0.488051  0.166681  0.500000  1
  P  P14  1  0.622904  0.989164  0.000000  1
  P  P15  1  0.010836  0.633739  0.000000  1
  P  P16  1  0.366261  0.377096  0.000000  1
  Ru  Ru17  1  0.454376  0.014486  0.000000  1
  Ru  Ru18  1  0.985514  0.439890  0.000000  1
  Ru  Ru19  1  0.560110  0.545624  0.000000  1
  Ru  Ru20  1  0.366600  0.490826  0.500000  1
  Ru  Ru21  1  0.509174  0.875775  0.500000  1
  Ru  Ru22  1  0.124225  0.633400  0.500000  1
  Ru  Ru23  1  0.866183  0.513937  0.500000  1
  Ru  Ru24  1  0.647753  0.133817  0.500000  1
  Ru  Ru25  1  0.486063  0.352247  0.500000  1
  Ru  Ru26  1  0.180760  0.380491  0.000000  1
  Ru  Ru27  1  0.619509  0.800270  0.000000  1
  Ru  Ru28  1  0.199730  0.819240  0.000000  1
  Ru  Ru29  1  0.283412  0.003972  0.500000  1
  Ru  Ru30  1  0.996028  0.279439  0.500000  1
  Ru  Ru31  1  0.720561  0.716588  0.500000  1
  Pt  Pt32  1  0.823765  0.639108  0.000000  1
  Pt  Pt33  1  0.815343  0.176235  0.000000  1
  Pt  Pt34  1  0.360892  0.184657  0.000000  1
  Pt  Pt35  1  0.000000  0.000000  0.000000  1
