# generated using pymatgen
data_Ca6RhWO12
_symmetry_space_group_name_H-M   'P 1'
_cell_length_a   6.59372063
_cell_length_b   6.59372042
_cell_length_c   6.59372085
_cell_angle_alpha   91.93427974
_cell_angle_beta   91.93427605
_cell_angle_gamma   91.93428997
_symmetry_Int_Tables_number   1
_chemical_formula_structural   Ca6RhWO12
_chemical_formula_sum   'Ca6 Rh1 W1 O12'
_cell_volume   286.17482532
_cell_formula_units_Z   1
loop_
 _symmetry_equiv_pos_site_id
 _symmetry_equiv_pos_as_xyz
  1  'x, y, z'
loop_
 _atom_site_type_symbol
 _atom_site_label
 _atom_site_symmetry_multiplicity
 _atom_site_fract_x
 _atom_site_fract_y
 _atom_site_fract_z
 _atom_site_occupancy
  Ca  Ca0  1  0.930634  0.436924  0.745884  1
  Ca  Ca1  1  0.745884  0.930634  0.436924  1
  Ca  Ca2  1  0.563076  0.254116  0.069366  1
  Ca  Ca3  1  0.436924  0.745884  0.930634  1
  Ca  Ca4  1  0.254116  0.069366  0.563076  1
  Ca  Ca5  1  0.069366  0.563076  0.254116  1
  Rh  Rh6  1  0.500000  0.500000  0.500000  1
  W  W7  1  0.000000  0.000000  0.000000  1
  O  O8  1  0.938023  0.283560  0.068372  1
  O  O9  1  0.931628  0.061977  0.716440  1
  O  O10  1  0.784552  0.578741  0.452830  1
  O  O11  1  0.716440  0.931628  0.061977  1
  O  O12  1  0.578741  0.452830  0.784552  1
  O  O13  1  0.547170  0.215448  0.421259  1
  O  O14  1  0.452830  0.784552  0.578741  1
  O  O15  1  0.421259  0.547170  0.215448  1
  O  O16  1  0.283560  0.068372  0.938023  1
  O  O17  1  0.215448  0.421259  0.547170  1
  O  O18  1  0.068372  0.938023  0.283560  1
  O  O19  1  0.061977  0.716440  0.931628  1
