# generated using pymatgen
data_TbHo3Ga20Pt11
_symmetry_space_group_name_H-M   'P 1'
_cell_length_a   4.15917515
_cell_length_b   10.97256136
_cell_length_c   13.74360000
_cell_angle_alpha   82.43899392
_cell_angle_beta   81.31675424
_cell_angle_gamma   79.12035486
_symmetry_Int_Tables_number   1
_chemical_formula_structural   TbHo3Ga20Pt11
_chemical_formula_sum   'Tb1 Ho3 Ga20 Pt11'
_cell_volume   605.43775642
_cell_formula_units_Z   1
loop_
 _symmetry_equiv_pos_site_id
 _symmetry_equiv_pos_as_xyz
  1  'x, y, z'
loop_
 _atom_site_type_symbol
 _atom_site_label
 _atom_site_symmetry_multiplicity
 _atom_site_fract_x
 _atom_site_fract_y
 _atom_site_fract_z
 _atom_site_occupancy
  Tb  Tb0  1  0.225560  0.370650  0.178278  1
  Ho  Ho1  1  0.123457  0.086198  0.665512  1
  Ho  Ho2  1  0.876363  0.913671  0.334664  1
  Ho  Ho3  1  0.774286  0.629074  0.822089  1
  Ga  Ga4  1  0.010904  0.066904  0.911173  1
  Ga  Ga5  1  0.989404  0.932705  0.088788  1
  Ga  Ga6  1  0.064363  0.677622  0.193830  1
  Ga  Ga7  1  0.935755  0.322410  0.806190  1
  Ga  Ga8  1  0.102244  0.343174  0.453469  1
  Ga  Ga9  1  0.897877  0.656974  0.546619  1
  Ga  Ga10  1  0.200602  0.605191  0.991409  1
  Ga  Ga11  1  0.799563  0.395233  0.008135  1
  Ga  Ga12  1  0.260240  0.778765  0.699465  1
  Ga  Ga13  1  0.740213  0.220285  0.300737  1
  Ga  Ga14  1  0.302942  0.900897  0.493976  1
  Ga  Ga15  1  0.696984  0.098985  0.506275  1
  Ga  Ga16  1  0.385852  0.523777  0.701216  1
  Ga  Ga17  1  0.613355  0.477005  0.299182  1
  Ga  Ga18  1  0.396942  0.203883  0.001422  1
  Ga  Ga19  1  0.603233  0.796469  0.998114  1
  Ga  Ga20  1  0.544094  0.281046  0.630525  1
  Ga  Ga21  1  0.455463  0.719256  0.369557  1
  Ga  Ga22  1  0.639009  0.932182  0.791328  1
  Ga  Ga23  1  0.361246  0.067383  0.208578  1
  Pt  Pt24  1  0.499834  0.500000  0.500136  1
  Pt  Pt25  1  0.028135  0.578228  0.369918  1
  Pt  Pt26  1  0.971218  0.422222  0.630334  1
  Pt  Pt27  1  0.143172  0.830840  0.885571  1
  Pt  Pt28  1  0.857605  0.168220  0.113875  1
  Pt  Pt29  1  0.240177  0.127886  0.392577  1
  Pt  Pt30  1  0.759844  0.871957  0.607635  1
  Pt  Pt31  1  0.345482  0.419172  0.891240  1
  Pt  Pt32  1  0.654390  0.581814  0.108247  1
  Pt  Pt33  1  0.507521  0.166424  0.817989  1
  Pt  Pt34  1  0.492671  0.833501  0.181945  1
