# generated using pymatgen
data_DyHf(SnIr)2
_symmetry_space_group_name_H-M   'P 1'
_cell_length_a   7.45084500
_cell_length_b   7.45084297
_cell_length_c   7.61847100
_cell_angle_alpha   90.00000000
_cell_angle_beta   90.00000000
_cell_angle_gamma   120.00000455
_symmetry_Int_Tables_number   1
_chemical_formula_structural   DyHf(SnIr)2
_chemical_formula_sum   'Dy3 Hf3 Sn6 Ir6'
_cell_volume   366.27676534
_cell_formula_units_Z   3
loop_
 _symmetry_equiv_pos_site_id
 _symmetry_equiv_pos_as_xyz
  1  'x, y, z'
loop_
 _atom_site_type_symbol
 _atom_site_label
 _atom_site_symmetry_multiplicity
 _atom_site_fract_x
 _atom_site_fract_y
 _atom_site_fract_z
 _atom_site_occupancy
  Dy  Dy0  1  0.000072  0.406313  0.750000  1
  Dy  Dy1  1  0.593687  0.593759  0.750000  1
  Dy  Dy2  1  0.406241  0.999928  0.750000  1
  Hf  Hf3  1  0.999052  0.390893  0.250000  1
  Hf  Hf4  1  0.609107  0.608159  0.250000  1
  Hf  Hf5  1  0.391841  0.000948  0.250000  1
  Sn  Sn6  1  0.266024  0.266671  0.494078  1
  Sn  Sn7  1  0.000646  0.733976  0.494078  1
  Sn  Sn8  1  0.000646  0.733976  0.005922  1
  Sn  Sn9  1  0.733329  0.999354  0.494078  1
  Sn  Sn10  1  0.733329  0.999354  0.005922  1
  Sn  Sn11  1  0.266024  0.266671  0.005922  1
  Ir  Ir12  1  0.333333  0.666667  0.461028  1
  Ir  Ir13  1  0.666667  0.333333  0.463050  1
  Ir  Ir14  1  0.333333  0.666667  0.038972  1
  Ir  Ir15  1  0.000000  0.000000  0.750000  1
  Ir  Ir16  1  0.000000  0.000000  0.250000  1
  Ir  Ir17  1  0.666667  0.333333  0.036950  1
