# generated using pymatgen
data_ErLu9(SiSb2)2
_symmetry_space_group_name_H-M   'P 1'
_cell_length_a   7.81700305
_cell_length_b   8.89185800
_cell_length_c   11.69488300
_cell_angle_alpha   90.00000000
_cell_angle_beta   90.09188434
_cell_angle_gamma   90.00000000
_symmetry_Int_Tables_number   1
_chemical_formula_structural   ErLu9(SiSb2)2
_chemical_formula_sum   'Er2 Lu18 Si4 Sb8'
_cell_volume   812.88315305
_cell_formula_units_Z   2
loop_
 _symmetry_equiv_pos_site_id
 _symmetry_equiv_pos_as_xyz
  1  'x, y, z'
loop_
 _atom_site_type_symbol
 _atom_site_label
 _atom_site_symmetry_multiplicity
 _atom_site_fract_x
 _atom_site_fract_y
 _atom_site_fract_z
 _atom_site_occupancy
  Er  Er0  1  0.361602  0.250000  0.706845  1
  Er  Er1  1  0.638398  0.750000  0.293155  1
  Lu  Lu2  1  0.335297  0.750000  0.714839  1
  Lu  Lu3  1  0.664703  0.250000  0.285161  1
  Lu  Lu4  1  0.835924  0.250000  0.785604  1
  Lu  Lu5  1  0.164076  0.750000  0.214396  1
  Lu  Lu6  1  0.039111  0.750000  0.502052  1
  Lu  Lu7  1  0.960889  0.250000  0.497948  1
  Lu  Lu8  1  0.539702  0.250000  0.998193  1
  Lu  Lu9  1  0.460298  0.750000  0.001807  1
  Lu  Lu10  1  0.861379  0.750000  0.793343  1
  Lu  Lu11  1  0.138621  0.250000  0.206657  1
  Lu  Lu12  1  0.683772  0.552126  0.565679  1
  Lu  Lu13  1  0.316228  0.447874  0.434321  1
  Lu  Lu14  1  0.183616  0.448002  0.935052  1
  Lu  Lu15  1  0.316228  0.052126  0.434321  1
  Lu  Lu16  1  0.816384  0.551998  0.064948  1
  Lu  Lu17  1  0.683772  0.947874  0.565679  1
  Lu  Lu18  1  0.816384  0.948002  0.064948  1
  Lu  Lu19  1  0.183616  0.051998  0.935052  1
  Si  Si20  1  0.083956  0.750000  0.979744  1
  Si  Si21  1  0.916044  0.250000  0.020256  1
  Si  Si22  1  0.585043  0.250000  0.518838  1
  Si  Si23  1  0.414957  0.750000  0.481162  1
  Sb  Sb24  1  0.570233  0.511412  0.827347  1
  Sb  Sb25  1  0.429767  0.488588  0.172653  1
  Sb  Sb26  1  0.067937  0.489943  0.673317  1
  Sb  Sb27  1  0.429767  0.011412  0.172653  1
  Sb  Sb28  1  0.932063  0.510057  0.326683  1
  Sb  Sb29  1  0.570233  0.988588  0.827347  1
  Sb  Sb30  1  0.932063  0.989943  0.326683  1
  Sb  Sb31  1  0.067937  0.010057  0.673317  1
