# generated using pymatgen
data_Lu9Zn4
_symmetry_space_group_name_H-M   'P 1'
_cell_length_a   8.39159948
_cell_length_b   8.39159982
_cell_length_c   8.39156681
_cell_angle_alpha   95.10541825
_cell_angle_beta   95.09668648
_cell_angle_gamma   145.30316457
_symmetry_Int_Tables_number   1
_chemical_formula_structural   Lu9Zn4
_chemical_formula_sum   'Lu9 Zn4'
_cell_volume   321.07273687
_cell_formula_units_Z   1
loop_
 _symmetry_equiv_pos_site_id
 _symmetry_equiv_pos_as_xyz
  1  'x, y, z'
loop_
 _atom_site_type_symbol
 _atom_site_label
 _atom_site_symmetry_multiplicity
 _atom_site_fract_x
 _atom_site_fract_y
 _atom_site_fract_z
 _atom_site_occupancy
  Lu  Lu0  1  0.499999  0.499999  0.000000  1
  Lu  Lu1  1  0.181839  0.890632  0.072473  1
  Lu  Lu2  1  0.109386  0.181847  0.291233  1
  Lu  Lu3  1  0.882221  0.400660  0.282884  1
  Lu  Lu4  1  0.599364  0.882224  0.481590  1
  Lu  Lu5  1  0.400635  0.117775  0.518409  1
  Lu  Lu6  1  0.117778  0.599339  0.717116  1
  Lu  Lu7  1  0.890613  0.818152  0.708767  1
  Lu  Lu8  1  0.818160  0.109367  0.927527  1
  Zn  Zn9  1  0.390648  0.734859  0.125509  1
  Zn  Zn10  1  0.734890  0.609346  0.344239  1
  Zn  Zn11  1  0.265109  0.390653  0.655761  1
  Zn  Zn12  1  0.609351  0.265140  0.874491  1
