# generated using pymatgen
data_TmPa2(AlNi)3
_symmetry_space_group_name_H-M   'P 1'
_cell_length_a   6.71655800
_cell_length_b   6.81595760
_cell_length_c   3.99573500
_cell_angle_alpha   90.00000000
_cell_angle_beta   90.00000000
_cell_angle_gamma   119.51874738
_symmetry_Int_Tables_number   1
_chemical_formula_structural   TmPa2(AlNi)3
_chemical_formula_sum   'Tm1 Pa2 Al3 Ni3'
_cell_volume   159.17933091
_cell_formula_units_Z   1
loop_
 _symmetry_equiv_pos_site_id
 _symmetry_equiv_pos_as_xyz
  1  'x, y, z'
loop_
 _atom_site_type_symbol
 _atom_site_label
 _atom_site_symmetry_multiplicity
 _atom_site_fract_x
 _atom_site_fract_y
 _atom_site_fract_z
 _atom_site_occupancy
  Tm  Tm0  1  0.417791  0.000000  0.500000  1
  Pa  Pa1  1  0.000892  0.423819  0.500000  1
  Pa  Pa2  1  0.577073  0.576181  0.500000  1
  Al  Al3  1  0.004880  0.769095  0.000000  1
  Al  Al4  1  0.235785  0.230905  0.000000  1
  Al  Al5  1  0.758420  0.000000  0.000000  1
  Ni  Ni6  1  0.331243  0.649477  0.000000  1
  Ni  Ni7  1  0.681768  0.350523  0.000000  1
  Ni  Ni8  1  0.992149  0.000000  0.500000  1
