# generated using pymatgen
data_NdY5Cd23As
_symmetry_space_group_name_H-M   'P 1'
_cell_length_a   10.03481996
_cell_length_b   9.95302631
_cell_length_c   9.95302588
_cell_angle_alpha   60.54443688
_cell_angle_beta   59.72777866
_cell_angle_gamma   59.72777693
_symmetry_Int_Tables_number   1
_chemical_formula_structural   NdY5Cd23As
_chemical_formula_sum   'Nd1 Y5 Cd23 As1'
_cell_volume   702.82256682
_cell_formula_units_Z   1
loop_
 _symmetry_equiv_pos_site_id
 _symmetry_equiv_pos_as_xyz
  1  'x, y, z'
loop_
 _atom_site_type_symbol
 _atom_site_label
 _atom_site_symmetry_multiplicity
 _atom_site_fract_x
 _atom_site_fract_y
 _atom_site_fract_z
 _atom_site_occupancy
  Nd  Nd0  1  0.208355  0.791645  0.791645  1
  Y  Y1  1  0.797912  0.798007  0.202088  1
  Y  Y2  1  0.201993  0.798007  0.202088  1
  Y  Y3  1  0.792570  0.207430  0.207430  1
  Y  Y4  1  0.201993  0.202088  0.798007  1
  Y  Y5  1  0.797912  0.202088  0.798007  1
  Cd  Cd6  1  0.836609  0.840063  0.486721  1
  Cd  Cd7  1  0.836609  0.486721  0.840063  1
  Cd  Cd8  1  0.491825  0.835901  0.835901  1
  Cd  Cd9  1  0.836375  0.835901  0.835901  1
  Cd  Cd10  1  0.164099  0.163625  0.508175  1
  Cd  Cd11  1  0.164099  0.508175  0.163625  1
  Cd  Cd12  1  0.513279  0.163391  0.163391  1
  Cd  Cd13  1  0.159937  0.163391  0.163391  1
  Cd  Cd14  1  0.620406  0.623170  0.136017  1
  Cd  Cd15  1  0.620406  0.136017  0.623170  1
  Cd  Cd16  1  0.132914  0.619670  0.619670  1
  Cd  Cd17  1  0.627746  0.619670  0.619670  1
  Cd  Cd18  1  0.380330  0.372254  0.867086  1
  Cd  Cd19  1  0.380330  0.867086  0.372254  1
  Cd  Cd20  1  0.863983  0.379594  0.379594  1
  Cd  Cd21  1  0.376830  0.379594  0.379594  1
  Cd  Cd22  1  0.999620  0.000380  0.500035  1
  Cd  Cd23  1  0.499965  0.000380  0.500035  1
  Cd  Cd24  1  0.999442  0.500558  0.500558  1
  Cd  Cd25  1  0.499965  0.500035  0.000380  1
  Cd  Cd26  1  0.999620  0.500035  0.000380  1
  Cd  Cd27  1  0.499442  0.000558  0.000558  1
  Cd  Cd28  1  0.498074  0.501926  0.501926  1
  As  As29  1  0.997357  0.002643  0.002643  1
