# generated using pymatgen
data_NdY3(Si4Tc3)2
_symmetry_space_group_name_H-M   'P 1'
_cell_length_a   8.12125948
_cell_length_b   5.61593140
_cell_length_c   6.95485007
_cell_angle_alpha   76.65584188
_cell_angle_beta   90.34510823
_cell_angle_gamma   90.00424965
_symmetry_Int_Tables_number   1
_chemical_formula_structural   NdY3(Si4Tc3)2
_chemical_formula_sum   'Nd1 Y3 Si8 Tc6'
_cell_volume   308.62996558
_cell_formula_units_Z   1
loop_
 _symmetry_equiv_pos_site_id
 _symmetry_equiv_pos_as_xyz
  1  'x, y, z'
loop_
 _atom_site_type_symbol
 _atom_site_label
 _atom_site_symmetry_multiplicity
 _atom_site_fract_x
 _atom_site_fract_y
 _atom_site_fract_z
 _atom_site_occupancy
  Nd  Nd0  1  0.567032  0.063021  0.253361  1
  Y  Y1  1  0.932254  0.564490  0.249439  1
  Y  Y2  1  0.431773  0.937316  0.750327  1
  Y  Y3  1  0.067174  0.435729  0.750456  1
  Si  Si4  1  0.589951  0.613846  0.109817  1
  Si  Si5  1  0.090758  0.887368  0.885794  1
  Si  Si6  1  0.409532  0.391976  0.881083  1
  Si  Si7  1  0.912138  0.112442  0.112630  1
  Si  Si8  1  0.755326  0.712552  0.586078  1
  Si  Si9  1  0.248682  0.776443  0.414658  1
  Si  Si10  1  0.244259  0.285809  0.415908  1
  Si  Si11  1  0.750055  0.221688  0.587658  1
  Tc  Tc12  1  0.293293  0.611294  0.118140  1
  Tc  Tc13  1  0.793804  0.885921  0.879381  1
  Tc  Tc14  1  0.708613  0.388195  0.881108  1
  Tc  Tc15  1  0.207543  0.114732  0.118895  1
  Tc  Tc16  1  0.497736  0.497440  0.505328  1
  Tc  Tc17  1  0.000078  0.999739  0.499938  1
