# generated using pymatgen
data_MnZn3Te2(MoO7)2
_symmetry_space_group_name_H-M   'P 1'
_cell_length_a   5.25313277
_cell_length_b   8.78706767
_cell_length_c   7.43831341
_cell_angle_alpha   90.31410138
_cell_angle_beta   100.72374337
_cell_angle_gamma   89.56444722
_symmetry_Int_Tables_number   1
_chemical_formula_structural   MnZn3Te2(MoO7)2
_chemical_formula_sum   'Mn1 Zn3 Te2 Mo2 O14'
_cell_volume   337.34084012
_cell_formula_units_Z   1
loop_
 _symmetry_equiv_pos_site_id
 _symmetry_equiv_pos_as_xyz
  1  'x, y, z'
loop_
 _atom_site_type_symbol
 _atom_site_label
 _atom_site_symmetry_multiplicity
 _atom_site_fract_x
 _atom_site_fract_y
 _atom_site_fract_z
 _atom_site_occupancy
  Mn  Mn0  1  0.481024  0.860210  0.238652  1
  Zn  Zn1  1  0.938380  0.533273  0.480514  1
  Zn  Zn2  1  0.064971  0.037563  0.520602  1
  Zn  Zn3  1  0.519782  0.362373  0.759048  1
  Te  Te4  1  0.513009  0.243868  0.358830  1
  Te  Te5  1  0.484790  0.740283  0.645980  1
  Mo  Mo6  1  0.079402  0.528083  0.016325  1
  Mo  Mo7  1  0.920026  0.037660  0.980385  1
  O  O8  1  0.252829  0.703011  0.047801  1
  O  O9  1  0.714530  0.891535  0.038406  1
  O  O10  1  0.209109  0.054228  0.159057  1
  O  O11  1  0.006701  0.473100  0.234112  1
  O  O12  1  0.714561  0.060615  0.372734  1
  O  O13  1  0.251964  0.851220  0.462321  1
  O  O14  1  0.682571  0.701566  0.457859  1
  O  O15  1  0.318524  0.205986  0.547551  1
  O  O16  1  0.745057  0.353185  0.543701  1
  O  O17  1  0.286995  0.557077  0.628288  1
  O  O18  1  0.007840  0.979898  0.768229  1
  O  O19  1  0.781576  0.549211  0.846979  1
  O  O20  1  0.282748  0.382322  0.948142  1
  O  O21  1  0.743609  0.213008  0.944484  1
