# generated using pymatgen
data_ScNb2Re3Si2Ge
_symmetry_space_group_name_H-M   'P 1'
_cell_length_a   6.89160783
_cell_length_b   6.97135177
_cell_length_c   3.33799400
_cell_angle_alpha   90.00000000
_cell_angle_beta   90.00000000
_cell_angle_gamma   119.51840760
_symmetry_Int_Tables_number   1
_chemical_formula_structural   ScNb2Re3Si2Ge
_chemical_formula_sum   'Sc1 Nb2 Re3 Si2 Ge1'
_cell_volume   139.55355709
_cell_formula_units_Z   1
loop_
 _symmetry_equiv_pos_site_id
 _symmetry_equiv_pos_as_xyz
  1  'x, y, z'
loop_
 _atom_site_type_symbol
 _atom_site_label
 _atom_site_symmetry_multiplicity
 _atom_site_fract_x
 _atom_site_fract_y
 _atom_site_fract_z
 _atom_site_occupancy
  Sc  Sc0  1  0.402917  0.005009  0.500000  1
  Nb  Nb1  1  0.997418  0.400317  0.500000  1
  Nb  Nb2  1  0.603634  0.592894  0.500000  1
  Re  Re3  1  0.749954  0.005293  0.000000  1
  Re  Re4  1  0.988755  0.738649  0.000000  1
  Re  Re5  1  0.255004  0.256592  0.000000  1
  Si  Si6  1  0.667103  0.332048  0.000000  1
  Si  Si7  1  0.000218  0.000407  0.500000  1
  Ge  Ge8  1  0.334999  0.668790  0.000000  1
