# generated using pymatgen
data_Mg(Sb5Pd2)2
_symmetry_space_group_name_H-M   'P 1'
_cell_length_a   20.54677551
_cell_length_b   20.54677436
_cell_length_c   6.51335721
_cell_angle_alpha   68.37492865
_cell_angle_beta   68.37492934
_cell_angle_gamma   8.37234871
_symmetry_Int_Tables_number   1
_chemical_formula_structural   Mg(Sb5Pd2)2
_chemical_formula_sum   'Mg1 Sb10 Pd4'
_cell_volume   372.04084320
_cell_formula_units_Z   1
loop_
 _symmetry_equiv_pos_site_id
 _symmetry_equiv_pos_as_xyz
  1  'x, y, z'
loop_
 _atom_site_type_symbol
 _atom_site_label
 _atom_site_symmetry_multiplicity
 _atom_site_fract_x
 _atom_site_fract_y
 _atom_site_fract_z
 _atom_site_occupancy
  Mg  Mg0  1  0.005643  0.005643  0.003172  1
  Sb  Sb1  1  0.679099  0.679099  0.731921  1
  Sb  Sb2  1  0.278142  0.278142  0.737036  1
  Sb  Sb3  1  0.876928  0.876928  0.740888  1
  Sb  Sb4  1  0.536735  0.536735  0.284866  1
  Sb  Sb5  1  0.134568  0.134568  0.259347  1
  Sb  Sb6  1  0.733278  0.733278  0.259749  1
  Sb  Sb7  1  0.332250  0.332250  0.265632  1
  Sb  Sb8  1  0.929357  0.929357  0.276173  1
  Sb  Sb9  1  0.081954  0.081954  0.724811  1
  Sb  Sb10  1  0.474868  0.474868  0.719181  1
  Pd  Pd11  1  0.606812  0.606812  0.997884  1
  Pd  Pd12  1  0.206501  0.206501  0.994409  1
  Pd  Pd13  1  0.804931  0.804931  0.002268  1
  Pd  Pd14  1  0.404656  0.404656  0.002659  1
