# generated using pymatgen
data_Er6ScP12Rh17
_symmetry_space_group_name_H-M   'P 1'
_cell_length_a   3.93099200
_cell_length_b   11.19763200
_cell_length_c   12.81235300
_cell_angle_alpha   90.00000000
_cell_angle_beta   90.00000000
_cell_angle_gamma   90.00000000
_symmetry_Int_Tables_number   1
_chemical_formula_structural   Er6ScP12Rh17
_chemical_formula_sum   'Er6 Sc1 P12 Rh17'
_cell_volume   563.97161509
_cell_formula_units_Z   1
loop_
 _symmetry_equiv_pos_site_id
 _symmetry_equiv_pos_as_xyz
  1  'x, y, z'
loop_
 _atom_site_type_symbol
 _atom_site_label
 _atom_site_symmetry_multiplicity
 _atom_site_fract_x
 _atom_site_fract_y
 _atom_site_fract_z
 _atom_site_occupancy
  Er  Er0  1  0.000000  0.500000  0.521618  1
  Er  Er1  1  0.500000  0.000000  0.477684  1
  Er  Er2  1  0.500000  0.817013  0.206152  1
  Er  Er3  1  0.500000  0.182987  0.206152  1
  Er  Er4  1  0.000000  0.682094  0.796808  1
  Er  Er5  1  0.000000  0.317906  0.796808  1
  Sc  Sc6  1  0.500000  0.500000  0.156214  1
  P  P7  1  0.500000  0.315280  0.619619  1
  P  P8  1  0.500000  0.684720  0.619619  1
  P  P9  1  0.000000  0.185663  0.383477  1
  P  P10  1  0.000000  0.814337  0.383477  1
  P  P11  1  0.500000  0.500000  0.878423  1
  P  P12  1  0.000000  0.000000  0.121124  1
  P  P13  1  0.500000  0.849128  0.888671  1
  P  P14  1  0.500000  0.150872  0.888671  1
  P  P15  1  0.000000  0.660974  0.107257  1
  P  P16  1  0.000000  0.339026  0.107257  1
  P  P17  1  0.500000  0.500000  0.359802  1
  P  P18  1  0.000000  0.000000  0.646922  1
  Rh  Rh19  1  0.000000  0.500000  0.984258  1
  Rh  Rh20  1  0.500000  0.000000  0.020121  1
  Rh  Rh21  1  0.500000  0.290970  0.434640  1
  Rh  Rh22  1  0.500000  0.709030  0.434640  1
  Rh  Rh23  1  0.000000  0.203016  0.570706  1
  Rh  Rh24  1  0.000000  0.796984  0.570706  1
  Rh  Rh25  1  0.500000  0.873952  0.709314  1
  Rh  Rh26  1  0.500000  0.126048  0.709314  1
  Rh  Rh27  1  0.000000  0.627581  0.291469  1
  Rh  Rh28  1  0.000000  0.372419  0.291469  1
  Rh  Rh29  1  0.500000  0.329536  0.989060  1
  Rh  Rh30  1  0.500000  0.670464  0.989060  1
  Rh  Rh31  1  0.000000  0.164185  0.005114  1
  Rh  Rh32  1  0.000000  0.835815  0.005114  1
  Rh  Rh33  1  0.000000  0.000000  0.829080  1
  Rh  Rh34  1  0.500000  0.500000  0.701654  1
  Rh  Rh35  1  0.000000  0.000000  0.298518  1
