# generated using pymatgen
data_LaRe2(Sb6Pt)2
_symmetry_space_group_name_H-M   'P 1'
_cell_length_a   8.22268548
_cell_length_b   8.26771671
_cell_length_c   8.26771608
_cell_angle_alpha   109.50773459
_cell_angle_beta   109.81456604
_cell_angle_gamma   109.31347691
_symmetry_Int_Tables_number   1
_chemical_formula_structural   LaRe2(Sb6Pt)2
_chemical_formula_sum   'La1 Re2 Sb12 Pt2'
_cell_volume   431.47970452
_cell_formula_units_Z   1
loop_
 _symmetry_equiv_pos_site_id
 _symmetry_equiv_pos_as_xyz
  1  'x, y, z'
loop_
 _atom_site_type_symbol
 _atom_site_label
 _atom_site_symmetry_multiplicity
 _atom_site_fract_x
 _atom_site_fract_y
 _atom_site_fract_z
 _atom_site_occupancy
  La  La0  1  0.000000  0.000000  0.000000  1
  Re  Re1  1  0.500000  0.000000  0.000000  1
  Re  Re2  1  0.500000  0.500000  0.500000  1
  Sb  Sb3  1  0.344136  0.184721  0.849326  1
  Sb  Sb4  1  0.655864  0.815279  0.150674  1
  Sb  Sb5  1  0.655864  0.505190  0.840585  1
  Sb  Sb6  1  0.344136  0.494810  0.159415  1
  Sb  Sb7  1  0.191103  0.847987  0.343116  1
  Sb  Sb8  1  0.808897  0.152013  0.656884  1
  Sb  Sb9  1  0.505985  0.840573  0.665411  1
  Sb  Sb10  1  0.494015  0.159427  0.334589  1
  Sb  Sb11  1  0.841959  0.336477  0.184642  1
  Sb  Sb12  1  0.158041  0.663523  0.815358  1
  Sb  Sb13  1  0.841959  0.657315  0.505481  1
  Sb  Sb14  1  0.158041  0.342685  0.494519  1
  Pt  Pt15  1  0.000000  0.000000  0.500000  1
  Pt  Pt16  1  0.000000  0.500000  0.000000  1
