# generated using pymatgen
data_Dy2UMnCoSi7
_symmetry_space_group_name_H-M   'P 1'
_cell_length_a   4.03176888
_cell_length_b   4.06941900
_cell_length_c   12.28189896
_cell_angle_alpha   90.00000000
_cell_angle_beta   99.44696893
_cell_angle_gamma   90.00000000
_symmetry_Int_Tables_number   1
_chemical_formula_structural   Dy2UMnCoSi7
_chemical_formula_sum   'Dy2 U1 Mn1 Co1 Si7'
_cell_volume   198.77571537
_cell_formula_units_Z   1
loop_
 _symmetry_equiv_pos_site_id
 _symmetry_equiv_pos_as_xyz
  1  'x, y, z'
loop_
 _atom_site_type_symbol
 _atom_site_label
 _atom_site_symmetry_multiplicity
 _atom_site_fract_x
 _atom_site_fract_y
 _atom_site_fract_z
 _atom_site_occupancy
  Dy  Dy0  1  0.316752  0.000000  0.633506  1
  Dy  Dy1  1  0.684438  0.000000  0.368875  1
  U  U2  1  0.001052  0.500000  0.002105  1
  Mn  Mn3  1  0.124277  0.500000  0.248552  1
  Co  Co4  1  0.874097  0.500000  0.748195  1
  Si  Si5  1  0.498798  0.000000  0.997596  1
  Si  Si6  1  0.414635  0.500000  0.829270  1
  Si  Si7  1  0.585628  0.500000  0.171256  1
  Si  Si8  1  0.085697  0.000000  0.171393  1
  Si  Si9  1  0.914550  0.000000  0.829101  1
  Si  Si10  1  0.220415  0.500000  0.440829  1
  Si  Si11  1  0.779661  0.500000  0.559322  1
