# generated using pymatgen
data_Sc8Ga15Ir7
_symmetry_space_group_name_H-M   'P 1'
_cell_length_a   8.89767067
_cell_length_b   8.89766988
_cell_length_c   8.89772679
_cell_angle_alpha   120.26759508
_cell_angle_beta   119.96205546
_cell_angle_gamma   89.80108323
_symmetry_Int_Tables_number   1
_chemical_formula_structural   Sc8Ga15Ir7
_chemical_formula_sum   'Sc8 Ga15 Ir7'
_cell_volume   497.22952163
_cell_formula_units_Z   1
loop_
 _symmetry_equiv_pos_site_id
 _symmetry_equiv_pos_as_xyz
  1  'x, y, z'
loop_
 _atom_site_type_symbol
 _atom_site_label
 _atom_site_symmetry_multiplicity
 _atom_site_fract_x
 _atom_site_fract_y
 _atom_site_fract_z
 _atom_site_occupancy
  Sc  Sc0  1  0.792469  0.279124  0.059894  1
  Sc  Sc1  1  0.219241  0.279132  0.486662  1
  Sc  Sc2  1  0.207763  0.707763  0.500000  1
  Sc  Sc3  1  0.219230  0.732574  0.940106  1
  Sc  Sc4  1  0.792472  0.732579  0.513338  1
  Sc  Sc5  1  0.768869  0.268869  0.500000  1
  Sc  Sc6  1  0.377080  0.122635  0.745558  1
  Sc  Sc7  1  0.377077  0.631522  0.254442  1
  Ga  Ga8  1  0.991913  0.491913  0.500000  1
  Ga  Ga9  1  0.155898  0.345986  0.190085  1
  Ga  Ga10  1  0.155900  0.965812  0.809915  1
  Ga  Ga11  1  0.152379  0.350576  0.801794  1
  Ga  Ga12  1  0.548781  0.350586  0.198206  1
  Ga  Ga13  1  0.845975  0.651135  0.805151  1
  Ga  Ga14  1  0.845986  0.040825  0.194849  1
  Ga  Ga15  1  0.843613  0.653195  0.190406  1
  Ga  Ga16  1  0.462789  0.653207  0.809594  1
  Ga  Ga17  1  0.376599  0.126497  0.250094  1
  Ga  Ga18  1  0.876404  0.126506  0.749906  1
  Ga  Ga19  1  0.618883  0.866735  0.247839  1
  Ga  Ga20  1  0.618895  0.371045  0.752161  1
  Ga  Ga21  1  0.614435  0.875107  0.739325  1
  Ga  Ga22  1  0.135783  0.875110  0.260675  1
  Ir  Ir23  1  0.995168  0.999863  0.498860  1
  Ir  Ir24  1  0.501013  0.999875  0.004701  1
  Ir  Ir25  1  0.500298  0.500298  0.000000  1
  Ir  Ir26  1  0.501004  0.496310  0.501140  1
  Ir  Ir27  1  0.995175  0.496313  0.995299  1
  Ir  Ir28  1  0.999595  0.999595  0.000000  1
  Ir  Ir29  1  0.509307  0.009307  0.500000  1
