# generated using pymatgen
data_Tb5Tm7In20
_symmetry_space_group_name_H-M   'P 1'
_cell_length_a   6.50374929
_cell_length_b   10.39246533
_cell_length_c   12.22624977
_cell_angle_alpha   89.89935642
_cell_angle_beta   89.94714482
_cell_angle_gamma   89.98636772
_symmetry_Int_Tables_number   1
_chemical_formula_structural   Tb5Tm7In20
_chemical_formula_sum   'Tb5 Tm7 In20'
_cell_volume   826.37043812
_cell_formula_units_Z   1
loop_
 _symmetry_equiv_pos_site_id
 _symmetry_equiv_pos_as_xyz
  1  'x, y, z'
loop_
 _atom_site_type_symbol
 _atom_site_label
 _atom_site_symmetry_multiplicity
 _atom_site_fract_x
 _atom_site_fract_y
 _atom_site_fract_z
 _atom_site_occupancy
  Tb  Tb0  1  0.390551  0.507222  0.358036  1
  Tb  Tb1  1  0.109509  0.507622  0.858297  1
  Tb  Tb2  1  0.390616  0.992715  0.358799  1
  Tb  Tb3  1  0.890211  0.007634  0.141196  1
  Tb  Tb4  1  0.610055  0.492421  0.642519  1
  Tm  Tm5  1  0.349607  0.751042  0.054439  1
  Tm  Tm6  1  0.150234  0.748870  0.554760  1
  Tm  Tm7  1  0.650675  0.251438  0.945465  1
  Tm  Tm8  1  0.850795  0.249059  0.445592  1
  Tm  Tm9  1  0.891103  0.492552  0.140943  1
  Tm  Tm10  1  0.608844  0.007302  0.641077  1
  Tm  Tm11  1  0.108586  0.992212  0.859164  1
  In  In12  1  0.615808  0.750630  0.505869  1
  In  In13  1  0.884666  0.749584  0.005694  1
  In  In14  1  0.385772  0.249428  0.496178  1
  In  In15  1  0.115139  0.249093  0.993769  1
  In  In16  1  0.650874  0.749322  0.243896  1
  In  In17  1  0.849079  0.751719  0.744354  1
  In  In18  1  0.349000  0.248161  0.756226  1
  In  In19  1  0.149727  0.250450  0.255007  1
  In  In20  1  0.124674  0.750305  0.282349  1
  In  In21  1  0.373745  0.751796  0.782929  1
  In  In22  1  0.873700  0.248019  0.716973  1
  In  In23  1  0.626263  0.251484  0.217126  1
  In  In24  1  0.875745  0.542909  0.399886  1
  In  In25  1  0.625253  0.957752  0.899408  1
  In  In26  1  0.124752  0.042224  0.600717  1
  In  In27  1  0.374358  0.456821  0.098886  1
  In  In28  1  0.124320  0.455909  0.598817  1
  In  In29  1  0.376087  0.043802  0.098628  1
  In  In30  1  0.875974  0.956393  0.401523  1
  In  In31  1  0.624284  0.544112  0.901479  1
