# generated using pymatgen
data_K6Te4Pb
_symmetry_space_group_name_H-M   'P 1'
_cell_length_a   11.47501400
_cell_length_b   11.47501395
_cell_length_c   8.65045000
_cell_angle_alpha   90.00000000
_cell_angle_beta   90.00000000
_cell_angle_gamma   120.00000590
_symmetry_Int_Tables_number   1
_chemical_formula_structural   K6Te4Pb
_chemical_formula_sum   'K12 Te8 Pb2'
_cell_volume   986.45153378
_cell_formula_units_Z   2
loop_
 _symmetry_equiv_pos_site_id
 _symmetry_equiv_pos_as_xyz
  1  'x, y, z'
loop_
 _atom_site_type_symbol
 _atom_site_label
 _atom_site_symmetry_multiplicity
 _atom_site_fract_x
 _atom_site_fract_y
 _atom_site_fract_z
 _atom_site_occupancy
  K  K0  1  0.472892  0.945783  0.974728  1
  K  K1  1  0.527108  0.472892  0.474728  1
  K  K2  1  0.945783  0.472892  0.474728  1
  K  K3  1  0.054217  0.527108  0.974728  1
  K  K4  1  0.472892  0.527108  0.974728  1
  K  K5  1  0.527108  0.054217  0.474728  1
  K  K6  1  0.701659  0.850829  0.299129  1
  K  K7  1  0.850829  0.701659  0.799129  1
  K  K8  1  0.850829  0.149171  0.799129  1
  K  K9  1  0.149171  0.850829  0.299129  1
  K  K10  1  0.149171  0.298341  0.299129  1
  K  K11  1  0.298341  0.149171  0.799129  1
  Te  Te12  1  0.635066  0.817534  0.704807  1
  Te  Te13  1  0.817534  0.635066  0.204807  1
  Te  Te14  1  0.817534  0.182466  0.204807  1
  Te  Te15  1  0.182466  0.817534  0.704807  1
  Te  Te16  1  0.182466  0.364934  0.704807  1
  Te  Te17  1  0.364934  0.182466  0.204807  1
  Te  Te18  1  0.333333  0.666667  0.232468  1
  Te  Te19  1  0.666667  0.333333  0.732468  1
  Pb  Pb20  1  0.333333  0.666667  0.597059  1
  Pb  Pb21  1  0.666667  0.333333  0.097059  1
