# generated using pymatgen
data_Lu6B14MoRu
_symmetry_space_group_name_H-M   'P 1'
_cell_length_a   7.94462101
_cell_length_b   7.94462252
_cell_length_c   9.26135800
_cell_angle_alpha   90.00000000
_cell_angle_beta   90.00000000
_cell_angle_gamma   154.96297785
_symmetry_Int_Tables_number   1
_chemical_formula_structural   Lu6B14MoRu
_chemical_formula_sum   'Lu6 B14 Mo1 Ru1'
_cell_volume   247.38346840
_cell_formula_units_Z   1
loop_
 _symmetry_equiv_pos_site_id
 _symmetry_equiv_pos_as_xyz
  1  'x, y, z'
loop_
 _atom_site_type_symbol
 _atom_site_label
 _atom_site_symmetry_multiplicity
 _atom_site_fract_x
 _atom_site_fract_y
 _atom_site_fract_z
 _atom_site_occupancy
  Lu  Lu0  1  0.256063  0.743937  0.250000  1
  Lu  Lu1  1  0.745204  0.254796  0.750000  1
  Lu  Lu2  1  0.606250  0.393750  0.061499  1
  Lu  Lu3  1  0.392959  0.607041  0.941410  1
  Lu  Lu4  1  0.392959  0.607041  0.558590  1
  Lu  Lu5  1  0.606250  0.393750  0.438501  1
  B  B6  1  0.979880  0.020120  0.095753  1
  B  B7  1  0.018315  0.981685  0.909915  1
  B  B8  1  0.018315  0.981685  0.590085  1
  B  B9  1  0.979880  0.020120  0.404247  1
  B  B10  1  0.772953  0.227047  0.036024  1
  B  B11  1  0.228864  0.771136  0.967961  1
  B  B12  1  0.228864  0.771136  0.532039  1
  B  B13  1  0.772953  0.227047  0.463976  1
  B  B14  1  0.867902  0.132098  0.150131  1
  B  B15  1  0.135169  0.864831  0.853570  1
  B  B16  1  0.135169  0.864831  0.646430  1
  B  B17  1  0.867902  0.132098  0.349869  1
  B  B18  1  0.045666  0.954334  0.250000  1
  B  B19  1  0.950094  0.049906  0.750000  1
  Mo  Mo20  1  0.552216  0.447784  0.750000  1
  Ru  Ru21  1  0.446169  0.553831  0.250000  1
