# generated using pymatgen
data_PuZr2NpF15
_symmetry_space_group_name_H-M   'P 1'
_cell_length_a   7.65009818
_cell_length_b   7.64513059
_cell_length_c   7.65009800
_cell_angle_alpha   112.45474452
_cell_angle_beta   113.15114021
_cell_angle_gamma   112.45474261
_symmetry_Int_Tables_number   1
_chemical_formula_structural   PuZr2NpF15
_chemical_formula_sum   'Pu1 Zr2 Np1 F15'
_cell_volume   296.42796203
_cell_formula_units_Z   1
loop_
 _symmetry_equiv_pos_site_id
 _symmetry_equiv_pos_as_xyz
  1  'x, y, z'
loop_
 _atom_site_type_symbol
 _atom_site_label
 _atom_site_symmetry_multiplicity
 _atom_site_fract_x
 _atom_site_fract_y
 _atom_site_fract_z
 _atom_site_occupancy
  Pu  Pu0  1  0.362044  0.799278  0.362044  1
  Zr  Zr1  1  0.357606  0.362232  0.788249  1
  Zr  Zr2  1  0.788249  0.362232  0.357606  1
  Np  Np3  1  0.998651  0.000526  0.998651  1
  F  F4  1  0.641800  0.431876  0.110701  1
  F  F5  1  0.090449  0.633567  0.432683  1
  F  F6  1  0.110701  0.431876  0.641800  1
  F  F7  1  0.437623  0.126389  0.670551  1
  F  F8  1  0.432683  0.633567  0.090449  1
  F  F9  1  0.670551  0.126389  0.437623  1
  F  F10  1  0.082356  0.762958  0.082356  1
  F  F11  1  0.109457  0.108651  0.770283  1
  F  F12  1  0.770283  0.108651  0.109457  1
  F  F13  1  0.663317  0.870003  0.663317  1
  F  F14  1  0.642150  0.643321  0.865057  1
  F  F15  1  0.865057  0.643321  0.642150  1
  F  F16  1  0.171421  0.388197  0.171421  1
  F  F17  1  0.179628  0.174948  0.408900  1
  F  F18  1  0.408900  0.174948  0.179628  1
