# generated using pymatgen
data_Pr4Ho6Bi3Pb5
_symmetry_space_group_name_H-M   'P 1'
_cell_length_a   8.34695900
_cell_length_b   8.38852193
_cell_length_c   15.76802869
_cell_angle_alpha   90.07801231
_cell_angle_beta   90.00000000
_cell_angle_gamma   90.00000000
_symmetry_Int_Tables_number   1
_chemical_formula_structural   Pr4Ho6Bi3Pb5
_chemical_formula_sum   'Pr8 Ho12 Bi6 Pb10'
_cell_volume   1104.05503621
_cell_formula_units_Z   2
loop_
 _symmetry_equiv_pos_site_id
 _symmetry_equiv_pos_as_xyz
  1  'x, y, z'
loop_
 _atom_site_type_symbol
 _atom_site_label
 _atom_site_symmetry_multiplicity
 _atom_site_fract_x
 _atom_site_fract_y
 _atom_site_fract_z
 _atom_site_occupancy
  Pr  Pr0  1  0.469734  0.674823  0.599224  1
  Pr  Pr1  1  0.969734  0.825177  0.900776  1
  Pr  Pr2  1  0.528307  0.321985  0.099869  1
  Pr  Pr3  1  0.028307  0.178015  0.400131  1
  Pr  Pr4  1  0.524944  0.325012  0.400916  1
  Pr  Pr5  1  0.024944  0.174988  0.099084  1
  Pr  Pr6  1  0.473610  0.677863  0.900774  1
  Pr  Pr7  1  0.973610  0.822137  0.599226  1
  Ho  Ho8  1  0.634779  0.157073  0.624818  1
  Ho  Ho9  1  0.134779  0.342927  0.875182  1
  Ho  Ho10  1  0.368481  0.843693  0.124660  1
  Ho  Ho11  1  0.868481  0.656307  0.375340  1
  Ho  Ho12  1  0.363667  0.840318  0.375814  1
  Ho  Ho13  1  0.863667  0.659682  0.124186  1
  Ho  Ho14  1  0.635549  0.155609  0.876054  1
  Ho  Ho15  1  0.135549  0.344391  0.623946  1
  Ho  Ho16  1  0.801360  0.498973  0.750299  1
  Ho  Ho17  1  0.301360  0.001027  0.749701  1
  Ho  Ho18  1  0.198141  0.501766  0.251491  1
  Ho  Ho19  1  0.698141  0.998234  0.248509  1
  Bi  Bi20  1  0.708426  0.959553  0.455915  1
  Bi  Bi21  1  0.208426  0.540447  0.044085  1
  Bi  Bi22  1  0.292667  0.040296  0.956281  1
  Bi  Bi23  1  0.792667  0.459704  0.543719  1
  Bi  Bi24  1  0.291904  0.040061  0.544189  1
  Bi  Bi25  1  0.791904  0.459939  0.955811  1
  Pb  Pb26  1  0.708242  0.960149  0.043481  1
  Pb  Pb27  1  0.208242  0.539851  0.456519  1
  Pb  Pb28  1  0.439908  0.369765  0.750401  1
  Pb  Pb29  1  0.939908  0.130235  0.749599  1
  Pb  Pb30  1  0.561003  0.629485  0.250189  1
  Pb  Pb31  1  0.061003  0.870515  0.249811  1
  Pb  Pb32  1  0.660978  0.850207  0.749455  1
  Pb  Pb33  1  0.160978  0.649793  0.750545  1
  Pb  Pb34  1  0.338302  0.149045  0.250053  1
  Pb  Pb35  1  0.838302  0.350955  0.249947  1
