# generated using pymatgen
data_Zr10In3SiBi3Au
_symmetry_space_group_name_H-M   'P 1'
_cell_length_a   8.81384100
_cell_length_b   8.81384193
_cell_length_c   6.00507000
_cell_angle_alpha   90.00000000
_cell_angle_beta   90.00000000
_cell_angle_gamma   120.00000025
_symmetry_Int_Tables_number   1
_chemical_formula_structural   Zr10In3SiBi3Au
_chemical_formula_sum   'Zr10 In3 Si1 Bi3 Au1'
_cell_volume   403.99796189
_cell_formula_units_Z   1
loop_
 _symmetry_equiv_pos_site_id
 _symmetry_equiv_pos_as_xyz
  1  'x, y, z'
loop_
 _atom_site_type_symbol
 _atom_site_label
 _atom_site_symmetry_multiplicity
 _atom_site_fract_x
 _atom_site_fract_y
 _atom_site_fract_z
 _atom_site_occupancy
  Zr  Zr0  1  0.721021  0.000000  0.263221  1
  Zr  Zr1  1  0.000000  0.721021  0.263221  1
  Zr  Zr2  1  0.278979  0.278979  0.263221  1
  Zr  Zr3  1  0.248096  0.000000  0.731081  1
  Zr  Zr4  1  0.000000  0.248096  0.731081  1
  Zr  Zr5  1  0.751904  0.751904  0.731081  1
  Zr  Zr6  1  0.333333  0.666667  0.490400  1
  Zr  Zr7  1  0.666667  0.333333  0.490400  1
  Zr  Zr8  1  0.666667  0.333333  0.010710  1
  Zr  Zr9  1  0.333333  0.666667  0.010710  1
  In  In10  1  0.378112  0.000000  0.245735  1
  In  In11  1  0.000000  0.378112  0.245735  1
  In  In12  1  0.621888  0.621888  0.245735  1
  Si  Si13  1  0.000000  0.000000  0.469127  1
  Bi  Bi14  1  0.602080  0.000000  0.756437  1
  Bi  Bi15  1  0.000000  0.602080  0.756437  1
  Bi  Bi16  1  0.397920  0.397920  0.756437  1
  Au  Au17  1  0.000000  0.000000  0.039231  1
