# generated using pymatgen
data_La8Cd2PdRu
_symmetry_space_group_name_H-M   'P 1'
_cell_length_a   10.15884449
_cell_length_b   10.15884414
_cell_length_c   10.24039500
_cell_angle_alpha   59.73408956
_cell_angle_beta   59.73409073
_cell_angle_gamma   59.66672126
_symmetry_Int_Tables_number   1
_chemical_formula_structural   La8Cd2PdRu
_chemical_formula_sum   'La16 Cd4 Pd2 Ru2'
_cell_volume   742.39672248
_cell_formula_units_Z   2
loop_
 _symmetry_equiv_pos_site_id
 _symmetry_equiv_pos_as_xyz
  1  'x, y, z'
loop_
 _atom_site_type_symbol
 _atom_site_label
 _atom_site_symmetry_multiplicity
 _atom_site_fract_x
 _atom_site_fract_y
 _atom_site_fract_z
 _atom_site_occupancy
  La  La0  1  0.345968  0.345968  0.356506  1
  La  La1  1  0.345968  0.345968  0.951557  1
  La  La2  1  0.341932  0.957237  0.350415  1
  La  La3  1  0.957237  0.341932  0.350415  1
  La  La4  1  0.817972  0.190938  0.189775  1
  La  La5  1  0.190938  0.817972  0.801315  1
  La  La6  1  0.190938  0.817972  0.189775  1
  La  La7  1  0.817972  0.190938  0.801315  1
  La  La8  1  0.188510  0.188510  0.811490  1
  La  La9  1  0.806347  0.806347  0.193653  1
  La  La10  1  0.937306  0.559464  0.564306  1
  La  La11  1  0.559464  0.937306  0.938924  1
  La  La12  1  0.559464  0.937306  0.564306  1
  La  La13  1  0.937306  0.559464  0.938924  1
  La  La14  1  0.563041  0.563041  0.936959  1
  La  La15  1  0.938797  0.938797  0.561203  1
  Cd  Cd16  1  0.579595  0.579595  0.579775  1
  Cd  Cd17  1  0.579595  0.579595  0.261036  1
  Cd  Cd18  1  0.579651  0.260964  0.579693  1
  Cd  Cd19  1  0.260964  0.579651  0.579693  1
  Pd  Pd20  1  0.144004  0.574269  0.140864  1
  Pd  Pd21  1  0.574269  0.144004  0.140864  1
  Ru  Ru22  1  0.141381  0.141381  0.139104  1
  Ru  Ru23  1  0.141381  0.141381  0.578135  1
