# generated using pymatgen
data_Lu8MgCdPdRu
_symmetry_space_group_name_H-M   'P 1'
_cell_length_a   9.50113159
_cell_length_b   9.50113233
_cell_length_c   9.61549300
_cell_angle_alpha   59.60102608
_cell_angle_beta   59.60102346
_cell_angle_gamma   59.08798503
_symmetry_Int_Tables_number   1
_chemical_formula_structural   Lu8MgCdPdRu
_chemical_formula_sum   'Lu16 Mg2 Cd2 Pd2 Ru2'
_cell_volume   605.77968831
_cell_formula_units_Z   2
loop_
 _symmetry_equiv_pos_site_id
 _symmetry_equiv_pos_as_xyz
  1  'x, y, z'
loop_
 _atom_site_type_symbol
 _atom_site_label
 _atom_site_symmetry_multiplicity
 _atom_site_fract_x
 _atom_site_fract_y
 _atom_site_fract_z
 _atom_site_occupancy
  Lu  Lu0  1  0.348493  0.348493  0.356172  1
  Lu  Lu1  1  0.348493  0.348493  0.946843  1
  Lu  Lu2  1  0.343041  0.959478  0.348741  1
  Lu  Lu3  1  0.959478  0.343041  0.348741  1
  Lu  Lu4  1  0.817599  0.186765  0.188880  1
  Lu  Lu5  1  0.186765  0.817599  0.806756  1
  Lu  Lu6  1  0.186765  0.817599  0.188880  1
  Lu  Lu7  1  0.817599  0.186765  0.806756  1
  Lu  Lu8  1  0.187965  0.187965  0.812035  1
  Lu  Lu9  1  0.811421  0.811421  0.188579  1
  Lu  Lu10  1  0.936973  0.560312  0.567894  1
  Lu  Lu11  1  0.560312  0.936973  0.934821  1
  Lu  Lu12  1  0.560312  0.936973  0.567894  1
  Lu  Lu13  1  0.936973  0.560312  0.934821  1
  Lu  Lu14  1  0.564909  0.564909  0.935091  1
  Lu  Lu15  1  0.936836  0.936836  0.563164  1
  Mg  Mg16  1  0.575750  0.575750  0.580234  1
  Mg  Mg17  1  0.575750  0.575750  0.268265  1
  Cd  Cd18  1  0.582142  0.253397  0.582229  1
  Cd  Cd19  1  0.253397  0.582142  0.582229  1
  Pd  Pd20  1  0.146976  0.571946  0.140538  1
  Pd  Pd21  1  0.571946  0.146976  0.140538  1
  Ru  Ru22  1  0.145053  0.145053  0.137207  1
  Ru  Ru23  1  0.145053  0.145053  0.572686  1
