# generated using pymatgen
data_Dy6Tm2Sc12Si9Ge7
_symmetry_space_group_name_H-M   'P 1'
_cell_length_a   7.15299172
_cell_length_b   7.40781184
_cell_length_c   14.04306523
_cell_angle_alpha   89.95881291
_cell_angle_beta   89.73647511
_cell_angle_gamma   90.12927230
_symmetry_Int_Tables_number   1
_chemical_formula_structural   Dy6Tm2Sc12Si9Ge7
_chemical_formula_sum   'Dy6 Tm2 Sc12 Si9 Ge7'
_cell_volume   744.10421298
_cell_formula_units_Z   1
loop_
 _symmetry_equiv_pos_site_id
 _symmetry_equiv_pos_as_xyz
  1  'x, y, z'
loop_
 _atom_site_type_symbol
 _atom_site_label
 _atom_site_symmetry_multiplicity
 _atom_site_fract_x
 _atom_site_fract_y
 _atom_site_fract_z
 _atom_site_occupancy
  Dy  Dy0  1  0.009001  0.175233  0.098581  1
  Dy  Dy1  1  0.994176  0.824228  0.901750  1
  Dy  Dy2  1  0.492300  0.677182  0.902088  1
  Dy  Dy3  1  0.993868  0.822147  0.598216  1
  Dy  Dy4  1  0.506386  0.322533  0.098239  1
  Dy  Dy5  1  0.006353  0.177673  0.401774  1
  Tm  Tm6  1  0.504779  0.322505  0.401111  1
  Tm  Tm7  1  0.495393  0.677277  0.598947  1
  Sc  Sc8  1  0.167555  0.501530  0.749328  1
  Sc  Sc9  1  0.832458  0.498412  0.250544  1
  Sc  Sc10  1  0.332688  0.001350  0.249192  1
  Sc  Sc11  1  0.667042  0.998771  0.749420  1
  Sc  Sc12  1  0.338825  0.172893  0.626614  1
  Sc  Sc13  1  0.660941  0.826956  0.373523  1
  Sc  Sc14  1  0.161709  0.671898  0.374112  1
  Sc  Sc15  1  0.661748  0.826643  0.126922  1
  Sc  Sc16  1  0.838101  0.328628  0.626104  1
  Sc  Sc17  1  0.335939  0.172257  0.873425  1
  Sc  Sc18  1  0.836340  0.326389  0.873628  1
  Sc  Sc19  1  0.164812  0.675801  0.125789  1
  Si  Si20  1  0.038292  0.117449  0.749874  1
  Si  Si21  1  0.960788  0.882487  0.250151  1
  Si  Si22  1  0.460541  0.615592  0.250105  1
  Si  Si23  1  0.539055  0.383505  0.750255  1
  Si  Si24  1  0.292057  0.870886  0.749503  1
  Si  Si25  1  0.708483  0.128715  0.250418  1
  Si  Si26  1  0.209229  0.372289  0.250244  1
  Si  Si27  1  0.790915  0.628582  0.749898  1
  Si  Si28  1  0.334081  0.962614  0.040146  1
  Ge  Ge29  1  0.176889  0.461011  0.540780  1
  Ge  Ge30  1  0.822936  0.538824  0.459255  1
  Ge  Ge31  1  0.328454  0.960815  0.459337  1
  Ge  Ge32  1  0.829719  0.539179  0.040654  1
  Ge  Ge33  1  0.671430  0.039325  0.540587  1
  Ge  Ge34  1  0.170076  0.460418  0.959412  1
  Ge  Ge35  1  0.666642  0.037999  0.960074  1
