# generated using pymatgen
data_La17Nd3Si15Bi
_symmetry_space_group_name_H-M   'P 1'
_cell_length_a   8.00823761
_cell_length_b   8.00787357
_cell_length_c   15.55683500
_cell_angle_alpha   90.12627032
_cell_angle_beta   90.03630962
_cell_angle_gamma   89.99006764
_symmetry_Int_Tables_number   1
_chemical_formula_structural   La17Nd3Si15Bi
_chemical_formula_sum   'La17 Nd3 Si15 Bi1'
_cell_volume   997.64092210
_cell_formula_units_Z   1
loop_
 _symmetry_equiv_pos_site_id
 _symmetry_equiv_pos_as_xyz
  1  'x, y, z'
loop_
 _atom_site_type_symbol
 _atom_site_label
 _atom_site_symmetry_multiplicity
 _atom_site_fract_x
 _atom_site_fract_y
 _atom_site_fract_z
 _atom_site_occupancy
  La  La0  1  0.020325  0.874487  0.626497  1
  La  La1  1  0.626278  0.518982  0.874880  1
  La  La2  1  0.481703  0.369164  0.626857  1
  La  La3  1  0.518854  0.626756  0.127583  1
  La  La4  1  0.124913  0.980692  0.877501  1
  La  La5  1  0.987623  0.618697  0.053455  1
  La  La6  1  0.011132  0.371316  0.555410  1
  La  La7  1  0.620596  0.988906  0.947342  1
  La  La8  1  0.118868  0.511518  0.803863  1
  La  La9  1  0.868178  0.478118  0.293793  1
  La  La10  1  0.512905  0.120016  0.197166  1
  La  La11  1  0.489617  0.882061  0.697869  1
  La  La12  1  0.385286  0.014063  0.445161  1
  La  La13  1  0.678778  0.693378  0.502946  1
  La  La14  1  0.809355  0.192919  0.750072  1
  La  La15  1  0.199388  0.809671  0.239151  1
  La  La16  1  0.309088  0.309874  0.001165  1
  Nd  Nd17  1  0.380776  0.478276  0.371767  1
  Nd  Nd18  1  0.863230  0.031230  0.370505  1
  Nd  Nd19  1  0.980794  0.127084  0.125161  1
  Si  Si20  1  0.918953  0.287049  0.942526  1
  Si  Si21  1  0.717963  0.081730  0.557235  1
  Si  Si22  1  0.210522  0.417189  0.192149  1
  Si  Si23  1  0.792571  0.577908  0.691263  1
  Si  Si24  1  0.418602  0.211643  0.811289  1
  Si  Si25  1  0.581293  0.788261  0.310275  1
  Si  Si26  1  0.288292  0.924898  0.056920  1
  Si  Si27  1  0.829492  0.803733  0.796440  1
  Si  Si28  1  0.168864  0.195472  0.298687  1
  Si  Si29  1  0.805992  0.832195  0.203115  1
  Si  Si30  1  0.318120  0.666883  0.557405  1
  Si  Si31  1  0.698698  0.330449  0.049038  1
  Si  Si32  1  0.670115  0.307006  0.452818  1
  Si  Si33  1  0.330125  0.696497  0.954608  1
  Si  Si34  1  0.194722  0.169855  0.706060  1
  Bi  Bi35  1  0.067989  0.712026  0.432025  1
