# generated using pymatgen
data_Ta14Ti(NbAl2)5
_symmetry_space_group_name_H-M   'P 1'
_cell_length_a   9.98743506
_cell_length_b   9.98783965
_cell_length_c   5.17624220
_cell_angle_alpha   90.06597940
_cell_angle_beta   89.84594339
_cell_angle_gamma   89.99777052
_symmetry_Int_Tables_number   1
_chemical_formula_structural   Ta14Ti(NbAl2)5
_chemical_formula_sum   'Ta14 Ti1 Nb5 Al10'
_cell_volume   516.34296082
_cell_formula_units_Z   1
loop_
 _symmetry_equiv_pos_site_id
 _symmetry_equiv_pos_as_xyz
  1  'x, y, z'
loop_
 _atom_site_type_symbol
 _atom_site_label
 _atom_site_symmetry_multiplicity
 _atom_site_fract_x
 _atom_site_fract_y
 _atom_site_fract_z
 _atom_site_occupancy
  Ta  Ta0  1  0.397704  0.397855  0.001803  1
  Ta  Ta1  1  0.897933  0.102763  0.500440  1
  Ta  Ta2  1  0.103054  0.897624  0.496861  1
  Ta  Ta3  1  0.601664  0.601789  0.001300  1
  Ta  Ta4  1  0.128506  0.464617  0.001003  1
  Ta  Ta5  1  0.964572  0.371781  0.499414  1
  Ta  Ta6  1  0.035369  0.628441  0.498500  1
  Ta  Ta7  1  0.871808  0.535308  0.999125  1
  Ta  Ta8  1  0.371280  0.965451  0.497508  1
  Ta  Ta9  1  0.627960  0.036207  0.500429  1
  Ta  Ta10  1  0.464405  0.128068  0.999986  1
  Ta  Ta11  1  0.535070  0.871388  0.000281  1
  Ta  Ta12  1  0.182197  0.181462  0.251949  1
  Ta  Ta13  1  0.681788  0.317915  0.751164  1
  Ti  Ti14  1  0.318628  0.681147  0.752648  1
  Nb  Nb15  1  0.818793  0.818126  0.251804  1
  Nb  Nb16  1  0.318335  0.681499  0.248065  1
  Nb  Nb17  1  0.681586  0.318367  0.248875  1
  Nb  Nb18  1  0.181545  0.181944  0.748592  1
  Nb  Nb19  1  0.817898  0.818267  0.748270  1
  Al  Al20  1  0.000189  0.999888  0.999213  1
  Al  Al21  1  0.499630  0.500340  0.500228  1
  Al  Al22  1  0.261665  0.932491  0.998918  1
  Al  Al23  1  0.433284  0.238438  0.500786  1
  Al  Al24  1  0.565647  0.761642  0.501049  1
  Al  Al25  1  0.738086  0.066496  0.000565  1
  Al  Al26  1  0.238541  0.434124  0.501611  1
  Al  Al27  1  0.761780  0.566533  0.500223  1
  Al  Al28  1  0.933549  0.261786  0.000249  1
  Al  Al29  1  0.067537  0.738240  0.999144  1
