# generated using pymatgen
data_Sr4InHgPt4
_symmetry_space_group_name_H-M   'P 1'
_cell_length_a   5.99374703
_cell_length_b   5.99374820
_cell_length_c   8.55067624
_cell_angle_alpha   77.79513171
_cell_angle_beta   77.79512567
_cell_angle_gamma   60.04430044
_symmetry_Int_Tables_number   1
_chemical_formula_structural   Sr4InHgPt4
_chemical_formula_sum   'Sr4 In1 Hg1 Pt4'
_cell_volume   258.09163059
_cell_formula_units_Z   1
loop_
 _symmetry_equiv_pos_site_id
 _symmetry_equiv_pos_as_xyz
  1  'x, y, z'
loop_
 _atom_site_type_symbol
 _atom_site_label
 _atom_site_symmetry_multiplicity
 _atom_site_fract_x
 _atom_site_fract_y
 _atom_site_fract_z
 _atom_site_occupancy
  Sr  Sr0  1  0.503292  0.792905  0.351326  1
  Sr  Sr1  1  0.207095  0.496708  0.148674  1
  Sr  Sr2  1  0.496318  0.208692  0.645355  1
  Sr  Sr3  1  0.791308  0.503682  0.854645  1
  In  In4  1  0.132562  0.867438  0.750000  1
  Hg  Hg5  1  0.849736  0.150264  0.250000  1
  Pt  Pt6  1  0.284299  0.993553  0.987641  1
  Pt  Pt7  1  0.006447  0.715701  0.512359  1
  Pt  Pt8  1  0.725962  0.997019  0.000046  1
  Pt  Pt9  1  0.002981  0.274038  0.499954  1
