# generated using pymatgen
data_Be7Al3CuRe
_symmetry_space_group_name_H-M   'P 1'
_cell_length_a   4.46766800
_cell_length_b   4.46766801
_cell_length_c   7.18953400
_cell_angle_alpha   90.00000000
_cell_angle_beta   90.00000000
_cell_angle_gamma   119.99999990
_symmetry_Int_Tables_number   1
_chemical_formula_structural   Be7Al3CuRe
_chemical_formula_sum   'Be7 Al3 Cu1 Re1'
_cell_volume   124.27768660
_cell_formula_units_Z   1
loop_
 _symmetry_equiv_pos_site_id
 _symmetry_equiv_pos_as_xyz
  1  'x, y, z'
loop_
 _atom_site_type_symbol
 _atom_site_label
 _atom_site_symmetry_multiplicity
 _atom_site_fract_x
 _atom_site_fract_y
 _atom_site_fract_z
 _atom_site_occupancy
  Be  Be0  1  0.000000  0.000000  0.497529  1
  Be  Be1  1  0.833274  0.666548  0.259016  1
  Be  Be2  1  0.171287  0.828713  0.740333  1
  Be  Be3  1  0.657426  0.828713  0.740333  1
  Be  Be4  1  0.333452  0.166726  0.259016  1
  Be  Be5  1  0.833274  0.166726  0.259016  1
  Be  Be6  1  0.171287  0.342574  0.740333  1
  Al  Al7  1  0.333333  0.666667  0.078455  1
  Al  Al8  1  0.666667  0.333333  0.548811  1
  Al  Al9  1  0.666667  0.333333  0.939177  1
  Cu  Cu10  1  0.000000  0.000000  0.991319  1
  Re  Re11  1  0.333333  0.666667  0.446660  1
