# generated using pymatgen
data_NaCa(UBr6)2
_symmetry_space_group_name_H-M   'P 1'
_cell_length_a   7.33875810
_cell_length_b   7.33875712
_cell_length_c   14.02062252
_cell_angle_alpha   84.13660328
_cell_angle_beta   84.13660248
_cell_angle_gamma   119.39663873
_symmetry_Int_Tables_number   1
_chemical_formula_structural   NaCa(UBr6)2
_chemical_formula_sum   'Na1 Ca1 U2 Br12'
_cell_volume   644.26136664
_cell_formula_units_Z   1
loop_
 _symmetry_equiv_pos_site_id
 _symmetry_equiv_pos_as_xyz
  1  'x, y, z'
loop_
 _atom_site_type_symbol
 _atom_site_label
 _atom_site_symmetry_multiplicity
 _atom_site_fract_x
 _atom_site_fract_y
 _atom_site_fract_z
 _atom_site_occupancy
  Na  Na0  1  0.915980  0.084020  0.750000  1
  Ca  Ca1  1  0.084228  0.915772  0.250000  1
  U  U2  1  0.419300  0.580700  0.250000  1
  U  U3  1  0.580856  0.419144  0.750000  1
  Br  Br4  1  0.322315  0.460599  0.636342  1
  Br  Br5  1  0.449032  0.303597  0.135054  1
  Br  Br6  1  0.238933  0.080172  0.865608  1
  Br  Br7  1  0.071661  0.219101  0.367190  1
  Br  Br8  1  0.163893  0.645915  0.131992  1
  Br  Br9  1  0.632686  0.169498  0.633737  1
  Br  Br10  1  0.354085  0.836107  0.368008  1
  Br  Br11  1  0.830502  0.367314  0.866263  1
  Br  Br12  1  0.780899  0.928339  0.132810  1
  Br  Br13  1  0.919828  0.761067  0.634392  1
  Br  Br14  1  0.539401  0.677685  0.863658  1
  Br  Br15  1  0.696403  0.550968  0.364946  1
