# generated using pymatgen
data_DyErFe6(P3Rh2)2
_symmetry_space_group_name_H-M   'P 1'
_cell_length_a   3.76615200
_cell_length_b   10.32583300
_cell_length_c   12.18959300
_cell_angle_alpha   90.00000000
_cell_angle_beta   90.00000000
_cell_angle_gamma   90.00000000
_symmetry_Int_Tables_number   1
_chemical_formula_structural   DyErFe6(P3Rh2)2
_chemical_formula_sum   'Dy2 Er2 Fe12 P12 Rh8'
_cell_volume   474.03689633
_cell_formula_units_Z   2
loop_
 _symmetry_equiv_pos_site_id
 _symmetry_equiv_pos_as_xyz
  1  'x, y, z'
loop_
 _atom_site_type_symbol
 _atom_site_label
 _atom_site_symmetry_multiplicity
 _atom_site_fract_x
 _atom_site_fract_y
 _atom_site_fract_z
 _atom_site_occupancy
  Dy  Dy0  1  0.250000  0.580310  0.711793  1
  Dy  Dy1  1  0.250000  0.919690  0.211793  1
  Er  Er2  1  0.750000  0.419743  0.288217  1
  Er  Er3  1  0.750000  0.080257  0.788217  1
  Fe  Fe4  1  0.250000  0.224443  0.170367  1
  Fe  Fe5  1  0.250000  0.275557  0.670367  1
  Fe  Fe6  1  0.750000  0.775997  0.829748  1
  Fe  Fe7  1  0.750000  0.724003  0.329748  1
  Fe  Fe8  1  0.250000  0.877328  0.697463  1
  Fe  Fe9  1  0.250000  0.622672  0.197463  1
  Fe  Fe10  1  0.750000  0.123224  0.302713  1
  Fe  Fe11  1  0.750000  0.376776  0.802713  1
  Fe  Fe12  1  0.250000  0.458821  0.935225  1
  Fe  Fe13  1  0.250000  0.041179  0.435225  1
  Fe  Fe14  1  0.750000  0.540980  0.065019  1
  Fe  Fe15  1  0.750000  0.959020  0.565019  1
  P  P16  1  0.250000  0.429889  0.112890  1
  P  P17  1  0.250000  0.070111  0.612890  1
  P  P18  1  0.750000  0.570024  0.887603  1
  P  P19  1  0.750000  0.929976  0.387603  1
  P  P20  1  0.250000  0.272885  0.852311  1
  P  P21  1  0.250000  0.227115  0.352311  1
  P  P22  1  0.750000  0.726589  0.147536  1
  P  P23  1  0.750000  0.773411  0.647536  1
  P  P24  1  0.250000  0.605646  0.377718  1
  P  P25  1  0.250000  0.894354  0.877718  1
  P  P26  1  0.750000  0.393937  0.622137  1
  P  P27  1  0.750000  0.106063  0.122137  1
  Rh  Rh28  1  0.250000  0.707887  0.985516  1
  Rh  Rh29  1  0.250000  0.792113  0.485516  1
  Rh  Rh30  1  0.750000  0.292090  0.014386  1
  Rh  Rh31  1  0.750000  0.207910  0.514386  1
  Rh  Rh32  1  0.250000  0.405088  0.477682  1
  Rh  Rh33  1  0.250000  0.094913  0.977682  1
  Rh  Rh34  1  0.750000  0.594960  0.521676  1
  Rh  Rh35  1  0.750000  0.905040  0.021676  1
