# generated using pymatgen
data_Y12Si12Os3Pt
_symmetry_space_group_name_H-M   'P 1'
_cell_length_a   4.22952600
_cell_length_b   10.72897142
_cell_length_c   12.35516803
_cell_angle_alpha   90.13920572
_cell_angle_beta   90.00000000
_cell_angle_gamma   90.00000000
_symmetry_Int_Tables_number   1
_chemical_formula_structural   Y12Si12Os3Pt
_chemical_formula_sum   'Y12 Si12 Os3 Pt1'
_cell_volume   560.65688762
_cell_formula_units_Z   1
loop_
 _symmetry_equiv_pos_site_id
 _symmetry_equiv_pos_as_xyz
  1  'x, y, z'
loop_
 _atom_site_type_symbol
 _atom_site_label
 _atom_site_symmetry_multiplicity
 _atom_site_fract_x
 _atom_site_fract_y
 _atom_site_fract_z
 _atom_site_occupancy
  Y  Y0  1  0.250000  0.880459  0.021933  1
  Y  Y1  1  0.250000  0.620208  0.520925  1
  Y  Y2  1  0.750000  0.121245  0.980286  1
  Y  Y3  1  0.750000  0.381595  0.477804  1
  Y  Y4  1  0.250000  0.919321  0.604640  1
  Y  Y5  1  0.250000  0.579640  0.104551  1
  Y  Y6  1  0.750000  0.079197  0.396906  1
  Y  Y7  1  0.750000  0.419474  0.895720  1
  Y  Y8  1  0.250000  0.659726  0.799962  1
  Y  Y9  1  0.250000  0.839488  0.299487  1
  Y  Y10  1  0.750000  0.339705  0.199984  1
  Y  Y11  1  0.750000  0.160376  0.697255  1
  Si  Si12  1  0.250000  0.015779  0.823148  1
  Si  Si13  1  0.250000  0.493078  0.320101  1
  Si  Si14  1  0.750000  0.993212  0.179789  1
  Si  Si15  1  0.750000  0.505889  0.679953  1
  Si  Si16  1  0.250000  0.248749  0.839017  1
  Si  Si17  1  0.250000  0.250537  0.340686  1
  Si  Si18  1  0.750000  0.750830  0.159976  1
  Si  Si19  1  0.750000  0.745301  0.655378  1
  Si  Si20  1  0.250000  0.206068  0.543784  1
  Si  Si21  1  0.250000  0.296291  0.044831  1
  Si  Si22  1  0.750000  0.797406  0.454493  1
  Si  Si23  1  0.750000  0.696316  0.959049  1
  Os  Os24  1  0.250000  0.389643  0.680481  1
  Os  Os25  1  0.250000  0.110379  0.180757  1
  Os  Os26  1  0.750000  0.611157  0.319650  1
  Pt  Pt27  1  0.750000  0.888931  0.819455  1
