# generated using pymatgen
data_Er13Pa3(CdFe)4
_symmetry_space_group_name_H-M   'P 1'
_cell_length_a   9.38823177
_cell_length_b   9.44633213
_cell_length_c   9.44633200
_cell_angle_alpha   60.00000046
_cell_angle_beta   59.79506996
_cell_angle_gamma   59.79507216
_symmetry_Int_Tables_number   1
_chemical_formula_structural   Er13Pa3(CdFe)4
_chemical_formula_sum   'Er13 Pa3 Cd4 Fe4'
_cell_volume   590.53144470
_cell_formula_units_Z   1
loop_
 _symmetry_equiv_pos_site_id
 _symmetry_equiv_pos_as_xyz
  1  'x, y, z'
loop_
 _atom_site_type_symbol
 _atom_site_label
 _atom_site_symmetry_multiplicity
 _atom_site_fract_x
 _atom_site_fract_y
 _atom_site_fract_z
 _atom_site_occupancy
  Er  Er0  1  0.202875  0.599041  0.599041  1
  Er  Er1  1  0.060200  0.438951  0.438951  1
  Er  Er2  1  0.440528  0.060214  0.060214  1
  Er  Er3  1  0.440528  0.060214  0.439044  1
  Er  Er4  1  0.060200  0.438951  0.061898  1
  Er  Er5  1  0.440528  0.439044  0.060214  1
  Er  Er6  1  0.060200  0.061898  0.438951  1
  Er  Er7  1  0.185767  0.814264  0.814264  1
  Er  Er8  1  0.810093  0.189972  0.189972  1
  Er  Er9  1  0.810093  0.189972  0.809962  1
  Er  Er10  1  0.185767  0.814264  0.185705  1
  Er  Er11  1  0.810093  0.809962  0.189972  1
  Er  Er12  1  0.185767  0.185705  0.814264  1
  Pa  Pa13  1  0.580920  0.592253  0.592253  1
  Pa  Pa14  1  0.580920  0.592253  0.234573  1
  Pa  Pa15  1  0.580920  0.234573  0.592253  1
  Cd  Cd16  1  0.828930  0.831478  0.831478  1
  Cd  Cd17  1  0.828930  0.831478  0.508114  1
  Cd  Cd18  1  0.828930  0.508114  0.831478  1
  Cd  Cd19  1  0.505002  0.831666  0.831666  1
  Fe  Fe20  1  0.423699  0.385747  0.385747  1
  Fe  Fe21  1  0.423699  0.385747  0.804806  1
  Fe  Fe22  1  0.423699  0.804806  0.385747  1
  Fe  Fe23  1  0.801706  0.399431  0.399431  1
