# generated using pymatgen
data_Ba3LuIrOsO9
_symmetry_space_group_name_H-M   'P 1'
_cell_length_a   5.92062700
_cell_length_b   5.92062778
_cell_length_c   14.56893300
_cell_angle_alpha   90.00000000
_cell_angle_beta   90.00000000
_cell_angle_gamma   120.00000123
_symmetry_Int_Tables_number   1
_chemical_formula_structural   Ba3LuIrOsO9
_chemical_formula_sum   'Ba6 Lu2 Ir2 Os2 O18'
_cell_volume   442.27646759
_cell_formula_units_Z   2
loop_
 _symmetry_equiv_pos_site_id
 _symmetry_equiv_pos_as_xyz
  1  'x, y, z'
loop_
 _atom_site_type_symbol
 _atom_site_label
 _atom_site_symmetry_multiplicity
 _atom_site_fract_x
 _atom_site_fract_y
 _atom_site_fract_z
 _atom_site_occupancy
  Ba  Ba0  1  0.333333  0.666667  0.587519  1
  Ba  Ba1  1  0.666667  0.333333  0.405394  1
  Ba  Ba2  1  0.666667  0.333333  0.087519  1
  Ba  Ba3  1  0.333333  0.666667  0.905394  1
  Ba  Ba4  1  0.000000  0.000000  0.252491  1
  Ba  Ba5  1  0.000000  0.000000  0.752491  1
  Lu  Lu6  1  0.000000  0.000000  0.498328  1
  Lu  Lu7  1  0.000000  0.000000  0.998328  1
  Ir  Ir8  1  0.333333  0.666667  0.336957  1
  Ir  Ir9  1  0.666667  0.333333  0.836957  1
  Os  Os10  1  0.666667  0.333333  0.663465  1
  Os  Os11  1  0.333333  0.666667  0.163465  1
  O  O12  1  0.175479  0.824521  0.087665  1
  O  O13  1  0.175479  0.350958  0.087665  1
  O  O14  1  0.649042  0.824521  0.087665  1
  O  O15  1  0.826260  0.173740  0.917129  1
  O  O16  1  0.826260  0.652519  0.917129  1
  O  O17  1  0.347481  0.173740  0.917129  1
  O  O18  1  0.824521  0.175479  0.587665  1
  O  O19  1  0.824521  0.649042  0.587665  1
  O  O20  1  0.350958  0.175479  0.587665  1
  O  O21  1  0.173740  0.826260  0.417129  1
  O  O22  1  0.173740  0.347481  0.417129  1
  O  O23  1  0.652519  0.826260  0.417129  1
  O  O24  1  0.491355  0.508645  0.247155  1
  O  O25  1  0.491355  0.982710  0.247155  1
  O  O26  1  0.017290  0.508645  0.247155  1
  O  O27  1  0.508645  0.491355  0.747155  1
  O  O28  1  0.508645  0.017290  0.747155  1
  O  O29  1  0.982710  0.491355  0.747155  1
