# generated using pymatgen
data_Sr6PrTh(Si3Pd)4
_symmetry_space_group_name_H-M   'P 1'
_cell_length_a   8.42059000
_cell_length_b   8.42059013
_cell_length_c   8.74548100
_cell_angle_alpha   90.00000000
_cell_angle_beta   90.00000000
_cell_angle_gamma   119.99999951
_symmetry_Int_Tables_number   1
_chemical_formula_structural   Sr6PrTh(Si3Pd)4
_chemical_formula_sum   'Sr6 Pr1 Th1 Si12 Pd4'
_cell_volume   537.03103579
_cell_formula_units_Z   1
loop_
 _symmetry_equiv_pos_site_id
 _symmetry_equiv_pos_as_xyz
  1  'x, y, z'
loop_
 _atom_site_type_symbol
 _atom_site_label
 _atom_site_symmetry_multiplicity
 _atom_site_fract_x
 _atom_site_fract_y
 _atom_site_fract_z
 _atom_site_occupancy
  Sr  Sr0  1  0.499594  0.500406  0.750000  1
  Sr  Sr1  1  0.500393  0.499607  0.250000  1
  Sr  Sr2  1  0.000811  0.500406  0.750000  1
  Sr  Sr3  1  0.999212  0.499607  0.250000  1
  Sr  Sr4  1  0.499594  0.999189  0.750000  1
  Sr  Sr5  1  0.500393  0.000788  0.250000  1
  Pr  Pr6  1  0.000000  0.000000  0.250000  1
  Th  Th7  1  0.000000  0.000000  0.750000  1
  Si  Si8  1  0.836908  0.163092  0.998152  1
  Si  Si9  1  0.163078  0.836922  0.998653  1
  Si  Si10  1  0.326185  0.163092  0.998152  1
  Si  Si11  1  0.163078  0.836922  0.501347  1
  Si  Si12  1  0.673842  0.836922  0.998653  1
  Si  Si13  1  0.836908  0.163092  0.501848  1
  Si  Si14  1  0.836908  0.673815  0.998152  1
  Si  Si15  1  0.673842  0.836922  0.501347  1
  Si  Si16  1  0.163078  0.326158  0.998653  1
  Si  Si17  1  0.326185  0.163092  0.501848  1
  Si  Si18  1  0.163078  0.326158  0.501347  1
  Si  Si19  1  0.836908  0.673815  0.501848  1
  Pd  Pd20  1  0.666667  0.333333  0.998630  1
  Pd  Pd21  1  0.333333  0.666667  0.000656  1
  Pd  Pd22  1  0.333333  0.666667  0.499344  1
  Pd  Pd23  1  0.666667  0.333333  0.501370  1
