# generated using pymatgen
data_Sc10PaOs4
_symmetry_space_group_name_H-M   'P 1'
_cell_length_a   9.56378632
_cell_length_b   9.53217060
_cell_length_c   9.53216961
_cell_angle_alpha   59.56285174
_cell_angle_beta   59.89022158
_cell_angle_gamma   59.89022031
_symmetry_Int_Tables_number   1
_chemical_formula_structural   Sc10PaOs4
_chemical_formula_sum   'Sc20 Pa2 Os8'
_cell_volume   611.39964302
_cell_formula_units_Z   2
loop_
 _symmetry_equiv_pos_site_id
 _symmetry_equiv_pos_as_xyz
  1  'x, y, z'
loop_
 _atom_site_type_symbol
 _atom_site_label
 _atom_site_symmetry_multiplicity
 _atom_site_fract_x
 _atom_site_fract_y
 _atom_site_fract_z
 _atom_site_occupancy
  Sc  Sc0  1  0.153524  0.158661  0.536279  1
  Sc  Sc1  1  0.153524  0.536279  0.158661  1
  Sc  Sc2  1  0.848464  0.841339  0.463721  1
  Sc  Sc3  1  0.848464  0.463721  0.841339  1
  Sc  Sc4  1  0.471447  0.840116  0.840116  1
  Sc  Sc5  1  0.151678  0.159884  0.159884  1
  Sc  Sc6  1  0.198750  0.803135  0.196865  1
  Sc  Sc7  1  0.200900  0.800370  0.800370  1
  Sc  Sc8  1  0.801641  0.199630  0.199630  1
  Sc  Sc9  1  0.798548  0.800842  0.199158  1
  Sc  Sc10  1  0.198750  0.196865  0.803135  1
  Sc  Sc11  1  0.798548  0.199158  0.800842  1
  Sc  Sc12  1  0.376152  0.388527  0.388527  1
  Sc  Sc13  1  0.153206  0.611473  0.611473  1
  Sc  Sc14  1  0.614871  0.154025  0.611485  1
  Sc  Sc15  1  0.614871  0.611485  0.154025  1
  Sc  Sc16  1  0.380380  0.845975  0.388515  1
  Sc  Sc17  1  0.380380  0.388515  0.845975  1
  Sc  Sc18  1  0.852412  0.384862  0.384862  1
  Sc  Sc19  1  0.622137  0.615138  0.615138  1
  Pa  Pa20  1  0.846705  0.836067  0.836067  1
  Pa  Pa21  1  0.518838  0.163933  0.163933  1
  Os  Os22  1  0.500691  0.490393  0.005750  1
  Os  Os23  1  0.996834  0.994250  0.509607  1
  Os  Os24  1  0.500691  0.005750  0.490393  1
  Os  Os25  1  0.006035  0.500000  0.500000  1
  Os  Os26  1  0.512338  0.000000  0.000000  1
  Os  Os27  1  0.996834  0.509607  0.994250  1
  Os  Os28  1  0.502429  0.500000  0.500000  1
  Os  Os29  1  0.999959  0.000000  0.000000  1
