# generated using pymatgen
data_Ce4Si(PtRh3)3
_symmetry_space_group_name_H-M   'P 1'
_cell_length_a   7.24516958
_cell_length_b   7.24516994
_cell_length_c   7.24122700
_cell_angle_alpha   109.46019395
_cell_angle_beta   109.46019497
_cell_angle_gamma   109.48224304
_symmetry_Int_Tables_number   1
_chemical_formula_structural   Ce4Si(PtRh3)3
_chemical_formula_sum   'Ce4 Si1 Pt3 Rh9'
_cell_volume   292.64862694
_cell_formula_units_Z   1
loop_
 _symmetry_equiv_pos_site_id
 _symmetry_equiv_pos_as_xyz
  1  'x, y, z'
loop_
 _atom_site_type_symbol
 _atom_site_label
 _atom_site_symmetry_multiplicity
 _atom_site_fract_x
 _atom_site_fract_y
 _atom_site_fract_z
 _atom_site_occupancy
  Ce  Ce0  1  0.000000  0.000000  0.500000  1
  Ce  Ce1  1  0.009888  0.504944  0.004944  1
  Ce  Ce2  1  0.495056  0.990112  0.995056  1
  Ce  Ce3  1  0.495056  0.504944  0.500000  1
  Si  Si4  1  0.000000  0.000000  0.000000  1
  Pt  Pt5  1  0.750495  0.249505  0.500000  1
  Pt  Pt6  1  0.750495  0.500989  0.250495  1
  Pt  Pt7  1  0.499011  0.249505  0.749505  1
  Rh  Rh8  1  0.250255  0.500509  0.750255  1
  Rh  Rh9  1  0.250255  0.749745  0.500000  1
  Rh  Rh10  1  0.499491  0.749745  0.249745  1
  Rh  Rh11  1  0.722623  0.723006  0.999704  1
  Rh  Rh12  1  0.276994  0.999617  0.276698  1
  Rh  Rh13  1  0.000383  0.277377  0.277081  1
  Rh  Rh14  1  0.276994  0.277377  0.000296  1
  Rh  Rh15  1  0.722623  0.999617  0.722919  1
  Rh  Rh16  1  0.000383  0.723006  0.723302  1
