# generated using pymatgen
data_Ce3Tm7Al3SiRu6
_symmetry_space_group_name_H-M   'P 1'
_cell_length_a   8.34950416
_cell_length_b   8.34950445
_cell_length_c   8.34950489
_cell_angle_alpha   110.11938827
_cell_angle_beta   110.11938496
_cell_angle_gamma   110.11938199
_symmetry_Int_Tables_number   1
_chemical_formula_structural   Ce3Tm7Al3SiRu6
_chemical_formula_sum   'Ce3 Tm7 Al3 Si1 Ru6'
_cell_volume   437.00139817
_cell_formula_units_Z   1
loop_
 _symmetry_equiv_pos_site_id
 _symmetry_equiv_pos_as_xyz
  1  'x, y, z'
loop_
 _atom_site_type_symbol
 _atom_site_label
 _atom_site_symmetry_multiplicity
 _atom_site_fract_x
 _atom_site_fract_y
 _atom_site_fract_z
 _atom_site_occupancy
  Ce  Ce0  1  0.251992  0.201328  0.951033  1
  Ce  Ce1  1  0.951033  0.251992  0.201328  1
  Ce  Ce2  1  0.201328  0.951033  0.251992  1
  Tm  Tm3  1  0.767394  0.767394  0.767394  1
  Tm  Tm4  1  0.315659  0.569334  0.749473  1
  Tm  Tm5  1  0.749473  0.315659  0.569334  1
  Tm  Tm6  1  0.569334  0.749473  0.315659  1
  Tm  Tm7  1  0.720398  0.505465  0.998569  1
  Tm  Tm8  1  0.998569  0.720398  0.505465  1
  Tm  Tm9  1  0.505465  0.998569  0.720398  1
  Al  Al10  1  0.092940  0.500022  0.001203  1
  Al  Al11  1  0.001203  0.092940  0.500022  1
  Al  Al12  1  0.500022  0.001203  0.092940  1
  Si  Si13  1  0.404296  0.404296  0.404296  1
  Ru  Ru14  1  0.893247  0.116126  0.751678  1
  Ru  Ru15  1  0.751678  0.893247  0.116126  1
  Ru  Ru16  1  0.116126  0.751678  0.893247  1
  Ru  Ru17  1  0.237332  0.601272  0.371240  1
  Ru  Ru18  1  0.371240  0.237332  0.601272  1
  Ru  Ru19  1  0.601272  0.371240  0.237332  1
