# generated using pymatgen
data_Th4Se3N4
_symmetry_space_group_name_H-M   'P 1'
_cell_length_a   6.96485122
_cell_length_b   6.96485104
_cell_length_c   8.49651700
_cell_angle_alpha   90.00000000
_cell_angle_beta   90.00000000
_cell_angle_gamma   145.85984737
_symmetry_Int_Tables_number   1
_chemical_formula_structural   Th4Se3N4
_chemical_formula_sum   'Th4 Se3 N4'
_cell_volume   231.31143050
_cell_formula_units_Z   1
loop_
 _symmetry_equiv_pos_site_id
 _symmetry_equiv_pos_as_xyz
  1  'x, y, z'
loop_
 _atom_site_type_symbol
 _atom_site_label
 _atom_site_symmetry_multiplicity
 _atom_site_fract_x
 _atom_site_fract_y
 _atom_site_fract_z
 _atom_site_occupancy
  Th  Th0  1  0.319318  0.680682  0.240391  1
  Th  Th1  1  0.980896  0.019104  0.500000  1
  Th  Th2  1  0.993171  0.006829  0.000000  1
  Th  Th3  1  0.319318  0.680682  0.759608  1
  Se  Se4  1  0.644093  0.355907  0.651460  1
  Se  Se5  1  0.644093  0.355907  0.348540  1
  Se  Se6  1  0.681601  0.318399  0.000000  1
  N  N7  1  0.409035  0.590965  0.000000  1
  N  N8  1  0.909197  0.090803  0.754461  1
  N  N9  1  0.909197  0.090803  0.245539  1
  N  N10  1  0.387972  0.612028  0.500000  1
