# generated using pymatgen
data_Ce3Al3Ga2Os
_symmetry_space_group_name_H-M   'P 1'
_cell_length_a   6.98684600
_cell_length_b   6.98684675
_cell_length_c   4.34514700
_cell_angle_alpha   90.00000000
_cell_angle_beta   90.00000000
_cell_angle_gamma   119.99999643
_symmetry_Int_Tables_number   1
_chemical_formula_structural   Ce3Al3Ga2Os
_chemical_formula_sum   'Ce3 Al3 Ga2 Os1'
_cell_volume   183.69507370
_cell_formula_units_Z   1
loop_
 _symmetry_equiv_pos_site_id
 _symmetry_equiv_pos_as_xyz
  1  'x, y, z'
loop_
 _atom_site_type_symbol
 _atom_site_label
 _atom_site_symmetry_multiplicity
 _atom_site_fract_x
 _atom_site_fract_y
 _atom_site_fract_z
 _atom_site_occupancy
  Ce  Ce0  1  0.413656  0.000000  0.500000  1
  Ce  Ce1  1  0.000000  0.413656  0.500000  1
  Ce  Ce2  1  0.586344  0.586344  0.500000  1
  Al  Al3  1  0.773567  0.000000  0.000000  1
  Al  Al4  1  0.000000  0.773567  0.000000  1
  Al  Al5  1  0.226433  0.226433  0.000000  1
  Ga  Ga6  1  0.333333  0.666667  0.000000  1
  Ga  Ga7  1  0.666667  0.333333  0.000000  1
  Os  Os8  1  0.000000  0.000000  0.500000  1
