# generated using pymatgen
data_Ho11TmTc4
_symmetry_space_group_name_H-M   'P 1'
_cell_length_a   6.22581594
_cell_length_b   7.37333615
_cell_length_c   9.12418245
_cell_angle_alpha   89.97269232
_cell_angle_beta   90.08156340
_cell_angle_gamma   89.96775225
_symmetry_Int_Tables_number   1
_chemical_formula_structural   Ho11TmTc4
_chemical_formula_sum   'Ho11 Tm1 Tc4'
_cell_volume   418.84536505
_cell_formula_units_Z   1
loop_
 _symmetry_equiv_pos_site_id
 _symmetry_equiv_pos_as_xyz
  1  'x, y, z'
loop_
 _atom_site_type_symbol
 _atom_site_label
 _atom_site_symmetry_multiplicity
 _atom_site_fract_x
 _atom_site_fract_y
 _atom_site_fract_z
 _atom_site_occupancy
  Ho  Ho0  1  0.628205  0.041557  0.250462  1
  Ho  Ho1  1  0.372588  0.959215  0.749634  1
  Ho  Ho2  1  0.127850  0.458223  0.749409  1
  Ho  Ho3  1  0.871689  0.541167  0.250419  1
  Ho  Ho4  1  0.163151  0.175342  0.062908  1
  Ho  Ho5  1  0.837132  0.824690  0.937019  1
  Ho  Ho6  1  0.662884  0.324401  0.936430  1
  Ho  Ho7  1  0.836826  0.824401  0.562981  1
  Ho  Ho8  1  0.337149  0.675447  0.062979  1
  Ho  Ho9  1  0.162213  0.175572  0.437351  1
  Ho  Ho10  1  0.337451  0.675228  0.437469  1
  Tm  Tm11  1  0.662696  0.325065  0.562854  1
  Tc  Tc12  1  0.461237  0.385737  0.251141  1
  Tc  Tc13  1  0.539867  0.613682  0.749752  1
  Tc  Tc14  1  0.959333  0.114543  0.749314  1
  Tc  Tc15  1  0.039730  0.885729  0.249880  1
