# generated using pymatgen
data_Rb4CrSbCl12
_symmetry_space_group_name_H-M   'P 1'
_cell_length_a   7.25320800
_cell_length_b   7.25320800
_cell_length_c   10.51509200
_cell_angle_alpha   90.00000000
_cell_angle_beta   90.00000000
_cell_angle_gamma   90.00000000
_symmetry_Int_Tables_number   1
_chemical_formula_structural   Rb4CrSbCl12
_chemical_formula_sum   'Rb4 Cr1 Sb1 Cl12'
_cell_volume   553.18875148
_cell_formula_units_Z   1
loop_
 _symmetry_equiv_pos_site_id
 _symmetry_equiv_pos_as_xyz
  1  'x, y, z'
loop_
 _atom_site_type_symbol
 _atom_site_label
 _atom_site_symmetry_multiplicity
 _atom_site_fract_x
 _atom_site_fract_y
 _atom_site_fract_z
 _atom_site_occupancy
  Rb  Rb0  1  0.500000  0.000000  0.788269  1
  Rb  Rb1  1  0.000000  0.500000  0.211731  1
  Rb  Rb2  1  0.500000  0.000000  0.211731  1
  Rb  Rb3  1  0.000000  0.500000  0.788269  1
  Cr  Cr4  1  0.000000  0.000000  0.000000  1
  Sb  Sb5  1  0.500000  0.500000  0.500000  1
  Cl  Cl6  1  0.000000  0.000000  0.774582  1
  Cl  Cl7  1  0.500000  0.500000  0.268000  1
  Cl  Cl8  1  0.735788  0.735788  0.500000  1
  Cl  Cl9  1  0.231174  0.231174  0.000000  1
  Cl  Cl10  1  0.735788  0.264212  0.500000  1
  Cl  Cl11  1  0.231174  0.768826  0.000000  1
  Cl  Cl12  1  0.000000  0.000000  0.225418  1
  Cl  Cl13  1  0.500000  0.500000  0.732000  1
  Cl  Cl14  1  0.264212  0.264212  0.500000  1
  Cl  Cl15  1  0.768826  0.768826  0.000000  1
  Cl  Cl16  1  0.264212  0.735788  0.500000  1
  Cl  Cl17  1  0.768826  0.231174  0.000000  1
