# generated using pymatgen
data_YEr7SbPd24
_symmetry_space_group_name_H-M   'P 1'
_cell_length_a   8.37126309
_cell_length_b   8.37126309
_cell_length_c   8.37126309
_cell_angle_alpha   89.98835152
_cell_angle_beta   89.98835152
_cell_angle_gamma   90.01164848
_symmetry_Int_Tables_number   1
_chemical_formula_structural   YEr7SbPd24
_chemical_formula_sum   'Y1 Er7 Sb1 Pd24'
_cell_volume   586.64172046
_cell_formula_units_Z   1
loop_
 _symmetry_equiv_pos_site_id
 _symmetry_equiv_pos_as_xyz
  1  'x, y, z'
loop_
 _atom_site_type_symbol
 _atom_site_label
 _atom_site_symmetry_multiplicity
 _atom_site_fract_x
 _atom_site_fract_y
 _atom_site_fract_z
 _atom_site_occupancy
  Y  Y0  1  0.745867  0.745867  0.254133  1
  Er  Er1  1  0.745599  0.254459  0.745541  1
  Er  Er2  1  0.254459  0.745599  0.745541  1
  Er  Er3  1  0.745608  0.745608  0.745641  1
  Er  Er4  1  0.745608  0.254359  0.254392  1
  Er  Er5  1  0.254397  0.254397  0.745603  1
  Er  Er6  1  0.254359  0.745608  0.254392  1
  Er  Er7  1  0.254459  0.254459  0.254401  1
  Sb  Sb8  1  0.999859  0.999859  0.000141  1
  Pd  Pd9  1  0.000499  0.000499  0.304683  1
  Pd  Pd10  1  0.735888  0.000592  0.500518  1
  Pd  Pd11  1  0.735888  0.499482  0.999408  1
  Pd  Pd12  1  0.499976  0.000035  0.735863  1
  Pd  Pd13  1  0.000592  0.735888  0.500518  1
  Pd  Pd14  1  0.499482  0.000592  0.264112  1
  Pd  Pd15  1  0.000035  0.264137  0.500024  1
  Pd  Pd16  1  0.499482  0.735888  0.999408  1
  Pd  Pd17  1  0.254630  0.499982  0.500018  1
  Pd  Pd18  1  0.499982  0.499982  0.745370  1
  Pd  Pd19  1  0.499361  0.499361  0.254632  1
  Pd  Pd20  1  0.499982  0.254630  0.500018  1
  Pd  Pd21  1  0.499361  0.745368  0.500639  1
  Pd  Pd22  1  0.745368  0.499361  0.500639  1
  Pd  Pd23  1  0.304494  0.000036  0.999964  1
  Pd  Pd24  1  0.000036  0.000036  0.695506  1
  Pd  Pd25  1  0.000592  0.499482  0.264112  1
  Pd  Pd26  1  0.000036  0.304494  0.999964  1
  Pd  Pd27  1  0.000499  0.695317  0.999501  1
  Pd  Pd28  1  0.695317  0.000499  0.999501  1
  Pd  Pd29  1  0.264137  0.499976  0.999965  1
  Pd  Pd30  1  0.264137  0.000035  0.500024  1
  Pd  Pd31  1  0.000035  0.499976  0.735863  1
  Pd  Pd32  1  0.499976  0.264137  0.999965  1
