# generated using pymatgen
data_NdDy6Sn23(RuRh2)2
_symmetry_space_group_name_H-M   'P 1'
_cell_length_a   9.88218221
_cell_length_b   9.87848626
_cell_length_c   10.09528363
_cell_angle_alpha   89.99999717
_cell_angle_beta   90.23404392
_cell_angle_gamma   119.98762753
_symmetry_Int_Tables_number   1
_chemical_formula_structural   NdDy6Sn23(RuRh2)2
_chemical_formula_sum   'Nd1 Dy6 Sn23 Ru2 Rh4'
_cell_volume   853.57505653
_cell_formula_units_Z   1
loop_
 _symmetry_equiv_pos_site_id
 _symmetry_equiv_pos_as_xyz
  1  'x, y, z'
loop_
 _atom_site_type_symbol
 _atom_site_label
 _atom_site_symmetry_multiplicity
 _atom_site_fract_x
 _atom_site_fract_y
 _atom_site_fract_z
 _atom_site_occupancy
  Nd  Nd0  1  0.000000  0.000000  0.000000  1
  Dy  Dy1  1  0.479504  0.520273  0.307378  1
  Dy  Dy2  1  0.520496  0.479727  0.692622  1
  Dy  Dy3  1  0.479504  0.959231  0.307378  1
  Dy  Dy4  1  0.520496  0.040769  0.692622  1
  Dy  Dy5  1  0.039687  0.519844  0.307403  1
  Dy  Dy6  1  0.960313  0.480156  0.692597  1
  Sn  Sn7  1  0.352282  0.001952  0.001090  1
  Sn  Sn8  1  0.647718  0.998048  0.998910  1
  Sn  Sn9  1  0.000000  0.351956  0.000000  1
  Sn  Sn10  1  0.000000  0.648044  0.000000  1
  Sn  Sn11  1  0.647718  0.649671  0.998910  1
  Sn  Sn12  1  0.352282  0.350329  0.001090  1
  Sn  Sn13  1  0.335778  0.667889  0.819028  1
  Sn  Sn14  1  0.664222  0.332111  0.180972  1
  Sn  Sn15  1  0.000000  0.000000  0.500000  1
  Sn  Sn16  1  0.778764  0.221419  0.455750  1
  Sn  Sn17  1  0.221236  0.778581  0.544250  1
  Sn  Sn18  1  0.778764  0.557345  0.455750  1
  Sn  Sn19  1  0.221236  0.442655  0.544250  1
  Sn  Sn20  1  0.441299  0.220648  0.454494  1
  Sn  Sn21  1  0.558701  0.779352  0.545506  1
  Sn  Sn22  1  0.332713  0.666357  0.120270  1
  Sn  Sn23  1  0.667287  0.333643  0.879730  1
  Sn  Sn24  1  0.119656  0.882464  0.280288  1
  Sn  Sn25  1  0.880344  0.117536  0.719712  1
  Sn  Sn26  1  0.119656  0.237191  0.280288  1
  Sn  Sn27  1  0.880344  0.762809  0.719712  1
  Sn  Sn28  1  0.760404  0.880202  0.282308  1
  Sn  Sn29  1  0.239596  0.119798  0.717692  1
  Ru  Ru30  1  0.338441  0.169219  0.199970  1
  Ru  Ru31  1  0.661559  0.830781  0.800030  1
  Rh  Rh32  1  0.830805  0.169230  0.199036  1
  Rh  Rh33  1  0.169195  0.830770  0.800964  1
  Rh  Rh34  1  0.830805  0.661575  0.199036  1
  Rh  Rh35  1  0.169195  0.338425  0.800964  1
