# generated using pymatgen
data_CeEuAl20IrOs3
_symmetry_space_group_name_H-M   'P 1'
_cell_length_a   6.87661868
_cell_length_b   6.87963849
_cell_length_c   9.16861147
_cell_angle_alpha   90.16499563
_cell_angle_beta   90.05152992
_cell_angle_gamma   96.82617236
_symmetry_Int_Tables_number   1
_chemical_formula_structural   CeEuAl20IrOs3
_chemical_formula_sum   'Ce1 Eu1 Al20 Ir1 Os3'
_cell_volume   430.67776494
_cell_formula_units_Z   1
loop_
 _symmetry_equiv_pos_site_id
 _symmetry_equiv_pos_as_xyz
  1  'x, y, z'
loop_
 _atom_site_type_symbol
 _atom_site_label
 _atom_site_symmetry_multiplicity
 _atom_site_fract_x
 _atom_site_fract_y
 _atom_site_fract_z
 _atom_site_occupancy
  Ce  Ce0  1  0.872372  0.123547  0.750309  1
  Eu  Eu1  1  0.124712  0.877239  0.250436  1
  Al  Al2  1  0.619863  0.377437  0.552995  1
  Al  Al3  1  0.379403  0.624089  0.448618  1
  Al  Al4  1  0.376850  0.623808  0.049851  1
  Al  Al5  1  0.621815  0.377815  0.948674  1
  Al  Al6  1  0.225587  0.222237  0.498407  1
  Al  Al7  1  0.776442  0.775878  0.500595  1
  Al  Al8  1  0.777584  0.775531  0.000463  1
  Al  Al9  1  0.224805  0.222021  0.000788  1
  Al  Al10  1  0.840181  0.160528  0.101777  1
  Al  Al11  1  0.158331  0.841177  0.899219  1
  Al  Al12  1  0.159842  0.842084  0.602673  1
  Al  Al13  1  0.839194  0.160007  0.396804  1
  Al  Al14  1  0.857187  0.588547  0.750573  1
  Al  Al15  1  0.143806  0.413814  0.248989  1
  Al  Al16  1  0.410144  0.141599  0.750227  1
  Al  Al17  1  0.586801  0.857575  0.249676  1
  Al  Al18  1  0.221102  0.481466  0.751945  1
  Al  Al19  1  0.779006  0.519273  0.247542  1
  Al  Al20  1  0.517466  0.779330  0.749556  1
  Al  Al21  1  0.481200  0.219499  0.250595  1
  Ir  Ir22  1  0.000045  0.497761  0.501108  1
  Os  Os23  1  0.999603  0.496685  0.998205  1
  Os  Os24  1  0.503344  0.000521  0.998203  1
  Os  Os25  1  0.503314  0.000533  0.501769  1
