# generated using pymatgen
data_Mo2(SO4)3
_symmetry_space_group_name_H-M   'P 1'
_cell_length_a   9.27295721
_cell_length_b   9.27299903
_cell_length_c   9.27292693
_cell_angle_alpha   57.11265549
_cell_angle_beta   57.11232250
_cell_angle_gamma   57.11297923
_symmetry_Int_Tables_number   1
_chemical_formula_structural   Mo2(SO4)3
_chemical_formula_sum   'Mo4 S6 O24'
_cell_volume   526.30416058
_cell_formula_units_Z   2
loop_
 _symmetry_equiv_pos_site_id
 _symmetry_equiv_pos_as_xyz
  1  'x, y, z'
loop_
 _atom_site_type_symbol
 _atom_site_label
 _atom_site_symmetry_multiplicity
 _atom_site_fract_x
 _atom_site_fract_y
 _atom_site_fract_z
 _atom_site_occupancy
  Mo  Mo0  1  0.147516  0.147515  0.147518  1
  Mo  Mo1  1  0.852484  0.852485  0.852482  1
  Mo  Mo2  1  0.352485  0.352484  0.352482  1
  Mo  Mo3  1  0.647515  0.647516  0.647518  1
  S  S4  1  0.042551  0.457448  0.750001  1
  S  S5  1  0.457442  0.749999  0.042555  1
  S  S6  1  0.749999  0.042557  0.457447  1
  S  S7  1  0.957449  0.542552  0.249999  1
  S  S8  1  0.250001  0.957443  0.542553  1
  S  S9  1  0.542558  0.250001  0.957445  1
  O  O10  1  0.229531  0.983176  0.381525  1
  O  O11  1  0.381521  0.229534  0.983191  1
  O  O12  1  0.983185  0.381519  0.229537  1
  O  O13  1  0.770469  0.016824  0.618475  1
  O  O14  1  0.618479  0.770466  0.016809  1
  O  O15  1  0.016815  0.618481  0.770463  1
  O  O16  1  0.270473  0.118476  0.516806  1
  O  O17  1  0.516824  0.270472  0.118473  1
  O  O18  1  0.118482  0.516816  0.270461  1
  O  O19  1  0.729527  0.881524  0.483194  1
  O  O20  1  0.067295  0.291382  0.913304  1
  O  O21  1  0.291375  0.913302  0.067296  1
  O  O22  1  0.913301  0.067296  0.291372  1
  O  O23  1  0.932705  0.708618  0.086696  1
  O  O24  1  0.708625  0.086698  0.932704  1
  O  O25  1  0.086699  0.932704  0.708628  1
  O  O26  1  0.208620  0.432702  0.586698  1
  O  O27  1  0.432698  0.586702  0.208631  1
  O  O28  1  0.586698  0.208626  0.432704  1
  O  O29  1  0.791380  0.567298  0.413302  1
  O  O30  1  0.567302  0.413298  0.791369  1
  O  O31  1  0.413302  0.791374  0.567296  1
  O  O32  1  0.881518  0.483184  0.729539  1
  O  O33  1  0.483176  0.729528  0.881527  1
