# generated using pymatgen
data_Th2Pt2Pb
_symmetry_space_group_name_H-M   'P 1'
_cell_length_a   8.08296900
_cell_length_b   8.08296900
_cell_length_c   3.81316200
_cell_angle_alpha   90.00000000
_cell_angle_beta   90.00000000
_cell_angle_gamma   90.00000000
_symmetry_Int_Tables_number   1
_chemical_formula_structural   Th2Pt2Pb
_chemical_formula_sum   'Th4 Pt4 Pb2'
_cell_volume   249.13060506
_cell_formula_units_Z   2
loop_
 _symmetry_equiv_pos_site_id
 _symmetry_equiv_pos_as_xyz
  1  'x, y, z'
loop_
 _atom_site_type_symbol
 _atom_site_label
 _atom_site_symmetry_multiplicity
 _atom_site_fract_x
 _atom_site_fract_y
 _atom_site_fract_z
 _atom_site_occupancy
  Th  Th0  1  0.328162  0.171838  0.500001  1
  Th  Th1  1  0.828162  0.328162  0.500001  1
  Th  Th2  1  0.171838  0.671838  0.500001  1
  Th  Th3  1  0.671838  0.828162  0.500001  1
  Pt  Pt4  1  0.627217  0.127217  0.000000  1
  Pt  Pt5  1  0.127217  0.372783  0.000000  1
  Pt  Pt6  1  0.872783  0.627217  0.000000  1
  Pt  Pt7  1  0.372783  0.872783  0.000000  1
  Pb  Pb8  1  0.000000  0.000000  0.000000  1
  Pb  Pb9  1  0.500000  0.500000  0.000000  1
