# generated using pymatgen
data_Tb3DyTc2Pt2F28
_symmetry_space_group_name_H-M   'P 1'
_cell_length_a   5.58332689
_cell_length_b   8.94115103
_cell_length_c   12.05011880
_cell_angle_alpha   62.37535600
_cell_angle_beta   90.08149778
_cell_angle_gamma   90.08768328
_symmetry_Int_Tables_number   1
_chemical_formula_structural   Tb3DyTc2Pt2F28
_chemical_formula_sum   'Tb3 Dy1 Tc2 Pt2 F28'
_cell_volume   532.98251096
_cell_formula_units_Z   1
loop_
 _symmetry_equiv_pos_site_id
 _symmetry_equiv_pos_as_xyz
  1  'x, y, z'
loop_
 _atom_site_type_symbol
 _atom_site_label
 _atom_site_symmetry_multiplicity
 _atom_site_fract_x
 _atom_site_fract_y
 _atom_site_fract_z
 _atom_site_occupancy
  Tb  Tb0  1  0.741158  0.186853  0.734589  1
  Tb  Tb1  1  0.759981  0.185017  0.236948  1
  Tb  Tb2  1  0.240050  0.814450  0.763132  1
  Dy  Dy3  1  0.258963  0.813456  0.265141  1
  Tc  Tc4  1  0.757615  0.726622  0.043042  1
  Tc  Tc5  1  0.242487  0.273229  0.957390  1
  Pt  Pt6  1  0.258814  0.273462  0.456855  1
  Pt  Pt7  1  0.741090  0.726935  0.542724  1
  F  F8  1  0.935583  0.704321  0.415222  1
  F  F9  1  0.065026  0.295926  0.584536  1
  F  F10  1  0.446143  0.291578  0.082920  1
  F  F11  1  0.554189  0.708391  0.917380  1
  F  F12  1  0.474977  0.730261  0.138637  1
  F  F13  1  0.524775  0.270014  0.861779  1
  F  F14  1  0.967412  0.273663  0.364733  1
  F  F15  1  0.032256  0.726290  0.635127  1
  F  F16  1  0.956615  0.745619  0.171347  1
  F  F17  1  0.044489  0.254687  0.828898  1
  F  F18  1  0.448536  0.257299  0.324904  1
  F  F19  1  0.551568  0.742718  0.674915  1
  F  F20  1  0.771662  0.479665  0.140485  1
  F  F21  1  0.228330  0.520117  0.859649  1
  F  F22  1  0.269578  0.521399  0.358338  1
  F  F23  1  0.730392  0.479337  0.641405  1
  F  F24  1  0.948739  0.278247  0.046765  1
  F  F25  1  0.050961  0.721658  0.953434  1
  F  F26  1  0.442593  0.719483  0.457271  1
  F  F27  1  0.557072  0.280921  0.542081  1
  F  F28  1  0.741600  0.974745  0.449889  1
  F  F29  1  0.258458  0.025664  0.549864  1
  F  F30  1  0.241261  0.026705  0.054348  1
  F  F31  1  0.758737  0.972999  0.946118  1
  F  F32  1  0.583713  0.968365  0.232843  1
  F  F33  1  0.414706  0.031068  0.767362  1
  F  F34  1  0.085465  0.028408  0.269774  1
  F  F35  1  0.915006  0.970428  0.730154  1
