# generated using pymatgen
data_Ho2MnSi14Ir5
_symmetry_space_group_name_H-M   'P 1'
_cell_length_a   7.95895532
_cell_length_b   7.95895509
_cell_length_c   8.00253499
_cell_angle_alpha   56.89138609
_cell_angle_beta   56.89138795
_cell_angle_gamma   57.03799270
_symmetry_Int_Tables_number   1
_chemical_formula_structural   Ho2MnSi14Ir5
_chemical_formula_sum   'Ho2 Mn1 Si14 Ir5'
_cell_volume   333.14907252
_cell_formula_units_Z   1
loop_
 _symmetry_equiv_pos_site_id
 _symmetry_equiv_pos_as_xyz
  1  'x, y, z'
loop_
 _atom_site_type_symbol
 _atom_site_label
 _atom_site_symmetry_multiplicity
 _atom_site_fract_x
 _atom_site_fract_y
 _atom_site_fract_z
 _atom_site_occupancy
  Ho  Ho0  1  0.001679  0.004510  0.994780  1
  Ho  Ho1  1  0.495490  0.498321  0.505220  1
  Mn  Mn2  1  0.075890  0.424110  0.750000  1
  Si  Si3  1  0.762549  0.737451  0.750000  1
  Si  Si4  1  0.248797  0.251203  0.250000  1
  Si  Si5  1  0.849960  0.065637  0.672117  1
  Si  Si6  1  0.671344  0.852499  0.063549  1
  Si  Si7  1  0.063917  0.663400  0.847743  1
  Si  Si8  1  0.647501  0.828656  0.436451  1
  Si  Si9  1  0.434363  0.650040  0.827883  1
  Si  Si10  1  0.836600  0.436083  0.652257  1
  Si  Si11  1  0.168796  0.561278  0.364360  1
  Si  Si12  1  0.566488  0.351429  0.171542  1
  Si  Si13  1  0.343487  0.179471  0.571471  1
  Si  Si14  1  0.938722  0.331204  0.135640  1
  Si  Si15  1  0.320529  0.156513  0.928529  1
  Si  Si16  1  0.148571  0.933512  0.328458  1
  Ir  Ir17  1  0.249327  0.928220  0.572091  1
  Ir  Ir18  1  0.571780  0.250673  0.927909  1
  Ir  Ir19  1  0.926109  0.573891  0.250000  1
  Ir  Ir20  1  0.428215  0.750113  0.071550  1
  Ir  Ir21  1  0.749887  0.071785  0.428450  1
