# generated using pymatgen
data_Sc3Sn3IrPd2
_symmetry_space_group_name_H-M   'P 1'
_cell_length_a   7.54446800
_cell_length_b   7.54446805
_cell_length_c   7.15885400
_cell_angle_alpha   90.00000000
_cell_angle_beta   90.00000000
_cell_angle_gamma   119.99999980
_symmetry_Int_Tables_number   1
_chemical_formula_structural   Sc3Sn3IrPd2
_chemical_formula_sum   'Sc6 Sn6 Ir2 Pd4'
_cell_volume   352.88352439
_cell_formula_units_Z   2
loop_
 _symmetry_equiv_pos_site_id
 _symmetry_equiv_pos_as_xyz
  1  'x, y, z'
loop_
 _atom_site_type_symbol
 _atom_site_label
 _atom_site_symmetry_multiplicity
 _atom_site_fract_x
 _atom_site_fract_y
 _atom_site_fract_z
 _atom_site_occupancy
  Sc  Sc0  1  0.393015  0.995766  0.250000  1
  Sc  Sc1  1  0.602751  0.606985  0.250000  1
  Sc  Sc2  1  0.004234  0.397249  0.250000  1
  Sc  Sc3  1  0.382419  0.969356  0.750000  1
  Sc  Sc4  1  0.586938  0.617581  0.750000  1
  Sc  Sc5  1  0.030644  0.413062  0.750000  1
  Sn  Sn6  1  0.726925  0.005729  0.000503  1
  Sn  Sn7  1  0.278804  0.273075  0.499497  1
  Sn  Sn8  1  0.994271  0.721196  0.499497  1
  Sn  Sn9  1  0.994271  0.721196  0.000503  1
  Sn  Sn10  1  0.278804  0.273075  0.000503  1
  Sn  Sn11  1  0.726925  0.005729  0.499497  1
  Ir  Ir12  1  0.333333  0.666667  0.021693  1
  Ir  Ir13  1  0.333333  0.666667  0.478307  1
  Pd  Pd14  1  0.666667  0.333333  0.972013  1
  Pd  Pd15  1  0.666667  0.333333  0.527987  1
  Pd  Pd16  1  0.000000  0.000000  0.250000  1
  Pd  Pd17  1  0.000000  0.000000  0.750000  1
