# generated using pymatgen
data_Zr6Zn23B
_symmetry_space_group_name_H-M   'P 1'
_cell_length_a   8.72334579
_cell_length_b   8.72334612
_cell_length_c   8.72334600
_cell_angle_alpha   60.00000044
_cell_angle_beta   59.99999921
_cell_angle_gamma   59.99999414
_symmetry_Int_Tables_number   1
_chemical_formula_structural   Zr6Zn23B
_chemical_formula_sum   'Zr6 Zn23 B1'
_cell_volume   469.39047517
_cell_formula_units_Z   1
loop_
 _symmetry_equiv_pos_site_id
 _symmetry_equiv_pos_as_xyz
  1  'x, y, z'
loop_
 _atom_site_type_symbol
 _atom_site_label
 _atom_site_symmetry_multiplicity
 _atom_site_fract_x
 _atom_site_fract_y
 _atom_site_fract_z
 _atom_site_occupancy
  Zr  Zr0  1  0.694260  0.305740  0.305740  1
  Zr  Zr1  1  0.305740  0.694260  0.694260  1
  Zr  Zr2  1  0.305740  0.694260  0.305740  1
  Zr  Zr3  1  0.694260  0.305740  0.694260  1
  Zr  Zr4  1  0.305740  0.305740  0.694260  1
  Zr  Zr5  1  0.694260  0.694260  0.305740  1
  Zn  Zn6  1  0.121311  0.121311  0.121311  1
  Zn  Zn7  1  0.878689  0.878689  0.878689  1
  Zn  Zn8  1  0.121311  0.121311  0.636068  1
  Zn  Zn9  1  0.121311  0.636068  0.121311  1
  Zn  Zn10  1  0.878689  0.878689  0.363932  1
  Zn  Zn11  1  0.878689  0.363932  0.878689  1
  Zn  Zn12  1  0.636068  0.121311  0.121311  1
  Zn  Zn13  1  0.363932  0.878689  0.878689  1
  Zn  Zn14  1  0.500000  0.000000  0.000000  1
  Zn  Zn15  1  0.000000  0.500000  0.500000  1
  Zn  Zn16  1  0.000000  0.500000  0.000000  1
  Zn  Zn17  1  0.500000  0.000000  0.500000  1
  Zn  Zn18  1  0.000000  0.000000  0.500000  1
  Zn  Zn19  1  0.500000  0.500000  0.000000  1
  Zn  Zn20  1  0.331737  0.331737  0.331737  1
  Zn  Zn21  1  0.668263  0.668263  0.668263  1
  Zn  Zn22  1  0.331737  0.331737  0.004790  1
  Zn  Zn23  1  0.331737  0.004790  0.331737  1
  Zn  Zn24  1  0.668263  0.668263  0.995210  1
  Zn  Zn25  1  0.668263  0.995210  0.668263  1
  Zn  Zn26  1  0.004790  0.331737  0.331737  1
  Zn  Zn27  1  0.995210  0.668263  0.668263  1
  Zn  Zn28  1  0.000000  0.000000  0.000000  1
  B  B29  1  0.500000  0.500000  0.500000  1
