# generated using pymatgen
data_Tb4Zr3ScPt4
_symmetry_space_group_name_H-M   'P 1'
_cell_length_a   4.69140300
_cell_length_b   7.07841955
_cell_length_c   8.28755200
_cell_angle_alpha   91.07184614
_cell_angle_beta   90.00000000
_cell_angle_gamma   90.00000000
_symmetry_Int_Tables_number   1
_chemical_formula_structural   Tb4Zr3ScPt4
_chemical_formula_sum   'Tb4 Zr3 Sc1 Pt4'
_cell_volume   275.16254050
_cell_formula_units_Z   1
loop_
 _symmetry_equiv_pos_site_id
 _symmetry_equiv_pos_as_xyz
  1  'x, y, z'
loop_
 _atom_site_type_symbol
 _atom_site_label
 _atom_site_symmetry_multiplicity
 _atom_site_fract_x
 _atom_site_fract_y
 _atom_site_fract_z
 _atom_site_occupancy
  Tb  Tb0  1  0.250000  0.019106  0.324369  1
  Tb  Tb1  1  0.250000  0.513615  0.177563  1
  Tb  Tb2  1  0.750000  0.984770  0.677150  1
  Tb  Tb3  1  0.750000  0.484477  0.817774  1
  Zr  Zr4  1  0.250000  0.143637  0.920987  1
  Zr  Zr5  1  0.250000  0.645012  0.576266  1
  Zr  Zr6  1  0.750000  0.852900  0.081596  1
  Sc  Sc7  1  0.750000  0.355301  0.420814  1
  Pt  Pt8  1  0.250000  0.266329  0.598703  1
  Pt  Pt9  1  0.250000  0.767211  0.907925  1
  Pt  Pt10  1  0.750000  0.735359  0.406538  1
  Pt  Pt11  1  0.750000  0.232281  0.090315  1
