# generated using pymatgen
data_UPa2Tc3
_symmetry_space_group_name_H-M   'P 1'
_cell_length_a   5.71854800
_cell_length_b   5.71854714
_cell_length_c   8.03122600
_cell_angle_alpha   90.00000000
_cell_angle_beta   90.00000000
_cell_angle_gamma   119.99998185
_symmetry_Int_Tables_number   1
_chemical_formula_structural   UPa2Tc3
_chemical_formula_sum   'U2 Pa4 Tc6'
_cell_volume   227.44900143
_cell_formula_units_Z   2
loop_
 _symmetry_equiv_pos_site_id
 _symmetry_equiv_pos_as_xyz
  1  'x, y, z'
loop_
 _atom_site_type_symbol
 _atom_site_label
 _atom_site_symmetry_multiplicity
 _atom_site_fract_x
 _atom_site_fract_y
 _atom_site_fract_z
 _atom_site_occupancy
  U  U0  1  0.000000  0.000000  0.500000  1
  U  U1  1  0.000000  0.000000  0.000000  1
  Pa  Pa2  1  0.333333  0.666667  0.431661  1
  Pa  Pa3  1  0.666667  0.333333  0.568339  1
  Pa  Pa4  1  0.666667  0.333333  0.931661  1
  Pa  Pa5  1  0.333333  0.666667  0.068339  1
  Tc  Tc6  1  0.832880  0.167120  0.250000  1
  Tc  Tc7  1  0.832880  0.665760  0.250000  1
  Tc  Tc8  1  0.334240  0.167120  0.250000  1
  Tc  Tc9  1  0.167120  0.832880  0.750000  1
  Tc  Tc10  1  0.167120  0.334240  0.750000  1
  Tc  Tc11  1  0.665760  0.832880  0.750000  1
