# generated using pymatgen
data_Dy2Lu6Sc12Si15Rh
_symmetry_space_group_name_H-M   'P 1'
_cell_length_a   7.02989421
_cell_length_b   7.39167183
_cell_length_c   13.85790610
_cell_angle_alpha   90.09699708
_cell_angle_beta   89.98519987
_cell_angle_gamma   90.07629030
_symmetry_Int_Tables_number   1
_chemical_formula_structural   Dy2Lu6Sc12Si15Rh
_chemical_formula_sum   'Dy2 Lu6 Sc12 Si15 Rh1'
_cell_volume   720.09212146
_cell_formula_units_Z   1
loop_
 _symmetry_equiv_pos_site_id
 _symmetry_equiv_pos_as_xyz
  1  'x, y, z'
loop_
 _atom_site_type_symbol
 _atom_site_label
 _atom_site_symmetry_multiplicity
 _atom_site_fract_x
 _atom_site_fract_y
 _atom_site_fract_z
 _atom_site_occupancy
  Dy  Dy0  1  0.511299  0.323294  0.403908  1
  Dy  Dy1  1  0.490045  0.676178  0.594397  1
  Lu  Lu2  1  0.010915  0.180032  0.094841  1
  Lu  Lu3  1  0.991120  0.823997  0.906644  1
  Lu  Lu4  1  0.490267  0.677916  0.905333  1
  Lu  Lu5  1  0.991411  0.824620  0.594886  1
  Lu  Lu6  1  0.511184  0.321845  0.096170  1
  Lu  Lu7  1  0.010599  0.179835  0.403675  1
  Sc  Sc8  1  0.161141  0.508030  0.750568  1
  Sc  Sc9  1  0.837749  0.496026  0.249281  1
  Sc  Sc10  1  0.339115  0.006867  0.249327  1
  Sc  Sc11  1  0.667934  0.995362  0.750816  1
  Sc  Sc12  1  0.317597  0.170820  0.627894  1
  Sc  Sc13  1  0.672293  0.827342  0.373285  1
  Sc  Sc14  1  0.170168  0.679031  0.373503  1
  Sc  Sc15  1  0.671824  0.825765  0.125599  1
  Sc  Sc16  1  0.835823  0.321246  0.627689  1
  Sc  Sc17  1  0.318036  0.171739  0.873183  1
  Sc  Sc18  1  0.836509  0.320838  0.873204  1
  Sc  Sc19  1  0.169775  0.678221  0.125389  1
  Si  Si20  1  0.969637  0.890072  0.249315  1
  Si  Si21  1  0.468816  0.614228  0.249213  1
  Si  Si22  1  0.530770  0.387193  0.751087  1
  Si  Si23  1  0.288287  0.864380  0.751463  1
  Si  Si24  1  0.714761  0.133131  0.248736  1
  Si  Si25  1  0.212091  0.369532  0.248623  1
  Si  Si26  1  0.781704  0.627769  0.751404  1
  Si  Si27  1  0.158697  0.466877  0.537777  1
  Si  Si28  1  0.843162  0.536347  0.461421  1
  Si  Si29  1  0.341404  0.967208  0.460531  1
  Si  Si30  1  0.839812  0.534636  0.038454  1
  Si  Si31  1  0.659355  0.034153  0.539054  1
  Si  Si32  1  0.161924  0.468089  0.961932  1
  Si  Si33  1  0.658882  0.033863  0.961161  1
  Si  Si34  1  0.342405  0.967330  0.039587  1
  Rh  Rh35  1  0.023483  0.096189  0.750651  1
