# generated using pymatgen
data_Nd2Ni2Au
_symmetry_space_group_name_H-M   'P 1'
_cell_length_a   7.26533581
_cell_length_b   7.26533474
_cell_length_c   3.83986600
_cell_angle_alpha   90.00000000
_cell_angle_beta   90.00000000
_cell_angle_gamma   148.86234687
_symmetry_Int_Tables_number   1
_chemical_formula_structural   Nd2Ni2Au
_chemical_formula_sum   'Nd2 Ni2 Au1'
_cell_volume   104.80898400
_cell_formula_units_Z   1
loop_
 _symmetry_equiv_pos_site_id
 _symmetry_equiv_pos_as_xyz
  1  'x, y, z'
loop_
 _atom_site_type_symbol
 _atom_site_label
 _atom_site_symmetry_multiplicity
 _atom_site_fract_x
 _atom_site_fract_y
 _atom_site_fract_z
 _atom_site_occupancy
  Nd  Nd0  1  0.630881  0.369119  0.500000  1
  Nd  Nd1  1  0.369119  0.630881  0.500000  1
  Ni  Ni2  1  0.800988  0.199012  0.000000  1
  Ni  Ni3  1  0.199012  0.800988  0.000000  1
  Au  Au4  1  0.000000  0.000000  0.000000  1
