# generated using pymatgen
data_Lu6Sc4Si5As
_symmetry_space_group_name_H-M   'P 1'
_cell_length_a   8.13837700
_cell_length_b   8.14956743
_cell_length_c   5.92232600
_cell_angle_alpha   90.00000000
_cell_angle_beta   90.00000000
_cell_angle_gamma   119.95459973
_symmetry_Int_Tables_number   1
_chemical_formula_structural   Lu6Sc4Si5As
_chemical_formula_sum   'Lu6 Sc4 Si5 As1'
_cell_volume   340.32496124
_cell_formula_units_Z   1
loop_
 _symmetry_equiv_pos_site_id
 _symmetry_equiv_pos_as_xyz
  1  'x, y, z'
loop_
 _atom_site_type_symbol
 _atom_site_label
 _atom_site_symmetry_multiplicity
 _atom_site_fract_x
 _atom_site_fract_y
 _atom_site_fract_z
 _atom_site_occupancy
  Lu  Lu0  1  0.757247  0.000000  0.750000  1
  Lu  Lu1  1  0.756054  0.755798  0.250000  1
  Lu  Lu2  1  0.000256  0.244202  0.250000  1
  Lu  Lu3  1  0.996850  0.753539  0.750000  1
  Lu  Lu4  1  0.243310  0.246461  0.750000  1
  Lu  Lu5  1  0.243913  0.000000  0.250000  1
  Sc  Sc6  1  0.668755  0.336099  0.001815  1
  Sc  Sc7  1  0.332656  0.663901  0.498185  1
  Sc  Sc8  1  0.332656  0.663901  0.001815  1
  Sc  Sc9  1  0.668755  0.336099  0.498185  1
  Si  Si10  1  0.397747  0.396728  0.250000  1
  Si  Si11  1  0.001019  0.603272  0.250000  1
  Si  Si12  1  0.999847  0.397754  0.750000  1
  Si  Si13  1  0.602093  0.602246  0.750000  1
  Si  Si14  1  0.604006  0.000000  0.250000  1
  As  As15  1  0.394833  0.000000  0.750000  1
