# generated using pymatgen
data_Nb12Al8TcNi3C4
_symmetry_space_group_name_H-M   'P 1'
_cell_length_a   8.27073407
_cell_length_b   8.26851215
_cell_length_c   8.33239287
_cell_angle_alpha   60.23274777
_cell_angle_beta   60.23775208
_cell_angle_gamma   59.99075770
_symmetry_Int_Tables_number   1
_chemical_formula_structural   Nb12Al8TcNi3C4
_chemical_formula_sum   'Nb12 Al8 Tc1 Ni3 C4'
_cell_volume   404.32514891
_cell_formula_units_Z   1
loop_
 _symmetry_equiv_pos_site_id
 _symmetry_equiv_pos_as_xyz
  1  'x, y, z'
loop_
 _atom_site_type_symbol
 _atom_site_label
 _atom_site_symmetry_multiplicity
 _atom_site_fract_x
 _atom_site_fract_y
 _atom_site_fract_z
 _atom_site_occupancy
  Nb  Nb0  1  0.699108  0.310294  0.680279  1
  Nb  Nb1  1  0.939699  0.550916  0.569715  1
  Nb  Nb2  1  0.563614  0.938063  0.934674  1
  Nb  Nb3  1  0.938076  0.563621  0.934675  1
  Nb  Nb4  1  0.563619  0.563645  0.934681  1
  Nb  Nb5  1  0.939672  0.939668  0.569727  1
  Nb  Nb6  1  0.686381  0.686355  0.315319  1
  Nb  Nb7  1  0.310301  0.699084  0.680285  1
  Nb  Nb8  1  0.686386  0.311937  0.315326  1
  Nb  Nb9  1  0.310328  0.310332  0.680273  1
  Nb  Nb10  1  0.550892  0.939706  0.569721  1
  Nb  Nb11  1  0.311924  0.686379  0.315325  1
  Al  Al12  1  0.336643  0.336558  0.322637  1
  Al  Al13  1  0.245818  0.913450  0.927355  1
  Al  Al14  1  0.913405  0.245781  0.927398  1
  Al  Al15  1  0.915229  0.915301  0.254218  1
  Al  Al16  1  0.336595  0.004219  0.322602  1
  Al  Al17  1  0.334771  0.334699  0.995782  1
  Al  Al18  1  0.004182  0.336550  0.322645  1
  Al  Al19  1  0.913357  0.913442  0.927363  1
  Tc  Tc20  1  0.125000  0.125000  0.625000  1
  Ni  Ni21  1  0.125000  0.125000  0.125000  1
  Ni  Ni22  1  0.625000  0.125000  0.125000  1
  Ni  Ni23  1  0.125000  0.625000  0.125000  1
  C  C24  1  0.625000  0.625000  0.625000  1
  C  C25  1  0.125000  0.625000  0.625000  1
  C  C26  1  0.625000  0.125000  0.625000  1
  C  C27  1  0.625000  0.625000  0.125000  1
