# generated using pymatgen
data_Pr8Zr11Si16Mo
_symmetry_space_group_name_H-M   'P 1'
_cell_length_a   7.22838692
_cell_length_b   7.45498594
_cell_length_c   14.16280000
_cell_angle_alpha   90.00000000
_cell_angle_beta   90.00000000
_cell_angle_gamma   90.05769854
_symmetry_Int_Tables_number   1
_chemical_formula_structural   Pr8Zr11Si16Mo
_chemical_formula_sum   'Pr8 Zr11 Si16 Mo1'
_cell_volume   763.19782187
_cell_formula_units_Z   1
loop_
 _symmetry_equiv_pos_site_id
 _symmetry_equiv_pos_as_xyz
  1  'x, y, z'
loop_
 _atom_site_type_symbol
 _atom_site_label
 _atom_site_symmetry_multiplicity
 _atom_site_fract_x
 _atom_site_fract_y
 _atom_site_fract_z
 _atom_site_occupancy
  Pr  Pr0  1  0.013801  0.172457  0.403628  1
  Pr  Pr1  1  0.513560  0.326457  0.403852  1
  Pr  Pr2  1  0.488202  0.675466  0.900096  1
  Pr  Pr3  1  0.488202  0.675466  0.599904  1
  Pr  Pr4  1  0.983458  0.828851  0.600468  1
  Pr  Pr5  1  0.983458  0.828851  0.899532  1
  Pr  Pr6  1  0.513560  0.326457  0.096148  1
  Pr  Pr7  1  0.013801  0.172457  0.096372  1
  Zr  Zr8  1  0.331770  0.173599  0.626464  1
  Zr  Zr9  1  0.670926  0.823662  0.375262  1
  Zr  Zr10  1  0.171452  0.676004  0.374982  1
  Zr  Zr11  1  0.825172  0.320264  0.873699  1
  Zr  Zr12  1  0.825172  0.320264  0.626301  1
  Zr  Zr13  1  0.843018  0.504244  0.250000  1
  Zr  Zr14  1  0.343870  0.995935  0.250000  1
  Zr  Zr15  1  0.331770  0.173599  0.873536  1
  Zr  Zr16  1  0.171452  0.676004  0.125018  1
  Zr  Zr17  1  0.670926  0.823662  0.124738  1
  Zr  Zr18  1  0.156092  0.495244  0.750000  1
  Si  Si19  1  0.292863  0.883955  0.750000  1
  Si  Si20  1  0.467158  0.626556  0.250000  1
  Si  Si21  1  0.028414  0.123251  0.750000  1
  Si  Si22  1  0.534415  0.372221  0.750000  1
  Si  Si23  1  0.150888  0.464826  0.541846  1
  Si  Si24  1  0.967663  0.874783  0.250000  1
  Si  Si25  1  0.716780  0.118079  0.250000  1
  Si  Si26  1  0.850102  0.534852  0.041004  1
  Si  Si27  1  0.348553  0.963395  0.040331  1
  Si  Si28  1  0.150888  0.464826  0.958154  1
  Si  Si29  1  0.650357  0.034383  0.544742  1
  Si  Si30  1  0.348553  0.963395  0.459669  1
  Si  Si31  1  0.850102  0.534852  0.458996  1
  Si  Si32  1  0.785048  0.617642  0.750000  1
  Si  Si33  1  0.216495  0.382652  0.250000  1
  Si  Si34  1  0.650357  0.034383  0.955258  1
  Mo  Mo35  1  0.651704  0.017006  0.750000  1
