# generated using pymatgen
data_Zr4CoNi3Hg2
_symmetry_space_group_name_H-M   'P 1'
_cell_length_a   7.20539384
_cell_length_b   7.20539464
_cell_length_c   6.65682700
_cell_angle_alpha   90.00000000
_cell_angle_beta   90.00000000
_cell_angle_gamma   90.34654772
_symmetry_Int_Tables_number   1
_chemical_formula_structural   Zr4CoNi3Hg2
_chemical_formula_sum   'Zr8 Co2 Ni6 Hg4'
_cell_volume   345.60086618
_cell_formula_units_Z   2
loop_
 _symmetry_equiv_pos_site_id
 _symmetry_equiv_pos_as_xyz
  1  'x, y, z'
loop_
 _atom_site_type_symbol
 _atom_site_label
 _atom_site_symmetry_multiplicity
 _atom_site_fract_x
 _atom_site_fract_y
 _atom_site_fract_z
 _atom_site_occupancy
  Zr  Zr0  1  0.660578  0.339422  0.004615  1
  Zr  Zr1  1  0.339422  0.660578  0.004615  1
  Zr  Zr2  1  0.834754  0.834754  0.497639  1
  Zr  Zr3  1  0.165246  0.165246  0.497639  1
  Zr  Zr4  1  0.178099  0.178099  0.002664  1
  Zr  Zr5  1  0.821901  0.821901  0.002664  1
  Zr  Zr6  1  0.328352  0.671648  0.496047  1
  Zr  Zr7  1  0.671648  0.328352  0.496047  1
  Co  Co8  1  0.374020  0.374020  0.264254  1
  Co  Co9  1  0.625980  0.625980  0.264254  1
  Ni  Ni10  1  0.122539  0.877461  0.232583  1
  Ni  Ni11  1  0.877461  0.122539  0.232583  1
  Ni  Ni12  1  0.623275  0.623275  0.733869  1
  Ni  Ni13  1  0.376725  0.376725  0.733869  1
  Ni  Ni14  1  0.123349  0.876651  0.767229  1
  Ni  Ni15  1  0.876651  0.123349  0.767229  1
  Hg  Hg16  1  0.500000  0.000000  0.250488  1
  Hg  Hg17  1  0.000000  0.500000  0.250488  1
  Hg  Hg18  1  0.000000  0.500000  0.750610  1
  Hg  Hg19  1  0.500000  0.000000  0.750610  1
