# generated using pymatgen
data_Y6HoTmTlIn3Au8
_symmetry_space_group_name_H-M   'P 1'
_cell_length_a   8.03157900
_cell_length_b   8.03158005
_cell_length_c   7.36374400
_cell_angle_alpha   90.00000000
_cell_angle_beta   90.00000000
_cell_angle_gamma   89.66896790
_symmetry_Int_Tables_number   1
_chemical_formula_structural   Y6HoTmTlIn3Au8
_chemical_formula_sum   'Y6 Ho1 Tm1 Tl1 In3 Au8'
_cell_volume   474.99972817
_cell_formula_units_Z   1
loop_
 _symmetry_equiv_pos_site_id
 _symmetry_equiv_pos_as_xyz
  1  'x, y, z'
loop_
 _atom_site_type_symbol
 _atom_site_label
 _atom_site_symmetry_multiplicity
 _atom_site_fract_x
 _atom_site_fract_y
 _atom_site_fract_z
 _atom_site_occupancy
  Y  Y0  1  0.837955  0.162278  0.500124  1
  Y  Y1  1  0.161193  0.838636  0.500136  1
  Y  Y2  1  0.338091  0.338315  0.999997  1
  Y  Y3  1  0.661794  0.661777  0.999916  1
  Y  Y4  1  0.677645  0.676076  0.500190  1
  Y  Y5  1  0.323829  0.322460  0.500037  1
  Ho  Ho6  1  0.175821  0.823594  0.999741  1
  Tm  Tm7  1  0.824689  0.175817  0.999736  1
  Tl  Tl8  1  0.500021  0.000011  0.249375  1
  In  In9  1  0.999981  0.499889  0.750679  1
  In  In10  1  0.500113  0.999975  0.750631  1
  In  In11  1  0.999936  0.499877  0.249328  1
  Au  Au12  1  0.631503  0.372161  0.261283  1
  Au  Au13  1  0.369665  0.626778  0.264650  1
  Au  Au14  1  0.127521  0.128984  0.768111  1
  Au  Au15  1  0.870825  0.872779  0.768150  1
  Au  Au16  1  0.371023  0.629141  0.735505  1
  Au  Au17  1  0.630054  0.369762  0.738828  1
  Au  Au18  1  0.873317  0.871410  0.231805  1
  Au  Au19  1  0.125025  0.130279  0.231780  1
