# generated using pymatgen
data_Sm8Co(Si4Pt)3
_symmetry_space_group_name_H-M   'P 1'
_cell_length_a   8.18125900
_cell_length_b   8.18125950
_cell_length_c   8.34491700
_cell_angle_alpha   90.00000000
_cell_angle_beta   90.00000000
_cell_angle_gamma   119.99999392
_symmetry_Int_Tables_number   1
_chemical_formula_structural   Sm8Co(Si4Pt)3
_chemical_formula_sum   'Sm8 Co1 Si12 Pt3'
_cell_volume   483.71882567
_cell_formula_units_Z   1
loop_
 _symmetry_equiv_pos_site_id
 _symmetry_equiv_pos_as_xyz
  1  'x, y, z'
loop_
 _atom_site_type_symbol
 _atom_site_label
 _atom_site_symmetry_multiplicity
 _atom_site_fract_x
 _atom_site_fract_y
 _atom_site_fract_z
 _atom_site_occupancy
  Sm  Sm0  1  0.501583  0.498417  0.753503  1
  Sm  Sm1  1  0.502544  0.497456  0.246733  1
  Sm  Sm2  1  0.996835  0.498417  0.753503  1
  Sm  Sm3  1  0.994909  0.497456  0.246733  1
  Sm  Sm4  1  0.501583  0.003165  0.753503  1
  Sm  Sm5  1  0.502544  0.005091  0.246733  1
  Sm  Sm6  1  0.000000  0.000000  0.750883  1
  Sm  Sm7  1  0.000000  0.000000  0.249023  1
  Co  Co8  1  0.666667  0.333333  0.996958  1
  Si  Si9  1  0.826791  0.173209  0.999855  1
  Si  Si10  1  0.164477  0.835523  0.000089  1
  Si  Si11  1  0.346418  0.173209  0.999855  1
  Si  Si12  1  0.165892  0.834108  0.500046  1
  Si  Si13  1  0.671047  0.835523  0.000089  1
  Si  Si14  1  0.834974  0.165026  0.499957  1
  Si  Si15  1  0.826791  0.653582  0.999855  1
  Si  Si16  1  0.668214  0.834108  0.500046  1
  Si  Si17  1  0.164477  0.328953  0.000089  1
  Si  Si18  1  0.330050  0.165026  0.499957  1
  Si  Si19  1  0.165892  0.331786  0.500046  1
  Si  Si20  1  0.834974  0.669950  0.499957  1
  Pt  Pt21  1  0.333333  0.666667  0.002179  1
  Pt  Pt22  1  0.333333  0.666667  0.499180  1
  Pt  Pt23  1  0.666667  0.333333  0.501231  1
