# generated using pymatgen
data_HoTm(MgRh)2
_symmetry_space_group_name_H-M   'P 1'
_cell_length_a   4.08038400
_cell_length_b   7.08110789
_cell_length_c   8.50978007
_cell_angle_alpha   90.13854679
_cell_angle_beta   90.00000000
_cell_angle_gamma   90.00000000
_symmetry_Int_Tables_number   1
_chemical_formula_structural   HoTm(MgRh)2
_chemical_formula_sum   'Ho2 Tm2 Mg4 Rh4'
_cell_volume   245.87779714
_cell_formula_units_Z   2
loop_
 _symmetry_equiv_pos_site_id
 _symmetry_equiv_pos_as_xyz
  1  'x, y, z'
loop_
 _atom_site_type_symbol
 _atom_site_label
 _atom_site_symmetry_multiplicity
 _atom_site_fract_x
 _atom_site_fract_y
 _atom_site_fract_z
 _atom_site_occupancy
  Ho  Ho0  1  0.750000  0.963520  0.676497  1
  Ho  Ho1  1  0.250000  0.036480  0.323503  1
  Tm  Tm2  1  0.250000  0.537766  0.174502  1
  Tm  Tm3  1  0.750000  0.462234  0.825498  1
  Mg  Mg4  1  0.250000  0.636498  0.559960  1
  Mg  Mg5  1  0.750000  0.363502  0.440040  1
  Mg  Mg6  1  0.750000  0.862670  0.059421  1
  Mg  Mg7  1  0.250000  0.137330  0.940579  1
  Rh  Rh8  1  0.250000  0.748056  0.870976  1
  Rh  Rh9  1  0.750000  0.251944  0.129024  1
  Rh  Rh10  1  0.750000  0.746660  0.368822  1
  Rh  Rh11  1  0.250000  0.253340  0.631178  1
