# generated using pymatgen
data_Dy2Er6Re(B8Os)3
_symmetry_space_group_name_H-M   'P 1'
_cell_length_a   3.64619900
_cell_length_b   9.11815651
_cell_length_c   11.50086102
_cell_angle_alpha   90.09031819
_cell_angle_beta   90.00000000
_cell_angle_gamma   90.00000000
_symmetry_Int_Tables_number   1
_chemical_formula_structural   Dy2Er6Re(B8Os)3
_chemical_formula_sum   'Dy2 Er6 Re1 B24 Os3'
_cell_volume   382.36420204
_cell_formula_units_Z   1
loop_
 _symmetry_equiv_pos_site_id
 _symmetry_equiv_pos_as_xyz
  1  'x, y, z'
loop_
 _atom_site_type_symbol
 _atom_site_label
 _atom_site_symmetry_multiplicity
 _atom_site_fract_x
 _atom_site_fract_y
 _atom_site_fract_z
 _atom_site_occupancy
  Dy  Dy0  1  0.000000  0.322120  0.414867  1
  Dy  Dy1  1  0.000000  0.680163  0.588082  1
  Er  Er2  1  0.000000  0.822400  0.083578  1
  Er  Er3  1  0.000000  0.176579  0.913269  1
  Er  Er4  1  0.000000  0.943428  0.371842  1
  Er  Er5  1  0.000000  0.055788  0.627769  1
  Er  Er6  1  0.000000  0.443126  0.127650  1
  Er  Er7  1  0.000000  0.556373  0.872895  1
  Re  Re8  1  0.000000  0.862584  0.821550  1
  B  B9  1  0.500000  0.553943  0.433151  1
  B  B10  1  0.500000  0.446142  0.567094  1
  B  B11  1  0.500000  0.053611  0.067040  1
  B  B12  1  0.500000  0.947201  0.933468  1
  B  B13  1  0.500000  0.748826  0.419377  1
  B  B14  1  0.500000  0.251255  0.580504  1
  B  B15  1  0.500000  0.248427  0.080431  1
  B  B16  1  0.500000  0.751231  0.919589  1
  B  B17  1  0.500000  0.790874  0.265800  1
  B  B18  1  0.500000  0.208765  0.733499  1
  B  B19  1  0.500000  0.291145  0.233896  1
  B  B20  1  0.500000  0.708239  0.766114  1
  B  B21  1  0.500000  0.631031  0.185102  1
  B  B22  1  0.500000  0.368549  0.814495  1
  B  B23  1  0.500000  0.131363  0.314790  1
  B  B24  1  0.500000  0.868984  0.685531  1
  B  B25  1  0.500000  0.982868  0.212633  1
  B  B26  1  0.500000  0.018192  0.787330  1
  B  B27  1  0.500000  0.482950  0.287536  1
  B  B28  1  0.500000  0.517024  0.712869  1
  B  B29  1  0.500000  0.605242  0.029811  1
  B  B30  1  0.500000  0.393321  0.970797  1
  B  B31  1  0.500000  0.106081  0.470313  1
  B  B32  1  0.500000  0.894419  0.528697  1
  Os  Os33  1  0.000000  0.637685  0.321077  1
  Os  Os34  1  0.000000  0.362316  0.678447  1
  Os  Os35  1  0.000000  0.137751  0.179107  1
