# generated using pymatgen
data_Pu2Mn4Co8P7
_symmetry_space_group_name_H-M   'P 1'
_cell_length_a   9.05859457
_cell_length_b   9.04181274
_cell_length_c   3.60921600
_cell_angle_alpha   90.00000000
_cell_angle_beta   90.00000000
_cell_angle_gamma   119.64818080
_symmetry_Int_Tables_number   1
_chemical_formula_structural   Pu2Mn4Co8P7
_chemical_formula_sum   'Pu2 Mn4 Co8 P7'
_cell_volume   256.91448506
_cell_formula_units_Z   1
loop_
 _symmetry_equiv_pos_site_id
 _symmetry_equiv_pos_as_xyz
  1  'x, y, z'
loop_
 _atom_site_type_symbol
 _atom_site_label
 _atom_site_symmetry_multiplicity
 _atom_site_fract_x
 _atom_site_fract_y
 _atom_site_fract_z
 _atom_site_occupancy
  Pu  Pu0  1  0.664190  0.331349  0.000000  1
  Pu  Pu1  1  0.332028  0.666416  0.500000  1
  Mn  Mn2  1  0.842623  0.119528  0.000000  1
  Mn  Mn3  1  0.122503  0.901150  0.500000  1
  Mn  Mn4  1  0.103008  0.224755  0.500000  1
  Mn  Mn5  1  0.775713  0.878314  0.500000  1
  Co  Co6  1  0.372495  0.941734  0.000000  1
  Co  Co7  1  0.059773  0.430882  0.000000  1
  Co  Co8  1  0.569596  0.626190  0.000000  1
  Co  Co9  1  0.882466  0.723632  0.000000  1
  Co  Co10  1  0.276724  0.159667  0.000000  1
  Co  Co11  1  0.948941  0.562135  0.500000  1
  Co  Co12  1  0.438042  0.385288  0.500000  1
  Co  Co13  1  0.612774  0.050265  0.500000  1
  P  P14  1  0.112423  0.702377  0.000000  1
  P  P15  1  0.301006  0.412429  0.000000  1
  P  P16  1  0.588703  0.886725  0.000000  1
  P  P17  1  0.711530  0.593718  0.500000  1
  P  P18  1  0.403548  0.114715  0.500000  1
  P  P19  1  0.880452  0.288913  0.500000  1
  P  P20  1  0.001462  0.999821  0.000000  1
