# generated using pymatgen
data_YTh2AgHg3Au2
_symmetry_space_group_name_H-M   'P 1'
_cell_length_a   7.93533082
_cell_length_b   7.93533337
_cell_length_c   3.98578400
_cell_angle_alpha   90.00000000
_cell_angle_beta   90.00000000
_cell_angle_gamma   119.74127493
_symmetry_Int_Tables_number   1
_chemical_formula_structural   YTh2AgHg3Au2
_chemical_formula_sum   'Y1 Th2 Ag1 Hg3 Au2'
_cell_volume   217.92193873
_cell_formula_units_Z   1
loop_
 _symmetry_equiv_pos_site_id
 _symmetry_equiv_pos_as_xyz
  1  'x, y, z'
loop_
 _atom_site_type_symbol
 _atom_site_label
 _atom_site_symmetry_multiplicity
 _atom_site_fract_x
 _atom_site_fract_y
 _atom_site_fract_z
 _atom_site_occupancy
  Y  Y0  1  0.408382  0.408382  0.000000  1
  Th  Th1  1  0.590544  0.998932  0.000000  1
  Th  Th2  1  0.998932  0.590544  0.000000  1
  Ag  Ag3  1  0.997877  0.997877  0.000000  1
  Hg  Hg4  1  0.262917  0.007342  0.500000  1
  Hg  Hg5  1  0.007342  0.262917  0.500000  1
  Hg  Hg6  1  0.732938  0.732938  0.500000  1
  Au  Au7  1  0.333406  0.667661  0.500000  1
  Au  Au8  1  0.667661  0.333406  0.500000  1
