# generated using pymatgen
data_Lu4Sc(Tl2Pt)2
_symmetry_space_group_name_H-M   'P 1'
_cell_length_a   3.54460900
_cell_length_b   7.85347300
_cell_length_c   18.03882300
_cell_angle_alpha   90.00000000
_cell_angle_beta   90.00000000
_cell_angle_gamma   90.00000000
_symmetry_Int_Tables_number   1
_chemical_formula_structural   Lu4Sc(Tl2Pt)2
_chemical_formula_sum   'Lu8 Sc2 Tl8 Pt4'
_cell_volume   502.15557430
_cell_formula_units_Z   2
loop_
 _symmetry_equiv_pos_site_id
 _symmetry_equiv_pos_as_xyz
  1  'x, y, z'
loop_
 _atom_site_type_symbol
 _atom_site_label
 _atom_site_symmetry_multiplicity
 _atom_site_fract_x
 _atom_site_fract_y
 _atom_site_fract_z
 _atom_site_occupancy
  Lu  Lu0  1  0.000000  0.116021  0.415238  1
  Lu  Lu1  1  0.000000  0.883979  0.584762  1
  Lu  Lu2  1  0.000000  0.383979  0.915238  1
  Lu  Lu3  1  0.000000  0.616021  0.084762  1
  Lu  Lu4  1  0.000000  0.244940  0.220954  1
  Lu  Lu5  1  0.000000  0.755060  0.779046  1
  Lu  Lu6  1  0.000000  0.255060  0.720954  1
  Lu  Lu7  1  0.000000  0.744940  0.279046  1
  Sc  Sc8  1  0.000000  0.000000  0.000000  1
  Sc  Sc9  1  0.000000  0.500000  0.500000  1
  Tl  Tl10  1  0.500000  0.424832  0.356032  1
  Tl  Tl11  1  0.500000  0.575168  0.643968  1
  Tl  Tl12  1  0.500000  0.075168  0.856032  1
  Tl  Tl13  1  0.500000  0.924832  0.143968  1
  Tl  Tl14  1  0.500000  0.286412  0.063024  1
  Tl  Tl15  1  0.500000  0.713588  0.936976  1
  Tl  Tl16  1  0.500000  0.213588  0.563024  1
  Tl  Tl17  1  0.500000  0.786412  0.436976  1
  Pt  Pt18  1  0.500000  0.029194  0.304620  1
  Pt  Pt19  1  0.500000  0.970806  0.695380  1
  Pt  Pt20  1  0.500000  0.470806  0.804620  1
  Pt  Pt21  1  0.500000  0.529194  0.195380  1
