# generated using pymatgen
data_Eu3TcO7
_symmetry_space_group_name_H-M   'P 1'
_cell_length_a   6.64808067
_cell_length_b   6.64808068
_cell_length_c   7.65146200
_cell_angle_alpha   90.00000000
_cell_angle_beta   90.00000000
_cell_angle_gamma   110.48395276
_symmetry_Int_Tables_number   1
_chemical_formula_structural   Eu3TcO7
_chemical_formula_sum   'Eu6 Tc2 O14'
_cell_volume   316.78898476
_cell_formula_units_Z   2
loop_
 _symmetry_equiv_pos_site_id
 _symmetry_equiv_pos_as_xyz
  1  'x, y, z'
loop_
 _atom_site_type_symbol
 _atom_site_label
 _atom_site_symmetry_multiplicity
 _atom_site_fract_x
 _atom_site_fract_y
 _atom_site_fract_z
 _atom_site_occupancy
  Eu  Eu0  1  0.000000  0.000000  0.000000  1
  Eu  Eu1  1  0.000000  0.000000  0.500000  1
  Eu  Eu2  1  0.047407  0.516010  0.250000  1
  Eu  Eu3  1  0.952593  0.483990  0.750000  1
  Eu  Eu4  1  0.483990  0.952593  0.750000  1
  Eu  Eu5  1  0.516010  0.047407  0.250000  1
  Tc  Tc6  1  0.500000  0.500000  0.000000  1
  Tc  Tc7  1  0.500000  0.500000  0.500000  1
  O  O8  1  0.450804  0.450804  0.250000  1
  O  O9  1  0.549196  0.549196  0.750000  1
  O  O10  1  0.884569  0.151590  0.250000  1
  O  O11  1  0.115431  0.848410  0.750000  1
  O  O12  1  0.848410  0.115431  0.750000  1
  O  O13  1  0.151590  0.884569  0.250000  1
  O  O14  1  0.195573  0.442655  0.972437  1
  O  O15  1  0.804427  0.557345  0.472437  1
  O  O16  1  0.557345  0.804427  0.027563  1
  O  O17  1  0.442655  0.195573  0.527563  1
  O  O18  1  0.804427  0.557345  0.027563  1
  O  O19  1  0.195573  0.442655  0.527563  1
  O  O20  1  0.442655  0.195573  0.972437  1
  O  O21  1  0.557345  0.804427  0.472437  1
