# generated using pymatgen
data_YEr9In8(PdAu)2
_symmetry_space_group_name_H-M   'P 1'
_cell_length_a   3.62925000
_cell_length_b   8.14957400
_cell_length_c   18.26876624
_cell_angle_alpha   90.01089204
_cell_angle_beta   90.00000000
_cell_angle_gamma   90.00000000
_symmetry_Int_Tables_number   1
_chemical_formula_structural   YEr9In8(PdAu)2
_chemical_formula_sum   'Y1 Er9 In8 Pd2 Au2'
_cell_volume   540.33239291
_cell_formula_units_Z   1
loop_
 _symmetry_equiv_pos_site_id
 _symmetry_equiv_pos_as_xyz
  1  'x, y, z'
loop_
 _atom_site_type_symbol
 _atom_site_label
 _atom_site_symmetry_multiplicity
 _atom_site_fract_x
 _atom_site_fract_y
 _atom_site_fract_z
 _atom_site_occupancy
  Y  Y0  1  0.000000  0.500000  0.500000  1
  Er  Er1  1  0.000000  0.000000  0.000000  1
  Er  Er2  1  0.000000  0.747031  0.282967  1
  Er  Er3  1  0.000000  0.252969  0.717033  1
  Er  Er4  1  0.000000  0.766480  0.779647  1
  Er  Er5  1  0.000000  0.233520  0.220353  1
  Er  Er6  1  0.000000  0.619731  0.080314  1
  Er  Er7  1  0.000000  0.380269  0.919686  1
  Er  Er8  1  0.000000  0.885047  0.582914  1
  Er  Er9  1  0.000000  0.114953  0.417086  1
  In  In10  1  0.500000  0.711052  0.932516  1
  In  In11  1  0.500000  0.288948  0.067484  1
  In  In12  1  0.500000  0.792178  0.433180  1
  In  In13  1  0.500000  0.207822  0.566820  1
  In  In14  1  0.500000  0.583111  0.647790  1
  In  In15  1  0.500000  0.416889  0.352210  1
  In  In16  1  0.500000  0.922051  0.148472  1
  In  In17  1  0.500000  0.077949  0.851528  1
  Pd  Pd18  1  0.500000  0.973239  0.696142  1
  Pd  Pd19  1  0.500000  0.026761  0.303858  1
  Au  Au20  1  0.500000  0.527982  0.197280  1
  Au  Au21  1  0.500000  0.472018  0.802720  1
