# generated using pymatgen
data_K4Li2LuInP4
_symmetry_space_group_name_H-M   'P 1'
_cell_length_a   8.79165813
_cell_length_b   8.79165681
_cell_length_c   8.79165703
_cell_angle_alpha   136.96507030
_cell_angle_beta   62.56564879
_cell_angle_gamma   136.86914605
_symmetry_Int_Tables_number   1
_chemical_formula_structural   K4Li2LuInP4
_chemical_formula_sum   'K4 Li2 Lu1 In1 P4'
_cell_volume   313.17435114
_cell_formula_units_Z   1
loop_
 _symmetry_equiv_pos_site_id
 _symmetry_equiv_pos_as_xyz
  1  'x, y, z'
loop_
 _atom_site_type_symbol
 _atom_site_label
 _atom_site_symmetry_multiplicity
 _atom_site_fract_x
 _atom_site_fract_y
 _atom_site_fract_z
 _atom_site_occupancy
  K  K0  1  0.807798  0.267081  0.102351  1
  K  K1  1  0.692202  0.794553  0.459283  1
  K  K2  1  0.335270  0.232919  0.540717  1
  K  K3  1  0.164730  0.705448  0.897650  1
  Li  Li4  1  0.750001  0.250001  0.500000  1
  Li  Li5  1  0.250001  0.750001  0.500001  1
  Lu  Lu6  1  0.250001  0.250001  0.000000  1
  In  In7  1  0.750000  0.750000  0.000000  1
  P  P8  1  0.405921  0.742588  0.146571  1
  P  P9  1  0.094079  0.240649  0.336667  1
  P  P10  1  0.903982  0.757412  0.663334  1
  P  P11  1  0.596018  0.259351  0.853430  1
