# generated using pymatgen
data_Tm4FeOs5Ru2
_symmetry_space_group_name_H-M   'P 1'
_cell_length_a   5.21156615
_cell_length_b   5.25655592
_cell_length_c   8.85807100
_cell_angle_alpha   90.00000000
_cell_angle_beta   90.00000000
_cell_angle_gamma   120.28597032
_symmetry_Int_Tables_number   1
_chemical_formula_structural   Tm4FeOs5Ru2
_chemical_formula_sum   'Tm4 Fe1 Os5 Ru2'
_cell_volume   209.54660627
_cell_formula_units_Z   1
loop_
 _symmetry_equiv_pos_site_id
 _symmetry_equiv_pos_as_xyz
  1  'x, y, z'
loop_
 _atom_site_type_symbol
 _atom_site_label
 _atom_site_symmetry_multiplicity
 _atom_site_fract_x
 _atom_site_fract_y
 _atom_site_fract_z
 _atom_site_occupancy
  Tm  Tm0  1  0.335419  0.667710  0.435525  1
  Tm  Tm1  1  0.665547  0.332773  0.567149  1
  Tm  Tm2  1  0.665547  0.332773  0.932851  1
  Tm  Tm3  1  0.335419  0.667710  0.064475  1
  Fe  Fe4  1  0.667571  0.833786  0.750000  1
  Os  Os5  1  0.828281  0.171936  0.250000  1
  Os  Os6  1  0.828281  0.656344  0.250000  1
  Os  Os7  1  0.336941  0.168470  0.250000  1
  Os  Os8  1  0.170683  0.825428  0.750000  1
  Os  Os9  1  0.170683  0.345257  0.750000  1
  Ru  Ru10  1  0.997813  0.998907  0.501899  1
  Ru  Ru11  1  0.997813  0.998907  0.998101  1
