# generated using pymatgen
data_Tb4HoTmAl24ZnOs7
_symmetry_space_group_name_H-M   'P 1'
_cell_length_a   8.86567720
_cell_length_b   8.86832627
_cell_length_c   9.54785675
_cell_angle_alpha   89.99373201
_cell_angle_beta   90.02429187
_cell_angle_gamma   120.07529289
_symmetry_Int_Tables_number   1
_chemical_formula_structural   Tb4HoTmAl24ZnOs7
_chemical_formula_sum   'Tb4 Ho1 Tm1 Al24 Zn1 Os7'
_cell_volume   649.62100852
_cell_formula_units_Z   1
loop_
 _symmetry_equiv_pos_site_id
 _symmetry_equiv_pos_as_xyz
  1  'x, y, z'
loop_
 _atom_site_type_symbol
 _atom_site_label
 _atom_site_symmetry_multiplicity
 _atom_site_fract_x
 _atom_site_fract_y
 _atom_site_fract_z
 _atom_site_occupancy
  Tb  Tb0  1  0.808739  0.614800  0.752145  1
  Tb  Tb1  1  0.614820  0.808494  0.247661  1
  Tb  Tb2  1  0.385221  0.191341  0.752185  1
  Tb  Tb3  1  0.194160  0.805730  0.254211  1
  Ho  Ho4  1  0.191690  0.386124  0.247907  1
  Tm  Tm5  1  0.804191  0.195715  0.745720  1
  Al  Al6  1  0.329479  0.670115  0.021672  1
  Al  Al7  1  0.670724  0.329177  0.977750  1
  Al  Al8  1  0.666052  0.333835  0.518000  1
  Al  Al9  1  0.334057  0.665535  0.482472  1
  Al  Al10  1  0.162052  0.325750  0.573507  1
  Al  Al11  1  0.837102  0.673586  0.426655  1
  Al  Al12  1  0.674173  0.837912  0.573789  1
  Al  Al13  1  0.848803  0.676655  0.080992  1
  Al  Al14  1  0.326246  0.162978  0.426638  1
  Al  Al15  1  0.150149  0.322319  0.918651  1
  Al  Al16  1  0.163055  0.837016  0.575949  1
  Al  Al17  1  0.323227  0.151395  0.081055  1
  Al  Al18  1  0.837486  0.162875  0.425189  1
  Al  Al19  1  0.677551  0.849796  0.918415  1
  Al  Al20  1  0.836960  0.163515  0.074888  1
  Al  Al21  1  0.163469  0.836425  0.924160  1
  Al  Al22  1  0.562318  0.121808  0.249267  1
  Al  Al23  1  0.438965  0.879040  0.750730  1
  Al  Al24  1  0.878695  0.437560  0.249270  1
  Al  Al25  1  0.120936  0.560968  0.750787  1
  Al  Al26  1  0.563517  0.435835  0.254706  1
  Al  Al27  1  0.435914  0.564011  0.745184  1
  Al  Al28  1  0.999664  0.001565  0.250568  1
  Al  Al29  1  0.999462  0.000607  0.749492  1
  Zn  Zn30  1  0.499973  0.499898  0.000146  1
  Os  Os31  1  0.500518  0.000074  0.999664  1
  Os  Os32  1  0.999918  0.499133  0.999805  1
  Os  Os33  1  0.500756  0.000193  0.500484  1
  Os  Os34  1  0.999760  0.499061  0.500335  1
  Os  Os35  1  0.499818  0.499631  0.499850  1
  Os  Os36  1  0.000190  0.999742  0.000014  1
  Os  Os37  1  0.000190  0.999787  0.500083  1
