# generated using pymatgen
data_Hf(NbSe2)5
_symmetry_space_group_name_H-M   'P 1'
_cell_length_a   6.09885672
_cell_length_b   7.66988031
_cell_length_c   8.47553779
_cell_angle_alpha   109.92127259
_cell_angle_beta   97.14378081
_cell_angle_gamma   105.08513873
_symmetry_Int_Tables_number   1
_chemical_formula_structural   Hf(NbSe2)5
_chemical_formula_sum   'Hf1 Nb5 Se10'
_cell_volume   349.84503397
_cell_formula_units_Z   1
loop_
 _symmetry_equiv_pos_site_id
 _symmetry_equiv_pos_as_xyz
  1  'x, y, z'
loop_
 _atom_site_type_symbol
 _atom_site_label
 _atom_site_symmetry_multiplicity
 _atom_site_fract_x
 _atom_site_fract_y
 _atom_site_fract_z
 _atom_site_occupancy
  Hf  Hf0  1  0.668551  0.514487  0.989921  1
  Nb  Nb1  1  0.002736  0.995344  0.001316  1
  Nb  Nb2  1  0.599505  0.207293  0.201190  1
  Nb  Nb3  1  0.198659  0.400187  0.398001  1
  Nb  Nb4  1  0.794988  0.598043  0.604726  1
  Nb  Nb5  1  0.402616  0.792738  0.799892  1
  Se  Se6  1  0.236001  0.049392  0.302175  1
  Se  Se7  1  0.048934  0.641813  0.904754  1
  Se  Se8  1  0.831911  0.246904  0.498701  1
  Se  Se9  1  0.634036  0.859308  0.116525  1
  Se  Se10  1  0.416710  0.425632  0.689543  1
  Se  Se11  1  0.904172  0.564224  0.304981  1
  Se  Se12  1  0.701175  0.147124  0.892646  1
  Se  Se13  1  0.500578  0.753570  0.501462  1
  Se  Se14  1  0.291951  0.354202  0.094900  1
  Se  Se15  1  0.100279  0.947340  0.700868  1
