# generated using pymatgen
data_YHf2ZnCo8
_symmetry_space_group_name_H-M   'P 1'
_cell_length_a   4.91533504
_cell_length_b   4.91501681
_cell_length_c   15.86732216
_cell_angle_alpha   89.99818310
_cell_angle_beta   89.98707574
_cell_angle_gamma   119.99754982
_symmetry_Int_Tables_number   1
_chemical_formula_structural   YHf2ZnCo8
_chemical_formula_sum   'Y2 Hf4 Zn2 Co16'
_cell_volume   331.98855237
_cell_formula_units_Z   2
loop_
 _symmetry_equiv_pos_site_id
 _symmetry_equiv_pos_as_xyz
  1  'x, y, z'
loop_
 _atom_site_type_symbol
 _atom_site_label
 _atom_site_symmetry_multiplicity
 _atom_site_fract_x
 _atom_site_fract_y
 _atom_site_fract_z
 _atom_site_occupancy
  Y  Y0  1  0.333340  0.666677  0.750036  1
  Y  Y1  1  0.666672  0.333343  0.249966  1
  Hf  Hf2  1  0.333317  0.666667  0.960507  1
  Hf  Hf3  1  0.666622  0.333314  0.039386  1
  Hf  Hf4  1  0.666722  0.333370  0.460560  1
  Hf  Hf5  1  0.333316  0.666665  0.539503  1
  Zn  Zn6  1  0.333277  0.666643  0.249981  1
  Zn  Zn7  1  0.666695  0.333354  0.750041  1
  Co  Co8  1  0.167934  0.832136  0.378946  1
  Co  Co9  1  0.167928  0.335788  0.378946  1
  Co  Co10  1  0.664213  0.832107  0.378939  1
  Co  Co11  1  0.832012  0.167894  0.621024  1
  Co  Co12  1  0.832007  0.664108  0.621024  1
  Co  Co13  1  0.335815  0.167907  0.621020  1
  Co  Co14  1  0.832104  0.167954  0.879019  1
  Co  Co15  1  0.832096  0.664140  0.879018  1
  Co  Co16  1  0.335870  0.167938  0.879017  1
  Co  Co17  1  0.167886  0.832093  0.121027  1
  Co  Co18  1  0.167884  0.335781  0.121029  1
  Co  Co19  1  0.664263  0.832127  0.121009  1
  Co  Co20  1  0.000031  0.000011  0.250006  1
  Co  Co21  1  0.999980  0.999990  0.750020  1
  Co  Co22  1  0.999974  0.999977  0.500017  1
  Co  Co23  1  0.000043  0.000015  0.999958  1
