# generated using pymatgen
data_Zr3BePt5
_symmetry_space_group_name_H-M   'P 1'
_cell_length_a   7.72600665
_cell_length_b   7.72600773
_cell_length_c   7.72600700
_cell_angle_alpha   124.71431643
_cell_angle_beta   124.09860648
_cell_angle_gamma   82.52441372
_symmetry_Int_Tables_number   1
_chemical_formula_structural   Zr3BePt5
_chemical_formula_sum   'Zr6 Be2 Pt10'
_cell_volume   301.54654028
_cell_formula_units_Z   2
loop_
 _symmetry_equiv_pos_site_id
 _symmetry_equiv_pos_as_xyz
  1  'x, y, z'
loop_
 _atom_site_type_symbol
 _atom_site_label
 _atom_site_symmetry_multiplicity
 _atom_site_fract_x
 _atom_site_fract_y
 _atom_site_fract_z
 _atom_site_occupancy
  Zr  Zr0  1  0.230978  0.449205  0.781772  1
  Zr  Zr1  1  0.769022  0.550795  0.218228  1
  Zr  Zr2  1  0.832567  0.050795  0.781772  1
  Zr  Zr3  1  0.167433  0.949205  0.218228  1
  Zr  Zr4  1  0.405525  0.250000  0.155525  1
  Zr  Zr5  1  0.594475  0.750000  0.844475  1
  Be  Be6  1  0.795484  0.250000  0.545484  1
  Be  Be7  1  0.204516  0.750000  0.454516  1
  Pt  Pt8  1  0.173572  0.407136  0.358038  1
  Pt  Pt9  1  0.826428  0.184466  0.233564  1
  Pt  Pt10  1  0.450902  0.092864  0.766436  1
  Pt  Pt11  1  0.549098  0.315534  0.641962  1
  Pt  Pt12  1  0.000000  0.500000  0.000000  1
  Pt  Pt13  1  0.000000  0.000000  0.500000  1
  Pt  Pt14  1  0.450902  0.684466  0.358038  1
  Pt  Pt15  1  0.549098  0.907136  0.233564  1
  Pt  Pt16  1  0.173572  0.815534  0.766436  1
  Pt  Pt17  1  0.826428  0.592864  0.641962  1
