# generated using pymatgen
data_Tb3ErGa18Ir5Pd
_symmetry_space_group_name_H-M   'P 1'
_cell_length_a   7.61015949
_cell_length_b   7.60881384
_cell_length_c   9.51578512
_cell_angle_alpha   89.99537179
_cell_angle_beta   89.97685420
_cell_angle_gamma   119.86801662
_symmetry_Int_Tables_number   1
_chemical_formula_structural   Tb3ErGa18Ir5Pd
_chemical_formula_sum   'Tb3 Er1 Ga18 Ir5 Pd1'
_cell_volume   477.81741350
_cell_formula_units_Z   1
loop_
 _symmetry_equiv_pos_site_id
 _symmetry_equiv_pos_as_xyz
  1  'x, y, z'
loop_
 _atom_site_type_symbol
 _atom_site_label
 _atom_site_symmetry_multiplicity
 _atom_site_fract_x
 _atom_site_fract_y
 _atom_site_fract_z
 _atom_site_occupancy
  Tb  Tb0  1  0.996215  0.668721  0.751383  1
  Tb  Tb1  1  0.003219  0.330882  0.248422  1
  Tb  Tb2  1  0.669100  0.996934  0.751566  1
  Er  Er3  1  0.330804  0.003206  0.248504  1
  Ga  Ga4  1  0.128504  0.127430  0.750398  1
  Ga  Ga5  1  0.872959  0.871755  0.249619  1
  Ga  Ga6  1  0.001975  0.334205  0.581469  1
  Ga  Ga7  1  0.004358  0.669007  0.418167  1
  Ga  Ga8  1  0.001559  0.666373  0.080010  1
  Ga  Ga9  1  0.334225  0.999062  0.921054  1
  Ga  Ga10  1  0.998799  0.334229  0.920099  1
  Ga  Ga11  1  0.665160  0.001212  0.080426  1
  Ga  Ga12  1  0.665140  0.998176  0.417994  1
  Ga  Ga13  1  0.331800  0.996494  0.580665  1
  Ga  Ga14  1  0.332203  0.331629  0.064796  1
  Ga  Ga15  1  0.667777  0.667890  0.935942  1
  Ga  Ga16  1  0.667500  0.670356  0.567465  1
  Ga  Ga17  1  0.329819  0.331917  0.431805  1
  Ga  Ga18  1  0.339751  0.546889  0.750686  1
  Ga  Ga19  1  0.660166  0.454015  0.248075  1
  Ga  Ga20  1  0.545236  0.339283  0.751982  1
  Ga  Ga21  1  0.453074  0.660439  0.249324  1
  Ir  Ir22  1  0.329220  0.670607  0.499771  1
  Ir  Ir23  1  0.328236  0.671666  0.000268  1
  Ir  Ir24  1  0.671476  0.328331  0.000286  1
  Ir  Ir25  1  0.000615  0.999634  0.499674  1
  Ir  Ir26  1  0.999883  0.000375  0.000357  1
  Pd  Pd27  1  0.671224  0.329287  0.499792  1
