# generated using pymatgen
data_DyLu11Tc3Ir
_symmetry_space_group_name_H-M   'P 1'
_cell_length_a   6.16837162
_cell_length_b   7.30024013
_cell_length_c   8.90576700
_cell_angle_alpha   90.00000000
_cell_angle_beta   90.00000000
_cell_angle_gamma   89.94878422
_symmetry_Int_Tables_number   1
_chemical_formula_structural   DyLu11Tc3Ir
_chemical_formula_sum   'Dy1 Lu11 Tc3 Ir1'
_cell_volume   401.03181790
_cell_formula_units_Z   1
loop_
 _symmetry_equiv_pos_site_id
 _symmetry_equiv_pos_as_xyz
  1  'x, y, z'
loop_
 _atom_site_type_symbol
 _atom_site_label
 _atom_site_symmetry_multiplicity
 _atom_site_fract_x
 _atom_site_fract_y
 _atom_site_fract_z
 _atom_site_occupancy
  Dy  Dy0  1  0.127712  0.459037  0.750000  1
  Lu  Lu1  1  0.333918  0.676340  0.063663  1
  Lu  Lu2  1  0.162321  0.174509  0.437361  1
  Lu  Lu3  1  0.662606  0.323360  0.560226  1
  Lu  Lu4  1  0.836209  0.825576  0.939312  1
  Lu  Lu5  1  0.662606  0.323360  0.939774  1
  Lu  Lu6  1  0.836209  0.825576  0.560688  1
  Lu  Lu7  1  0.333918  0.676340  0.436337  1
  Lu  Lu8  1  0.162321  0.174509  0.062639  1
  Lu  Lu9  1  0.875719  0.538963  0.250000  1
  Lu  Lu10  1  0.624386  0.037549  0.250000  1
  Lu  Lu11  1  0.374541  0.961617  0.750000  1
  Tc  Tc12  1  0.040491  0.883019  0.250000  1
  Tc  Tc13  1  0.461605  0.384933  0.250000  1
  Tc  Tc14  1  0.959385  0.116446  0.750000  1
  Ir  Ir15  1  0.546054  0.618866  0.750000  1
