# generated using pymatgen
data_Rb3TaNbBr10N
_symmetry_space_group_name_H-M   'P 1'
_cell_length_a   7.50903000
_cell_length_b   7.50903000
_cell_length_c   20.01163100
_cell_angle_alpha   90.00000000
_cell_angle_beta   90.00000000
_cell_angle_gamma   90.00000000
_symmetry_Int_Tables_number   1
_chemical_formula_structural   Rb3TaNbBr10N
_chemical_formula_sum   'Rb6 Ta2 Nb2 Br20 N2'
_cell_volume   1128.36645094
_cell_formula_units_Z   2
loop_
 _symmetry_equiv_pos_site_id
 _symmetry_equiv_pos_as_xyz
  1  'x, y, z'
loop_
 _atom_site_type_symbol
 _atom_site_label
 _atom_site_symmetry_multiplicity
 _atom_site_fract_x
 _atom_site_fract_y
 _atom_site_fract_z
 _atom_site_occupancy
  Rb  Rb0  1  0.500000  0.500000  0.000520  1
  Rb  Rb1  1  0.000000  0.000000  0.500520  1
  Rb  Rb2  1  0.000000  0.500000  0.249386  1
  Rb  Rb3  1  0.500000  0.000000  0.749386  1
  Rb  Rb4  1  0.500000  0.000000  0.249386  1
  Rb  Rb5  1  0.000000  0.500000  0.749386  1
  Ta  Ta6  1  0.500000  0.500000  0.405198  1
  Ta  Ta7  1  0.000000  0.000000  0.905198  1
  Nb  Nb8  1  0.500000  0.500000  0.592598  1
  Nb  Nb9  1  0.000000  0.000000  0.092598  1
  Br  Br10  1  0.785189  0.683242  0.396684  1
  Br  Br11  1  0.214811  0.316758  0.396684  1
  Br  Br12  1  0.714811  0.183242  0.896684  1
  Br  Br13  1  0.285189  0.816758  0.896684  1
  Br  Br14  1  0.683242  0.214811  0.396684  1
  Br  Br15  1  0.316758  0.785189  0.396684  1
  Br  Br16  1  0.183242  0.285189  0.896684  1
  Br  Br17  1  0.816758  0.714811  0.896684  1
  Br  Br18  1  0.212343  0.315289  0.603554  1
  Br  Br19  1  0.787657  0.684711  0.603554  1
  Br  Br20  1  0.287657  0.815289  0.103554  1
  Br  Br21  1  0.712343  0.184711  0.103554  1
  Br  Br22  1  0.315289  0.787657  0.603554  1
  Br  Br23  1  0.684711  0.212343  0.603554  1
  Br  Br24  1  0.815289  0.712343  0.103554  1
  Br  Br25  1  0.184711  0.287657  0.103554  1
  Br  Br26  1  0.500000  0.500000  0.265647  1
  Br  Br27  1  0.000000  0.000000  0.765647  1
  Br  Br28  1  0.500000  0.500000  0.736684  1
  Br  Br29  1  0.000000  0.000000  0.236684  1
  N  N30  1  0.500000  0.500000  0.499632  1
  N  N31  1  0.000000  0.000000  0.999632  1
