# generated using pymatgen
data_Tb7Sn23(OsRh2)2
_symmetry_space_group_name_H-M   'P 1'
_cell_length_a   9.88413401
_cell_length_b   9.88902806
_cell_length_c   10.11382337
_cell_angle_alpha   89.99999933
_cell_angle_beta   90.39410070
_cell_angle_gamma   120.01638632
_symmetry_Int_Tables_number   1
_chemical_formula_structural   Tb7Sn23(OsRh2)2
_chemical_formula_sum   'Tb7 Sn23 Os2 Rh4'
_cell_volume   855.95866665
_cell_formula_units_Z   1
loop_
 _symmetry_equiv_pos_site_id
 _symmetry_equiv_pos_as_xyz
  1  'x, y, z'
loop_
 _atom_site_type_symbol
 _atom_site_label
 _atom_site_symmetry_multiplicity
 _atom_site_fract_x
 _atom_site_fract_y
 _atom_site_fract_z
 _atom_site_occupancy
  Tb  Tb0  1  0.000000  0.000000  0.000000  1
  Tb  Tb1  1  0.478320  0.518209  0.306220  1
  Tb  Tb2  1  0.521680  0.481791  0.693780  1
  Tb  Tb3  1  0.478320  0.960111  0.306220  1
  Tb  Tb4  1  0.521680  0.039889  0.693780  1
  Tb  Tb5  1  0.039399  0.519699  0.307664  1
  Tb  Tb6  1  0.960601  0.480301  0.692336  1
  Sn  Sn7  1  0.351703  0.001351  0.999952  1
  Sn  Sn8  1  0.648297  0.998649  0.000048  1
  Sn  Sn9  1  0.000000  0.350911  0.000000  1
  Sn  Sn10  1  0.000000  0.649089  0.000000  1
  Sn  Sn11  1  0.648297  0.649648  0.000048  1
  Sn  Sn12  1  0.351703  0.350352  0.999952  1
  Sn  Sn13  1  0.335618  0.667810  0.819677  1
  Sn  Sn14  1  0.664382  0.332190  0.180323  1
  Sn  Sn15  1  0.000000  0.000000  0.500000  1
  Sn  Sn16  1  0.779117  0.220646  0.455717  1
  Sn  Sn17  1  0.220883  0.779354  0.544283  1
  Sn  Sn18  1  0.779117  0.558470  0.455717  1
  Sn  Sn19  1  0.220883  0.441530  0.544283  1
  Sn  Sn20  1  0.441224  0.220612  0.456913  1
  Sn  Sn21  1  0.558776  0.779388  0.543087  1
  Sn  Sn22  1  0.331988  0.665995  0.119497  1
  Sn  Sn23  1  0.668012  0.334005  0.880503  1
  Sn  Sn24  1  0.117628  0.882533  0.280677  1
  Sn  Sn25  1  0.882372  0.117467  0.719323  1
  Sn  Sn26  1  0.117628  0.235096  0.280677  1
  Sn  Sn27  1  0.882372  0.764904  0.719323  1
  Sn  Sn28  1  0.761521  0.880761  0.279113  1
  Sn  Sn29  1  0.238479  0.119239  0.720887  1
  Os  Os30  1  0.337252  0.168626  0.199657  1
  Os  Os31  1  0.662748  0.831374  0.800343  1
  Rh  Rh32  1  0.831009  0.169068  0.198559  1
  Rh  Rh33  1  0.168991  0.830932  0.801441  1
  Rh  Rh34  1  0.831009  0.661941  0.198559  1
  Rh  Rh35  1  0.168991  0.338059  0.801441  1
