# generated using pymatgen
data_Np3Al12CoSi2
_symmetry_space_group_name_H-M   'P 1'
_cell_length_a   9.44801800
_cell_length_b   9.44801661
_cell_length_c   4.01762300
_cell_angle_alpha   90.00000000
_cell_angle_beta   90.00000000
_cell_angle_gamma   120.00000486
_symmetry_Int_Tables_number   1
_chemical_formula_structural   Np3Al12CoSi2
_chemical_formula_sum   'Np3 Al12 Co1 Si2'
_cell_volume   310.58548272
_cell_formula_units_Z   1
loop_
 _symmetry_equiv_pos_site_id
 _symmetry_equiv_pos_as_xyz
  1  'x, y, z'
loop_
 _atom_site_type_symbol
 _atom_site_label
 _atom_site_symmetry_multiplicity
 _atom_site_fract_x
 _atom_site_fract_y
 _atom_site_fract_z
 _atom_site_occupancy
  Np  Np0  1  0.000000  0.409335  0.000000  1
  Np  Np1  1  0.590665  0.590665  0.000000  1
  Np  Np2  1  0.409335  0.000000  0.000000  1
  Al  Al3  1  0.000000  0.751945  0.000000  1
  Al  Al4  1  0.248055  0.248055  0.000000  1
  Al  Al5  1  0.751945  0.000000  0.000000  1
  Al  Al6  1  0.000000  0.165349  0.500000  1
  Al  Al7  1  0.834651  0.834651  0.500000  1
  Al  Al8  1  0.165349  0.000000  0.500000  1
  Al  Al9  1  0.292553  0.468101  0.500000  1
  Al  Al10  1  0.175548  0.707447  0.500000  1
  Al  Al11  1  0.531899  0.824452  0.500000  1
  Al  Al12  1  0.824452  0.531899  0.500000  1
  Al  Al13  1  0.707447  0.175548  0.500000  1
  Al  Al14  1  0.468101  0.292553  0.500000  1
  Co  Co15  1  0.000000  0.000000  0.000000  1
  Si  Si16  1  0.666667  0.333333  0.000000  1
  Si  Si17  1  0.333333  0.666667  0.000000  1
