# generated using pymatgen
data_Tm8Re2B24IrRu
_symmetry_space_group_name_H-M   'P 1'
_cell_length_a   3.63336000
_cell_length_b   9.08221209
_cell_length_c   11.46173845
_cell_angle_alpha   89.73266742
_cell_angle_beta   90.00000000
_cell_angle_gamma   90.00000000
_symmetry_Int_Tables_number   1
_chemical_formula_structural   Tm8Re2B24IrRu
_chemical_formula_sum   'Tm8 Re2 B24 Ir1 Ru1'
_cell_volume   378.22117264
_cell_formula_units_Z   1
loop_
 _symmetry_equiv_pos_site_id
 _symmetry_equiv_pos_as_xyz
  1  'x, y, z'
loop_
 _atom_site_type_symbol
 _atom_site_label
 _atom_site_symmetry_multiplicity
 _atom_site_fract_x
 _atom_site_fract_y
 _atom_site_fract_z
 _atom_site_occupancy
  Tm  Tm0  1  0.000000  0.326088  0.418453  1
  Tm  Tm1  1  0.000000  0.675813  0.584831  1
  Tm  Tm2  1  0.000000  0.816748  0.086175  1
  Tm  Tm3  1  0.000000  0.180724  0.909447  1
  Tm  Tm4  1  0.000000  0.941410  0.373790  1
  Tm  Tm5  1  0.000000  0.056343  0.627802  1
  Tm  Tm6  1  0.000000  0.445418  0.128153  1
  Tm  Tm7  1  0.000000  0.556371  0.871445  1
  Re  Re8  1  0.000000  0.638017  0.320071  1
  Re  Re9  1  0.000000  0.361868  0.679650  1
  B  B10  1  0.500000  0.552691  0.433247  1
  B  B11  1  0.500000  0.447278  0.566853  1
  B  B12  1  0.500000  0.053895  0.065346  1
  B  B13  1  0.500000  0.946213  0.933907  1
  B  B14  1  0.500000  0.749090  0.419475  1
  B  B15  1  0.500000  0.250882  0.580612  1
  B  B16  1  0.500000  0.249881  0.078758  1
  B  B17  1  0.500000  0.751004  0.919953  1
  B  B18  1  0.500000  0.792555  0.264969  1
  B  B19  1  0.500000  0.207432  0.734652  1
  B  B20  1  0.500000  0.291524  0.234318  1
  B  B21  1  0.500000  0.709187  0.766143  1
  B  B22  1  0.500000  0.631250  0.184287  1
  B  B23  1  0.500000  0.368764  0.815315  1
  B  B24  1  0.500000  0.131122  0.316529  1
  B  B25  1  0.500000  0.869305  0.685278  1
  B  B26  1  0.500000  0.981946  0.212536  1
  B  B27  1  0.500000  0.017684  0.787879  1
  B  B28  1  0.500000  0.481649  0.287246  1
  B  B29  1  0.500000  0.518532  0.712841  1
  B  B30  1  0.500000  0.605168  0.028826  1
  B  B31  1  0.500000  0.394183  0.971203  1
  B  B32  1  0.500000  0.104813  0.470675  1
  B  B33  1  0.500000  0.895428  0.529136  1
  Ir  Ir34  1  0.000000  0.137095  0.178328  1
  Ru  Ru35  1  0.000000  0.862630  0.821870  1
