# generated using pymatgen
data_HoEr4In4PdPt
_symmetry_space_group_name_H-M   'P 1'
_cell_length_a   3.60018600
_cell_length_b   8.10954322
_cell_length_c   18.16939024
_cell_angle_alpha   90.06157859
_cell_angle_beta   90.00000000
_cell_angle_gamma   90.00000000
_symmetry_Int_Tables_number   1
_chemical_formula_structural   HoEr4In4PdPt
_chemical_formula_sum   'Ho2 Er8 In8 Pd2 Pt2'
_cell_volume   530.47073955
_cell_formula_units_Z   2
loop_
 _symmetry_equiv_pos_site_id
 _symmetry_equiv_pos_as_xyz
  1  'x, y, z'
loop_
 _atom_site_type_symbol
 _atom_site_label
 _atom_site_symmetry_multiplicity
 _atom_site_fract_x
 _atom_site_fract_y
 _atom_site_fract_z
 _atom_site_occupancy
  Ho  Ho0  1  0.000000  0.000000  0.000000  1
  Ho  Ho1  1  0.000000  0.500000  0.500000  1
  Er  Er2  1  0.000000  0.117711  0.415741  1
  Er  Er3  1  0.000000  0.882289  0.584259  1
  Er  Er4  1  0.000000  0.382652  0.915192  1
  Er  Er5  1  0.000000  0.617348  0.084808  1
  Er  Er6  1  0.000000  0.246871  0.219567  1
  Er  Er7  1  0.000000  0.753129  0.780433  1
  Er  Er8  1  0.000000  0.260993  0.720507  1
  Er  Er9  1  0.000000  0.739007  0.279493  1
  In  In10  1  0.500000  0.420754  0.351457  1
  In  In11  1  0.500000  0.579246  0.648543  1
  In  In12  1  0.500000  0.075084  0.849951  1
  In  In13  1  0.500000  0.924916  0.150049  1
  In  In14  1  0.500000  0.292319  0.066355  1
  In  In15  1  0.500000  0.707681  0.933645  1
  In  In16  1  0.500000  0.206610  0.567453  1
  In  In17  1  0.500000  0.793390  0.432547  1
  Pd  Pd18  1  0.500000  0.025117  0.303836  1
  Pd  Pd19  1  0.500000  0.974883  0.696164  1
  Pt  Pt20  1  0.500000  0.474537  0.803621  1
  Pt  Pt21  1  0.500000  0.525463  0.196379  1
