# generated using pymatgen
data_Sr2Co5Ni13(Ge2P3)2
_symmetry_space_group_name_H-M   'P 1'
_cell_length_a   6.79283800
_cell_length_b   6.79996120
_cell_length_c   10.35644800
_cell_angle_alpha   90.00000000
_cell_angle_beta   90.00000000
_cell_angle_gamma   119.96535385
_symmetry_Int_Tables_number   1
_chemical_formula_structural   Sr2Co5Ni13(Ge2P3)2
_chemical_formula_sum   'Sr2 Co5 Ni13 Ge4 P6'
_cell_volume   414.42950460
_cell_formula_units_Z   1
loop_
 _symmetry_equiv_pos_site_id
 _symmetry_equiv_pos_as_xyz
  1  'x, y, z'
loop_
 _atom_site_type_symbol
 _atom_site_label
 _atom_site_symmetry_multiplicity
 _atom_site_fract_x
 _atom_site_fract_y
 _atom_site_fract_z
 _atom_site_occupancy
  Sr  Sr0  1  0.000508  0.001016  0.000552  1
  Sr  Sr1  1  0.000508  0.001016  0.499448  1
  Co  Co2  1  0.196749  0.393498  0.250000  1
  Co  Co3  1  0.803488  0.197406  0.750000  1
  Co  Co4  1  0.393917  0.197406  0.750000  1
  Co  Co5  1  0.606352  0.803126  0.250000  1
  Co  Co6  1  0.196775  0.803126  0.250000  1
  Ni  Ni7  1  0.541350  0.082700  0.121588  1
  Ni  Ni8  1  0.459730  0.542159  0.620019  1
  Ni  Ni9  1  0.082429  0.542159  0.620019  1
  Ni  Ni10  1  0.916876  0.458628  0.120470  1
  Ni  Ni11  1  0.541752  0.458628  0.120470  1
  Ni  Ni12  1  0.458709  0.917418  0.881681  1
  Ni  Ni13  1  0.459730  0.542159  0.879981  1
  Ni  Ni14  1  0.458709  0.917418  0.618319  1
  Ni  Ni15  1  0.082429  0.542159  0.879981  1
  Ni  Ni16  1  0.916876  0.458628  0.379530  1
  Ni  Ni17  1  0.541350  0.082700  0.378412  1
  Ni  Ni18  1  0.541752  0.458628  0.379530  1
  Ni  Ni19  1  0.803271  0.606543  0.750000  1
  Ge  Ge20  1  0.333138  0.666277  0.069338  1
  Ge  Ge21  1  0.664841  0.329681  0.567371  1
  Ge  Ge22  1  0.664841  0.329681  0.932629  1
  Ge  Ge23  1  0.333138  0.666277  0.430662  1
  P  P24  1  0.838307  0.676615  0.250000  1
  P  P25  1  0.168123  0.838324  0.750000  1
  P  P26  1  0.670202  0.838324  0.750000  1
  P  P27  1  0.323171  0.161684  0.250000  1
  P  P28  1  0.838512  0.161684  0.250000  1
  P  P29  1  0.162466  0.324931  0.750000  1
