# generated using pymatgen
data_Dy6Er4Sn5Sb
_symmetry_space_group_name_H-M   'P 1'
_cell_length_a   8.93007400
_cell_length_b   8.94403195
_cell_length_c   6.49376000
_cell_angle_alpha   90.00000000
_cell_angle_beta   90.00000000
_cell_angle_gamma   119.94838959
_symmetry_Int_Tables_number   1
_chemical_formula_structural   Dy6Er4Sn5Sb
_chemical_formula_sum   'Dy6 Er4 Sn5 Sb1'
_cell_volume   449.40809358
_cell_formula_units_Z   1
loop_
 _symmetry_equiv_pos_site_id
 _symmetry_equiv_pos_as_xyz
  1  'x, y, z'
loop_
 _atom_site_type_symbol
 _atom_site_label
 _atom_site_symmetry_multiplicity
 _atom_site_fract_x
 _atom_site_fract_y
 _atom_site_fract_z
 _atom_site_occupancy
  Dy  Dy0  1  0.997217  0.759811  0.750000  1
  Dy  Dy1  1  0.001042  0.239086  0.250000  1
  Dy  Dy2  1  0.761956  0.760914  0.250000  1
  Dy  Dy3  1  0.761541  0.000000  0.750000  1
  Dy  Dy4  1  0.237406  0.240189  0.750000  1
  Dy  Dy5  1  0.239108  0.000000  0.250000  1
  Er  Er6  1  0.333506  0.665981  0.499707  1
  Er  Er7  1  0.667527  0.334019  0.000293  1
  Er  Er8  1  0.667527  0.334019  0.499707  1
  Er  Er9  1  0.333506  0.665981  0.000293  1
  Sn  Sn10  1  0.395957  0.394651  0.250000  1
  Sn  Sn11  1  0.001305  0.605349  0.250000  1
  Sn  Sn12  1  0.999570  0.395735  0.750000  1
  Sn  Sn13  1  0.603836  0.604265  0.750000  1
  Sn  Sn14  1  0.605320  0.000000  0.250000  1
  Sb  Sb15  1  0.393676  0.000000  0.750000  1
