# generated using pymatgen
data_Zr6Ga6Co16W
_symmetry_space_group_name_H-M   'P 1'
_cell_length_a   8.25878335
_cell_length_b   8.25878473
_cell_length_c   8.25878400
_cell_angle_alpha   60.00000293
_cell_angle_beta   59.99999740
_cell_angle_gamma   60.00000611
_symmetry_Int_Tables_number   1
_chemical_formula_structural   Zr6Ga6Co16W
_chemical_formula_sum   'Zr6 Ga6 Co16 W1'
_cell_volume   398.32113509
_cell_formula_units_Z   1
loop_
 _symmetry_equiv_pos_site_id
 _symmetry_equiv_pos_as_xyz
  1  'x, y, z'
loop_
 _atom_site_type_symbol
 _atom_site_label
 _atom_site_symmetry_multiplicity
 _atom_site_fract_x
 _atom_site_fract_y
 _atom_site_fract_z
 _atom_site_occupancy
  Zr  Zr0  1  0.710697  0.289210  0.289351  1
  Zr  Zr1  1  0.710624  0.289333  0.710749  1
  Zr  Zr2  1  0.710534  0.710854  0.289308  1
  Zr  Zr3  1  0.289303  0.710790  0.710649  1
  Zr  Zr4  1  0.289376  0.710667  0.289251  1
  Zr  Zr5  1  0.289466  0.289146  0.710692  1
  Ga  Ga6  1  0.500000  0.000000  0.000000  1
  Ga  Ga7  1  0.500000  0.000000  0.500000  1
  Ga  Ga8  1  0.500000  0.500000  0.000000  1
  Ga  Ga9  1  0.000000  0.500000  0.500000  1
  Ga  Ga10  1  0.000000  0.500000  0.000000  1
  Ga  Ga11  1  0.000000  0.000000  0.500000  1
  Co  Co12  1  0.634413  0.121863  0.121891  1
  Co  Co13  1  0.121834  0.634439  0.121994  1
  Co  Co14  1  0.121906  0.121880  0.634491  1
  Co  Co15  1  0.122015  0.121792  0.121709  1
  Co  Co16  1  0.365587  0.878137  0.878109  1
  Co  Co17  1  0.878166  0.365561  0.878006  1
  Co  Co18  1  0.878094  0.878120  0.365509  1
  Co  Co19  1  0.877985  0.878208  0.878291  1
  Co  Co20  1  0.023057  0.325495  0.325704  1
  Co  Co21  1  0.325691  0.022684  0.325834  1
  Co  Co22  1  0.325817  0.325798  0.022797  1
  Co  Co23  1  0.325826  0.325770  0.325710  1
  Co  Co24  1  0.976943  0.674505  0.674296  1
  Co  Co25  1  0.674309  0.977316  0.674166  1
  Co  Co26  1  0.674183  0.674202  0.977203  1
  Co  Co27  1  0.674174  0.674230  0.674290  1
  W  W28  1  0.000000  0.000000  0.000000  1
