# generated using pymatgen
data_Cs3NpScBr9
_symmetry_space_group_name_H-M   'P 1'
_cell_length_a   10.42532308
_cell_length_b   10.42532315
_cell_length_c   10.42532338
_cell_angle_alpha   83.29959946
_cell_angle_beta   83.29959063
_cell_angle_gamma   83.29959265
_symmetry_Int_Tables_number   1
_chemical_formula_structural   Cs3NpScBr9
_chemical_formula_sum   'Cs6 Np2 Sc2 Br18'
_cell_volume   1111.55738284
_cell_formula_units_Z   2
loop_
 _symmetry_equiv_pos_site_id
 _symmetry_equiv_pos_as_xyz
  1  'x, y, z'
loop_
 _atom_site_type_symbol
 _atom_site_label
 _atom_site_symmetry_multiplicity
 _atom_site_fract_x
 _atom_site_fract_y
 _atom_site_fract_z
 _atom_site_occupancy
  Cs  Cs0  1  0.753696  0.412067  0.087692  1
  Cs  Cs1  1  0.087692  0.753696  0.412067  1
  Cs  Cs2  1  0.246304  0.587933  0.912308  1
  Cs  Cs3  1  0.412067  0.087692  0.753696  1
  Cs  Cs4  1  0.912308  0.246304  0.587933  1
  Cs  Cs5  1  0.587933  0.912308  0.246304  1
  Np  Np6  1  0.347090  0.347090  0.347090  1
  Np  Np7  1  0.652910  0.652910  0.652910  1
  Sc  Sc8  1  0.846595  0.846595  0.846595  1
  Sc  Sc9  1  0.153405  0.153405  0.153405  1
  Br  Br10  1  0.411073  0.768477  0.579490  1
  Br  Br11  1  0.231523  0.420510  0.588927  1
  Br  Br12  1  0.398049  0.244442  0.090573  1
  Br  Br13  1  0.090573  0.398049  0.244442  1
  Br  Br14  1  0.914048  0.742782  0.068605  1
  Br  Br15  1  0.931395  0.085952  0.257218  1
  Br  Br16  1  0.601951  0.755558  0.909427  1
  Br  Br17  1  0.755558  0.909427  0.601951  1
  Br  Br18  1  0.579490  0.411073  0.768477  1
  Br  Br19  1  0.244442  0.090573  0.398049  1
  Br  Br20  1  0.768477  0.579490  0.411073  1
  Br  Br21  1  0.742782  0.068605  0.914048  1
  Br  Br22  1  0.085952  0.257218  0.931395  1
  Br  Br23  1  0.420510  0.588927  0.231523  1
  Br  Br24  1  0.588927  0.231523  0.420510  1
  Br  Br25  1  0.909427  0.601951  0.755558  1
  Br  Br26  1  0.257218  0.931395  0.085952  1
  Br  Br27  1  0.068605  0.914048  0.742782  1
