# generated using pymatgen
data_ErSc7(Ta3Si4)4
_symmetry_space_group_name_H-M   'P 1'
_cell_length_a   6.92002387
_cell_length_b   6.92297666
_cell_length_c   12.71456438
_cell_angle_alpha   89.90661521
_cell_angle_beta   90.02063042
_cell_angle_gamma   89.98830178
_symmetry_Int_Tables_number   1
_chemical_formula_structural   ErSc7(Ta3Si4)4
_chemical_formula_sum   'Er1 Sc7 Ta12 Si16'
_cell_volume   609.11785630
_cell_formula_units_Z   1
loop_
 _symmetry_equiv_pos_site_id
 _symmetry_equiv_pos_as_xyz
  1  'x, y, z'
loop_
 _atom_site_type_symbol
 _atom_site_label
 _atom_site_symmetry_multiplicity
 _atom_site_fract_x
 _atom_site_fract_y
 _atom_site_fract_z
 _atom_site_occupancy
  Er  Er0  1  0.995397  0.659460  0.031255  1
  Sc  Sc1  1  0.342221  0.001008  0.469344  1
  Sc  Sc2  1  0.498905  0.842252  0.718589  1
  Sc  Sc3  1  0.500060  0.158622  0.220378  1
  Sc  Sc4  1  0.842575  0.499499  0.281422  1
  Sc  Sc5  1  0.157763  0.499731  0.780172  1
  Sc  Sc6  1  0.656417  0.000191  0.968476  1
  Sc  Sc7  1  0.001103  0.342709  0.530717  1
  Ta  Ta8  1  0.328772  0.326682  0.999567  1
  Ta  Ta9  1  0.172500  0.829251  0.251142  1
  Ta  Ta10  1  0.828056  0.171694  0.749149  1
  Ta  Ta11  1  0.672235  0.672225  0.500049  1
  Ta  Ta12  1  0.151251  0.004303  0.871934  1
  Ta  Ta13  1  0.494614  0.650038  0.124088  1
  Ta  Ta14  1  0.506552  0.350071  0.623121  1
  Ta  Ta15  1  0.649674  0.491579  0.875055  1
  Ta  Ta16  1  0.350703  0.506736  0.377213  1
  Ta  Ta17  1  0.850501  0.994951  0.374334  1
  Ta  Ta18  1  0.007262  0.150794  0.127347  1
  Ta  Ta19  1  0.993911  0.850348  0.626227  1
  Si  Si20  1  0.205151  0.140187  0.676975  1
  Si  Si21  1  0.363533  0.704625  0.926784  1
  Si  Si22  1  0.640559  0.295662  0.427863  1
  Si  Si23  1  0.702072  0.356878  0.071807  1
  Si  Si24  1  0.295220  0.640245  0.572387  1
  Si  Si25  1  0.791254  0.864978  0.180772  1
  Si  Si26  1  0.140284  0.205302  0.323105  1
  Si  Si27  1  0.858577  0.795765  0.820337  1
  Si  Si28  1  0.302647  0.955922  0.064103  1
  Si  Si29  1  0.544458  0.801938  0.314846  1
  Si  Si30  1  0.454313  0.198379  0.813113  1
  Si  Si31  1  0.801368  0.545049  0.685511  1
  Si  Si32  1  0.201911  0.453058  0.187872  1
  Si  Si33  1  0.698532  0.045236  0.563775  1
  Si  Si34  1  0.954407  0.295467  0.934946  1
  Si  Si35  1  0.045242  0.699167  0.436225  1
