# generated using pymatgen
data_Yb4ScSi12Ir19
_symmetry_space_group_name_H-M   'P 1'
_cell_length_a   12.78439226
_cell_length_b   12.78439192
_cell_length_c   3.99447200
_cell_angle_alpha   90.00000000
_cell_angle_beta   90.00000000
_cell_angle_gamma   119.97703539
_symmetry_Int_Tables_number   1
_chemical_formula_structural   Yb4ScSi12Ir19
_chemical_formula_sum   'Yb4 Sc1 Si12 Ir19'
_cell_volume   565.52346365
_cell_formula_units_Z   1
loop_
 _symmetry_equiv_pos_site_id
 _symmetry_equiv_pos_as_xyz
  1  'x, y, z'
loop_
 _atom_site_type_symbol
 _atom_site_label
 _atom_site_symmetry_multiplicity
 _atom_site_fract_x
 _atom_site_fract_y
 _atom_site_fract_z
 _atom_site_occupancy
  Yb  Yb0  1  0.332996  0.666354  0.000000  1
  Yb  Yb1  1  0.666354  0.332996  0.000000  1
  Yb  Yb2  1  0.817507  0.000072  0.500000  1
  Yb  Yb3  1  0.000072  0.817507  0.500000  1
  Sc  Sc4  1  0.179200  0.179200  0.500000  1
  Si  Si5  1  0.182103  0.001427  0.000000  1
  Si  Si6  1  0.001427  0.182103  0.000000  1
  Si  Si7  1  0.818586  0.818586  0.000000  1
  Si  Si8  1  0.167984  0.480742  0.500000  1
  Si  Si9  1  0.519331  0.687092  0.500000  1
  Si  Si10  1  0.312101  0.833094  0.500000  1
  Si  Si11  1  0.687092  0.519331  0.500000  1
  Si  Si12  1  0.833094  0.312101  0.500000  1
  Si  Si13  1  0.480742  0.167984  0.500000  1
  Si  Si14  1  0.631231  0.000171  0.000000  1
  Si  Si15  1  0.000171  0.631231  0.000000  1
  Si  Si16  1  0.366998  0.366998  0.000000  1
  Ir  Ir17  1  0.447787  0.002360  0.000000  1
  Ir  Ir18  1  0.002360  0.447787  0.000000  1
  Ir  Ir19  1  0.552023  0.552023  0.000000  1
  Ir  Ir20  1  0.359957  0.486126  0.500000  1
  Ir  Ir21  1  0.512857  0.874004  0.500000  1
  Ir  Ir22  1  0.126219  0.639889  0.500000  1
  Ir  Ir23  1  0.874004  0.512857  0.500000  1
  Ir  Ir24  1  0.639889  0.126219  0.500000  1
  Ir  Ir25  1  0.486126  0.359957  0.500000  1
  Ir  Ir26  1  0.183554  0.374499  0.000000  1
  Ir  Ir27  1  0.621687  0.805521  0.000000  1
  Ir  Ir28  1  0.194304  0.817404  0.000000  1
  Ir  Ir29  1  0.805521  0.621687  0.000000  1
  Ir  Ir30  1  0.817404  0.194304  0.000000  1
  Ir  Ir31  1  0.374499  0.183554  0.000000  1
  Ir  Ir32  1  0.282514  0.002051  0.500000  1
  Ir  Ir33  1  0.002051  0.282514  0.500000  1
  Ir  Ir34  1  0.717199  0.717199  0.500000  1
  Ir  Ir35  1  0.003054  0.003054  0.000000  1
