# generated using pymatgen
data_CsDy3CI6
_symmetry_space_group_name_H-M   'P 1'
_cell_length_a   9.39934071
_cell_length_b   9.46847360
_cell_length_c   9.95429243
_cell_angle_alpha   71.54321727
_cell_angle_beta   84.50809416
_cell_angle_gamma   89.32102786
_symmetry_Int_Tables_number   1
_chemical_formula_structural   CsDy3CI6
_chemical_formula_sum   'Cs2 Dy6 C2 I12'
_cell_volume   836.32056253
_cell_formula_units_Z   2
loop_
 _symmetry_equiv_pos_site_id
 _symmetry_equiv_pos_as_xyz
  1  'x, y, z'
loop_
 _atom_site_type_symbol
 _atom_site_label
 _atom_site_symmetry_multiplicity
 _atom_site_fract_x
 _atom_site_fract_y
 _atom_site_fract_z
 _atom_site_occupancy
  Cs  Cs0  1  0.464489  0.368845  0.328267  1
  Cs  Cs1  1  0.535512  0.631155  0.671733  1
  Dy  Dy2  1  0.920430  0.759046  0.003187  1
  Dy  Dy3  1  0.079570  0.240954  0.996812  1
  Dy  Dy4  1  0.756569  0.081383  0.001303  1
  Dy  Dy5  1  0.243430  0.918617  0.998698  1
  Dy  Dy6  1  0.973043  0.896317  0.309744  1
  Dy  Dy7  1  0.026956  0.103683  0.690257  1
  C  C8  1  0.006626  0.024798  0.924446  1
  C  C9  1  0.993373  0.975202  0.075554  1
  I  I10  1  0.073667  0.200298  0.328094  1
  I  I11  1  0.926333  0.799702  0.671906  1
  I  I12  1  0.203202  0.595188  0.000164  1
  I  I13  1  0.796799  0.404812  0.999836  1
  I  I14  1  0.402337  0.199506  0.001339  1
  I  I15  1  0.597662  0.800495  0.998660  1
  I  I16  1  0.664165  0.002401  0.327230  1
  I  I17  1  0.335835  0.997599  0.672770  1
  I  I18  1  0.278696  0.779078  0.323173  1
  I  I19  1  0.721304  0.220922  0.676827  1
  I  I20  1  0.853569  0.591632  0.326892  1
  I  I21  1  0.146430  0.408368  0.673108  1
