# generated using pymatgen
data_Ce8Fe(Si4Ir)3
_symmetry_space_group_name_H-M   'P 1'
_cell_length_a   8.22456402
_cell_length_b   8.22533361
_cell_length_c   8.13236700
_cell_angle_alpha   90.00237533
_cell_angle_beta   89.99600127
_cell_angle_gamma   120.01693445
_symmetry_Int_Tables_number   1
_chemical_formula_structural   Ce8Fe(Si4Ir)3
_chemical_formula_sum   'Ce8 Fe1 Si12 Ir3'
_cell_volume   476.36502997
_cell_formula_units_Z   1
loop_
 _symmetry_equiv_pos_site_id
 _symmetry_equiv_pos_as_xyz
  1  'x, y, z'
loop_
 _atom_site_type_symbol
 _atom_site_label
 _atom_site_symmetry_multiplicity
 _atom_site_fract_x
 _atom_site_fract_y
 _atom_site_fract_z
 _atom_site_occupancy
  Ce  Ce0  1  0.000023  0.999965  0.249211  1
  Ce  Ce1  1  0.999945  0.999984  0.750884  1
  Ce  Ce2  1  0.499680  0.500567  0.247615  1
  Ce  Ce3  1  0.499085  0.998240  0.247048  1
  Ce  Ce4  1  0.001539  0.500791  0.247180  1
  Ce  Ce5  1  0.498203  0.501723  0.751855  1
  Ce  Ce6  1  0.498663  0.997410  0.751648  1
  Ce  Ce7  1  0.003079  0.501635  0.751804  1
  Fe  Fe8  1  0.333203  0.666429  0.015010  1
  Si  Si9  1  0.165206  0.834960  0.499370  1
  Si  Si10  1  0.165362  0.330559  0.498779  1
  Si  Si11  1  0.669703  0.834943  0.499252  1
  Si  Si12  1  0.834524  0.165718  0.500001  1
  Si  Si13  1  0.834328  0.668758  0.499890  1
  Si  Si14  1  0.331272  0.165758  0.499912  1
  Si  Si15  1  0.835500  0.164294  0.001424  1
  Si  Si16  1  0.835360  0.671004  0.001864  1
  Si  Si17  1  0.328820  0.164360  0.001448  1
  Si  Si18  1  0.170564  0.829272  0.998191  1
  Si  Si19  1  0.170525  0.341009  0.998834  1
  Si  Si20  1  0.658653  0.829263  0.998555  1
  Ir  Ir21  1  0.333374  0.666853  0.495438  1
  Ir  Ir22  1  0.666742  0.333313  0.498691  1
  Ir  Ir23  1  0.666651  0.333188  0.996098  1
