# generated using pymatgen
data_NaCa2ReO6
_symmetry_space_group_name_H-M   'P 1'
_cell_length_a   5.51967592
_cell_length_b   5.86888700
_cell_length_c   8.02850314
_cell_angle_alpha   90.00000000
_cell_angle_beta   91.13800933
_cell_angle_gamma   90.00000000
_symmetry_Int_Tables_number   1
_chemical_formula_structural   NaCa2ReO6
_chemical_formula_sum   'Na2 Ca4 Re2 O12'
_cell_volume   260.02687625
_cell_formula_units_Z   2
loop_
 _symmetry_equiv_pos_site_id
 _symmetry_equiv_pos_as_xyz
  1  'x, y, z'
loop_
 _atom_site_type_symbol
 _atom_site_label
 _atom_site_symmetry_multiplicity
 _atom_site_fract_x
 _atom_site_fract_y
 _atom_site_fract_z
 _atom_site_occupancy
  Na  Na0  1  0.500000  0.500000  0.000000  1
  Na  Na1  1  0.000000  0.000000  0.500000  1
  Ca  Ca2  1  0.478434  0.933452  0.759952  1
  Ca  Ca3  1  0.021566  0.433452  0.740048  1
  Ca  Ca4  1  0.521566  0.066548  0.240048  1
  Ca  Ca5  1  0.978434  0.566548  0.259952  1
  Re  Re6  1  0.500000  0.500000  0.500000  1
  Re  Re7  1  0.000000  0.000000  0.000000  1
  O  O8  1  0.343419  0.232026  0.579566  1
  O  O9  1  0.156581  0.732026  0.920434  1
  O  O10  1  0.656581  0.767974  0.420434  1
  O  O11  1  0.843419  0.267974  0.079566  1
  O  O12  1  0.624577  0.561534  0.718779  1
  O  O13  1  0.875423  0.061534  0.781221  1
  O  O14  1  0.375423  0.438466  0.281221  1
  O  O15  1  0.124577  0.938466  0.218779  1
  O  O16  1  0.218690  0.671642  0.549052  1
  O  O17  1  0.281310  0.171642  0.950948  1
  O  O18  1  0.781310  0.328358  0.450948  1
  O  O19  1  0.718690  0.828358  0.049052  1
