# generated using pymatgen
data_Tb2SmLu(ReN3)4
_symmetry_space_group_name_H-M   'P 1'
_cell_length_a   7.34585135
_cell_length_b   7.34585209
_cell_length_c   6.25537494
_cell_angle_alpha   73.71922780
_cell_angle_beta   73.71922042
_cell_angle_gamma   82.79578418
_symmetry_Int_Tables_number   1
_chemical_formula_structural   Tb2SmLu(ReN3)4
_chemical_formula_sum   'Tb2 Sm1 Lu1 Re4 N12'
_cell_volume   310.61889497
_cell_formula_units_Z   1
loop_
 _symmetry_equiv_pos_site_id
 _symmetry_equiv_pos_as_xyz
  1  'x, y, z'
loop_
 _atom_site_type_symbol
 _atom_site_label
 _atom_site_symmetry_multiplicity
 _atom_site_fract_x
 _atom_site_fract_y
 _atom_site_fract_z
 _atom_site_occupancy
  Tb  Tb0  1  0.910357  0.089643  0.750000  1
  Tb  Tb1  1  0.293373  0.706627  0.750000  1
  Sm  Sm2  1  0.704187  0.295813  0.250000  1
  Lu  Lu3  1  0.093878  0.906122  0.250000  1
  Re  Re4  1  0.619392  0.797580  0.271656  1
  Re  Re5  1  0.202420  0.380608  0.228344  1
  Re  Re6  1  0.377064  0.202036  0.732624  1
  Re  Re7  1  0.797964  0.622936  0.767376  1
  N  N8  1  0.343043  0.362135  0.930715  1
  N  N9  1  0.009820  0.214532  0.337697  1
  N  N10  1  0.785468  0.990180  0.162303  1
  N  N11  1  0.219526  0.001700  0.850692  1
  N  N12  1  0.657550  0.647806  0.060967  1
  N  N13  1  0.876749  0.374499  0.837183  1
  N  N14  1  0.124707  0.629362  0.161522  1
  N  N15  1  0.998300  0.780474  0.649308  1
  N  N16  1  0.370638  0.875293  0.338478  1
  N  N17  1  0.637865  0.656957  0.569285  1
  N  N18  1  0.625501  0.123251  0.662817  1
  N  N19  1  0.352194  0.342450  0.439033  1
