# generated using pymatgen
data_Nd4FeCo(SiI)2
_symmetry_space_group_name_H-M   'P 1'
_cell_length_a   4.15156200
_cell_length_b   4.15156223
_cell_length_c   17.33016000
_cell_angle_alpha   90.00000000
_cell_angle_beta   90.00000000
_cell_angle_gamma   119.99998223
_symmetry_Int_Tables_number   1
_chemical_formula_structural   Nd4FeCo(SiI)2
_chemical_formula_sum   'Nd4 Fe1 Co1 Si2 I2'
_cell_volume   258.67613424
_cell_formula_units_Z   1
loop_
 _symmetry_equiv_pos_site_id
 _symmetry_equiv_pos_as_xyz
  1  'x, y, z'
loop_
 _atom_site_type_symbol
 _atom_site_label
 _atom_site_symmetry_multiplicity
 _atom_site_fract_x
 _atom_site_fract_y
 _atom_site_fract_z
 _atom_site_occupancy
  Nd  Nd0  1  0.000000  0.000000  0.101326  1
  Nd  Nd1  1  0.000000  0.000000  0.603708  1
  Nd  Nd2  1  0.000000  0.000000  0.896758  1
  Nd  Nd3  1  0.000000  0.000000  0.394990  1
  Fe  Fe4  1  0.666667  0.333333  0.501309  1
  Co  Co5  1  0.333333  0.666667  0.002486  1
  Si  Si6  1  0.666667  0.333333  0.997701  1
  Si  Si7  1  0.333333  0.666667  0.498872  1
  I  I8  1  0.666667  0.333333  0.249874  1
  I  I9  1  0.333333  0.666667  0.752976  1
