# generated using pymatgen
data_Sc12Si12PtAu3
_symmetry_space_group_name_H-M   'P 1'
_cell_length_a   4.04933100
_cell_length_b   10.40708338
_cell_length_c   11.78190743
_cell_angle_alpha   90.03099928
_cell_angle_beta   90.00000000
_cell_angle_gamma   90.00000000
_symmetry_Int_Tables_number   1
_chemical_formula_structural   Sc12Si12PtAu3
_chemical_formula_sum   'Sc12 Si12 Pt1 Au3'
_cell_volume   496.50983443
_cell_formula_units_Z   1
loop_
 _symmetry_equiv_pos_site_id
 _symmetry_equiv_pos_as_xyz
  1  'x, y, z'
loop_
 _atom_site_type_symbol
 _atom_site_label
 _atom_site_symmetry_multiplicity
 _atom_site_fract_x
 _atom_site_fract_y
 _atom_site_fract_z
 _atom_site_occupancy
  Sc  Sc0  1  0.250000  0.873823  0.020711  1
  Sc  Sc1  1  0.250000  0.626835  0.523069  1
  Sc  Sc2  1  0.750000  0.123905  0.977030  1
  Sc  Sc3  1  0.750000  0.373733  0.478316  1
  Sc  Sc4  1  0.250000  0.920739  0.599199  1
  Sc  Sc5  1  0.250000  0.579555  0.096748  1
  Sc  Sc6  1  0.750000  0.078867  0.402036  1
  Sc  Sc7  1  0.750000  0.420807  0.901711  1
  Sc  Sc8  1  0.250000  0.662552  0.800943  1
  Sc  Sc9  1  0.250000  0.840392  0.301893  1
  Sc  Sc10  1  0.750000  0.340709  0.197936  1
  Sc  Sc11  1  0.750000  0.155015  0.699396  1
  Si  Si12  1  0.250000  0.016078  0.826175  1
  Si  Si13  1  0.250000  0.476176  0.326963  1
  Si  Si14  1  0.750000  0.975927  0.174169  1
  Si  Si15  1  0.750000  0.525468  0.672689  1
  Si  Si16  1  0.250000  0.242812  0.848088  1
  Si  Si17  1  0.250000  0.252522  0.348881  1
  Si  Si18  1  0.750000  0.752772  0.150697  1
  Si  Si19  1  0.750000  0.751101  0.656085  1
  Si  Si20  1  0.250000  0.180192  0.541003  1
  Si  Si21  1  0.250000  0.320084  0.039388  1
  Si  Si22  1  0.750000  0.819960  0.461408  1
  Si  Si23  1  0.750000  0.688426  0.955465  1
  Pt  Pt24  1  0.750000  0.886695  0.821565  1
  Au  Au25  1  0.250000  0.384879  0.678754  1
  Au  Au26  1  0.250000  0.114775  0.177671  1
  Au  Au27  1  0.750000  0.615202  0.322012  1
