# generated using pymatgen
data_Tb2Ga5Co2Pd
_symmetry_space_group_name_H-M   'P 1'
_cell_length_a   8.46919993
_cell_length_b   8.46919911
_cell_length_c   5.57545127
_cell_angle_alpha   70.74024373
_cell_angle_beta   70.74025023
_cell_angle_gamma   96.16903926
_symmetry_Int_Tables_number   1
_chemical_formula_structural   Tb2Ga5Co2Pd
_chemical_formula_sum   'Tb4 Ga10 Co4 Pd2'
_cell_volume   345.74814858
_cell_formula_units_Z   2
loop_
 _symmetry_equiv_pos_site_id
 _symmetry_equiv_pos_as_xyz
  1  'x, y, z'
loop_
 _atom_site_type_symbol
 _atom_site_label
 _atom_site_symmetry_multiplicity
 _atom_site_fract_x
 _atom_site_fract_y
 _atom_site_fract_z
 _atom_site_occupancy
  Tb  Tb0  1  0.579578  0.862017  0.780477  1
  Tb  Tb1  1  0.137983  0.420422  0.719523  1
  Tb  Tb2  1  0.413584  0.126624  0.229468  1
  Tb  Tb3  1  0.873376  0.586416  0.270532  1
  Ga  Ga4  1  0.491268  0.508732  0.750000  1
  Ga  Ga5  1  0.491736  0.508264  0.250000  1
  Ga  Ga6  1  0.248526  0.083149  0.833607  1
  Ga  Ga7  1  0.916851  0.751474  0.666393  1
  Ga  Ga8  1  0.735981  0.905601  0.179935  1
  Ga  Ga9  1  0.094399  0.264019  0.320065  1
  Ga  Ga10  1  0.803813  0.196187  0.750000  1
  Ga  Ga11  1  0.207285  0.792715  0.250000  1
  Ga  Ga12  1  0.207560  0.792440  0.750000  1
  Ga  Ga13  1  0.803561  0.196439  0.250000  1
  Co  Co14  1  0.439380  0.739830  0.409395  1
  Co  Co15  1  0.260170  0.560620  0.090605  1
  Co  Co16  1  0.999615  0.000385  0.750000  1
  Co  Co17  1  0.998965  0.001035  0.250000  1
  Pd  Pd18  1  0.557293  0.260923  0.591226  1
  Pd  Pd19  1  0.739077  0.442707  0.908774  1
