# generated using pymatgen
data_DyNpTcB6
_symmetry_space_group_name_H-M   'P 1'
_cell_length_a   3.62910200
_cell_length_b   9.27893600
_cell_length_c   11.35079500
_cell_angle_alpha   90.00000000
_cell_angle_beta   90.00000000
_cell_angle_gamma   90.00000000
_symmetry_Int_Tables_number   1
_chemical_formula_structural   DyNpTcB6
_chemical_formula_sum   'Dy4 Np4 Tc4 B24'
_cell_volume   382.22899996
_cell_formula_units_Z   4
loop_
 _symmetry_equiv_pos_site_id
 _symmetry_equiv_pos_as_xyz
  1  'x, y, z'
loop_
 _atom_site_type_symbol
 _atom_site_label
 _atom_site_symmetry_multiplicity
 _atom_site_fract_x
 _atom_site_fract_y
 _atom_site_fract_z
 _atom_site_occupancy
  Dy  Dy0  1  0.000000  0.337913  0.406763  1
  Dy  Dy1  1  0.000000  0.662087  0.593237  1
  Dy  Dy2  1  0.000000  0.837913  0.093237  1
  Dy  Dy3  1  0.000000  0.162087  0.906763  1
  Np  Np4  1  0.000000  0.959064  0.400871  1
  Np  Np5  1  0.000000  0.040936  0.599129  1
  Np  Np6  1  0.000000  0.459064  0.099129  1
  Np  Np7  1  0.000000  0.540936  0.900871  1
  Tc  Tc8  1  0.000000  0.646800  0.318473  1
  Tc  Tc9  1  0.000000  0.353200  0.681527  1
  Tc  Tc10  1  0.000000  0.146800  0.181527  1
  Tc  Tc11  1  0.000000  0.853200  0.818473  1
  B  B12  1  0.500000  0.552595  0.431001  1
  B  B13  1  0.500000  0.447405  0.568999  1
  B  B14  1  0.500000  0.052595  0.068999  1
  B  B15  1  0.500000  0.947405  0.931001  1
  B  B16  1  0.500000  0.744489  0.422811  1
  B  B17  1  0.500000  0.255511  0.577189  1
  B  B18  1  0.500000  0.244489  0.077189  1
  B  B19  1  0.500000  0.755511  0.922811  1
  B  B20  1  0.500000  0.804489  0.275010  1
  B  B21  1  0.500000  0.195511  0.724990  1
  B  B22  1  0.500000  0.304489  0.224990  1
  B  B23  1  0.500000  0.695511  0.775010  1
  B  B24  1  0.500000  0.644465  0.188270  1
  B  B25  1  0.500000  0.355535  0.811730  1
  B  B26  1  0.500000  0.144465  0.311730  1
  B  B27  1  0.500000  0.855535  0.688270  1
  B  B28  1  0.500000  0.989273  0.220585  1
  B  B29  1  0.500000  0.010727  0.779415  1
  B  B30  1  0.500000  0.489273  0.279415  1
  B  B31  1  0.500000  0.510727  0.720585  1
  B  B32  1  0.500000  0.639792  0.038722  1
  B  B33  1  0.500000  0.360208  0.961278  1
  B  B34  1  0.500000  0.139792  0.461278  1
  B  B35  1  0.500000  0.860208  0.538722  1
