# generated using pymatgen
data_Ti6BCl12
_symmetry_space_group_name_H-M   'P 1'
_cell_length_a   7.91488977
_cell_length_b   7.91489017
_cell_length_c   7.91489063
_cell_angle_alpha   106.88579057
_cell_angle_beta   106.88579675
_cell_angle_gamma   106.88578575
_symmetry_Int_Tables_number   1
_chemical_formula_structural   Ti6BCl12
_chemical_formula_sum   'Ti6 B1 Cl12'
_cell_volume   414.21351678
_cell_formula_units_Z   1
loop_
 _symmetry_equiv_pos_site_id
 _symmetry_equiv_pos_as_xyz
  1  'x, y, z'
loop_
 _atom_site_type_symbol
 _atom_site_label
 _atom_site_symmetry_multiplicity
 _atom_site_fract_x
 _atom_site_fract_y
 _atom_site_fract_z
 _atom_site_occupancy
  Ti  Ti0  1  0.969509  0.708669  0.902386  1
  Ti  Ti1  1  0.291331  0.097614  0.030491  1
  Ti  Ti2  1  0.097614  0.030491  0.291331  1
  Ti  Ti3  1  0.902386  0.969509  0.708669  1
  Ti  Ti4  1  0.708669  0.902386  0.969509  1
  Ti  Ti5  1  0.030491  0.291331  0.097614  1
  B  B6  1  0.000000  0.000000  0.000000  1
  Cl  Cl7  1  0.923245  0.306880  0.783515  1
  Cl  Cl8  1  0.693120  0.216485  0.076755  1
  Cl  Cl9  1  0.433550  0.138119  0.359629  1
  Cl  Cl10  1  0.861881  0.640371  0.566450  1
  Cl  Cl11  1  0.216485  0.076755  0.693120  1
  Cl  Cl12  1  0.640371  0.566450  0.861881  1
  Cl  Cl13  1  0.359629  0.433550  0.138119  1
  Cl  Cl14  1  0.783515  0.923245  0.306880  1
  Cl  Cl15  1  0.138119  0.359629  0.433550  1
  Cl  Cl16  1  0.566450  0.861881  0.640371  1
  Cl  Cl17  1  0.306880  0.783515  0.923245  1
  Cl  Cl18  1  0.076755  0.693120  0.216485  1
