# generated using pymatgen
data_Yb6Er2Si12IrPd3
_symmetry_space_group_name_H-M   'P 1'
_cell_length_a   8.23408300
_cell_length_b   8.23408407
_cell_length_c   8.08601600
_cell_angle_alpha   90.00000000
_cell_angle_beta   90.00000000
_cell_angle_gamma   119.99999972
_symmetry_Int_Tables_number   1
_chemical_formula_structural   Yb6Er2Si12IrPd3
_chemical_formula_sum   'Yb6 Er2 Si12 Ir1 Pd3'
_cell_volume   474.78366262
_cell_formula_units_Z   1
loop_
 _symmetry_equiv_pos_site_id
 _symmetry_equiv_pos_as_xyz
  1  'x, y, z'
loop_
 _atom_site_type_symbol
 _atom_site_label
 _atom_site_symmetry_multiplicity
 _atom_site_fract_x
 _atom_site_fract_y
 _atom_site_fract_z
 _atom_site_occupancy
  Yb  Yb0  1  0.500004  0.000008  0.247910  1
  Yb  Yb1  1  0.496242  0.992482  0.752386  1
  Yb  Yb2  1  0.999992  0.499996  0.247910  1
  Yb  Yb3  1  0.007518  0.503758  0.752386  1
  Yb  Yb4  1  0.500004  0.499996  0.247910  1
  Yb  Yb5  1  0.496242  0.503758  0.752386  1
  Er  Er6  1  0.000000  0.000000  0.249863  1
  Er  Er7  1  0.000000  0.000000  0.749360  1
  Si  Si8  1  0.167011  0.334021  0.002417  1
  Si  Si9  1  0.836798  0.673594  0.997785  1
  Si  Si10  1  0.665979  0.832989  0.002417  1
  Si  Si11  1  0.835960  0.671921  0.502772  1
  Si  Si12  1  0.326406  0.163202  0.997785  1
  Si  Si13  1  0.163382  0.326765  0.496711  1
  Si  Si14  1  0.167011  0.832989  0.002417  1
  Si  Si15  1  0.328079  0.164040  0.502772  1
  Si  Si16  1  0.836798  0.163202  0.997785  1
  Si  Si17  1  0.673235  0.836618  0.496711  1
  Si  Si18  1  0.835960  0.164040  0.502772  1
  Si  Si19  1  0.163382  0.836618  0.496711  1
  Ir  Ir20  1  0.333333  0.666667  0.003773  1
  Pd  Pd21  1  0.666667  0.333333  0.998143  1
  Pd  Pd22  1  0.666667  0.333333  0.501892  1
  Pd  Pd23  1  0.333333  0.666667  0.497027  1
