# generated using pymatgen
data_Zr8Ti12Ge11As5
_symmetry_space_group_name_H-M   'P 1'
_cell_length_a   6.84554022
_cell_length_b   6.91448732
_cell_length_c   13.11870356
_cell_angle_alpha   90.03204867
_cell_angle_beta   90.14124368
_cell_angle_gamma   89.98529772
_symmetry_Int_Tables_number   1
_chemical_formula_structural   Zr8Ti12Ge11As5
_chemical_formula_sum   'Zr8 Ti12 Ge11 As5'
_cell_volume   620.95085275
_cell_formula_units_Z   1
loop_
 _symmetry_equiv_pos_site_id
 _symmetry_equiv_pos_as_xyz
  1  'x, y, z'
loop_
 _atom_site_type_symbol
 _atom_site_label
 _atom_site_symmetry_multiplicity
 _atom_site_fract_x
 _atom_site_fract_y
 _atom_site_fract_z
 _atom_site_occupancy
  Zr  Zr0  1  0.484603  0.677499  0.093566  1
  Zr  Zr1  1  0.986147  0.825067  0.406072  1
  Zr  Zr2  1  0.512117  0.324066  0.593627  1
  Zr  Zr3  1  0.016098  0.177643  0.905615  1
  Zr  Zr4  1  0.515333  0.320315  0.907079  1
  Zr  Zr5  1  0.013933  0.177619  0.593161  1
  Zr  Zr6  1  0.486528  0.677109  0.406749  1
  Zr  Zr7  1  0.983878  0.822036  0.094764  1
  Ti  Ti8  1  0.326776  0.006413  0.249380  1
  Ti  Ti9  1  0.828105  0.494322  0.249369  1
  Ti  Ti10  1  0.672463  0.993367  0.750737  1
  Ti  Ti11  1  0.171280  0.506144  0.749791  1
  Ti  Ti12  1  0.656483  0.162308  0.121696  1
  Ti  Ti13  1  0.158930  0.335541  0.376225  1
  Ti  Ti14  1  0.342170  0.836066  0.623980  1
  Ti  Ti15  1  0.844114  0.661180  0.876134  1
  Ti  Ti16  1  0.345006  0.839939  0.877679  1
  Ti  Ti17  1  0.843190  0.663849  0.624951  1
  Ti  Ti18  1  0.655186  0.164067  0.375396  1
  Ti  Ti19  1  0.154372  0.335469  0.123861  1
  Ge  Ge20  1  0.688708  0.857648  0.250459  1
  Ge  Ge21  1  0.189874  0.641372  0.250631  1
  Ge  Ge22  1  0.310789  0.142809  0.749485  1
  Ge  Ge23  1  0.809069  0.357026  0.749515  1
  Ge  Ge24  1  0.810535  0.458517  0.457995  1
  Ge  Ge25  1  0.689434  0.958782  0.542370  1
  Ge  Ge26  1  0.192142  0.542330  0.957866  1
  Ge  Ge27  1  0.458729  0.377211  0.249029  1
  Ge  Ge28  1  0.956314  0.123633  0.250252  1
  Ge  Ge29  1  0.540668  0.623085  0.750698  1
  Ge  Ge30  1  0.043075  0.877130  0.750602  1
  As  As31  1  0.695480  0.956858  0.957806  1
  As  As32  1  0.184651  0.542267  0.541045  1
  As  As33  1  0.315440  0.041778  0.458966  1
  As  As34  1  0.812923  0.457947  0.040944  1
  As  As35  1  0.305455  0.041588  0.042506  1
