# generated using pymatgen
data_LaPr2Cd(Ir2O7)2
_symmetry_space_group_name_H-M   'P 1'
_cell_length_a   7.32055368
_cell_length_b   7.47878806
_cell_length_c   7.47878912
_cell_angle_alpha   59.91976200
_cell_angle_beta   59.28459415
_cell_angle_gamma   59.28459662
_symmetry_Int_Tables_number   1
_chemical_formula_structural   LaPr2Cd(Ir2O7)2
_chemical_formula_sum   'La1 Pr2 Cd1 Ir4 O14'
_cell_volume   286.18801946
_cell_formula_units_Z   1
loop_
 _symmetry_equiv_pos_site_id
 _symmetry_equiv_pos_as_xyz
  1  'x, y, z'
loop_
 _atom_site_type_symbol
 _atom_site_label
 _atom_site_symmetry_multiplicity
 _atom_site_fract_x
 _atom_site_fract_y
 _atom_site_fract_z
 _atom_site_occupancy
  La  La0  1  0.125000  0.125000  0.125000  1
  Pr  Pr1  1  0.125000  0.125000  0.625000  1
  Pr  Pr2  1  0.125000  0.625000  0.125000  1
  Cd  Cd3  1  0.625000  0.125000  0.125000  1
  Ir  Ir4  1  0.625000  0.625000  0.625000  1
  Ir  Ir5  1  0.125000  0.625000  0.625000  1
  Ir  Ir6  1  0.625000  0.125000  0.625000  1
  Ir  Ir7  1  0.625000  0.625000  0.125000  1
  O  O8  1  0.959284  0.542071  0.542071  1
  O  O9  1  0.291526  0.294875  0.703371  1
  O  O10  1  0.958474  0.546629  0.955125  1
  O  O11  1  0.694307  0.302183  0.302183  1
  O  O12  1  0.550859  0.551168  0.948591  1
  O  O13  1  0.550859  0.948591  0.551168  1
  O  O14  1  0.555693  0.947817  0.947817  1
  O  O15  1  0.260307  0.245835  0.245835  1
  O  O16  1  0.290716  0.707929  0.707929  1
  O  O17  1  0.699141  0.301409  0.698832  1
  O  O18  1  0.989693  0.004165  0.004165  1
  O  O19  1  0.958474  0.955125  0.546629  1
  O  O20  1  0.291526  0.703371  0.294875  1
  O  O21  1  0.699141  0.698832  0.301409  1
