# generated using pymatgen
data_Tb4TlInCu3Pt
_symmetry_space_group_name_H-M   'P 1'
_cell_length_a   7.74583434
_cell_length_b   7.71755441
_cell_length_c   3.66538600
_cell_angle_alpha   90.00000000
_cell_angle_beta   90.00000000
_cell_angle_gamma   89.99833408
_symmetry_Int_Tables_number   1
_chemical_formula_structural   Tb4TlInCu3Pt
_chemical_formula_sum   'Tb4 Tl1 In1 Cu3 Pt1'
_cell_volume   219.11273565
_cell_formula_units_Z   1
loop_
 _symmetry_equiv_pos_site_id
 _symmetry_equiv_pos_as_xyz
  1  'x, y, z'
loop_
 _atom_site_type_symbol
 _atom_site_label
 _atom_site_symmetry_multiplicity
 _atom_site_fract_x
 _atom_site_fract_y
 _atom_site_fract_z
 _atom_site_occupancy
  Tb  Tb0  1  0.672883  0.171220  0.500000  1
  Tb  Tb1  1  0.320738  0.822320  0.500000  1
  Tb  Tb2  1  0.177067  0.330491  0.500000  1
  Tb  Tb3  1  0.831302  0.679280  0.500000  1
  Tl  Tl4  1  0.509143  0.498748  0.000000  1
  In  In5  1  0.999129  0.007129  0.000000  1
  Cu  Cu6  1  0.877385  0.371095  0.000000  1
  Cu  Cu7  1  0.618184  0.883661  0.000000  1
  Cu  Cu8  1  0.379596  0.115348  0.000000  1
  Pt  Pt9  1  0.114573  0.620707  0.000000  1
