# generated using pymatgen
data_LiTm8Sc11Si15Hg
_symmetry_space_group_name_H-M   'P 1'
_cell_length_a   7.04490636
_cell_length_b   7.34454342
_cell_length_c   14.00562351
_cell_angle_alpha   89.95153929
_cell_angle_beta   89.48362598
_cell_angle_gamma   90.19033300
_symmetry_Int_Tables_number   1
_chemical_formula_structural   LiTm8Sc11Si15Hg
_chemical_formula_sum   'Li1 Tm8 Sc11 Si15 Hg1'
_cell_volume   724.63995236
_cell_formula_units_Z   1
loop_
 _symmetry_equiv_pos_site_id
 _symmetry_equiv_pos_as_xyz
  1  'x, y, z'
loop_
 _atom_site_type_symbol
 _atom_site_label
 _atom_site_symmetry_multiplicity
 _atom_site_fract_x
 _atom_site_fract_y
 _atom_site_fract_z
 _atom_site_occupancy
  Li  Li0  1  0.160557  0.504584  0.753365  1
  Tm  Tm1  1  0.012576  0.177763  0.096597  1
  Tm  Tm2  1  0.988843  0.816562  0.902965  1
  Tm  Tm3  1  0.483616  0.675828  0.903532  1
  Tm  Tm4  1  0.990042  0.824732  0.598456  1
  Tm  Tm5  1  0.510258  0.323771  0.095924  1
  Tm  Tm6  1  0.006562  0.171730  0.398846  1
  Tm  Tm7  1  0.511009  0.321891  0.399552  1
  Tm  Tm8  1  0.494485  0.681214  0.600900  1
  Sc  Sc9  1  0.836361  0.497067  0.250194  1
  Sc  Sc10  1  0.337909  0.001985  0.248877  1
  Sc  Sc11  1  0.663821  0.995596  0.751795  1
  Sc  Sc12  1  0.340964  0.171693  0.629663  1
  Sc  Sc13  1  0.664491  0.824642  0.372369  1
  Sc  Sc14  1  0.166893  0.678107  0.370643  1
  Sc  Sc15  1  0.669837  0.823978  0.124638  1
  Sc  Sc16  1  0.828860  0.327759  0.626663  1
  Sc  Sc17  1  0.326902  0.180453  0.875706  1
  Sc  Sc18  1  0.834085  0.325811  0.875149  1
  Sc  Sc19  1  0.171176  0.676276  0.124785  1
  Si  Si20  1  0.033145  0.107310  0.751186  1
  Si  Si21  1  0.967170  0.887913  0.247256  1
  Si  Si22  1  0.466557  0.612402  0.247697  1
  Si  Si23  1  0.535361  0.390340  0.752561  1
  Si  Si24  1  0.286002  0.876030  0.751908  1
  Si  Si25  1  0.711939  0.130592  0.247710  1
  Si  Si26  1  0.211944  0.368831  0.248506  1
  Si  Si27  1  0.783517  0.629410  0.752556  1
  Si  Si28  1  0.830631  0.538319  0.459827  1
  Si  Si29  1  0.338514  0.963847  0.461334  1
  Si  Si30  1  0.842747  0.534703  0.038473  1
  Si  Si31  1  0.660656  0.035764  0.537339  1
  Si  Si32  1  0.158540  0.462894  0.965297  1
  Si  Si33  1  0.657895  0.034099  0.960497  1
  Si  Si34  1  0.344018  0.967008  0.038884  1
  Hg  Hg35  1  0.172119  0.459098  0.538348  1
