# generated using pymatgen
data_AlCdI4
_symmetry_space_group_name_H-M   'P 1'
_cell_length_a   7.72983482
_cell_length_b   7.71812466
_cell_length_c   11.01130167
_cell_angle_alpha   83.12122697
_cell_angle_beta   104.27239869
_cell_angle_gamma   119.79151248
_symmetry_Int_Tables_number   1
_chemical_formula_structural   AlCdI4
_chemical_formula_sum   'Al2 Cd2 I8'
_cell_volume   552.51196816
_cell_formula_units_Z   2
loop_
 _symmetry_equiv_pos_site_id
 _symmetry_equiv_pos_as_xyz
  1  'x, y, z'
loop_
 _atom_site_type_symbol
 _atom_site_label
 _atom_site_symmetry_multiplicity
 _atom_site_fract_x
 _atom_site_fract_y
 _atom_site_fract_z
 _atom_site_occupancy
  Al  Al0  1  0.590828  0.833269  0.282309  1
  Al  Al1  1  0.409172  0.166731  0.717691  1
  Cd  Cd2  1  0.043513  0.498202  0.627736  1
  Cd  Cd3  1  0.956487  0.501798  0.372264  1
  I  I4  1  0.390456  0.834357  0.809692  1
  I  I5  1  0.609544  0.165643  0.190308  1
  I  I6  1  0.164227  0.220930  0.812565  1
  I  I7  1  0.835773  0.779070  0.187435  1
  I  I8  1  0.674528  0.833080  0.516926  1
  I  I9  1  0.325472  0.166920  0.483074  1
  I  I10  1  0.774481  0.447389  0.809695  1
  I  I11  1  0.225519  0.552611  0.190305  1
