# generated using pymatgen
data_Lu2HfZr(SiMo)4
_symmetry_space_group_name_H-M   'P 1'
_cell_length_a   3.55835300
_cell_length_b   7.09896043
_cell_length_c   8.29828103
_cell_angle_alpha   90.14533075
_cell_angle_beta   90.00000000
_cell_angle_gamma   90.00000000
_symmetry_Int_Tables_number   1
_chemical_formula_structural   Lu2HfZr(SiMo)4
_chemical_formula_sum   'Lu2 Hf1 Zr1 Si4 Mo4'
_cell_volume   209.61894285
_cell_formula_units_Z   1
loop_
 _symmetry_equiv_pos_site_id
 _symmetry_equiv_pos_as_xyz
  1  'x, y, z'
loop_
 _atom_site_type_symbol
 _atom_site_label
 _atom_site_symmetry_multiplicity
 _atom_site_fract_x
 _atom_site_fract_y
 _atom_site_fract_z
 _atom_site_occupancy
  Lu  Lu0  1  0.250000  0.043215  0.332412  1
  Lu  Lu1  1  0.750000  0.956929  0.667695  1
  Hf  Hf2  1  0.750000  0.457498  0.834229  1
  Zr  Zr3  1  0.250000  0.542118  0.165241  1
  Si  Si4  1  0.250000  0.265842  0.639243  1
  Si  Si5  1  0.750000  0.734607  0.361319  1
  Si  Si6  1  0.250000  0.754118  0.866183  1
  Si  Si7  1  0.750000  0.245144  0.133394  1
  Mo  Mo8  1  0.750000  0.373371  0.440489  1
  Mo  Mo9  1  0.250000  0.626312  0.560556  1
  Mo  Mo10  1  0.750000  0.868846  0.060510  1
  Mo  Mo11  1  0.250000  0.132000  0.938729  1
