# generated using pymatgen
data_DyEr6Sn23Ir6
_symmetry_space_group_name_H-M   'P 1'
_cell_length_a   9.82975100
_cell_length_b   9.82975118
_cell_length_c   10.11398400
_cell_angle_alpha   90.00000000
_cell_angle_beta   90.00000000
_cell_angle_gamma   120.00000275
_symmetry_Int_Tables_number   1
_chemical_formula_structural   DyEr6Sn23Ir6
_chemical_formula_sum   'Dy1 Er6 Sn23 Ir6'
_cell_volume   846.32646841
_cell_formula_units_Z   1
loop_
 _symmetry_equiv_pos_site_id
 _symmetry_equiv_pos_as_xyz
  1  'x, y, z'
loop_
 _atom_site_type_symbol
 _atom_site_label
 _atom_site_symmetry_multiplicity
 _atom_site_fract_x
 _atom_site_fract_y
 _atom_site_fract_z
 _atom_site_occupancy
  Dy  Dy0  1  0.000000  0.000000  0.000000  1
  Er  Er1  1  0.479880  0.520120  0.307104  1
  Er  Er2  1  0.520120  0.479880  0.692896  1
  Er  Er3  1  0.479880  0.959761  0.307104  1
  Er  Er4  1  0.520120  0.040239  0.692896  1
  Er  Er5  1  0.040239  0.520120  0.307104  1
  Er  Er6  1  0.959761  0.479880  0.692896  1
  Sn  Sn7  1  0.119715  0.880285  0.282162  1
  Sn  Sn8  1  0.880285  0.119715  0.717838  1
  Sn  Sn9  1  0.119715  0.239429  0.282162  1
  Sn  Sn10  1  0.880285  0.760571  0.717838  1
  Sn  Sn11  1  0.760571  0.880285  0.282162  1
  Sn  Sn12  1  0.239429  0.119715  0.717838  1
  Sn  Sn13  1  0.778405  0.221595  0.456602  1
  Sn  Sn14  1  0.221595  0.778405  0.543398  1
  Sn  Sn15  1  0.778405  0.556811  0.456602  1
  Sn  Sn16  1  0.221595  0.443189  0.543398  1
  Sn  Sn17  1  0.443189  0.221595  0.456602  1
  Sn  Sn18  1  0.556811  0.778405  0.543398  1
  Sn  Sn19  1  0.352690  0.000000  0.000000  1
  Sn  Sn20  1  0.647310  0.000000  0.000000  1
  Sn  Sn21  1  0.000000  0.352690  0.000000  1
  Sn  Sn22  1  0.000000  0.647310  0.000000  1
  Sn  Sn23  1  0.647310  0.647310  0.000000  1
  Sn  Sn24  1  0.352690  0.352690  0.000000  1
  Sn  Sn25  1  0.333333  0.666667  0.121789  1
  Sn  Sn26  1  0.666667  0.333333  0.878211  1
  Sn  Sn27  1  0.333333  0.666667  0.822745  1
  Sn  Sn28  1  0.666667  0.333333  0.177255  1
  Sn  Sn29  1  0.000000  0.000000  0.500000  1
  Ir  Ir30  1  0.830881  0.169119  0.198448  1
  Ir  Ir31  1  0.169119  0.830881  0.801552  1
  Ir  Ir32  1  0.830881  0.661764  0.198448  1
  Ir  Ir33  1  0.169119  0.338236  0.801552  1
  Ir  Ir34  1  0.338236  0.169119  0.198448  1
  Ir  Ir35  1  0.661764  0.830881  0.801552  1
