# generated using pymatgen
data_Ba9Sr3Nd4(Fe4O15)2
_symmetry_space_group_name_H-M   'P 1'
_cell_length_a   7.08571048
_cell_length_b   11.88088191
_cell_length_c   11.85266811
_cell_angle_alpha   120.08210929
_cell_angle_beta   90.12511725
_cell_angle_gamma   89.76042868
_symmetry_Int_Tables_number   1
_chemical_formula_structural   Ba9Sr3Nd4(Fe4O15)2
_chemical_formula_sum   'Ba9 Sr3 Nd4 Fe8 O30'
_cell_volume   863.40610373
_cell_formula_units_Z   1
loop_
 _symmetry_equiv_pos_site_id
 _symmetry_equiv_pos_as_xyz
  1  'x, y, z'
loop_
 _atom_site_type_symbol
 _atom_site_label
 _atom_site_symmetry_multiplicity
 _atom_site_fract_x
 _atom_site_fract_y
 _atom_site_fract_z
 _atom_site_occupancy
  Ba  Ba0  1  0.683344  0.348669  0.177097  1
  Ba  Ba1  1  0.676963  0.827702  0.176658  1
  Ba  Ba2  1  0.679276  0.824758  0.649645  1
  Ba  Ba3  1  0.167146  0.657865  0.826245  1
  Ba  Ba4  1  0.171261  0.168528  0.826616  1
  Ba  Ba5  1  0.168515  0.172640  0.343828  1
  Ba  Ba6  1  0.993097  0.666544  0.335588  1
  Ba  Ba7  1  0.488936  0.330570  0.664651  1
  Ba  Ba8  1  0.504579  0.999876  0.000833  1
  Sr  Sr9  1  0.001871  0.999901  0.999837  1
  Sr  Sr10  1  0.343042  0.955921  0.477079  1
  Sr  Sr11  1  0.842816  0.478417  0.523370  1
  Nd  Nd12  1  0.341689  0.521688  0.478252  1
  Nd  Nd13  1  0.345156  0.521928  0.043151  1
  Nd  Nd14  1  0.842164  0.044088  0.522141  1
  Nd  Nd15  1  0.845273  0.478452  0.956154  1
  Fe  Fe16  1  0.535238  0.667606  0.332721  1
  Fe  Fe17  1  0.035380  0.335153  0.667269  1
  Fe  Fe18  1  0.174398  0.354808  0.174973  1
  Fe  Fe19  1  0.166082  0.821190  0.178040  1
  Fe  Fe20  1  0.171549  0.823668  0.643263  1
  Fe  Fe21  1  0.668732  0.644369  0.822587  1
  Fe  Fe22  1  0.676021  0.179170  0.825709  1
  Fe  Fe23  1  0.673770  0.179952  0.355460  1
  O  O24  1  0.355057  0.495102  0.243188  1
  O  O25  1  0.349279  0.744139  0.240546  1
  O  O26  1  0.349738  0.745627  0.499746  1
  O  O27  1  0.847123  0.502251  0.758452  1
  O  O28  1  0.851871  0.252212  0.755965  1
  O  O29  1  0.846762  0.246608  0.501531  1
  O  O30  1  0.536936  0.606062  0.939216  1
  O  O31  1  0.550985  0.063778  0.670269  1
  O  O32  1  0.521978  0.326078  0.388709  1
  O  O33  1  0.539239  0.333935  0.939122  1
  O  O34  1  0.522477  0.610081  0.674505  1
  O  O35  1  0.548054  0.061680  0.390778  1
  O  O36  1  0.038952  0.399544  0.063780  1
  O  O37  1  0.022081  0.932585  0.327883  1
  O  O38  1  0.046622  0.668765  0.603438  1
  O  O39  1  0.035374  0.665319  0.063297  1
  O  O40  1  0.050086  0.399684  0.331962  1
  O  O41  1  0.022117  0.934083  0.605548  1
  O  O42  1  0.781994  0.808628  0.903696  1
  O  O43  1  0.782957  0.098768  0.911283  1
  O  O44  1  0.786936  0.101505  0.190871  1
  O  O45  1  0.251599  0.182278  0.086707  1
  O  O46  1  0.252000  0.907024  0.092968  1
  O  O47  1  0.254998  0.912316  0.815242  1
  O  O48  1  0.684877  0.829557  0.413484  1
  O  O49  1  0.670866  0.583018  0.414146  1
  O  O50  1  0.678866  0.582037  0.163531  1
  O  O51  1  0.169468  0.168704  0.585811  1
  O  O52  1  0.184637  0.416389  0.586201  1
  O  O53  1  0.177774  0.418784  0.836957  1
