# generated using pymatgen
data_Tb15Er(In3Ru)2
_symmetry_space_group_name_H-M   'P 1'
_cell_length_a   10.46365000
_cell_length_b   10.46364888
_cell_length_c   7.07152900
_cell_angle_alpha   90.00000000
_cell_angle_beta   90.00000000
_cell_angle_gamma   119.99999722
_symmetry_Int_Tables_number   1
_chemical_formula_structural   Tb15Er(In3Ru)2
_chemical_formula_sum   'Tb15 Er1 In6 Ru2'
_cell_volume   670.51783334
_cell_formula_units_Z   1
loop_
 _symmetry_equiv_pos_site_id
 _symmetry_equiv_pos_as_xyz
  1  'x, y, z'
loop_
 _atom_site_type_symbol
 _atom_site_label
 _atom_site_symmetry_multiplicity
 _atom_site_fract_x
 _atom_site_fract_y
 _atom_site_fract_z
 _atom_site_occupancy
  Tb  Tb0  1  0.532914  0.065829  0.794379  1
  Tb  Tb1  1  0.934171  0.467086  0.794379  1
  Tb  Tb2  1  0.532914  0.467086  0.794379  1
  Tb  Tb3  1  0.467085  0.934171  0.294388  1
  Tb  Tb4  1  0.065829  0.532915  0.294388  1
  Tb  Tb5  1  0.467085  0.532915  0.294388  1
  Tb  Tb6  1  0.823166  0.646330  0.499163  1
  Tb  Tb7  1  0.353670  0.176834  0.499163  1
  Tb  Tb8  1  0.823166  0.176834  0.499163  1
  Tb  Tb9  1  0.176851  0.353703  0.999564  1
  Tb  Tb10  1  0.646297  0.823149  0.999564  1
  Tb  Tb11  1  0.176851  0.823149  0.999564  1
  Tb  Tb12  1  0.666667  0.333333  0.170479  1
  Tb  Tb13  1  0.333333  0.666667  0.670362  1
  Tb  Tb14  1  0.000000  0.000000  0.779258  1
  Er  Er15  1  0.000000  0.000000  0.278822  1
  In  In16  1  0.837328  0.674657  0.039693  1
  In  In17  1  0.325343  0.162672  0.039693  1
  In  In18  1  0.837328  0.162672  0.039693  1
  In  In19  1  0.162663  0.325326  0.539210  1
  In  In20  1  0.674674  0.837337  0.539210  1
  In  In21  1  0.162663  0.837337  0.539210  1
  Ru  Ru22  1  0.666667  0.333333  0.569036  1
  Ru  Ru23  1  0.333333  0.666667  0.068757  1
