# generated using pymatgen
data_Tb7PI12
_symmetry_space_group_name_H-M   'P 1'
_cell_length_a   9.72673921
_cell_length_b   9.72674012
_cell_length_c   9.72674048
_cell_angle_alpha   107.92346099
_cell_angle_beta   107.92346485
_cell_angle_gamma   107.92346027
_symmetry_Int_Tables_number   1
_chemical_formula_structural   Tb7PI12
_chemical_formula_sum   'Tb7 P1 I12'
_cell_volume   746.23874822
_cell_formula_units_Z   1
loop_
 _symmetry_equiv_pos_site_id
 _symmetry_equiv_pos_as_xyz
  1  'x, y, z'
loop_
 _atom_site_type_symbol
 _atom_site_label
 _atom_site_symmetry_multiplicity
 _atom_site_fract_x
 _atom_site_fract_y
 _atom_site_fract_z
 _atom_site_occupancy
  Tb  Tb0  1  0.099252  0.030099  0.300683  1
  Tb  Tb1  1  0.300683  0.099252  0.030099  1
  Tb  Tb2  1  0.030099  0.300683  0.099252  1
  Tb  Tb3  1  0.900748  0.969901  0.699317  1
  Tb  Tb4  1  0.699317  0.900748  0.969901  1
  Tb  Tb5  1  0.969901  0.699317  0.900748  1
  Tb  Tb6  1  0.500000  0.500000  0.500000  1
  P  P7  1  0.000000  0.000000  0.000000  1
  I  I8  1  0.074948  0.686255  0.226961  1
  I  I9  1  0.226961  0.074948  0.686255  1
  I  I10  1  0.686255  0.226961  0.074948  1
  I  I11  1  0.925052  0.313745  0.773039  1
  I  I12  1  0.773039  0.925052  0.313745  1
  I  I13  1  0.313745  0.773039  0.925052  1
  I  I14  1  0.465672  0.153161  0.386442  1
  I  I15  1  0.386442  0.465672  0.153161  1
  I  I16  1  0.153161  0.386442  0.465672  1
  I  I17  1  0.534328  0.846839  0.613558  1
  I  I18  1  0.613558  0.534328  0.846839  1
  I  I19  1  0.846839  0.613558  0.534328  1
