# generated using pymatgen
data_Dy8SiPd13Pt11
_symmetry_space_group_name_H-M   'P 1'
_cell_length_a   8.34823900
_cell_length_b   8.35786200
_cell_length_c   8.37018200
_cell_angle_alpha   90.00000000
_cell_angle_beta   90.00000000
_cell_angle_gamma   90.00000000
_symmetry_Int_Tables_number   1
_chemical_formula_structural   Dy8SiPd13Pt11
_chemical_formula_sum   'Dy8 Si1 Pd13 Pt11'
_cell_volume   584.01630372
_cell_formula_units_Z   1
loop_
 _symmetry_equiv_pos_site_id
 _symmetry_equiv_pos_as_xyz
  1  'x, y, z'
loop_
 _atom_site_type_symbol
 _atom_site_label
 _atom_site_symmetry_multiplicity
 _atom_site_fract_x
 _atom_site_fract_y
 _atom_site_fract_z
 _atom_site_occupancy
  Dy  Dy0  1  0.253254  0.253390  0.253207  1
  Dy  Dy1  1  0.746716  0.746764  0.746409  1
  Dy  Dy2  1  0.746716  0.746764  0.253591  1
  Dy  Dy3  1  0.746716  0.253236  0.746409  1
  Dy  Dy4  1  0.253254  0.253390  0.746793  1
  Dy  Dy5  1  0.253254  0.746610  0.253207  1
  Dy  Dy6  1  0.253254  0.746610  0.746793  1
  Dy  Dy7  1  0.746716  0.253236  0.253591  1
  Si  Si8  1  0.000435  0.000000  0.000000  1
  Pd  Pd9  1  0.742043  0.500000  0.000000  1
  Pd  Pd10  1  0.999929  0.258081  0.500000  1
  Pd  Pd11  1  0.500020  0.257703  0.000000  1
  Pd  Pd12  1  0.999929  0.741919  0.500000  1
  Pd  Pd13  1  0.500020  0.742297  0.000000  1
  Pd  Pd14  1  0.500060  0.000000  0.258332  1
  Pd  Pd15  1  0.258316  0.000000  0.500000  1
  Pd  Pd16  1  0.500060  0.000000  0.741668  1
  Pd  Pd17  1  0.741806  0.000000  0.500000  1
  Pd  Pd18  1  0.000082  0.500000  0.258383  1
  Pd  Pd19  1  0.000082  0.500000  0.741617  1
  Pd  Pd20  1  0.999943  0.000000  0.282608  1
  Pd  Pd21  1  0.999943  0.000000  0.717392  1
  Pt  Pt22  1  0.257812  0.500000  0.000000  1
  Pt  Pt23  1  0.252081  0.500000  0.500000  1
  Pt  Pt24  1  0.747641  0.500000  0.500000  1
  Pt  Pt25  1  0.500089  0.252011  0.500000  1
  Pt  Pt26  1  0.500089  0.747989  0.500000  1
  Pt  Pt27  1  0.499829  0.500000  0.252357  1
  Pt  Pt28  1  0.499829  0.500000  0.747643  1
  Pt  Pt29  1  0.281244  0.000000  0.000000  1
  Pt  Pt30  1  0.719231  0.000000  0.000000  1
  Pt  Pt31  1  0.999804  0.280798  0.000000  1
  Pt  Pt32  1  0.999804  0.719202  0.000000  1
