# generated using pymatgen
data_Li2NdYSi3
_symmetry_space_group_name_H-M   'P 1'
_cell_length_a   9.35649407
_cell_length_b   9.35649451
_cell_length_c   6.79677500
_cell_angle_alpha   90.00000000
_cell_angle_beta   90.00000000
_cell_angle_gamma   153.20812197
_symmetry_Int_Tables_number   1
_chemical_formula_structural   Li2NdYSi3
_chemical_formula_sum   'Li4 Nd2 Y2 Si6'
_cell_volume   268.20440919
_cell_formula_units_Z   2
loop_
 _symmetry_equiv_pos_site_id
 _symmetry_equiv_pos_as_xyz
  1  'x, y, z'
loop_
 _atom_site_type_symbol
 _atom_site_label
 _atom_site_symmetry_multiplicity
 _atom_site_fract_x
 _atom_site_fract_y
 _atom_site_fract_z
 _atom_site_occupancy
  Li  Li0  1  0.190465  0.809535  0.059618  1
  Li  Li1  1  0.190465  0.809535  0.440382  1
  Li  Li2  1  0.809535  0.190465  0.940382  1
  Li  Li3  1  0.809535  0.190465  0.559618  1
  Nd  Nd4  1  0.553670  0.446330  0.250000  1
  Nd  Nd5  1  0.446330  0.553670  0.750000  1
  Y  Y6  1  0.344284  0.655716  0.250000  1
  Y  Y7  1  0.655716  0.344284  0.750000  1
  Si  Si8  1  0.723220  0.276780  0.250000  1
  Si  Si9  1  0.276780  0.723220  0.750000  1
  Si  Si10  1  0.059354  0.940646  0.925273  1
  Si  Si11  1  0.940646  0.059354  0.074727  1
  Si  Si12  1  0.940646  0.059354  0.425273  1
  Si  Si13  1  0.059354  0.940646  0.574727  1
