# generated using pymatgen
data_Ac3Sn2Pd3Pb
_symmetry_space_group_name_H-M   'P 1'
_cell_length_a   8.13920600
_cell_length_b   8.10343246
_cell_length_c   4.13114500
_cell_angle_alpha   90.00000000
_cell_angle_beta   90.00000000
_cell_angle_gamma   120.14614207
_symmetry_Int_Tables_number   1
_chemical_formula_structural   Ac3Sn2Pd3Pb
_chemical_formula_sum   'Ac3 Sn2 Pd3 Pb1'
_cell_volume   235.61920668
_cell_formula_units_Z   1
loop_
 _symmetry_equiv_pos_site_id
 _symmetry_equiv_pos_as_xyz
  1  'x, y, z'
loop_
 _atom_site_type_symbol
 _atom_site_label
 _atom_site_symmetry_multiplicity
 _atom_site_fract_x
 _atom_site_fract_y
 _atom_site_fract_z
 _atom_site_occupancy
  Ac  Ac0  1  0.409557  0.000000  0.000000  1
  Ac  Ac1  1  0.000778  0.413323  0.000000  1
  Ac  Ac2  1  0.587454  0.586677  0.000000  1
  Sn  Sn3  1  0.245650  0.245793  0.500001  1
  Sn  Sn4  1  0.999858  0.754207  0.500001  1
  Pd  Pd5  1  0.014251  0.000000  0.000000  1
  Pd  Pd6  1  0.663852  0.339586  0.500001  1
  Pd  Pd7  1  0.324266  0.660414  0.500001  1
  Pb  Pb8  1  0.754336  0.000000  0.500001  1
