# generated using pymatgen
data_TmSc3Zn2(B2Ir5)2
_symmetry_space_group_name_H-M   'P 1'
_cell_length_a   9.48870919
_cell_length_b   9.48870919
_cell_length_c   3.06326700
_cell_angle_alpha   90.00000000
_cell_angle_beta   90.00000000
_cell_angle_gamma   90.63826488
_symmetry_Int_Tables_number   1
_chemical_formula_structural   TmSc3Zn2(B2Ir5)2
_chemical_formula_sum   'Tm1 Sc3 Zn2 B4 Ir10'
_cell_volume   275.78597580
_cell_formula_units_Z   1
loop_
 _symmetry_equiv_pos_site_id
 _symmetry_equiv_pos_as_xyz
  1  'x, y, z'
loop_
 _atom_site_type_symbol
 _atom_site_label
 _atom_site_symmetry_multiplicity
 _atom_site_fract_x
 _atom_site_fract_y
 _atom_site_fract_z
 _atom_site_occupancy
  Tm  Tm0  1  0.822531  0.677469  0.000000  1
  Sc  Sc1  1  0.322640  0.823759  0.000000  1
  Sc  Sc2  1  0.676241  0.177360  0.000000  1
  Sc  Sc3  1  0.178663  0.321337  0.000000  1
  Zn  Zn4  1  0.501463  0.500292  0.000000  1
  Zn  Zn5  1  0.999708  0.998537  0.000000  1
  B  B6  1  0.128621  0.625242  0.000000  1
  B  B7  1  0.874758  0.371379  0.000000  1
  B  B8  1  0.372684  0.127316  0.000000  1
  B  B9  1  0.623329  0.876671  0.000000  1
  Ir  Ir10  1  0.562088  0.721126  0.500000  1
  Ir  Ir11  1  0.431469  0.282732  0.500000  1
  Ir  Ir12  1  0.931318  0.215868  0.500000  1
  Ir  Ir13  1  0.074481  0.782503  0.500000  1
  Ir  Ir14  1  0.778874  0.937912  0.500000  1
  Ir  Ir15  1  0.217268  0.068531  0.500000  1
  Ir  Ir16  1  0.284132  0.568682  0.500000  1
  Ir  Ir17  1  0.717497  0.425519  0.500000  1
  Ir  Ir18  1  0.004018  0.495982  0.500000  1
  Ir  Ir19  1  0.498219  0.001781  0.500000  1
