# generated using pymatgen
data_NdTm3V(ReN4)3
_symmetry_space_group_name_H-M   'P 1'
_cell_length_a   7.26164373
_cell_length_b   7.32952227
_cell_length_c   6.20234180
_cell_angle_alpha   73.45543628
_cell_angle_beta   74.31006151
_cell_angle_gamma   82.84834632
_symmetry_Int_Tables_number   1
_chemical_formula_structural   NdTm3V(ReN4)3
_chemical_formula_sum   'Nd1 Tm3 V1 Re3 N12'
_cell_volume   304.25381847
_cell_formula_units_Z   1
loop_
 _symmetry_equiv_pos_site_id
 _symmetry_equiv_pos_as_xyz
  1  'x, y, z'
loop_
 _atom_site_type_symbol
 _atom_site_label
 _atom_site_symmetry_multiplicity
 _atom_site_fract_x
 _atom_site_fract_y
 _atom_site_fract_z
 _atom_site_occupancy
  Nd  Nd0  1  0.306470  0.707327  0.750092  1
  Tm  Tm1  1  0.904934  0.087439  0.758131  1
  Tm  Tm2  1  0.085124  0.909063  0.253796  1
  Tm  Tm3  1  0.699929  0.278313  0.252430  1
  V  V4  1  0.621200  0.801970  0.264550  1
  Re  Re5  1  0.196623  0.377327  0.233482  1
  Re  Re6  1  0.380548  0.203536  0.732831  1
  Re  Re7  1  0.796624  0.620282  0.774175  1
  N  N8  1  0.651591  0.633532  0.062828  1
  N  N9  1  0.385027  0.877490  0.326489  1
  N  N10  1  0.358556  0.339735  0.434808  1
  N  N11  1  0.121338  0.626223  0.171167  1
  N  N12  1  0.996344  0.218770  0.340707  1
  N  N13  1  0.780548  0.997185  0.150443  1
  N  N14  1  0.214225  0.011244  0.849651  1
  N  N15  1  0.631722  0.127476  0.653121  1
  N  N16  1  0.348185  0.354896  0.941860  1
  N  N17  1  0.883537  0.377435  0.832298  1
  N  N18  1  0.647056  0.662523  0.560727  1
  N  N19  1  0.990418  0.788234  0.656417  1
