# generated using pymatgen
data_Ce2Pr(Co3P2)3
_symmetry_space_group_name_H-M   'P 1'
_cell_length_a   10.55273000
_cell_length_b   3.77150000
_cell_length_c   12.40091700
_cell_angle_alpha   90.00000000
_cell_angle_beta   90.00000000
_cell_angle_gamma   90.00000000
_symmetry_Int_Tables_number   1
_chemical_formula_structural   Ce2Pr(Co3P2)3
_chemical_formula_sum   'Ce4 Pr2 Co18 P12'
_cell_volume   493.55179907
_cell_formula_units_Z   2
loop_
 _symmetry_equiv_pos_site_id
 _symmetry_equiv_pos_as_xyz
  1  'x, y, z'
loop_
 _atom_site_type_symbol
 _atom_site_label
 _atom_site_symmetry_multiplicity
 _atom_site_fract_x
 _atom_site_fract_y
 _atom_site_fract_z
 _atom_site_occupancy
  Ce  Ce0  1  0.067561  0.749999  0.207381  1
  Ce  Ce1  1  0.432439  0.749999  0.207381  1
  Ce  Ce2  1  0.567561  0.250000  0.792619  1
  Ce  Ce3  1  0.932439  0.250000  0.792619  1
  Pr  Pr4  1  0.250000  0.749999  0.480304  1
  Pr  Pr5  1  0.750000  0.250000  0.519697  1
  Co  Co6  1  0.083387  0.250000  0.003774  1
  Co  Co7  1  0.416613  0.250000  0.003774  1
  Co  Co8  1  0.250000  0.749999  0.014437  1
  Co  Co9  1  0.750000  0.749999  0.157765  1
  Co  Co10  1  0.629834  0.250000  0.286068  1
  Co  Co11  1  0.870165  0.250000  0.286068  1
  Co  Co12  1  0.250000  0.250000  0.289896  1
  Co  Co13  1  0.547687  0.749999  0.427637  1
  Co  Co14  1  0.952312  0.749999  0.427637  1
  Co  Co15  1  0.047688  0.250000  0.572363  1
  Co  Co16  1  0.452312  0.250000  0.572363  1
  Co  Co17  1  0.750000  0.749999  0.710104  1
  Co  Co18  1  0.129834  0.749999  0.713931  1
  Co  Co19  1  0.370165  0.749999  0.713931  1
  Co  Co20  1  0.250000  0.250000  0.842234  1
  Co  Co21  1  0.750000  0.250000  0.985563  1
  Co  Co22  1  0.583386  0.749999  0.996226  1
  Co  Co23  1  0.916614  0.749999  0.996226  1
  P  P24  1  0.597732  0.250000  0.104220  1
  P  P25  1  0.902268  0.250000  0.104220  1
  P  P26  1  0.250000  0.250000  0.112340  1
  P  P27  1  0.750000  0.749999  0.338499  1
  P  P28  1  0.056212  0.250000  0.386006  1
  P  P29  1  0.443787  0.250000  0.386006  1
  P  P30  1  0.556213  0.749999  0.613994  1
  P  P31  1  0.943787  0.749999  0.613994  1
  P  P32  1  0.250000  0.250000  0.661501  1
  P  P33  1  0.750000  0.749999  0.887660  1
  P  P34  1  0.097732  0.749999  0.895780  1
  P  P35  1  0.402268  0.749999  0.895780  1
