# generated using pymatgen
data_TmCo4P3Rh
_symmetry_space_group_name_H-M   'P 1'
_cell_length_a   3.68810700
_cell_length_b   10.39056000
_cell_length_c   11.81700400
_cell_angle_alpha   90.00000000
_cell_angle_beta   90.00000000
_cell_angle_gamma   90.00000000
_symmetry_Int_Tables_number   1
_chemical_formula_structural   TmCo4P3Rh
_chemical_formula_sum   'Tm4 Co16 P12 Rh4'
_cell_volume   452.84528416
_cell_formula_units_Z   4
loop_
 _symmetry_equiv_pos_site_id
 _symmetry_equiv_pos_as_xyz
  1  'x, y, z'
loop_
 _atom_site_type_symbol
 _atom_site_label
 _atom_site_symmetry_multiplicity
 _atom_site_fract_x
 _atom_site_fract_y
 _atom_site_fract_z
 _atom_site_occupancy
  Tm  Tm0  1  0.250000  0.584232  0.704007  1
  Tm  Tm1  1  0.250000  0.915768  0.204007  1
  Tm  Tm2  1  0.750000  0.415768  0.295993  1
  Tm  Tm3  1  0.750000  0.084232  0.795993  1
  Co  Co4  1  0.250000  0.409179  0.486661  1
  Co  Co5  1  0.250000  0.090821  0.986661  1
  Co  Co6  1  0.750000  0.590821  0.513339  1
  Co  Co7  1  0.750000  0.909179  0.013339  1
  Co  Co8  1  0.250000  0.221752  0.176350  1
  Co  Co9  1  0.250000  0.278248  0.676350  1
  Co  Co10  1  0.750000  0.778248  0.823650  1
  Co  Co11  1  0.750000  0.721752  0.323650  1
  Co  Co12  1  0.250000  0.885341  0.702256  1
  Co  Co13  1  0.250000  0.614659  0.202256  1
  Co  Co14  1  0.750000  0.114659  0.297744  1
  Co  Co15  1  0.750000  0.385341  0.797744  1
  Co  Co16  1  0.250000  0.464689  0.929816  1
  Co  Co17  1  0.250000  0.035311  0.429816  1
  Co  Co18  1  0.750000  0.535311  0.070184  1
  Co  Co19  1  0.750000  0.964689  0.570184  1
  P  P20  1  0.250000  0.421580  0.113330  1
  P  P21  1  0.250000  0.078420  0.613330  1
  P  P22  1  0.750000  0.578420  0.886670  1
  P  P23  1  0.750000  0.921580  0.386670  1
  P  P24  1  0.250000  0.269903  0.865045  1
  P  P25  1  0.250000  0.230097  0.365045  1
  P  P26  1  0.750000  0.730097  0.134955  1
  P  P27  1  0.750000  0.769903  0.634955  1
  P  P28  1  0.250000  0.594547  0.389019  1
  P  P29  1  0.250000  0.905453  0.889019  1
  P  P30  1  0.750000  0.405453  0.610981  1
  P  P31  1  0.750000  0.094547  0.110981  1
  Rh  Rh32  1  0.250000  0.717479  0.991672  1
  Rh  Rh33  1  0.250000  0.782521  0.491672  1
  Rh  Rh34  1  0.750000  0.282521  0.008328  1
  Rh  Rh35  1  0.750000  0.217479  0.508328  1
