# generated using pymatgen
data_Zr8Pa2MnCoSb6
_symmetry_space_group_name_H-M   'P 1'
_cell_length_a   5.85313373
_cell_length_b   8.89724984
_cell_length_c   8.89721803
_cell_angle_alpha   122.25260286
_cell_angle_beta   90.09238520
_cell_angle_gamma   90.09206682
_symmetry_Int_Tables_number   1
_chemical_formula_structural   Zr8Pa2MnCoSb6
_chemical_formula_sum   'Zr8 Pa2 Mn1 Co1 Sb6'
_cell_volume   391.84492114
_cell_formula_units_Z   1
loop_
 _symmetry_equiv_pos_site_id
 _symmetry_equiv_pos_as_xyz
  1  'x, y, z'
loop_
 _atom_site_type_symbol
 _atom_site_label
 _atom_site_symmetry_multiplicity
 _atom_site_fract_x
 _atom_site_fract_y
 _atom_site_fract_z
 _atom_site_occupancy
  Zr  Zr0  1  0.752222  0.992806  0.258336  1
  Zr  Zr1  1  0.247736  0.007119  0.741581  1
  Zr  Zr2  1  0.752219  0.258338  0.992806  1
  Zr  Zr3  1  0.247744  0.741580  0.007116  1
  Zr  Zr4  1  0.999994  0.663782  0.336077  1
  Zr  Zr5  1  0.999997  0.336080  0.663785  1
  Zr  Zr6  1  0.499979  0.337329  0.662561  1
  Zr  Zr7  1  0.499977  0.662562  0.337327  1
  Pa  Pa8  1  0.753428  0.777031  0.777030  1
  Pa  Pa9  1  0.246523  0.222979  0.222980  1
  Mn  Mn10  1  0.000481  0.000439  0.000441  1
  Co  Co11  1  0.499754  0.000189  0.000191  1
  Sb  Sb12  1  0.750482  0.389019  0.389020  1
  Sb  Sb13  1  0.249509  0.610805  0.610806  1
  Sb  Sb14  1  0.750087  0.004779  0.604307  1
  Sb  Sb15  1  0.249887  0.995255  0.395601  1
  Sb  Sb16  1  0.750096  0.604305  0.004777  1
  Sb  Sb17  1  0.249884  0.395603  0.995256  1
