# generated using pymatgen
data_Ho16Cd3HgIr3Pd
_symmetry_space_group_name_H-M   'P 1'
_cell_length_a   9.59230017
_cell_length_b   9.59230040
_cell_length_c   9.59229937
_cell_angle_alpha   60.22980484
_cell_angle_beta   60.22981165
_cell_angle_gamma   60.22980377
_symmetry_Int_Tables_number   1
_chemical_formula_structural   Ho16Cd3HgIr3Pd
_chemical_formula_sum   'Ho16 Cd3 Hg1 Ir3 Pd1'
_cell_volume   627.34566458
_cell_formula_units_Z   1
loop_
 _symmetry_equiv_pos_site_id
 _symmetry_equiv_pos_as_xyz
  1  'x, y, z'
loop_
 _atom_site_type_symbol
 _atom_site_label
 _atom_site_symmetry_multiplicity
 _atom_site_fract_x
 _atom_site_fract_y
 _atom_site_fract_z
 _atom_site_occupancy
  Ho  Ho0  1  0.597364  0.597364  0.597364  1
  Ho  Ho1  1  0.604880  0.604880  0.194947  1
  Ho  Ho2  1  0.604880  0.194947  0.604880  1
  Ho  Ho3  1  0.194947  0.604880  0.604880  1
  Ho  Ho4  1  0.054709  0.440338  0.440338  1
  Ho  Ho5  1  0.438406  0.060019  0.060019  1
  Ho  Ho6  1  0.440338  0.054709  0.440338  1
  Ho  Ho7  1  0.060019  0.438406  0.060019  1
  Ho  Ho8  1  0.440338  0.440338  0.054709  1
  Ho  Ho9  1  0.060019  0.060019  0.438406  1
  Ho  Ho10  1  0.187827  0.812856  0.812856  1
  Ho  Ho11  1  0.814348  0.187132  0.187132  1
  Ho  Ho12  1  0.812856  0.187827  0.812856  1
  Ho  Ho13  1  0.187132  0.814348  0.187132  1
  Ho  Ho14  1  0.812856  0.812856  0.187827  1
  Ho  Ho15  1  0.187132  0.187132  0.814348  1
  Cd  Cd16  1  0.830573  0.830573  0.505823  1
  Cd  Cd17  1  0.830573  0.505823  0.830573  1
  Cd  Cd18  1  0.505823  0.830573  0.830573  1
  Hg  Hg19  1  0.834409  0.834409  0.834409  1
  Ir  Ir20  1  0.391627  0.391627  0.823634  1
  Ir  Ir21  1  0.391627  0.823634  0.391627  1
  Ir  Ir22  1  0.823634  0.391627  0.391627  1
  Pd  Pd23  1  0.393684  0.393684  0.393684  1
