# generated using pymatgen
data_Y2ErGa5
_symmetry_space_group_name_H-M   'P 1'
_cell_length_a   6.10680300
_cell_length_b   9.62517800
_cell_length_c   11.58369300
_cell_angle_alpha   90.00000000
_cell_angle_beta   90.00000000
_cell_angle_gamma   90.00000000
_symmetry_Int_Tables_number   1
_chemical_formula_structural   Y2ErGa5
_chemical_formula_sum   'Y8 Er4 Ga20'
_cell_volume   680.87865405
_cell_formula_units_Z   4
loop_
 _symmetry_equiv_pos_site_id
 _symmetry_equiv_pos_as_xyz
  1  'x, y, z'
loop_
 _atom_site_type_symbol
 _atom_site_label
 _atom_site_symmetry_multiplicity
 _atom_site_fract_x
 _atom_site_fract_y
 _atom_site_fract_z
 _atom_site_occupancy
  Y  Y0  1  0.890776  0.510318  0.351419  1
  Y  Y1  1  0.609224  0.989682  0.851419  1
  Y  Y2  1  0.109224  0.010318  0.648581  1
  Y  Y3  1  0.390776  0.489682  0.148581  1
  Y  Y4  1  0.109224  0.489682  0.648581  1
  Y  Y5  1  0.390776  0.010318  0.148581  1
  Y  Y6  1  0.890776  0.989682  0.351419  1
  Y  Y7  1  0.609224  0.510318  0.851419  1
  Er  Er8  1  0.849310  0.750000  0.075143  1
  Er  Er9  1  0.650690  0.750000  0.575143  1
  Er  Er10  1  0.150690  0.250000  0.924857  1
  Er  Er11  1  0.349310  0.250000  0.424857  1
  Ga  Ga12  1  0.875736  0.053419  0.089773  1
  Ga  Ga13  1  0.624264  0.446581  0.589773  1
  Ga  Ga14  1  0.124264  0.553419  0.910227  1
  Ga  Ga15  1  0.375736  0.946581  0.410227  1
  Ga  Ga16  1  0.124264  0.946581  0.910227  1
  Ga  Ga17  1  0.375736  0.553419  0.410227  1
  Ga  Ga18  1  0.875736  0.446581  0.089773  1
  Ga  Ga19  1  0.624264  0.053419  0.589773  1
  Ga  Ga20  1  0.172070  0.750000  0.251545  1
  Ga  Ga21  1  0.327930  0.750000  0.751545  1
  Ga  Ga22  1  0.827930  0.250000  0.748455  1
  Ga  Ga23  1  0.672070  0.250000  0.248455  1
  Ga  Ga24  1  0.373160  0.750000  0.004438  1
  Ga  Ga25  1  0.126840  0.750000  0.504438  1
  Ga  Ga26  1  0.626840  0.250000  0.995562  1
  Ga  Ga27  1  0.873160  0.250000  0.495562  1
  Ga  Ga28  1  0.600881  0.750000  0.299125  1
  Ga  Ga29  1  0.899119  0.750000  0.799125  1
  Ga  Ga30  1  0.399119  0.250000  0.700875  1
  Ga  Ga31  1  0.100881  0.250000  0.200875  1
