# generated using pymatgen
data_LuBiRh2O7
_symmetry_space_group_name_H-M   'P 1'
_cell_length_a   7.22419558
_cell_length_b   7.22419559
_cell_length_c   7.16974500
_cell_angle_alpha   60.24902324
_cell_angle_beta   60.24902319
_cell_angle_gamma   60.43526791
_symmetry_Int_Tables_number   1
_chemical_formula_structural   LuBiRh2O7
_chemical_formula_sum   'Lu2 Bi2 Rh4 O14'
_cell_volume   266.44722254
_cell_formula_units_Z   2
loop_
 _symmetry_equiv_pos_site_id
 _symmetry_equiv_pos_as_xyz
  1  'x, y, z'
loop_
 _atom_site_type_symbol
 _atom_site_label
 _atom_site_symmetry_multiplicity
 _atom_site_fract_x
 _atom_site_fract_y
 _atom_site_fract_z
 _atom_site_occupancy
  Lu  Lu0  1  0.125000  0.125000  0.125000  1
  Lu  Lu1  1  0.125000  0.125000  0.625000  1
  Bi  Bi2  1  0.125000  0.625000  0.125000  1
  Bi  Bi3  1  0.625000  0.125000  0.125000  1
  Rh  Rh4  1  0.625000  0.625000  0.625000  1
  Rh  Rh5  1  0.625000  0.625000  0.125000  1
  Rh  Rh6  1  0.125000  0.625000  0.625000  1
  Rh  Rh7  1  0.625000  0.125000  0.625000  1
  O  O8  1  0.241249  0.241249  0.258751  1
  O  O9  1  0.286700  0.720054  0.286852  1
  O  O10  1  0.964298  0.964298  0.535702  1
  O  O11  1  0.529946  0.963300  0.543605  1
  O  O12  1  0.708737  0.708737  0.291263  1
  O  O13  1  0.963300  0.529946  0.543605  1
  O  O14  1  0.720054  0.286700  0.706395  1
  O  O15  1  0.285702  0.285702  0.714298  1
  O  O16  1  0.720054  0.286700  0.286852  1
  O  O17  1  0.286700  0.720054  0.706395  1
  O  O18  1  0.963300  0.529946  0.963148  1
  O  O19  1  0.541263  0.541263  0.958737  1
  O  O20  1  0.008751  0.008751  0.991249  1
  O  O21  1  0.529946  0.963300  0.963148  1
