# generated using pymatgen
data_HoEr2Tm7In8
_symmetry_space_group_name_H-M   'P 1'
_cell_length_a   9.19068223
_cell_length_b   9.19955593
_cell_length_c   6.59354300
_cell_angle_alpha   90.00000000
_cell_angle_beta   90.00000000
_cell_angle_gamma   119.93661126
_symmetry_Int_Tables_number   1
_chemical_formula_structural   HoEr2Tm7In8
_chemical_formula_sum   'Ho1 Er2 Tm7 In8'
_cell_volume   483.10456303
_cell_formula_units_Z   1
loop_
 _symmetry_equiv_pos_site_id
 _symmetry_equiv_pos_as_xyz
  1  'x, y, z'
loop_
 _atom_site_type_symbol
 _atom_site_label
 _atom_site_symmetry_multiplicity
 _atom_site_fract_x
 _atom_site_fract_y
 _atom_site_fract_z
 _atom_site_occupancy
  Ho  Ho0  1  0.709997  0.000055  0.250000  1
  Er  Er1  1  0.290198  0.000138  0.750000  1
  Er  Er2  1  0.000101  0.289801  0.750000  1
  Tm  Tm3  1  0.333238  0.666262  0.499981  1
  Tm  Tm4  1  0.666660  0.333953  0.499982  1
  Tm  Tm5  1  0.666660  0.333953  0.000018  1
  Tm  Tm6  1  0.333238  0.666262  0.000019  1
  Tm  Tm7  1  0.999811  0.709781  0.250000  1
  Tm  Tm8  1  0.710097  0.710157  0.750000  1
  Tm  Tm9  1  0.289742  0.290002  0.250000  1
  In  In10  1  0.000119  0.999784  0.499919  1
  In  In11  1  0.000119  0.999784  0.000081  1
  In  In12  1  0.627722  0.999615  0.750000  1
  In  In13  1  0.371685  0.000036  0.250000  1
  In  In14  1  0.999577  0.627647  0.750000  1
  In  In15  1  0.000600  0.372871  0.250000  1
  In  In16  1  0.372777  0.372811  0.750000  1
  In  In17  1  0.627660  0.627085  0.250000  1
