# generated using pymatgen
data_Ba2Li3TiAs4
_symmetry_space_group_name_H-M   'P 1'
_cell_length_a   6.91309240
_cell_length_b   6.91309282
_cell_length_c   6.18606100
_cell_angle_alpha   90.00000000
_cell_angle_beta   90.00000000
_cell_angle_gamma   126.99786899
_symmetry_Int_Tables_number   1
_chemical_formula_structural   Ba2Li3TiAs4
_chemical_formula_sum   'Ba2 Li3 Ti1 As4'
_cell_volume   236.11291139
_cell_formula_units_Z   1
loop_
 _symmetry_equiv_pos_site_id
 _symmetry_equiv_pos_as_xyz
  1  'x, y, z'
loop_
 _atom_site_type_symbol
 _atom_site_label
 _atom_site_symmetry_multiplicity
 _atom_site_fract_x
 _atom_site_fract_y
 _atom_site_fract_z
 _atom_site_occupancy
  Ba  Ba0  1  0.500000  0.000000  0.260228  1
  Ba  Ba1  1  0.000000  0.500000  0.739772  1
  Li  Li2  1  0.500000  0.500000  0.500000  1
  Li  Li3  1  0.500000  0.500000  0.000000  1
  Li  Li4  1  0.000000  0.000000  0.500000  1
  Ti  Ti5  1  0.000000  0.000000  0.000000  1
  As  As6  1  0.651574  0.874054  0.763284  1
  As  As7  1  0.125946  0.348426  0.236716  1
  As  As8  1  0.874054  0.651574  0.236716  1
  As  As9  1  0.348426  0.125946  0.763284  1
