# generated using pymatgen
data_Dy12CuSi8Ni3
_symmetry_space_group_name_H-M   'P 1'
_cell_length_a   4.14042100
_cell_length_b   11.27405604
_cell_length_c   11.27995405
_cell_angle_alpha   89.98967595
_cell_angle_beta   90.00000000
_cell_angle_gamma   90.00000000
_symmetry_Int_Tables_number   1
_chemical_formula_structural   Dy12CuSi8Ni3
_chemical_formula_sum   'Dy12 Cu1 Si8 Ni3'
_cell_volume   526.54078357
_cell_formula_units_Z   1
loop_
 _symmetry_equiv_pos_site_id
 _symmetry_equiv_pos_as_xyz
  1  'x, y, z'
loop_
 _atom_site_type_symbol
 _atom_site_label
 _atom_site_symmetry_multiplicity
 _atom_site_fract_x
 _atom_site_fract_y
 _atom_site_fract_z
 _atom_site_occupancy
  Dy  Dy0  1  0.250000  0.060412  0.881881  1
  Dy  Dy1  1  0.250000  0.442444  0.378833  1
  Dy  Dy2  1  0.750000  0.940598  0.116903  1
  Dy  Dy3  1  0.750000  0.563501  0.617176  1
  Dy  Dy4  1  0.250000  0.119805  0.558501  1
  Dy  Dy5  1  0.250000  0.375798  0.059347  1
  Dy  Dy6  1  0.750000  0.874315  0.440615  1
  Dy  Dy7  1  0.750000  0.624930  0.940645  1
  Dy  Dy8  1  0.250000  0.805120  0.714164  1
  Dy  Dy9  1  0.250000  0.696313  0.213444  1
  Dy  Dy10  1  0.750000  0.194284  0.286674  1
  Dy  Dy11  1  0.750000  0.303801  0.790562  1
  Cu  Cu12  1  0.250000  0.364297  0.630543  1
  Si  Si13  1  0.250000  0.813532  0.974568  1
  Si  Si14  1  0.250000  0.686007  0.475331  1
  Si  Si15  1  0.750000  0.187333  0.026103  1
  Si  Si16  1  0.750000  0.312035  0.523965  1
  Si  Si17  1  0.250000  0.496220  0.804724  1
  Si  Si18  1  0.250000  0.005229  0.303628  1
  Si  Si19  1  0.750000  0.506663  0.195276  1
  Si  Si20  1  0.750000  0.993712  0.696998  1
  Ni  Ni21  1  0.250000  0.133993  0.129336  1
  Ni  Ni22  1  0.750000  0.633892  0.370092  1
  Ni  Ni23  1  0.750000  0.865767  0.870691  1
