# generated using pymatgen
data_Cs4Al4Si3GeSe16
_symmetry_space_group_name_H-M   'P 1'
_cell_length_a   17.16608565
_cell_length_b   7.31702252
_cell_length_c   8.27758951
_cell_angle_alpha   70.57987774
_cell_angle_beta   90.21929417
_cell_angle_gamma   89.74887280
_symmetry_Int_Tables_number   1
_chemical_formula_structural   Cs4Al4Si3GeSe16
_chemical_formula_sum   'Cs4 Al4 Si3 Ge1 Se16'
_cell_volume   980.52584274
_cell_formula_units_Z   1
loop_
 _symmetry_equiv_pos_site_id
 _symmetry_equiv_pos_as_xyz
  1  'x, y, z'
loop_
 _atom_site_type_symbol
 _atom_site_label
 _atom_site_symmetry_multiplicity
 _atom_site_fract_x
 _atom_site_fract_y
 _atom_site_fract_z
 _atom_site_occupancy
  Cs  Cs0  1  0.396872  0.943209  0.178937  1
  Cs  Cs1  1  0.892270  0.055289  0.820471  1
  Cs  Cs2  1  0.603398  0.532623  0.830681  1
  Cs  Cs3  1  0.103503  0.474238  0.168283  1
  Al  Al4  1  0.584278  0.171182  0.479690  1
  Al  Al5  1  0.081955  0.827828  0.520565  1
  Al  Al6  1  0.272285  0.581481  0.696421  1
  Al  Al7  1  0.770832  0.417170  0.306839  1
  Si  Si8  1  0.421997  0.316206  0.535607  1
  Si  Si9  1  0.920493  0.683367  0.460574  1
  Si  Si10  1  0.726409  0.919578  0.286949  1
  Ge  Ge11  1  0.226968  0.081137  0.713045  1
  Se  Se12  1  0.601056  0.892900  0.387169  1
  Se  Se13  1  0.095732  0.107985  0.611044  1
  Se  Se14  1  0.408719  0.582325  0.620957  1
  Se  Se15  1  0.907976  0.414858  0.377713  1
  Se  Se16  1  0.802828  0.794632  0.532951  1
  Se  Se17  1  0.305918  0.206660  0.457752  1
  Se  Se18  1  0.199779  0.712879  0.439077  1
  Se  Se19  1  0.700003  0.289262  0.564927  1
  Se  Se20  1  0.761795  0.225498  0.115551  1
  Se  Se21  1  0.266438  0.765231  0.892444  1
  Se  Se22  1  0.236637  0.269223  0.897690  1
  Se  Se23  1  0.735840  0.737121  0.109505  1
  Se  Se24  1  0.996254  0.912359  0.269328  1
  Se  Se25  1  0.497919  0.083891  0.727523  1
  Se  Se26  1  0.989928  0.606442  0.713215  1
  Se  Se27  1  0.491917  0.395425  0.285092  1
