# generated using pymatgen
data_Ac5SnIrO12
_symmetry_space_group_name_H-M   'P 1'
_cell_length_a   7.35904366
_cell_length_b   7.35904409
_cell_length_c   7.88251400
_cell_angle_alpha   74.52758997
_cell_angle_beta   74.52759714
_cell_angle_gamma   51.16830797
_symmetry_Int_Tables_number   1
_chemical_formula_structural   Ac5SnIrO12
_chemical_formula_sum   'Ac5 Sn1 Ir1 O12'
_cell_volume   317.65867870
_cell_formula_units_Z   1
loop_
 _symmetry_equiv_pos_site_id
 _symmetry_equiv_pos_as_xyz
  1  'x, y, z'
loop_
 _atom_site_type_symbol
 _atom_site_label
 _atom_site_symmetry_multiplicity
 _atom_site_fract_x
 _atom_site_fract_y
 _atom_site_fract_z
 _atom_site_occupancy
  Ac  Ac0  1  0.307099  0.308110  0.357581  1
  Ac  Ac1  1  0.691890  0.692901  0.642419  1
  Ac  Ac2  1  0.689427  0.697492  0.166604  1
  Ac  Ac3  1  0.302508  0.310573  0.833396  1
  Ac  Ac4  1  0.004417  0.995583  0.500000  1
  Sn  Sn5  1  0.763118  0.236882  0.000000  1
  Ir  Ir6  1  0.249382  0.750618  0.000000  1
  O  O7  1  0.093798  0.598643  0.575948  1
  O  O8  1  0.013683  0.984745  0.171987  1
  O  O9  1  0.401357  0.906202  0.424052  1
  O  O10  1  0.494141  0.507515  0.170297  1
  O  O11  1  0.104259  0.590409  0.076476  1
  O  O12  1  0.904352  0.404090  0.421244  1
  O  O13  1  0.015255  0.986317  0.828013  1
  O  O14  1  0.595910  0.095647  0.578756  1
  O  O15  1  0.492485  0.505859  0.829703  1
  O  O16  1  0.571553  0.104224  0.078456  1
  O  O17  1  0.409591  0.895741  0.923524  1
  O  O18  1  0.895776  0.428447  0.921544  1
