# generated using pymatgen
data_Tb6Dy10MgCd3(PdPt)2
_symmetry_space_group_name_H-M   'P 1'
_cell_length_a   9.71308560
_cell_length_b   9.71308541
_cell_length_c   9.71308600
_cell_angle_alpha   60.05710856
_cell_angle_beta   60.05711601
_cell_angle_gamma   60.05711482
_symmetry_Int_Tables_number   1
_chemical_formula_structural   Tb6Dy10MgCd3(PdPt)2
_chemical_formula_sum   'Tb6 Dy10 Mg1 Cd3 Pd2 Pt2'
_cell_volume   648.81138191
_cell_formula_units_Z   1
loop_
 _symmetry_equiv_pos_site_id
 _symmetry_equiv_pos_as_xyz
  1  'x, y, z'
loop_
 _atom_site_type_symbol
 _atom_site_label
 _atom_site_symmetry_multiplicity
 _atom_site_fract_x
 _atom_site_fract_y
 _atom_site_fract_z
 _atom_site_occupancy
  Tb  Tb0  1  0.935138  0.567025  0.565954  1
  Tb  Tb1  1  0.564414  0.936575  0.936336  1
  Tb  Tb2  1  0.567025  0.935138  0.565954  1
  Tb  Tb3  1  0.936575  0.564414  0.936336  1
  Tb  Tb4  1  0.566211  0.566211  0.935169  1
  Tb  Tb5  1  0.935835  0.935835  0.564100  1
  Dy  Dy6  1  0.350427  0.350427  0.348307  1
  Dy  Dy7  1  0.354019  0.354019  0.942870  1
  Dy  Dy8  1  0.355174  0.941711  0.353384  1
  Dy  Dy9  1  0.941711  0.355174  0.353384  1
  Dy  Dy10  1  0.808368  0.191624  0.191328  1
  Dy  Dy11  1  0.188692  0.810802  0.813122  1
  Dy  Dy12  1  0.191624  0.808368  0.191328  1
  Dy  Dy13  1  0.810802  0.188692  0.813122  1
  Dy  Dy14  1  0.191710  0.191710  0.809470  1
  Dy  Dy15  1  0.811952  0.811952  0.188869  1
  Mg  Mg16  1  0.575967  0.575967  0.576041  1
  Cd  Cd17  1  0.581079  0.581079  0.253713  1
  Cd  Cd18  1  0.580758  0.254080  0.581226  1
  Cd  Cd19  1  0.254080  0.580758  0.581226  1
  Pd  Pd20  1  0.144451  0.144451  0.144856  1
  Pd  Pd21  1  0.142031  0.142031  0.569848  1
  Pt  Pt22  1  0.141602  0.570353  0.142026  1
  Pt  Pt23  1  0.570353  0.141602  0.142026  1
