# generated using pymatgen
data_K(Sb3Pd)4
_symmetry_space_group_name_H-M   'P 1'
_cell_length_a   8.34239797
_cell_length_b   8.34239909
_cell_length_c   8.34239900
_cell_angle_alpha   109.47122285
_cell_angle_beta   109.47122555
_cell_angle_gamma   109.47121988
_symmetry_Int_Tables_number   1
_chemical_formula_structural   K(Sb3Pd)4
_chemical_formula_sum   'K1 Sb12 Pd4'
_cell_volume   446.94172245
_cell_formula_units_Z   1
loop_
 _symmetry_equiv_pos_site_id
 _symmetry_equiv_pos_as_xyz
  1  'x, y, z'
loop_
 _atom_site_type_symbol
 _atom_site_label
 _atom_site_symmetry_multiplicity
 _atom_site_fract_x
 _atom_site_fract_y
 _atom_site_fract_z
 _atom_site_occupancy
  K  K0  1  0.000000  0.000000  0.000000  1
  Sb  Sb1  1  0.843381  0.651298  0.494679  1
  Sb  Sb2  1  0.156619  0.348702  0.505321  1
  Sb  Sb3  1  0.156619  0.651298  0.807919  1
  Sb  Sb4  1  0.843381  0.348702  0.192081  1
  Sb  Sb5  1  0.651298  0.494679  0.843381  1
  Sb  Sb6  1  0.348702  0.505321  0.156619  1
  Sb  Sb7  1  0.651298  0.807919  0.156619  1
  Sb  Sb8  1  0.348702  0.192081  0.843381  1
  Sb  Sb9  1  0.494679  0.843381  0.651298  1
  Sb  Sb10  1  0.505321  0.156619  0.348702  1
  Sb  Sb11  1  0.192081  0.843381  0.348702  1
  Sb  Sb12  1  0.807919  0.156619  0.651298  1
  Pd  Pd13  1  0.500000  0.500000  0.500000  1
  Pd  Pd14  1  0.500000  0.000000  0.000000  1
  Pd  Pd15  1  0.000000  0.500000  0.000000  1
  Pd  Pd16  1  0.000000  0.000000  0.500000  1
