# generated using pymatgen
data_CeIn2Br5
_symmetry_space_group_name_H-M   'P 1'
_cell_length_a   8.68057200
_cell_length_b   9.25971800
_cell_length_c   13.63115500
_cell_angle_alpha   90.00000000
_cell_angle_beta   90.00000000
_cell_angle_gamma   90.00000000
_symmetry_Int_Tables_number   1
_chemical_formula_structural   CeIn2Br5
_chemical_formula_sum   'Ce4 In8 Br20'
_cell_volume   1095.66745162
_cell_formula_units_Z   4
loop_
 _symmetry_equiv_pos_site_id
 _symmetry_equiv_pos_as_xyz
  1  'x, y, z'
loop_
 _atom_site_type_symbol
 _atom_site_label
 _atom_site_symmetry_multiplicity
 _atom_site_fract_x
 _atom_site_fract_y
 _atom_site_fract_z
 _atom_site_occupancy
  Ce  Ce0  1  0.923806  0.750000  0.505222  1
  Ce  Ce1  1  0.076194  0.250000  0.494778  1
  Ce  Ce2  1  0.423806  0.250000  0.994778  1
  Ce  Ce3  1  0.576194  0.750000  0.005222  1
  In  In4  1  0.953566  0.003638  0.826553  1
  In  In5  1  0.046434  0.996362  0.173447  1
  In  In6  1  0.453566  0.996362  0.673447  1
  In  In7  1  0.046434  0.503638  0.173447  1
  In  In8  1  0.546434  0.003638  0.326553  1
  In  In9  1  0.953566  0.496362  0.826553  1
  In  In10  1  0.546434  0.496362  0.326553  1
  In  In11  1  0.453566  0.503638  0.673447  1
  Br  Br12  1  0.119127  0.750000  0.683333  1
  Br  Br13  1  0.880873  0.250000  0.316667  1
  Br  Br14  1  0.619127  0.250000  0.816667  1
  Br  Br15  1  0.380873  0.750000  0.183333  1
  Br  Br16  1  0.834525  0.044877  0.577589  1
  Br  Br17  1  0.165475  0.955123  0.422411  1
  Br  Br18  1  0.334525  0.955123  0.922411  1
  Br  Br19  1  0.165475  0.544877  0.422411  1
  Br  Br20  1  0.665475  0.044877  0.077589  1
  Br  Br21  1  0.834525  0.455123  0.577589  1
  Br  Br22  1  0.665475  0.455123  0.077589  1
  Br  Br23  1  0.334525  0.544877  0.922411  1
  Br  Br24  1  0.577411  0.750000  0.507110  1
  Br  Br25  1  0.422589  0.250000  0.492890  1
  Br  Br26  1  0.077411  0.250000  0.992890  1
  Br  Br27  1  0.922589  0.750000  0.007110  1
  Br  Br28  1  0.662566  0.750000  0.794322  1
  Br  Br29  1  0.337434  0.250000  0.205678  1
  Br  Br30  1  0.162566  0.250000  0.705678  1
  Br  Br31  1  0.837434  0.750000  0.294322  1
