# generated using pymatgen
data_Ca4La16Si15As
_symmetry_space_group_name_H-M   'P 1'
_cell_length_a   8.03302025
_cell_length_b   8.02855589
_cell_length_c   15.74130500
_cell_angle_alpha   89.93766267
_cell_angle_beta   89.72245067
_cell_angle_gamma   89.98915041
_symmetry_Int_Tables_number   1
_chemical_formula_structural   Ca4La16Si15As
_chemical_formula_sum   'Ca4 La16 Si15 As1'
_cell_volume   1015.20014359
_cell_formula_units_Z   1
loop_
 _symmetry_equiv_pos_site_id
 _symmetry_equiv_pos_as_xyz
  1  'x, y, z'
loop_
 _atom_site_type_symbol
 _atom_site_label
 _atom_site_symmetry_multiplicity
 _atom_site_fract_x
 _atom_site_fract_y
 _atom_site_fract_z
 _atom_site_occupancy
  Ca  Ca0  1  0.309796  0.309098  0.000693  1
  Ca  Ca1  1  0.190622  0.808452  0.249916  1
  Ca  Ca2  1  0.805318  0.191220  0.750405  1
  Ca  Ca3  1  0.689745  0.691551  0.499179  1
  La  La4  1  0.383058  0.011006  0.443788  1
  La  La5  1  0.489945  0.880130  0.695776  1
  La  La6  1  0.512174  0.118382  0.195162  1
  La  La7  1  0.880995  0.487480  0.304166  1
  La  La8  1  0.119277  0.512976  0.805813  1
  La  La9  1  0.619094  0.987702  0.945145  1
  La  La10  1  0.008562  0.382637  0.552868  1
  La  La11  1  0.987302  0.617460  0.054786  1
  La  La12  1  0.126918  0.978250  0.877100  1
  La  La13  1  0.522846  0.624291  0.127144  1
  La  La14  1  0.476857  0.376819  0.628187  1
  La  La15  1  0.623527  0.523444  0.872464  1
  La  La16  1  0.375920  0.475719  0.372870  1
  La  La17  1  0.875843  0.023332  0.377351  1
  La  La18  1  0.976414  0.124430  0.122761  1
  La  La19  1  0.023183  0.874290  0.622077  1
  Si  Si20  1  0.327868  0.695731  0.958553  1
  Si  Si21  1  0.670938  0.305060  0.459362  1
  Si  Si22  1  0.695993  0.329743  0.041516  1
  Si  Si23  1  0.304359  0.670501  0.541521  1
  Si  Si24  1  0.805519  0.828267  0.208581  1
  Si  Si25  1  0.170650  0.194905  0.291245  1
  Si  Si26  1  0.831180  0.805091  0.791354  1
  Si  Si27  1  0.287229  0.917449  0.061346  1
  Si  Si28  1  0.582898  0.787424  0.311169  1
  Si  Si29  1  0.425345  0.211048  0.814572  1
  Si  Si30  1  0.788853  0.583123  0.688416  1
  Si  Si31  1  0.212956  0.417112  0.188838  1
  Si  Si32  1  0.709796  0.082122  0.562077  1
  Si  Si33  1  0.918498  0.287897  0.938381  1
  Si  Si34  1  0.082304  0.711258  0.438729  1
  As  As35  1  0.188217  0.174602  0.706690  1
