# generated using pymatgen
data_Sr6Sn8HgBi
_symmetry_space_group_name_H-M   'P 1'
_cell_length_a   9.04217714
_cell_length_b   9.04217184
_cell_length_c   9.04209121
_cell_angle_alpha   120.21611837
_cell_angle_beta   120.22589803
_cell_angle_gamma   89.61815039
_symmetry_Int_Tables_number   1
_chemical_formula_structural   Sr6Sn8HgBi
_chemical_formula_sum   'Sr6 Sn8 Hg1 Bi1'
_cell_volume   520.99552410
_cell_formula_units_Z   1
loop_
 _symmetry_equiv_pos_site_id
 _symmetry_equiv_pos_as_xyz
  1  'x, y, z'
loop_
 _atom_site_type_symbol
 _atom_site_label
 _atom_site_symmetry_multiplicity
 _atom_site_fract_x
 _atom_site_fract_y
 _atom_site_fract_z
 _atom_site_occupancy
  Sr  Sr0  1  0.251734  0.251733  0.000000  1
  Sr  Sr1  1  0.748266  0.748267  0.000000  1
  Sr  Sr2  1  0.162580  0.657828  0.820409  1
  Sr  Sr3  1  0.837420  0.342172  0.179591  1
  Sr  Sr4  1  0.657844  0.837432  0.495276  1
  Sr  Sr5  1  0.342156  0.162568  0.504724  1
  Sn  Sn6  1  0.836619  0.329686  0.788346  1
  Sn  Sn7  1  0.163381  0.670314  0.211654  1
  Sn  Sn8  1  0.541340  0.048273  0.211654  1
  Sn  Sn9  1  0.329589  0.541245  0.493017  1
  Sn  Sn10  1  0.951772  0.163428  0.493018  1
  Sn  Sn11  1  0.458660  0.951727  0.788346  1
  Sn  Sn12  1  0.670411  0.458755  0.506983  1
  Sn  Sn13  1  0.048228  0.836572  0.506982  1
  Hg  Hg14  1  0.000000  0.000000  0.000000  1
  Bi  Bi15  1  0.500000  0.500000  0.000000  1
