# generated using pymatgen
data_Sm2Ho3(CoO6)2
_symmetry_space_group_name_H-M   'P 1'
_cell_length_a   6.78448799
_cell_length_b   6.78448810
_cell_length_c   7.25009521
_cell_angle_alpha   74.86530825
_cell_angle_beta   74.86530637
_cell_angle_gamma   50.38747111
_symmetry_Int_Tables_number   1
_chemical_formula_structural   Sm2Ho3(CoO6)2
_chemical_formula_sum   'Sm2 Ho3 Co2 O12'
_cell_volume   246.15239983
_cell_formula_units_Z   1
loop_
 _symmetry_equiv_pos_site_id
 _symmetry_equiv_pos_as_xyz
  1  'x, y, z'
loop_
 _atom_site_type_symbol
 _atom_site_label
 _atom_site_symmetry_multiplicity
 _atom_site_fract_x
 _atom_site_fract_y
 _atom_site_fract_z
 _atom_site_occupancy
  Sm  Sm0  1  0.306662  0.306662  0.355874  1
  Sm  Sm1  1  0.999504  0.999504  0.501307  1
  Ho  Ho2  1  0.692843  0.692843  0.647080  1
  Ho  Ho3  1  0.306738  0.306738  0.838102  1
  Ho  Ho4  1  0.693354  0.693354  0.162194  1
  Co  Co5  1  0.756494  0.244921  0.998369  1
  Co  Co6  1  0.244921  0.756494  0.998369  1
  O  O7  1  0.900540  0.416787  0.922073  1
  O  O8  1  0.416787  0.900540  0.922073  1
  O  O9  1  0.097397  0.586345  0.072456  1
  O  O10  1  0.586345  0.097397  0.072456  1
  O  O11  1  0.092358  0.594376  0.586145  1
  O  O12  1  0.594376  0.092358  0.586145  1
  O  O13  1  0.896916  0.410647  0.421893  1
  O  O14  1  0.410647  0.896916  0.421893  1
  O  O15  1  0.002153  0.002153  0.830035  1
  O  O16  1  0.999384  0.999384  0.167930  1
  O  O17  1  0.500152  0.500152  0.824754  1
  O  O18  1  0.502429  0.502429  0.170852  1
