# generated using pymatgen
data_Er2GaB2Ir2Ru3
_symmetry_space_group_name_H-M   'P 1'
_cell_length_a   9.63368600
_cell_length_b   9.59760800
_cell_length_c   3.07274700
_cell_angle_alpha   90.00000000
_cell_angle_beta   90.00000000
_cell_angle_gamma   90.00000000
_symmetry_Int_Tables_number   1
_chemical_formula_structural   Er2GaB2Ir2Ru3
_chemical_formula_sum   'Er4 Ga2 B4 Ir4 Ru6'
_cell_volume   284.10723796
_cell_formula_units_Z   2
loop_
 _symmetry_equiv_pos_site_id
 _symmetry_equiv_pos_as_xyz
  1  'x, y, z'
loop_
 _atom_site_type_symbol
 _atom_site_label
 _atom_site_symmetry_multiplicity
 _atom_site_fract_x
 _atom_site_fract_y
 _atom_site_fract_z
 _atom_site_occupancy
  Er  Er0  1  0.825405  0.324996  0.000000  1
  Er  Er1  1  0.174595  0.675004  0.000000  1
  Er  Er2  1  0.325405  0.175004  0.000000  1
  Er  Er3  1  0.674595  0.824996  0.000000  1
  Ga  Ga4  1  0.500000  0.500000  0.000000  1
  Ga  Ga5  1  0.000000  0.000000  0.000000  1
  B  B6  1  0.624280  0.119787  0.000000  1
  B  B7  1  0.375720  0.880213  0.000000  1
  B  B8  1  0.124280  0.380213  0.000000  1
  B  B9  1  0.875720  0.619787  0.000000  1
  Ir  Ir10  1  0.429751  0.716928  0.500000  1
  Ir  Ir11  1  0.570249  0.283072  0.500000  1
  Ir  Ir12  1  0.070249  0.216928  0.500000  1
  Ir  Ir13  1  0.929751  0.783072  0.500000  1
  Ru  Ru14  1  0.500000  0.000000  0.500000  1
  Ru  Ru15  1  0.000000  0.500000  0.500000  1
  Ru  Ru16  1  0.717143  0.567978  0.500000  1
  Ru  Ru17  1  0.282857  0.432022  0.500000  1
  Ru  Ru18  1  0.217143  0.932022  0.500000  1
  Ru  Ru19  1  0.782857  0.067978  0.500000  1
