# generated using pymatgen
data_Rb6ScIn3Si8(O2F)10
_symmetry_space_group_name_H-M   'P 1'
_cell_length_a   8.39522000
_cell_length_b   9.75730700
_cell_length_c   18.72150600
_cell_angle_alpha   90.00000000
_cell_angle_beta   90.00000000
_cell_angle_gamma   90.00000000
_symmetry_Int_Tables_number   1
_chemical_formula_structural   Rb6ScIn3Si8(O2F)10
_chemical_formula_sum   'Rb12 Sc2 In6 Si16 O40 F20'
_cell_volume   1533.56727529
_cell_formula_units_Z   2
loop_
 _symmetry_equiv_pos_site_id
 _symmetry_equiv_pos_as_xyz
  1  'x, y, z'
loop_
 _atom_site_type_symbol
 _atom_site_label
 _atom_site_symmetry_multiplicity
 _atom_site_fract_x
 _atom_site_fract_y
 _atom_site_fract_z
 _atom_site_occupancy
  Rb  Rb0  1  0.250497  0.006362  0.513273  1
  Rb  Rb1  1  0.249503  0.506362  0.986727  1
  Rb  Rb2  1  0.749010  0.994502  0.485657  1
  Rb  Rb3  1  0.750990  0.494502  0.014343  1
  Rb  Rb4  1  0.249710  0.141779  0.128607  1
  Rb  Rb5  1  0.250290  0.641779  0.371393  1
  Rb  Rb6  1  0.750164  0.857390  0.871918  1
  Rb  Rb7  1  0.749836  0.357390  0.628082  1
  Rb  Rb8  1  0.250274  0.359695  0.622029  1
  Rb  Rb9  1  0.249726  0.859695  0.877971  1
  Rb  Rb10  1  0.749397  0.638763  0.377179  1
  Rb  Rb11  1  0.750603  0.138763  0.122821  1
  Sc  Sc12  1  0.499866  0.309426  0.446480  1
  Sc  Sc13  1  0.000134  0.809426  0.053520  1
  In  In14  1  0.999713  0.308282  0.443703  1
  In  In15  1  0.500287  0.808282  0.056297  1
  In  In16  1  0.499810  0.690557  0.555355  1
  In  In17  1  0.000190  0.190557  0.944645  1
  In  In18  1  0.000161  0.691738  0.555701  1
  In  In19  1  0.499839  0.191738  0.944299  1
  Si  Si20  1  0.436688  0.069792  0.321031  1
  Si  Si21  1  0.063312  0.569792  0.178969  1
  Si  Si22  1  0.936508  0.932528  0.678996  1
  Si  Si23  1  0.563492  0.432528  0.821004  1
  Si  Si24  1  0.563401  0.932304  0.678863  1
  Si  Si25  1  0.936599  0.432304  0.821137  1
  Si  Si26  1  0.063478  0.067917  0.320767  1
  Si  Si27  1  0.436522  0.567917  0.179233  1
  Si  Si28  1  0.063607  0.162778  0.775025  1
  Si  Si29  1  0.436393  0.662778  0.724975  1
  Si  Si30  1  0.563481  0.837851  0.225727  1
  Si  Si31  1  0.936519  0.337851  0.274273  1
  Si  Si32  1  0.936726  0.836630  0.224414  1
  Si  Si33  1  0.563274  0.336630  0.275586  1
  Si  Si34  1  0.436466  0.162800  0.774862  1
  Si  Si35  1  0.063534  0.662800  0.725138  1
  O  O36  1  0.250339  0.020378  0.316598  1
  O  O37  1  0.249661  0.520378  0.183402  1
  O  O38  1  0.749925  0.980548  0.684302  1
  O  O39  1  0.750075  0.480548  0.815698  1
  O  O40  1  0.250030  0.213905  0.772907  1
  O  O41  1  0.249970  0.713905  0.727093  1
  O  O42  1  0.749575  0.786730  0.227716  1
  O  O43  1  0.750425  0.286730  0.272284  1
  O  O44  1  0.009301  0.110627  0.400040  1
  O  O45  1  0.490699  0.610627  0.099960  1
  O  O46  1  0.510258  0.888510  0.599707  1
  O  O47  1  0.989742  0.388510  0.900293  1
  O  O48  1  0.989851  0.889395  0.599766  1
  O  O49  1  0.510149  0.389395  0.900234  1
  O  O50  1  0.488579  0.121513  0.399163  1
  O  O51  1  0.011421  0.621513  0.100837  1
  O  O52  1  0.016549  0.082090  0.847372  1
  O  O53  1  0.483451  0.582089  0.652628  1
  O  O54  1  0.515886  0.917761  0.153078  1
  O  O55  1  0.984114  0.417760  0.346922  1
  O  O56  1  0.982876  0.910673  0.150503  1
  O  O57  1  0.517124  0.410672  0.349497  1
  O  O58  1  0.483600  0.082336  0.847276  1
  O  O59  1  0.016400  0.582335  0.652724  1
  O  O60  1  0.039713  0.066351  0.704475  1
  O  O61  1  0.460287  0.566351  0.795525  1
  O  O62  1  0.539510  0.934756  0.296250  1
  O  O63  1  0.960490  0.434756  0.203750  1
  O  O64  1  0.961114  0.934560  0.294572  1
  O  O65  1  0.538886  0.434560  0.205428  1
  O  O66  1  0.460145  0.066223  0.704328  1
  O  O67  1  0.039855  0.566223  0.795672  1
  O  O68  1  0.040216  0.195048  0.262387  1
  O  O69  1  0.459784  0.695048  0.237613  1
  O  O70  1  0.539635  0.805554  0.737434  1
  O  O71  1  0.960365  0.305554  0.762566  1
  O  O72  1  0.960308  0.805638  0.737467  1
  O  O73  1  0.539692  0.305638  0.762533  1
  O  O74  1  0.460893  0.193705  0.260951  1
  O  O75  1  0.039107  0.693705  0.239049  1
  F  F76  1  0.000295  0.998243  0.000740  1
  F  F77  1  0.499705  0.498243  0.499260  1
  F  F78  1  0.499425  0.998944  0.999992  1
  F  F79  1  0.000575  0.498944  0.500008  1
  F  F80  1  0.255636  0.328021  0.451741  1
  F  F81  1  0.244364  0.828021  0.048259  1
  F  F82  1  0.750031  0.667167  0.547199  1
  F  F83  1  0.749969  0.167167  0.952801  1
  F  F84  1  0.250026  0.190254  0.961787  1
  F  F85  1  0.249974  0.690254  0.538213  1
  F  F86  1  0.755874  0.808404  0.040755  1
  F  F87  1  0.744126  0.308404  0.459245  1
  F  F88  1  0.005657  0.222910  0.546446  1
  F  F89  1  0.494343  0.722910  0.953554  1
  F  F90  1  0.506474  0.778300  0.452963  1
  F  F91  1  0.993526  0.278300  0.047037  1
  F  F92  1  0.993293  0.777747  0.453083  1
  F  F93  1  0.506707  0.277747  0.046917  1
  F  F94  1  0.493874  0.222620  0.545024  1
  F  F95  1  0.006126  0.722620  0.954976  1
