# generated using pymatgen
data_Sr3Nd(ScSe2)8
_symmetry_space_group_name_H-M   'P 1'
_cell_length_a   3.95771900
_cell_length_b   12.22234143
_cell_length_c   14.33883559
_cell_angle_alpha   89.83000226
_cell_angle_beta   90.00000000
_cell_angle_gamma   90.00000000
_symmetry_Int_Tables_number   1
_chemical_formula_structural   Sr3Nd(ScSe2)8
_chemical_formula_sum   'Sr3 Nd1 Sc8 Se16'
_cell_volume   693.60360361
_cell_formula_units_Z   1
loop_
 _symmetry_equiv_pos_site_id
 _symmetry_equiv_pos_as_xyz
  1  'x, y, z'
loop_
 _atom_site_type_symbol
 _atom_site_label
 _atom_site_symmetry_multiplicity
 _atom_site_fract_x
 _atom_site_fract_y
 _atom_site_fract_z
 _atom_site_occupancy
  Sr  Sr0  1  0.250000  0.237827  0.330896  1
  Sr  Sr1  1  0.750000  0.260325  0.831741  1
  Sr  Sr2  1  0.250000  0.739419  0.169351  1
  Nd  Nd3  1  0.750000  0.761766  0.670926  1
  Sc  Sc4  1  0.250000  0.080939  0.596669  1
  Sc  Sc5  1  0.250000  0.058523  0.109581  1
  Sc  Sc6  1  0.750000  0.418940  0.096648  1
  Sc  Sc7  1  0.750000  0.939761  0.889547  1
  Sc  Sc8  1  0.750000  0.442854  0.610278  1
  Sc  Sc9  1  0.250000  0.559523  0.390581  1
  Sc  Sc10  1  0.750000  0.915933  0.404873  1
  Sc  Sc11  1  0.250000  0.581618  0.903710  1
  Se  Se12  1  0.250000  0.871212  0.534212  1
  Se  Se13  1  0.250000  0.795437  0.830981  1
  Se  Se14  1  0.250000  0.970070  0.285658  1
  Se  Se15  1  0.750000  0.411863  0.426891  1
  Se  Se16  1  0.250000  0.471278  0.215670  1
  Se  Se17  1  0.250000  0.088388  0.923969  1
  Se  Se18  1  0.750000  0.203774  0.159520  1
  Se  Se19  1  0.750000  0.021698  0.713751  1
  Se  Se20  1  0.250000  0.596113  0.577706  1
  Se  Se21  1  0.750000  0.703475  0.340685  1
  Se  Se22  1  0.250000  0.297329  0.660507  1
  Se  Se23  1  0.250000  0.375729  0.969725  1
  Se  Se24  1  0.750000  0.626314  0.027547  1
  Se  Se25  1  0.750000  0.537233  0.781856  1
  Se  Se26  1  0.750000  0.122999  0.472010  1
  Se  Se27  1  0.750000  0.909657  0.074513  1
