# generated using pymatgen
data_Zr3TaNb2(ReSi)6
_symmetry_space_group_name_H-M   'P 1'
_cell_length_a   7.69755281
_cell_length_b   7.70400733
_cell_length_c   7.69755203
_cell_angle_alpha   126.26327767
_cell_angle_beta   127.68701371
_cell_angle_gamma   78.27761617
_symmetry_Int_Tables_number   1
_chemical_formula_structural   Zr3TaNb2(ReSi)6
_chemical_formula_sum   'Zr3 Ta1 Nb2 Re6 Si6'
_cell_volume   282.14925653
_cell_formula_units_Z   1
loop_
 _symmetry_equiv_pos_site_id
 _symmetry_equiv_pos_as_xyz
  1  'x, y, z'
loop_
 _atom_site_type_symbol
 _atom_site_label
 _atom_site_symmetry_multiplicity
 _atom_site_fract_x
 _atom_site_fract_y
 _atom_site_fract_z
 _atom_site_occupancy
  Zr  Zr0  1  0.548101  0.090503  0.042401  1
  Zr  Zr1  1  0.452981  0.495449  0.542468  1
  Zr  Zr2  1  0.949789  0.493865  0.044076  1
  Ta  Ta3  1  0.050288  0.096593  0.546306  1
  Nb  Nb4  1  0.747999  0.900111  0.652112  1
  Nb  Nb5  1  0.251811  0.900763  0.148952  1
  Re  Re6  1  0.494719  0.241738  0.739418  1
  Re  Re7  1  0.002320  0.241738  0.247018  1
  Re  Re8  1  0.118904  0.753768  0.618511  1
  Re  Re9  1  0.879780  0.496768  0.630027  1
  Re  Re10  1  0.635256  0.753768  0.134864  1
  Re  Re11  1  0.366741  0.496768  0.116987  1
  Si  Si12  1  0.746910  0.496633  0.249723  1
  Si  Si13  1  0.253355  0.504616  0.751260  1
  Si  Si14  1  0.331357  0.832637  0.491774  1
  Si  Si15  1  0.667968  0.156923  0.496067  1
  Si  Si16  1  0.840863  0.832637  0.001280  1
  Si  Si17  1  0.160856  0.156923  0.988956  1
