# generated using pymatgen
data_Sc4Si6NiIr6
_symmetry_space_group_name_H-M   'P 1'
_cell_length_a   6.94534722
_cell_length_b   6.94534629
_cell_length_c   6.94534721
_cell_angle_alpha   109.32981331
_cell_angle_beta   109.32980733
_cell_angle_gamma   109.75440174
_symmetry_Int_Tables_number   1
_chemical_formula_structural   Sc4Si6NiIr6
_chemical_formula_sum   'Sc4 Si6 Ni1 Ir6'
_cell_volume   257.90041213
_cell_formula_units_Z   1
loop_
 _symmetry_equiv_pos_site_id
 _symmetry_equiv_pos_as_xyz
  1  'x, y, z'
loop_
 _atom_site_type_symbol
 _atom_site_label
 _atom_site_symmetry_multiplicity
 _atom_site_fract_x
 _atom_site_fract_y
 _atom_site_fract_z
 _atom_site_occupancy
  Sc  Sc0  1  0.000761  0.999239  0.500000  1
  Sc  Sc1  1  0.000761  0.500761  0.001521  1
  Sc  Sc2  1  0.499239  0.999239  0.998479  1
  Sc  Sc3  1  0.499239  0.500761  0.500000  1
  Si  Si4  1  0.683744  0.683744  0.000000  1
  Si  Si5  1  0.321435  0.002818  0.318617  1
  Si  Si6  1  0.997182  0.315799  0.318617  1
  Si  Si7  1  0.316256  0.316256  0.000000  1
  Si  Si8  1  0.684201  0.002818  0.681383  1
  Si  Si9  1  0.997182  0.678565  0.681383  1
  Ni  Ni10  1  0.750000  0.250000  0.500000  1
  Ir  Ir11  1  0.747142  0.495082  0.252060  1
  Ir  Ir12  1  0.504918  0.252858  0.747940  1
  Ir  Ir13  1  0.243022  0.495082  0.747940  1
  Ir  Ir14  1  0.250000  0.750000  0.500000  1
  Ir  Ir15  1  0.504918  0.756978  0.252060  1
  Ir  Ir16  1  0.000000  0.000000  0.000000  1
