# generated using pymatgen
data_Er4Re4OsRu3
_symmetry_space_group_name_H-M   'P 1'
_cell_length_a   5.25623595
_cell_length_b   5.36517240
_cell_length_c   9.07189400
_cell_angle_alpha   90.00000000
_cell_angle_beta   90.00000000
_cell_angle_gamma   121.33234071
_symmetry_Int_Tables_number   1
_chemical_formula_structural   Er4Re4OsRu3
_chemical_formula_sum   'Er4 Re4 Os1 Ru3'
_cell_volume   218.52367849
_cell_formula_units_Z   1
loop_
 _symmetry_equiv_pos_site_id
 _symmetry_equiv_pos_as_xyz
  1  'x, y, z'
loop_
 _atom_site_type_symbol
 _atom_site_label
 _atom_site_symmetry_multiplicity
 _atom_site_fract_x
 _atom_site_fract_y
 _atom_site_fract_z
 _atom_site_occupancy
  Er  Er0  1  0.336412  0.665761  0.436192  1
  Er  Er1  1  0.663724  0.332505  0.564330  1
  Er  Er2  1  0.663724  0.332505  0.935670  1
  Er  Er3  1  0.336412  0.665761  0.063808  1
  Re  Re4  1  0.171015  0.831819  0.750000  1
  Re  Re5  1  0.335115  0.173931  0.250000  1
  Re  Re6  1  0.827446  0.664437  0.250000  1
  Re  Re7  1  0.662210  0.835767  0.750000  1
  Os  Os8  1  0.171455  0.346866  0.750000  1
  Ru  Ru9  1  0.004580  0.986606  0.000754  1
  Ru  Ru10  1  0.823325  0.177436  0.250000  1
  Ru  Ru11  1  0.004580  0.986606  0.499246  1
