# generated using pymatgen
data_Cs2LiH11
_symmetry_space_group_name_H-M   'P 1'
_cell_length_a   5.31345846
_cell_length_b   5.67117857
_cell_length_c   11.73648291
_cell_angle_alpha   55.87397596
_cell_angle_beta   77.11020652
_cell_angle_gamma   75.13890076
_symmetry_Int_Tables_number   1
_chemical_formula_structural   Cs2LiH11
_chemical_formula_sum   'Cs2 Li1 H11'
_cell_volume   281.58136833
_cell_formula_units_Z   1
loop_
 _symmetry_equiv_pos_site_id
 _symmetry_equiv_pos_as_xyz
  1  'x, y, z'
loop_
 _atom_site_type_symbol
 _atom_site_label
 _atom_site_symmetry_multiplicity
 _atom_site_fract_x
 _atom_site_fract_y
 _atom_site_fract_z
 _atom_site_occupancy
  Cs  Cs0  1  0.463259  0.448693  0.448651  1
  Cs  Cs1  1  0.799848  0.129078  0.076003  1
  Li  Li2  1  0.069228  0.226817  0.292026  1
  H  H3  1  0.262255  0.028373  0.215493  1
  H  H4  1  0.349609  0.295675  0.868461  1
  H  H5  1  0.712230  0.792752  0.726888  1
  H  H6  1  0.017774  0.064421  0.756250  1
  H  H7  1  0.802239  0.498113  0.193154  1
  H  H8  1  0.586192  0.764467  0.991202  1
  H  H9  1  0.068391  0.121388  0.471063  1
  H  H10  1  0.814249  0.857939  0.665431  1
  H  H11  1  0.093462  0.083422  0.796835  1
  H  H12  1  0.322383  0.447942  0.808021  1
  H  H13  1  0.551743  0.842041  0.917653  1
