# generated using pymatgen
data_Tb11Tl8InPdAu3
_symmetry_space_group_name_H-M   'P 1'
_cell_length_a   13.47937087
_cell_length_b   13.52252965
_cell_length_c   3.68055700
_cell_angle_alpha   90.00000000
_cell_angle_beta   90.00000000
_cell_angle_gamma   110.59305212
_symmetry_Int_Tables_number   1
_chemical_formula_structural   Tb11Tl8InPdAu3
_chemical_formula_sum   'Tb11 Tl8 In1 Pd1 Au3'
_cell_volume   628.00684364
_cell_formula_units_Z   1
loop_
 _symmetry_equiv_pos_site_id
 _symmetry_equiv_pos_as_xyz
  1  'x, y, z'
loop_
 _atom_site_type_symbol
 _atom_site_label
 _atom_site_symmetry_multiplicity
 _atom_site_fract_x
 _atom_site_fract_y
 _atom_site_fract_z
 _atom_site_occupancy
  Tb  Tb0  1  0.416947  0.071383  0.000000  1
  Tb  Tb1  1  0.583568  0.928372  0.000000  1
  Tb  Tb2  1  0.069964  0.415431  0.000000  1
  Tb  Tb3  1  0.925084  0.582032  0.000000  1
  Tb  Tb4  1  0.160517  0.837615  0.000000  1
  Tb  Tb5  1  0.837537  0.163843  0.000000  1
  Tb  Tb6  1  0.368329  0.632734  0.000000  1
  Tb  Tb7  1  0.635430  0.373291  0.000000  1
  Tb  Tb8  1  0.306828  0.306367  0.000000  1
  Tb  Tb9  1  0.695917  0.689410  0.000000  1
  Tb  Tb10  1  0.999422  0.999136  0.000000  1
  Tl  Tl11  1  0.367247  0.850220  0.500000  1
  Tl  Tl12  1  0.632071  0.150583  0.500000  1
  Tl  Tl13  1  0.847727  0.369947  0.500000  1
  Tl  Tl14  1  0.148516  0.631602  0.500000  1
  Tl  Tl15  1  0.213878  0.064481  0.500000  1
  Tl  Tl16  1  0.784998  0.934254  0.500000  1
  Tl  Tl17  1  0.065307  0.214152  0.500000  1
  Tl  Tl18  1  0.931758  0.783520  0.500000  1
  In  In19  1  0.504597  0.501177  0.500000  1
  Pd  Pd20  1  0.748479  0.546940  0.500000  1
  Au  Au21  1  0.453924  0.253614  0.500000  1
  Au  Au22  1  0.548427  0.746415  0.500000  1
  Au  Au23  1  0.253527  0.453482  0.500000  1
