# generated using pymatgen
data_Pr19Dy(Ga2Sn)4
_symmetry_space_group_name_H-M   'P 1'
_cell_length_a   8.09591500
_cell_length_b   8.09591500
_cell_length_c   14.73741000
_cell_angle_alpha   90.00000000
_cell_angle_beta   90.00000000
_cell_angle_gamma   90.00000000
_symmetry_Int_Tables_number   1
_chemical_formula_structural   Pr19Dy(Ga2Sn)4
_chemical_formula_sum   'Pr19 Dy1 Ga8 Sn4'
_cell_volume   965.94643844
_cell_formula_units_Z   1
loop_
 _symmetry_equiv_pos_site_id
 _symmetry_equiv_pos_as_xyz
  1  'x, y, z'
loop_
 _atom_site_type_symbol
 _atom_site_label
 _atom_site_symmetry_multiplicity
 _atom_site_fract_x
 _atom_site_fract_y
 _atom_site_fract_z
 _atom_site_occupancy
  Pr  Pr0  1  0.823805  0.838559  0.606976  1
  Pr  Pr1  1  0.178037  0.839490  0.106558  1
  Pr  Pr2  1  0.159826  0.821591  0.393621  1
  Pr  Pr3  1  0.840174  0.178409  0.393621  1
  Pr  Pr4  1  0.678409  0.659826  0.393621  1
  Pr  Pr5  1  0.661441  0.323805  0.606976  1
  Pr  Pr6  1  0.338559  0.676195  0.606976  1
  Pr  Pr7  1  0.000000  0.500000  0.223564  1
  Pr  Pr8  1  0.660510  0.678037  0.106558  1
  Pr  Pr9  1  0.676168  0.339246  0.892341  1
  Pr  Pr10  1  0.839246  0.823832  0.892341  1
  Pr  Pr11  1  0.321591  0.340174  0.393621  1
  Pr  Pr12  1  0.176195  0.161441  0.606976  1
  Pr  Pr13  1  0.821963  0.160510  0.106558  1
  Pr  Pr14  1  0.323832  0.660754  0.892341  1
  Pr  Pr15  1  0.339490  0.321963  0.106558  1
  Pr  Pr16  1  0.500000  0.000000  0.274661  1
  Pr  Pr17  1  0.160754  0.176168  0.892341  1
  Pr  Pr18  1  0.500000  0.000000  0.773867  1
  Dy  Dy19  1  0.000000  0.500000  0.732002  1
  Ga  Ga20  1  0.622018  0.378052  0.250328  1
  Ga  Ga21  1  0.120809  0.872394  0.748484  1
  Ga  Ga22  1  0.372394  0.379191  0.748484  1
  Ga  Ga23  1  0.377982  0.621948  0.250328  1
  Ga  Ga24  1  0.878052  0.877982  0.250328  1
  Ga  Ga25  1  0.627606  0.620809  0.748484  1
  Ga  Ga26  1  0.879191  0.127606  0.748484  1
  Ga  Ga27  1  0.121948  0.122018  0.250328  1
  Sn  Sn28  1  0.000000  0.500000  0.508966  1
  Sn  Sn29  1  0.500000  0.000000  0.496801  1
  Sn  Sn30  1  0.500000  0.000000  0.996198  1
  Sn  Sn31  1  0.000000  0.500000  0.000704  1
