# generated using pymatgen
data_Ta5Ga(B2Os5)2
_symmetry_space_group_name_H-M   'P 1'
_cell_length_a   9.46485600
_cell_length_b   9.46485600
_cell_length_c   3.02162000
_cell_angle_alpha   90.00000000
_cell_angle_beta   90.00000000
_cell_angle_gamma   90.00000000
_symmetry_Int_Tables_number   1
_chemical_formula_structural   Ta5Ga(B2Os5)2
_chemical_formula_sum   'Ta5 Ga1 B4 Os10'
_cell_volume   270.68729255
_cell_formula_units_Z   1
loop_
 _symmetry_equiv_pos_site_id
 _symmetry_equiv_pos_as_xyz
  1  'x, y, z'
loop_
 _atom_site_type_symbol
 _atom_site_label
 _atom_site_symmetry_multiplicity
 _atom_site_fract_x
 _atom_site_fract_y
 _atom_site_fract_z
 _atom_site_occupancy
  Ta  Ta0  1  0.820521  0.676274  0.000000  1
  Ta  Ta1  1  0.179479  0.323726  0.000000  1
  Ta  Ta2  1  0.323726  0.820521  0.000000  1
  Ta  Ta3  1  0.676274  0.179479  0.000000  1
  Ta  Ta4  1  0.000000  0.000000  0.000000  1
  Ga  Ga5  1  0.500000  0.500000  0.000000  1
  B  B6  1  0.616020  0.870943  0.000000  1
  B  B7  1  0.383980  0.129057  0.000000  1
  B  B8  1  0.129057  0.616020  0.000000  1
  B  B9  1  0.870943  0.383980  0.000000  1
  Os  Os10  1  0.567770  0.714590  0.500000  1
  Os  Os11  1  0.432230  0.285410  0.500000  1
  Os  Os12  1  0.072910  0.780513  0.500000  1
  Os  Os13  1  0.927090  0.219487  0.500000  1
  Os  Os14  1  0.285410  0.567770  0.500000  1
  Os  Os15  1  0.714590  0.432230  0.500000  1
  Os  Os16  1  0.219487  0.072910  0.500000  1
  Os  Os17  1  0.780513  0.927090  0.500000  1
  Os  Os18  1  0.500000  0.000000  0.500000  1
  Os  Os19  1  0.000000  0.500000  0.500000  1
