# generated using pymatgen
data_DyYB6MoW
_symmetry_space_group_name_H-M   'P 1'
_cell_length_a   3.16760600
_cell_length_b   5.45907596
_cell_length_c   6.84366455
_cell_angle_alpha   77.86221730
_cell_angle_beta   90.00000000
_cell_angle_gamma   90.00000000
_symmetry_Int_Tables_number   1
_chemical_formula_structural   DyYB6MoW
_chemical_formula_sum   'Dy1 Y1 B6 Mo1 W1'
_cell_volume   115.69646793
_cell_formula_units_Z   1
loop_
 _symmetry_equiv_pos_site_id
 _symmetry_equiv_pos_as_xyz
  1  'x, y, z'
loop_
 _atom_site_type_symbol
 _atom_site_label
 _atom_site_symmetry_multiplicity
 _atom_site_fract_x
 _atom_site_fract_y
 _atom_site_fract_z
 _atom_site_occupancy
  Dy  Dy0  1  0.750000  0.675133  0.290861  1
  Y  Y1  1  0.250000  0.325116  0.708093  1
  B  B2  1  0.250000  0.919124  0.524357  1
  B  B3  1  0.750000  0.080849  0.474215  1
  B  B4  1  0.250000  0.912582  0.005172  1
  B  B5  1  0.750000  0.087090  0.996169  1
  B  B6  1  0.250000  0.583127  0.007215  1
  B  B7  1  0.750000  0.416652  0.993803  1
  Mo  Mo8  1  0.750000  0.812160  0.780733  1
  W  W9  1  0.250000  0.188166  0.219382  1
