# generated using pymatgen
data_Y4In3Au10
_symmetry_space_group_name_H-M   'P 1'
_cell_length_a   8.59531008
_cell_length_b   8.59531008
_cell_length_c   10.26842400
_cell_angle_alpha   90.00000000
_cell_angle_beta   90.00000000
_cell_angle_gamma   108.06016579
_symmetry_Int_Tables_number   1
_chemical_formula_structural   Y4In3Au10
_chemical_formula_sum   'Y8 In6 Au20'
_cell_volume   721.24824894
_cell_formula_units_Z   2
loop_
 _symmetry_equiv_pos_site_id
 _symmetry_equiv_pos_as_xyz
  1  'x, y, z'
loop_
 _atom_site_type_symbol
 _atom_site_label
 _atom_site_symmetry_multiplicity
 _atom_site_fract_x
 _atom_site_fract_y
 _atom_site_fract_z
 _atom_site_occupancy
  Y  Y0  1  0.698341  0.301659  0.000000  1
  Y  Y1  1  0.198341  0.801659  0.500000  1
  Y  Y2  1  0.803381  0.803381  0.299653  1
  Y  Y3  1  0.303381  0.303381  0.200347  1
  Y  Y4  1  0.801659  0.198341  0.500000  1
  Y  Y5  1  0.301659  0.698341  0.000000  1
  Y  Y6  1  0.696619  0.696619  0.799653  1
  Y  Y7  1  0.196619  0.196619  0.700347  1
  In  In8  1  0.519534  0.019534  0.250000  1
  In  In9  1  0.980466  0.480466  0.750000  1
  In  In10  1  0.000000  0.000000  0.000000  1
  In  In11  1  0.019534  0.519534  0.250000  1
  In  In12  1  0.480466  0.980466  0.750000  1
  In  In13  1  0.500000  0.500000  0.500000  1
  Au  Au14  1  0.152165  0.431248  0.482885  1
  Au  Au15  1  0.902678  0.902678  0.596138  1
  Au  Au16  1  0.568752  0.847835  0.517115  1
  Au  Au17  1  0.885516  0.167133  0.210567  1
  Au  Au18  1  0.385516  0.667133  0.289433  1
  Au  Au19  1  0.667133  0.385516  0.289433  1
  Au  Au20  1  0.402678  0.402678  0.903862  1
  Au  Au21  1  0.931248  0.652165  0.017115  1
  Au  Au22  1  0.332867  0.614484  0.710567  1
  Au  Au23  1  0.347835  0.068752  0.982885  1
  Au  Au24  1  0.597322  0.597322  0.096138  1
  Au  Au25  1  0.652165  0.931248  0.017115  1
  Au  Au26  1  0.097322  0.097322  0.403862  1
  Au  Au27  1  0.614484  0.332867  0.710567  1
  Au  Au28  1  0.114484  0.832867  0.789433  1
  Au  Au29  1  0.068752  0.347835  0.982885  1
  Au  Au30  1  0.847835  0.568752  0.517115  1
  Au  Au31  1  0.167133  0.885516  0.210567  1
  Au  Au32  1  0.431248  0.152165  0.482885  1
  Au  Au33  1  0.832867  0.114484  0.789433  1
