# generated using pymatgen
data_Yb2Sc2Ni13C4
_symmetry_space_group_name_H-M   'P 1'
_cell_length_a   8.22807461
_cell_length_b   8.22807436
_cell_length_c   3.82719400
_cell_angle_alpha   90.00000000
_cell_angle_beta   90.00000000
_cell_angle_gamma   90.32932021
_symmetry_Int_Tables_number   1
_chemical_formula_structural   Yb2Sc2Ni13C4
_chemical_formula_sum   'Yb2 Sc2 Ni13 C4'
_cell_volume   259.10138373
_cell_formula_units_Z   1
loop_
 _symmetry_equiv_pos_site_id
 _symmetry_equiv_pos_as_xyz
  1  'x, y, z'
loop_
 _atom_site_type_symbol
 _atom_site_label
 _atom_site_symmetry_multiplicity
 _atom_site_fract_x
 _atom_site_fract_y
 _atom_site_fract_z
 _atom_site_occupancy
  Yb  Yb0  1  0.349663  0.349663  0.500000  1
  Yb  Yb1  1  0.650337  0.650337  0.500000  1
  Sc  Sc2  1  0.815818  0.184182  0.500000  1
  Sc  Sc3  1  0.184182  0.815818  0.500000  1
  Ni  Ni4  1  0.000000  0.000000  0.000000  1
  Ni  Ni5  1  0.213942  0.577825  0.000000  1
  Ni  Ni6  1  0.786058  0.422175  0.000000  1
  Ni  Ni7  1  0.422175  0.786058  0.000000  1
  Ni  Ni8  1  0.577825  0.213942  0.000000  1
  Ni  Ni9  1  0.000000  0.500000  0.500000  1
  Ni  Ni10  1  0.500000  0.000000  0.500000  1
  Ni  Ni11  1  0.071503  0.288156  0.000000  1
  Ni  Ni12  1  0.928497  0.711844  0.000000  1
  Ni  Ni13  1  0.711844  0.928497  0.000000  1
  Ni  Ni14  1  0.288156  0.071503  0.000000  1
  Ni  Ni15  1  0.121826  0.121826  0.500000  1
  Ni  Ni16  1  0.878174  0.878174  0.500000  1
  C  C17  1  0.000000  0.500000  0.000000  1
  C  C18  1  0.500000  0.000000  0.000000  1
  C  C19  1  0.443007  0.556993  0.000000  1
  C  C20  1  0.556993  0.443007  0.000000  1
