# generated using pymatgen
data_DyEr3Hf3O12
_symmetry_space_group_name_H-M   'P 1'
_cell_length_a   6.30766286
_cell_length_b   6.34669531
_cell_length_c   6.55316509
_cell_angle_alpha   99.94024058
_cell_angle_beta   98.28062855
_cell_angle_gamma   99.69794402
_symmetry_Int_Tables_number   1
_chemical_formula_structural   DyEr3Hf3O12
_chemical_formula_sum   'Dy1 Er3 Hf3 O12'
_cell_volume   250.62993806
_cell_formula_units_Z   1
loop_
 _symmetry_equiv_pos_site_id
 _symmetry_equiv_pos_as_xyz
  1  'x, y, z'
loop_
 _atom_site_type_symbol
 _atom_site_label
 _atom_site_symmetry_multiplicity
 _atom_site_fract_x
 _atom_site_fract_y
 _atom_site_fract_z
 _atom_site_occupancy
  Dy  Dy0  1  0.386613  0.699152  0.866676  1
  Er  Er1  1  0.696124  0.865097  0.389914  1
  Er  Er2  1  0.613791  0.300282  0.134229  1
  Er  Er3  1  0.304644  0.134783  0.610358  1
  Hf  Hf4  1  0.000244  0.000948  0.000232  1
  Hf  Hf5  1  0.848410  0.396276  0.668477  1
  Hf  Hf6  1  0.150963  0.602868  0.330958  1
  O  O7  1  0.020199  0.679085  0.880435  1
  O  O8  1  0.686662  0.934820  0.061623  1
  O  O9  1  0.919566  0.085956  0.696497  1
  O  O10  1  0.977112  0.322663  0.117288  1
  O  O11  1  0.314167  0.068906  0.941179  1
  O  O12  1  0.080806  0.913499  0.302690  1
  O  O13  1  0.589861  0.189194  0.434686  1
  O  O14  1  0.170078  0.427051  0.572046  1
  O  O15  1  0.414207  0.581325  0.181893  1
  O  O16  1  0.410183  0.811699  0.564024  1
  O  O17  1  0.829466  0.571793  0.426709  1
  O  O18  1  0.586903  0.414601  0.820086  1
