# generated using pymatgen
data_ThBeF36
_symmetry_space_group_name_H-M   'P 1'
_cell_length_a   6.26754804
_cell_length_b   10.98102225
_cell_length_c   10.87543319
_cell_angle_alpha   88.21988952
_cell_angle_beta   99.49465709
_cell_angle_gamma   74.47616968
_symmetry_Int_Tables_number   1
_chemical_formula_structural   ThBeF36
_chemical_formula_sum   'Th1 Be1 F36'
_cell_volume   709.07538685
_cell_formula_units_Z   1
loop_
 _symmetry_equiv_pos_site_id
 _symmetry_equiv_pos_as_xyz
  1  'x, y, z'
loop_
 _atom_site_type_symbol
 _atom_site_label
 _atom_site_symmetry_multiplicity
 _atom_site_fract_x
 _atom_site_fract_y
 _atom_site_fract_z
 _atom_site_occupancy
  Th  Th0  1  0.758074  0.825975  0.867758  1
  Be  Be1  1  0.312685  0.265617  0.233967  1
  F  F2  1  0.327114  0.401423  0.909261  1
  F  F3  1  0.626612  0.624907  0.118717  1
  F  F4  1  0.324768  0.280888  0.584338  1
  F  F5  1  0.673609  0.751068  0.426807  1
  F  F6  1  0.866497  0.223067  0.800355  1
  F  F7  1  0.178399  0.755972  0.203350  1
  F  F8  1  0.693513  0.827281  0.051815  1
  F  F9  1  0.276974  0.077408  0.980192  1
  F  F10  1  0.783472  0.608661  0.861668  1
  F  F11  1  0.214414  0.322000  0.105478  1
  F  F12  1  0.436999  0.445561  0.819412  1
  F  F13  1  0.575800  0.507619  0.142289  1
  F  F14  1  0.731588  0.705423  0.695176  1
  F  F15  1  0.300940  0.352296  0.334910  1
  F  F16  1  0.741177  0.967477  0.554605  1
  F  F17  1  0.238154  0.004259  0.458394  1
  F  F18  1  0.287045  0.178704  0.653572  1
  F  F19  1  0.678713  0.820265  0.314620  1
  F  F20  1  0.794480  0.084479  0.575011  1
  F  F21  1  0.158463  0.924427  0.371919  1
  F  F22  1  0.810844  0.005122  0.838773  1
  F  F23  1  0.218400  0.001160  0.069810  1
  F  F24  1  0.902877  0.345948  0.793402  1
  F  F25  1  0.111845  0.642403  0.214804  1
  F  F26  1  0.157225  0.745611  0.909481  1
  F  F27  1  0.872460  0.238568  0.105162  1
  F  F28  1  0.390512  0.939328  0.750755  1
  F  F29  1  0.419085  0.129271  0.263717  1
  F  F30  1  0.126660  0.748697  0.575907  1
  F  F31  1  0.915245  0.241232  0.413047  1
  F  F32  1  0.213996  0.633350  0.654511  1
  F  F33  1  0.809438  0.362679  0.347561  1
  F  F34  1  0.279177  0.842404  0.829026  1
  F  F35  1  0.727999  0.171253  0.148089  1
  F  F36  1  0.558466  0.446010  0.555517  1
  F  F37  1  0.506279  0.552187  0.466827  1
