# generated using pymatgen
data_SrYbAlGaSn2
_symmetry_space_group_name_H-M   'P 1'
_cell_length_a   4.58651900
_cell_length_b   4.58651978
_cell_length_c   17.99937400
_cell_angle_alpha   90.00000000
_cell_angle_beta   90.00000000
_cell_angle_gamma   120.00001603
_symmetry_Int_Tables_number   1
_chemical_formula_structural   SrYbAlGaSn2
_chemical_formula_sum   'Sr2 Yb2 Al2 Ga2 Sn4'
_cell_volume   327.90982546
_cell_formula_units_Z   2
loop_
 _symmetry_equiv_pos_site_id
 _symmetry_equiv_pos_as_xyz
  1  'x, y, z'
loop_
 _atom_site_type_symbol
 _atom_site_label
 _atom_site_symmetry_multiplicity
 _atom_site_fract_x
 _atom_site_fract_y
 _atom_site_fract_z
 _atom_site_occupancy
  Sr  Sr0  1  0.000000  0.000000  0.000032  1
  Sr  Sr1  1  0.000000  0.000000  0.500032  1
  Yb  Yb2  1  0.000000  0.000000  0.245634  1
  Yb  Yb3  1  0.000000  0.000000  0.745634  1
  Al  Al4  1  0.666667  0.333333  0.832567  1
  Al  Al5  1  0.333333  0.666667  0.332567  1
  Ga  Ga6  1  0.666667  0.333333  0.673855  1
  Ga  Ga7  1  0.333333  0.666667  0.173855  1
  Sn  Sn8  1  0.333333  0.666667  0.621365  1
  Sn  Sn9  1  0.666667  0.333333  0.121365  1
  Sn  Sn10  1  0.666667  0.333333  0.376547  1
  Sn  Sn11  1  0.333333  0.666667  0.876547  1
