# generated using pymatgen
data_ErSn5SbRu4
_symmetry_space_group_name_H-M   'P 1'
_cell_length_a   6.96001631
_cell_length_b   6.96001637
_cell_length_c   6.96001678
_cell_angle_alpha   120.48516848
_cell_angle_beta   121.30851992
_cell_angle_gamma   88.45504224
_symmetry_Int_Tables_number   1
_chemical_formula_structural   ErSn5SbRu4
_chemical_formula_sum   'Er1 Sn5 Sb1 Ru4'
_cell_volume   235.06502437
_cell_formula_units_Z   1
loop_
 _symmetry_equiv_pos_site_id
 _symmetry_equiv_pos_as_xyz
  1  'x, y, z'
loop_
 _atom_site_type_symbol
 _atom_site_label
 _atom_site_symmetry_multiplicity
 _atom_site_fract_x
 _atom_site_fract_y
 _atom_site_fract_z
 _atom_site_occupancy
  Er  Er0  1  0.000000  0.000000  0.000000  1
  Sn  Sn1  1  0.465595  0.466809  0.348070  1
  Sn  Sn2  1  0.534405  0.882475  0.001213  1
  Sn  Sn3  1  0.881261  0.533191  0.998787  1
  Sn  Sn4  1  0.118739  0.117525  0.651930  1
  Sn  Sn5  1  0.500000  0.000000  0.500000  1
  Sb  Sb6  1  0.000000  0.500000  0.500000  1
  Ru  Ru7  1  0.399722  0.403398  0.650209  1
  Ru  Ru8  1  0.753190  0.749515  0.349791  1
  Ru  Ru9  1  0.246810  0.596602  0.996324  1
  Ru  Ru10  1  0.600278  0.250485  0.003676  1
