# generated using pymatgen
data_Ba4Ti(IrO6)2
_symmetry_space_group_name_H-M   'P 1'
_cell_length_a   5.85275853
_cell_length_b   5.85260367
_cell_length_c   10.13865602
_cell_angle_alpha   90.00064234
_cell_angle_beta   73.22683309
_cell_angle_gamma   119.99939686
_symmetry_Int_Tables_number   1
_chemical_formula_structural   Ba4Ti(IrO6)2
_chemical_formula_sum   'Ba4 Ti1 Ir2 O12'
_cell_volume   283.57356750
_cell_formula_units_Z   1
loop_
 _symmetry_equiv_pos_site_id
 _symmetry_equiv_pos_as_xyz
  1  'x, y, z'
loop_
 _atom_site_type_symbol
 _atom_site_label
 _atom_site_symmetry_multiplicity
 _atom_site_fract_x
 _atom_site_fract_y
 _atom_site_fract_z
 _atom_site_occupancy
  Ba  Ba0  1  0.562315  0.281150  0.156472  1
  Ba  Ba1  1  0.415455  0.707757  0.876803  1
  Ba  Ba2  1  0.254780  0.127368  0.617784  1
  Ba  Ba3  1  0.743616  0.871773  0.384577  1
  Ti  Ti4  1  0.818769  0.409412  0.771860  1
  Ir  Ir5  1  0.001000  0.000537  0.998548  1
  Ir  Ir6  1  0.010899  0.505408  0.483640  1
  O  O7  1  0.766263  0.607825  0.625958  1
  O  O8  1  0.215608  0.607800  0.625990  1
  O  O9  1  0.766244  0.158407  0.625992  1
  O  O10  1  0.239359  0.376674  0.383833  1
  O  O11  1  0.753503  0.376677  0.383829  1
  O  O12  1  0.239374  0.862566  0.383806  1
  O  O13  1  0.085305  0.809921  0.104802  1
  O  O14  1  0.619865  0.809952  0.104824  1
  O  O15  1  0.085287  0.275436  0.104818  1
  O  O16  1  0.918109  0.210099  0.871838  1
  O  O17  1  0.420105  0.210109  0.871822  1
  O  O18  1  0.918146  0.708129  0.871806  1
