# generated using pymatgen
data_Y7Lu(Si4Mo3)4
_symmetry_space_group_name_H-M   'P 1'
_cell_length_a   6.77203947
_cell_length_b   6.95842282
_cell_length_c   12.94053663
_cell_angle_alpha   89.96432229
_cell_angle_beta   89.99594341
_cell_angle_gamma   89.95722781
_symmetry_Int_Tables_number   1
_chemical_formula_structural   Y7Lu(Si4Mo3)4
_chemical_formula_sum   'Y7 Lu1 Si16 Mo12'
_cell_volume   609.79291775
_cell_formula_units_Z   1
loop_
 _symmetry_equiv_pos_site_id
 _symmetry_equiv_pos_as_xyz
  1  'x, y, z'
loop_
 _atom_site_type_symbol
 _atom_site_label
 _atom_site_symmetry_multiplicity
 _atom_site_fract_x
 _atom_site_fract_y
 _atom_site_fract_z
 _atom_site_occupancy
  Y  Y0  1  0.497526  0.332626  0.094039  1
  Y  Y1  1  0.997481  0.167119  0.406049  1
  Y  Y2  1  0.502582  0.667067  0.593935  1
  Y  Y3  1  0.002370  0.833095  0.906636  1
  Y  Y4  1  0.502366  0.667427  0.906402  1
  Y  Y5  1  0.002525  0.832932  0.593925  1
  Y  Y6  1  0.497305  0.332796  0.405575  1
  Lu  Lu7  1  0.996445  0.167710  0.094524  1
  Si  Si8  1  0.658441  0.042254  0.547536  1
  Si  Si9  1  0.158169  0.456908  0.953058  1
  Si  Si10  1  0.339286  0.959257  0.047977  1
  Si  Si11  1  0.841480  0.542186  0.452214  1
  Si  Si12  1  0.341569  0.957739  0.452146  1
  Si  Si13  1  0.842342  0.540076  0.047960  1
  Si  Si14  1  0.659174  0.042373  0.953045  1
  Si  Si15  1  0.158529  0.457920  0.547541  1
  Si  Si16  1  0.534846  0.365571  0.750240  1
  Si  Si17  1  0.034872  0.134290  0.750043  1
  Si  Si18  1  0.465493  0.634608  0.249723  1
  Si  Si19  1  0.965643  0.867035  0.249333  1
  Si  Si20  1  0.802729  0.628292  0.750287  1
  Si  Si21  1  0.302443  0.871463  0.750107  1
  Si  Si22  1  0.196261  0.370076  0.248995  1
  Si  Si23  1  0.698866  0.128864  0.249257  1
  Mo  Mo24  1  0.830648  0.334635  0.625418  1
  Mo  Mo25  1  0.330120  0.165048  0.875114  1
  Mo  Mo26  1  0.169289  0.665449  0.125275  1
  Mo  Mo27  1  0.669682  0.835100  0.374269  1
  Mo  Mo28  1  0.169326  0.665200  0.374297  1
  Mo  Mo29  1  0.670705  0.835667  0.124816  1
  Mo  Mo30  1  0.831143  0.333945  0.875432  1
  Mo  Mo31  1  0.330616  0.165113  0.625288  1
  Mo  Mo32  1  0.665785  0.999660  0.750217  1
  Mo  Mo33  1  0.165818  0.500267  0.750186  1
  Mo  Mo34  1  0.333635  0.001284  0.249522  1
  Mo  Mo35  1  0.834488  0.498944  0.249619  1
