# generated using pymatgen
data_YEr7(Tm3Pt4)4
_symmetry_space_group_name_H-M   'P 1'
_cell_length_a   7.42533187
_cell_length_b   7.49779117
_cell_length_c   14.64190700
_cell_angle_alpha   89.97310890
_cell_angle_beta   90.11075153
_cell_angle_gamma   90.07455832
_symmetry_Int_Tables_number   1
_chemical_formula_structural   YEr7(Tm3Pt4)4
_chemical_formula_sum   'Y1 Er7 Tm12 Pt16'
_cell_volume   815.16519168
_cell_formula_units_Z   1
loop_
 _symmetry_equiv_pos_site_id
 _symmetry_equiv_pos_as_xyz
  1  'x, y, z'
loop_
 _atom_site_type_symbol
 _atom_site_label
 _atom_site_symmetry_multiplicity
 _atom_site_fract_x
 _atom_site_fract_y
 _atom_site_fract_z
 _atom_site_occupancy
  Y  Y0  1  0.499021  0.678322  0.592606  1
  Er  Er1  1  0.000063  0.820767  0.907537  1
  Er  Er2  1  0.500047  0.320657  0.092934  1
  Er  Er3  1  0.000599  0.179171  0.407140  1
  Er  Er4  1  0.499729  0.319301  0.406729  1
  Er  Er5  1  0.000390  0.179357  0.092992  1
  Er  Er6  1  0.499899  0.679103  0.907070  1
  Er  Er7  1  0.999864  0.821057  0.593009  1
  Tm  Tm8  1  0.653554  0.167234  0.622219  1
  Tm  Tm9  1  0.153485  0.332841  0.877939  1
  Tm  Tm10  1  0.346092  0.832503  0.122185  1
  Tm  Tm11  1  0.846338  0.667637  0.377638  1
  Tm  Tm12  1  0.345772  0.832879  0.377349  1
  Tm  Tm13  1  0.846156  0.667190  0.122430  1
  Tm  Tm14  1  0.653897  0.167254  0.878103  1
  Tm  Tm15  1  0.153008  0.332612  0.622686  1
  Tm  Tm16  1  0.816080  0.510486  0.750409  1
  Tm  Tm17  1  0.316701  0.989750  0.750470  1
  Tm  Tm18  1  0.183475  0.489490  0.249933  1
  Tm  Tm19  1  0.683649  0.010212  0.249753  1
  Pt  Pt20  1  0.685540  0.968383  0.457652  1
  Pt  Pt21  1  0.185049  0.532693  0.041820  1
  Pt  Pt22  1  0.314641  0.033400  0.958661  1
  Pt  Pt23  1  0.817345  0.465405  0.541091  1
  Pt  Pt24  1  0.313441  0.035517  0.540370  1
  Pt  Pt25  1  0.814704  0.467476  0.958395  1
  Pt  Pt26  1  0.685263  0.966904  0.041753  1
  Pt  Pt27  1  0.184978  0.531594  0.457475  1
  Pt  Pt28  1  0.450300  0.385120  0.750636  1
  Pt  Pt29  1  0.951282  0.114232  0.750257  1
  Pt  Pt30  1  0.549246  0.613655  0.249939  1
  Pt  Pt31  1  0.049222  0.886372  0.249723  1
  Pt  Pt32  1  0.680264  0.857433  0.751425  1
  Pt  Pt33  1  0.177983  0.643856  0.750642  1
  Pt  Pt34  1  0.321689  0.143741  0.249352  1
  Pt  Pt35  1  0.821235  0.356395  0.249679  1
