# generated using pymatgen
data_YHo3(Sn5Rh3)2
_symmetry_space_group_name_H-M   'P 1'
_cell_length_a   13.47060334
_cell_length_b   13.47060385
_cell_length_c   7.26421303
_cell_angle_alpha   90.05496553
_cell_angle_beta   89.94503487
_cell_angle_gamma   161.12220566
_symmetry_Int_Tables_number   1
_chemical_formula_structural   YHo3(Sn5Rh3)2
_chemical_formula_sum   'Y1 Ho3 Sn10 Rh6'
_cell_volume   426.48607822
_cell_formula_units_Z   1
loop_
 _symmetry_equiv_pos_site_id
 _symmetry_equiv_pos_as_xyz
  1  'x, y, z'
loop_
 _atom_site_type_symbol
 _atom_site_label
 _atom_site_symmetry_multiplicity
 _atom_site_fract_x
 _atom_site_fract_y
 _atom_site_fract_z
 _atom_site_occupancy
  Y  Y0  1  0.827784  0.172216  0.755068  1
  Ho  Ho1  1  0.476321  0.523679  0.238380  1
  Ho  Ho2  1  0.171715  0.828285  0.256146  1
  Ho  Ho3  1  0.523899  0.476101  0.738665  1
  Sn  Sn4  1  0.704564  0.295436  0.548399  1
  Sn  Sn5  1  0.596541  0.403459  0.113884  1
  Sn  Sn6  1  0.047393  0.952607  0.399356  1
  Sn  Sn7  1  0.952749  0.047251  0.899319  1
  Sn  Sn8  1  0.708976  0.291024  0.978593  1
  Sn  Sn9  1  0.290673  0.709327  0.477751  1
  Sn  Sn10  1  0.295407  0.704593  0.048816  1
  Sn  Sn11  1  0.880993  0.119007  0.230846  1
  Sn  Sn12  1  0.119000  0.881000  0.730317  1
  Sn  Sn13  1  0.403704  0.596296  0.614492  1
  Rh  Rh14  1  0.394433  0.605567  0.984786  1
  Rh  Rh15  1  0.777243  0.222757  0.264206  1
  Rh  Rh16  1  0.222488  0.777512  0.764301  1
  Rh  Rh17  1  0.050168  0.949832  0.018654  1
  Rh  Rh18  1  0.605977  0.394023  0.483322  1
  Rh  Rh19  1  0.949973  0.050027  0.518496  1
