# generated using pymatgen
data_Nd5Y6In9Rh4
_symmetry_space_group_name_H-M   'P 1'
_cell_length_a   13.24816021
_cell_length_b   13.24958919
_cell_length_c   3.80985300
_cell_angle_alpha   90.00000000
_cell_angle_beta   90.00000000
_cell_angle_gamma   112.38657861
_symmetry_Int_Tables_number   1
_chemical_formula_structural   Nd5Y6In9Rh4
_chemical_formula_sum   'Nd5 Y6 In9 Rh4'
_cell_volume   618.35326816
_cell_formula_units_Z   1
loop_
 _symmetry_equiv_pos_site_id
 _symmetry_equiv_pos_as_xyz
  1  'x, y, z'
loop_
 _atom_site_type_symbol
 _atom_site_label
 _atom_site_symmetry_multiplicity
 _atom_site_fract_x
 _atom_site_fract_y
 _atom_site_fract_z
 _atom_site_occupancy
  Nd  Nd0  1  0.840847  0.159151  0.000000  1
  Nd  Nd1  1  0.159153  0.840849  0.000000  1
  Nd  Nd2  1  0.000000  0.000000  0.000000  1
  Nd  Nd3  1  0.313298  0.313288  0.000000  1
  Nd  Nd4  1  0.686702  0.686712  0.000000  1
  Y  Y5  1  0.080520  0.418849  0.000000  1
  Y  Y6  1  0.919480  0.581151  0.000000  1
  Y  Y7  1  0.418855  0.080526  0.000000  1
  Y  Y8  1  0.581145  0.919474  0.000000  1
  Y  Y9  1  0.626154  0.373836  0.000000  1
  Y  Y10  1  0.373846  0.626164  0.000000  1
  In  In11  1  0.839391  0.368787  0.500000  1
  In  In12  1  0.160609  0.631213  0.500000  1
  In  In13  1  0.368784  0.839388  0.500000  1
  In  In14  1  0.631216  0.160612  0.500000  1
  In  In15  1  0.078022  0.222460  0.500000  1
  In  In16  1  0.921978  0.777540  0.500000  1
  In  In17  1  0.222482  0.078025  0.500000  1
  In  In18  1  0.777518  0.921975  0.500000  1
  In  In19  1  0.500000  0.500000  0.500000  1
  Rh  Rh20  1  0.246046  0.454811  0.500000  1
  Rh  Rh21  1  0.753954  0.545189  0.500000  1
  Rh  Rh22  1  0.454818  0.246058  0.500000  1
  Rh  Rh23  1  0.545182  0.753942  0.500000  1
