# generated using pymatgen
data_YbDy(Sn2Ru)2
_symmetry_space_group_name_H-M   'P 1'
_cell_length_a   5.78213940
_cell_length_b   5.78213884
_cell_length_c   7.78621700
_cell_angle_alpha   90.00000000
_cell_angle_beta   90.00000000
_cell_angle_gamma   137.01926262
_symmetry_Int_Tables_number   1
_chemical_formula_structural   YbDy(Sn2Ru)2
_chemical_formula_sum   'Yb1 Dy1 Sn4 Ru2'
_cell_volume   177.47217820
_cell_formula_units_Z   1
loop_
 _symmetry_equiv_pos_site_id
 _symmetry_equiv_pos_as_xyz
  1  'x, y, z'
loop_
 _atom_site_type_symbol
 _atom_site_label
 _atom_site_symmetry_multiplicity
 _atom_site_fract_x
 _atom_site_fract_y
 _atom_site_fract_z
 _atom_site_occupancy
  Yb  Yb0  1  0.066440  0.933559  0.250000  1
  Dy  Dy1  1  0.931344  0.068655  0.750000  1
  Sn  Sn2  1  0.356200  0.643798  0.043424  1
  Sn  Sn3  1  0.356200  0.643798  0.456575  1
  Sn  Sn4  1  0.643559  0.356439  0.543649  1
  Sn  Sn5  1  0.643559  0.356439  0.956352  1
  Ru  Ru6  1  0.788090  0.211909  0.250000  1
  Ru  Ru7  1  0.214602  0.785397  0.750000  1
