# generated using pymatgen
data_La5Nd3Y12Ga5Si11
_symmetry_space_group_name_H-M   'P 1'
_cell_length_a   7.66205949
_cell_length_b   7.92075905
_cell_length_c   15.15837700
_cell_angle_alpha   90.00597497
_cell_angle_beta   90.07458416
_cell_angle_gamma   90.09107072
_symmetry_Int_Tables_number   1
_chemical_formula_structural   La5Nd3Y12Ga5Si11
_chemical_formula_sum   'La5 Nd3 Y12 Ga5 Si11'
_cell_volume   919.94975278
_cell_formula_units_Z   1
loop_
 _symmetry_equiv_pos_site_id
 _symmetry_equiv_pos_as_xyz
  1  'x, y, z'
loop_
 _atom_site_type_symbol
 _atom_site_label
 _atom_site_symmetry_multiplicity
 _atom_site_fract_x
 _atom_site_fract_y
 _atom_site_fract_z
 _atom_site_occupancy
  La  La0  1  0.484384  0.678008  0.598585  1
  La  La1  1  0.984636  0.822036  0.598643  1
  La  La2  1  0.984154  0.826911  0.899465  1
  La  La3  1  0.514282  0.323517  0.100868  1
  La  La4  1  0.013929  0.176429  0.101868  1
  Nd  Nd5  1  0.016785  0.177781  0.398587  1
  Nd  Nd6  1  0.516704  0.322344  0.398887  1
  Nd  Nd7  1  0.486011  0.678756  0.897908  1
  Y  Y8  1  0.326564  0.173042  0.623520  1
  Y  Y9  1  0.673614  0.823007  0.376484  1
  Y  Y10  1  0.664625  0.993303  0.751877  1
  Y  Y11  1  0.173008  0.677145  0.376354  1
  Y  Y12  1  0.824890  0.325020  0.876314  1
  Y  Y13  1  0.826261  0.326542  0.623252  1
  Y  Y14  1  0.836008  0.493441  0.252140  1
  Y  Y15  1  0.336972  0.005389  0.252848  1
  Y  Y16  1  0.329576  0.175006  0.874254  1
  Y  Y17  1  0.172897  0.672452  0.125993  1
  Y  Y18  1  0.672026  0.826671  0.125299  1
  Y  Y19  1  0.163472  0.505390  0.751148  1
  Ga  Ga20  1  0.152695  0.460592  0.536419  1
  Ga  Ga21  1  0.845207  0.538111  0.038774  1
  Ga  Ga22  1  0.346788  0.959875  0.037084  1
  Ga  Ga23  1  0.155984  0.463446  0.960321  1
  Ga  Ga24  1  0.652811  0.039671  0.536532  1
  Si  Si25  1  0.282045  0.877641  0.749632  1
  Si  Si26  1  0.466045  0.613811  0.252370  1
  Si  Si27  1  0.033426  0.116149  0.749180  1
  Si  Si28  1  0.534372  0.387591  0.749704  1
  Si  Si29  1  0.966244  0.886846  0.251786  1
  Si  Si30  1  0.717711  0.122438  0.252442  1
  Si  Si31  1  0.349424  0.968801  0.459368  1
  Si  Si32  1  0.849299  0.531514  0.459310  1
  Si  Si33  1  0.780558  0.621490  0.749555  1
  Si  Si34  1  0.218101  0.376836  0.252466  1
  Si  Si35  1  0.648489  0.033002  0.960766  1
