# generated using pymatgen
data_Cs2Ce(TeO4)3
_symmetry_space_group_name_H-M   'P 1'
_cell_length_a   7.76235815
_cell_length_b   7.76235862
_cell_length_c   7.76235761
_cell_angle_alpha   56.85176991
_cell_angle_beta   56.85177245
_cell_angle_gamma   56.85176854
_symmetry_Int_Tables_number   1
_chemical_formula_structural   Cs2Ce(TeO4)3
_chemical_formula_sum   'Cs2 Ce1 Te3 O12'
_cell_volume   306.69915418
_cell_formula_units_Z   1
loop_
 _symmetry_equiv_pos_site_id
 _symmetry_equiv_pos_as_xyz
  1  'x, y, z'
loop_
 _atom_site_type_symbol
 _atom_site_label
 _atom_site_symmetry_multiplicity
 _atom_site_fract_x
 _atom_site_fract_y
 _atom_site_fract_z
 _atom_site_occupancy
  Cs  Cs0  1  0.123516  0.123516  0.123516  1
  Cs  Cs1  1  0.876484  0.876484  0.876484  1
  Ce  Ce2  1  0.500000  0.500000  0.500000  1
  Te  Te3  1  0.000000  0.500000  0.500000  1
  Te  Te4  1  0.500000  0.500000  0.000000  1
  Te  Te5  1  0.500000  0.000000  0.500000  1
  O  O6  1  0.433619  0.844429  0.433619  1
  O  O7  1  0.817666  0.422082  0.817666  1
  O  O8  1  0.422082  0.817666  0.817666  1
  O  O9  1  0.844429  0.433619  0.433619  1
  O  O10  1  0.817666  0.817666  0.422082  1
  O  O11  1  0.433619  0.433619  0.844429  1
  O  O12  1  0.566381  0.155571  0.566381  1
  O  O13  1  0.182334  0.577918  0.182334  1
  O  O14  1  0.577918  0.182334  0.182334  1
  O  O15  1  0.155571  0.566381  0.566381  1
  O  O16  1  0.182334  0.182334  0.577918  1
  O  O17  1  0.566381  0.566381  0.155571  1
