# generated using pymatgen
data_Er4TmIr2
_symmetry_space_group_name_H-M   'P 1'
_cell_length_a   6.44720730
_cell_length_b   7.16923309
_cell_length_c   8.39200018
_cell_angle_alpha   96.38511940
_cell_angle_beta   112.58962812
_cell_angle_gamma   90.00000181
_symmetry_Int_Tables_number   1
_chemical_formula_structural   Er4TmIr2
_chemical_formula_sum   'Er8 Tm2 Ir4'
_cell_volume   355.52450629
_cell_formula_units_Z   2
loop_
 _symmetry_equiv_pos_site_id
 _symmetry_equiv_pos_as_xyz
  1  'x, y, z'
loop_
 _atom_site_type_symbol
 _atom_site_label
 _atom_site_symmetry_multiplicity
 _atom_site_fract_x
 _atom_site_fract_y
 _atom_site_fract_z
 _atom_site_occupancy
  Er  Er0  1  0.969760  0.918925  0.181516  1
  Er  Er1  1  0.788243  0.581075  0.818484  1
  Er  Er2  1  0.030240  0.081075  0.818484  1
  Er  Er3  1  0.211757  0.418925  0.181516  1
  Er  Er4  1  0.654176  0.818260  0.442505  1
  Er  Er5  1  0.211671  0.681740  0.557495  1
  Er  Er6  1  0.345824  0.181740  0.557495  1
  Er  Er7  1  0.788329  0.318260  0.442505  1
  Tm  Tm8  1  0.427341  0.750000  0.000000  1
  Tm  Tm9  1  0.572659  0.250000  0.000000  1
  Ir  Ir10  1  0.826648  0.573158  0.217952  1
  Ir  Ir11  1  0.608696  0.926842  0.782048  1
  Ir  Ir12  1  0.173353  0.426842  0.782048  1
  Ir  Ir13  1  0.391304  0.073158  0.217952  1
