# generated using pymatgen
data_Lu10Ga4SiBi
_symmetry_space_group_name_H-M   'P 1'
_cell_length_a   8.42554952
_cell_length_b   8.45210032
_cell_length_c   6.37854300
_cell_angle_alpha   90.00000000
_cell_angle_beta   90.00000000
_cell_angle_gamma   119.85572154
_symmetry_Int_Tables_number   1
_chemical_formula_structural   Lu10Ga4SiBi
_chemical_formula_sum   'Lu10 Ga4 Si1 Bi1'
_cell_volume   393.95313500
_cell_formula_units_Z   1
loop_
 _symmetry_equiv_pos_site_id
 _symmetry_equiv_pos_as_xyz
  1  'x, y, z'
loop_
 _atom_site_type_symbol
 _atom_site_label
 _atom_site_symmetry_multiplicity
 _atom_site_fract_x
 _atom_site_fract_y
 _atom_site_fract_z
 _atom_site_occupancy
  Lu  Lu0  1  0.678194  0.348788  0.006232  1
  Lu  Lu1  1  0.334181  0.652488  0.493736  1
  Lu  Lu2  1  0.334181  0.652488  0.006264  1
  Lu  Lu3  1  0.678194  0.348788  0.493768  1
  Lu  Lu4  1  0.769522  0.998163  0.750000  1
  Lu  Lu5  1  0.756837  0.759443  0.250000  1
  Lu  Lu6  1  0.998188  0.240985  0.250000  1
  Lu  Lu7  1  0.983033  0.746137  0.750000  1
  Lu  Lu8  1  0.237904  0.254092  0.750000  1
  Lu  Lu9  1  0.237776  0.999894  0.250000  1
  Ga  Ga10  1  0.396862  0.393466  0.250000  1
  Ga  Ga11  1  0.002993  0.604660  0.250000  1
  Ga  Ga12  1  0.996630  0.399554  0.750000  1
  Ga  Ga13  1  0.599705  0.999090  0.250000  1
  Si  Si14  1  0.599913  0.602448  0.750000  1
  Bi  Bi15  1  0.395888  0.999515  0.750000  1
