# generated using pymatgen
data_Yb4Dy4Sc12Si15Pt
_symmetry_space_group_name_H-M   'P 1'
_cell_length_a   7.11975069
_cell_length_b   7.45775917
_cell_length_c   14.08079140
_cell_angle_alpha   89.95613682
_cell_angle_beta   89.97376203
_cell_angle_gamma   89.96871293
_symmetry_Int_Tables_number   1
_chemical_formula_structural   Yb4Dy4Sc12Si15Pt
_chemical_formula_sum   'Yb4 Dy4 Sc12 Si15 Pt1'
_cell_volume   747.65280780
_cell_formula_units_Z   1
loop_
 _symmetry_equiv_pos_site_id
 _symmetry_equiv_pos_as_xyz
  1  'x, y, z'
loop_
 _atom_site_type_symbol
 _atom_site_label
 _atom_site_symmetry_multiplicity
 _atom_site_fract_x
 _atom_site_fract_y
 _atom_site_fract_z
 _atom_site_occupancy
  Yb  Yb0  1  0.008357  0.173289  0.095346  1
  Yb  Yb1  1  0.992811  0.828714  0.906048  1
  Yb  Yb2  1  0.490211  0.676218  0.907199  1
  Yb  Yb3  1  0.991829  0.826670  0.593518  1
  Dy  Dy4  1  0.511424  0.324284  0.098541  1
  Dy  Dy5  1  0.012219  0.176936  0.403873  1
  Dy  Dy6  1  0.513215  0.323778  0.403268  1
  Dy  Dy7  1  0.485329  0.678306  0.593541  1
  Sc  Sc8  1  0.156359  0.509864  0.751347  1
  Sc  Sc9  1  0.841014  0.494223  0.249877  1
  Sc  Sc10  1  0.337994  0.007318  0.249388  1
  Sc  Sc11  1  0.667694  0.991072  0.749760  1
  Sc  Sc12  1  0.322695  0.171519  0.624331  1
  Sc  Sc13  1  0.671996  0.826258  0.374631  1
  Sc  Sc14  1  0.173132  0.677994  0.375346  1
  Sc  Sc15  1  0.674483  0.827353  0.125552  1
  Sc  Sc16  1  0.829922  0.322232  0.625563  1
  Sc  Sc17  1  0.322323  0.170782  0.873654  1
  Sc  Sc18  1  0.827093  0.323535  0.874220  1
  Sc  Sc19  1  0.172614  0.678059  0.125770  1
  Si  Si20  1  0.967482  0.881396  0.251838  1
  Si  Si21  1  0.470743  0.616573  0.250382  1
  Si  Si22  1  0.525033  0.386429  0.748242  1
  Si  Si23  1  0.289815  0.872084  0.747165  1
  Si  Si24  1  0.714873  0.125957  0.252251  1
  Si  Si25  1  0.218028  0.376224  0.252105  1
  Si  Si26  1  0.773728  0.617868  0.747483  1
  Si  Si27  1  0.157994  0.462528  0.536272  1
  Si  Si28  1  0.846293  0.532499  0.459078  1
  Si  Si29  1  0.348391  0.968815  0.457402  1
  Si  Si30  1  0.848196  0.534102  0.041862  1
  Si  Si31  1  0.655091  0.035277  0.537562  1
  Si  Si32  1  0.152862  0.463170  0.962236  1
  Si  Si33  1  0.649930  0.039794  0.962233  1
  Si  Si34  1  0.351175  0.969827  0.043619  1
  Pt  Pt35  1  0.027654  0.109052  0.749495  1
