# generated using pymatgen
data_K2Pa8S13
_symmetry_space_group_name_H-M   'P 1'
_cell_length_a   12.73361291
_cell_length_b   11.25556307
_cell_length_c   3.87141432
_cell_angle_alpha   90.10382707
_cell_angle_beta   98.42652402
_cell_angle_gamma   86.15691733
_symmetry_Int_Tables_number   1
_chemical_formula_structural   K2Pa8S13
_chemical_formula_sum   'K2 Pa8 S13'
_cell_volume   547.62425251
_cell_formula_units_Z   1
loop_
 _symmetry_equiv_pos_site_id
 _symmetry_equiv_pos_as_xyz
  1  'x, y, z'
loop_
 _atom_site_type_symbol
 _atom_site_label
 _atom_site_symmetry_multiplicity
 _atom_site_fract_x
 _atom_site_fract_y
 _atom_site_fract_z
 _atom_site_occupancy
  K  K0  1  0.822492  0.046483  0.409161  1
  K  K1  1  0.177530  0.953590  0.590928  1
  Pa  Pa2  1  0.152692  0.320808  0.079459  1
  Pa  Pa3  1  0.373592  0.537230  0.186417  1
  Pa  Pa4  1  0.553996  0.821299  0.276654  1
  Pa  Pa5  1  0.885190  0.399089  0.443056  1
  Pa  Pa6  1  0.114823  0.600997  0.556943  1
  Pa  Pa7  1  0.446115  0.178370  0.723381  1
  Pa  Pa8  1  0.626312  0.462679  0.813569  1
  Pa  Pa9  1  0.847322  0.679203  0.920567  1
  S  S10  1  0.000003  0.500029  0.000001  1
  S  S11  1  0.219137  0.720714  0.108255  1
  S  S12  1  0.295226  0.133619  0.150496  1
  S  S13  1  0.521212  0.340862  0.261445  1
  S  S14  1  0.574763  0.072202  0.285734  1
  S  S15  1  0.722532  0.589542  0.359457  1
  S  S16  1  0.962765  0.789331  0.477700  1
  S  S17  1  0.037176  0.210815  0.522242  1
  S  S18  1  0.277452  0.410493  0.640544  1
  S  S19  1  0.425223  0.927750  0.714210  1
  S  S20  1  0.478693  0.659064  0.738517  1
  S  S21  1  0.704831  0.866433  0.849539  1
  S  S22  1  0.780922  0.279395  0.891716  1
