# generated using pymatgen
data_YTm7(TcI4)2
_symmetry_space_group_name_H-M   'P 1'
_cell_length_a   11.30381443
_cell_length_b   11.30331215
_cell_length_c   6.12924000
_cell_angle_alpha   89.28608255
_cell_angle_beta   89.44232644
_cell_angle_gamma   88.77592372
_symmetry_Int_Tables_number   1
_chemical_formula_structural   YTm7(TcI4)2
_chemical_formula_sum   'Y1 Tm7 Tc2 I8'
_cell_volume   782.86172395
_cell_formula_units_Z   1
loop_
 _symmetry_equiv_pos_site_id
 _symmetry_equiv_pos_as_xyz
  1  'x, y, z'
loop_
 _atom_site_type_symbol
 _atom_site_label
 _atom_site_symmetry_multiplicity
 _atom_site_fract_x
 _atom_site_fract_y
 _atom_site_fract_z
 _atom_site_occupancy
  Y  Y0  1  0.201464  0.915259  0.997966  1
  Tm  Tm1  1  0.805307  0.082026  0.003145  1
  Tm  Tm2  1  0.081010  0.805498  0.504640  1
  Tm  Tm3  1  0.917245  0.194608  0.496159  1
  Tm  Tm4  1  0.806516  0.922768  0.505777  1
  Tm  Tm5  1  0.192180  0.078384  0.494870  1
  Tm  Tm6  1  0.077847  0.192653  0.994284  1
  Tm  Tm7  1  0.922475  0.807224  0.006287  1
  Tc  Tc8  1  0.000167  0.999787  0.250506  1
  Tc  Tc9  1  0.999809  0.000149  0.750133  1
  I  I10  1  0.355311  0.848621  0.505217  1
  I  I11  1  0.643960  0.151565  0.491587  1
  I  I12  1  0.149176  0.641766  0.991336  1
  I  I13  1  0.848753  0.355058  0.007935  1
  I  I14  1  0.352259  0.148024  0.997212  1
  I  I15  1  0.648151  0.856002  0.002964  1
  I  I16  1  0.855275  0.649110  0.503017  1
  I  I17  1  0.143094  0.351500  0.496967  1
