# generated using pymatgen
data_PrNd3(Ga5Pt3)4
_symmetry_space_group_name_H-M   'P 1'
_cell_length_a   4.15448200
_cell_length_b   7.39830400
_cell_length_c   21.17895901
_cell_angle_alpha   89.99652302
_cell_angle_beta   90.00000000
_cell_angle_gamma   90.00000000
_symmetry_Int_Tables_number   1
_chemical_formula_structural   PrNd3(Ga5Pt3)4
_chemical_formula_sum   'Pr1 Nd3 Ga20 Pt12'
_cell_volume   650.95904161
_cell_formula_units_Z   1
loop_
 _symmetry_equiv_pos_site_id
 _symmetry_equiv_pos_as_xyz
  1  'x, y, z'
loop_
 _atom_site_type_symbol
 _atom_site_label
 _atom_site_symmetry_multiplicity
 _atom_site_fract_x
 _atom_site_fract_y
 _atom_site_fract_z
 _atom_site_occupancy
  Pr  Pr0  1  0.250000  0.118352  0.641831  1
  Nd  Nd1  1  0.750000  0.881856  0.358154  1
  Nd  Nd2  1  0.250000  0.381864  0.141799  1
  Nd  Nd3  1  0.750000  0.618137  0.858254  1
  Ga  Ga4  1  0.750000  0.352284  0.383013  1
  Ga  Ga5  1  0.750000  0.882418  0.982846  1
  Ga  Ga6  1  0.750000  0.681579  0.200138  1
  Ga  Ga7  1  0.250000  0.870353  0.488933  1
  Ga  Ga8  1  0.250000  0.629490  0.989047  1
  Ga  Ga9  1  0.250000  0.318543  0.799942  1
  Ga  Ga10  1  0.750000  0.078090  0.206234  1
  Ga  Ga11  1  0.250000  0.647278  0.616963  1
  Ga  Ga12  1  0.250000  0.578114  0.293742  1
  Ga  Ga13  1  0.250000  0.181640  0.299863  1
  Ga  Ga14  1  0.750000  0.147747  0.883280  1
  Ga  Ga15  1  0.250000  0.921720  0.793944  1
  Ga  Ga16  1  0.750000  0.370504  0.010968  1
  Ga  Ga17  1  0.750000  0.617404  0.482484  1
  Ga  Ga18  1  0.750000  0.129384  0.510753  1
  Ga  Ga19  1  0.250000  0.117589  0.017184  1
  Ga  Ga20  1  0.250000  0.852331  0.116932  1
  Ga  Ga21  1  0.250000  0.383052  0.516942  1
  Ga  Ga22  1  0.750000  0.422443  0.706373  1
  Ga  Ga23  1  0.750000  0.817462  0.700380  1
  Pt  Pt24  1  0.750000  0.382775  0.262761  1
  Pt  Pt25  1  0.250000  0.882759  0.237227  1
  Pt  Pt26  1  0.250000  0.617280  0.737278  1
  Pt  Pt27  1  0.750000  0.117142  0.763308  1
  Pt  Pt28  1  0.250000  0.164183  0.425059  1
  Pt  Pt29  1  0.750000  0.426242  0.585103  1
  Pt  Pt30  1  0.750000  0.075283  0.085357  1
  Pt  Pt31  1  0.250000  0.924674  0.914720  1
  Pt  Pt32  1  0.750000  0.834608  0.574624  1
  Pt  Pt33  1  0.250000  0.335754  0.925086  1
  Pt  Pt34  1  0.750000  0.664284  0.074934  1
  Pt  Pt35  1  0.250000  0.575382  0.414543  1
