# generated using pymatgen
data_LiDy5Ho11Cd3Co4
_symmetry_space_group_name_H-M   'P 1'
_cell_length_a   9.44722519
_cell_length_b   9.46654118
_cell_length_c   9.48598151
_cell_angle_alpha   60.06776004
_cell_angle_beta   60.04688080
_cell_angle_gamma   59.93233552
_symmetry_Int_Tables_number   1
_chemical_formula_structural   LiDy5Ho11Cd3Co4
_chemical_formula_sum   'Li1 Dy5 Ho11 Cd3 Co4'
_cell_volume   600.08892193
_cell_formula_units_Z   1
loop_
 _symmetry_equiv_pos_site_id
 _symmetry_equiv_pos_as_xyz
  1  'x, y, z'
loop_
 _atom_site_type_symbol
 _atom_site_label
 _atom_site_symmetry_multiplicity
 _atom_site_fract_x
 _atom_site_fract_y
 _atom_site_fract_z
 _atom_site_occupancy
  Li  Li0  1  0.571026  0.571487  0.286001  1
  Dy  Dy1  1  0.937104  0.936579  0.563126  1
  Dy  Dy2  1  0.813194  0.187066  0.185064  1
  Dy  Dy3  1  0.937104  0.563193  0.563126  1
  Dy  Dy4  1  0.939528  0.560653  0.939166  1
  Dy  Dy5  1  0.813194  0.814676  0.185064  1
  Ho  Ho6  1  0.343846  0.343079  0.346577  1
  Ho  Ho7  1  0.560645  0.939207  0.938903  1
  Ho  Ho8  1  0.563255  0.936659  0.563428  1
  Ho  Ho9  1  0.189008  0.812703  0.809417  1
  Ho  Ho10  1  0.189008  0.188873  0.809417  1
  Ho  Ho11  1  0.348024  0.347203  0.957572  1
  Ho  Ho12  1  0.343846  0.966499  0.346577  1
  Ho  Ho13  1  0.811946  0.189076  0.809902  1
  Ho  Ho14  1  0.560645  0.561245  0.938903  1
  Ho  Ho15  1  0.186497  0.814024  0.185453  1
  Ho  Ho16  1  0.966225  0.343127  0.347523  1
  Cd  Cd17  1  0.258384  0.582210  0.577198  1
  Cd  Cd18  1  0.581463  0.582422  0.577387  1
  Cd  Cd19  1  0.581463  0.258730  0.577387  1
  Co  Co20  1  0.577148  0.141997  0.138858  1
  Co  Co21  1  0.142991  0.141937  0.138077  1
  Co  Co22  1  0.142991  0.576996  0.138077  1
  Co  Co23  1  0.141468  0.140362  0.577808  1
