# generated using pymatgen
data_Ca3(SbRh)2
_symmetry_space_group_name_H-M   'P 1'
_cell_length_a   5.82012000
_cell_length_b   8.48037500
_cell_length_c   13.80230700
_cell_angle_alpha   90.00000000
_cell_angle_beta   90.00000000
_cell_angle_gamma   90.00000000
_symmetry_Int_Tables_number   1
_chemical_formula_structural   Ca3(SbRh)2
_chemical_formula_sum   'Ca12 Sb8 Rh8'
_cell_volume   681.23770814
_cell_formula_units_Z   4
loop_
 _symmetry_equiv_pos_site_id
 _symmetry_equiv_pos_as_xyz
  1  'x, y, z'
loop_
 _atom_site_type_symbol
 _atom_site_label
 _atom_site_symmetry_multiplicity
 _atom_site_fract_x
 _atom_site_fract_y
 _atom_site_fract_z
 _atom_site_occupancy
  Ca  Ca0  1  0.149887  0.604985  0.098457  1
  Ca  Ca1  1  0.149887  0.895015  0.901543  1
  Ca  Ca2  1  0.850113  0.104985  0.401543  1
  Ca  Ca3  1  0.850113  0.395015  0.598457  1
  Ca  Ca4  1  0.850113  0.395015  0.901543  1
  Ca  Ca5  1  0.850113  0.104985  0.098457  1
  Ca  Ca6  1  0.149887  0.895015  0.598457  1
  Ca  Ca7  1  0.149887  0.604985  0.401543  1
  Ca  Ca8  1  0.366303  0.240970  0.250000  1
  Ca  Ca9  1  0.366303  0.259030  0.750000  1
  Ca  Ca10  1  0.633697  0.740970  0.250000  1
  Ca  Ca11  1  0.633697  0.759030  0.750000  1
  Sb  Sb12  1  0.371059  0.250000  0.000000  1
  Sb  Sb13  1  0.628941  0.750000  0.500000  1
  Sb  Sb14  1  0.628941  0.750000  0.000000  1
  Sb  Sb15  1  0.371059  0.250000  0.500000  1
  Sb  Sb16  1  0.861691  0.393692  0.250000  1
  Sb  Sb17  1  0.861691  0.106308  0.750000  1
  Sb  Sb18  1  0.138309  0.893692  0.250000  1
  Sb  Sb19  1  0.138309  0.606308  0.750000  1
  Rh  Rh20  1  0.630769  0.468828  0.087572  1
  Rh  Rh21  1  0.630769  0.031172  0.912428  1
  Rh  Rh22  1  0.369231  0.968828  0.412428  1
  Rh  Rh23  1  0.369231  0.531172  0.587572  1
  Rh  Rh24  1  0.369231  0.531172  0.912428  1
  Rh  Rh25  1  0.369231  0.968828  0.087572  1
  Rh  Rh26  1  0.630769  0.031172  0.587572  1
  Rh  Rh27  1  0.630769  0.468828  0.412428  1
