# generated using pymatgen
data_Sm2Lu4NiRh17
_symmetry_space_group_name_H-M   'P 1'
_cell_length_a   5.26430100
_cell_length_b   5.26434532
_cell_length_c   17.34188800
_cell_angle_alpha   90.00000000
_cell_angle_beta   90.00000000
_cell_angle_gamma   120.00034358
_symmetry_Int_Tables_number   1
_chemical_formula_structural   Sm2Lu4NiRh17
_chemical_formula_sum   'Sm2 Lu4 Ni1 Rh17'
_cell_volume   416.20815772
_cell_formula_units_Z   1
loop_
 _symmetry_equiv_pos_site_id
 _symmetry_equiv_pos_as_xyz
  1  'x, y, z'
loop_
 _atom_site_type_symbol
 _atom_site_label
 _atom_site_symmetry_multiplicity
 _atom_site_fract_x
 _atom_site_fract_y
 _atom_site_fract_z
 _atom_site_occupancy
  Sm  Sm0  1  0.333327  0.666652  0.750000  1
  Sm  Sm1  1  0.666667  0.333343  0.250000  1
  Lu  Lu2  1  0.333327  0.666664  0.958923  1
  Lu  Lu3  1  0.666659  0.333325  0.040564  1
  Lu  Lu4  1  0.666659  0.333325  0.459436  1
  Lu  Lu5  1  0.333327  0.666664  0.541077  1
  Ni  Ni6  1  0.333387  0.666726  0.250000  1
  Rh  Rh7  1  0.169042  0.830951  0.373646  1
  Rh  Rh8  1  0.169052  0.338092  0.373653  1
  Rh  Rh9  1  0.661912  0.830945  0.373649  1
  Rh  Rh10  1  0.832563  0.167431  0.623327  1
  Rh  Rh11  1  0.832564  0.665131  0.623326  1
  Rh  Rh12  1  0.334862  0.167428  0.623328  1
  Rh  Rh13  1  0.832563  0.167431  0.876673  1
  Rh  Rh14  1  0.832564  0.665131  0.876674  1
  Rh  Rh15  1  0.334862  0.167428  0.876672  1
  Rh  Rh16  1  0.169042  0.830951  0.126354  1
  Rh  Rh17  1  0.169052  0.338092  0.126347  1
  Rh  Rh18  1  0.661912  0.830945  0.126351  1
  Rh  Rh19  1  0.666658  0.333323  0.750000  1
  Rh  Rh20  1  0.999987  0.000004  0.250000  1
  Rh  Rh21  1  0.000003  0.000006  0.750000  1
  Rh  Rh22  1  0.000004  0.000007  0.497747  1
  Rh  Rh23  1  0.000004  0.000007  0.002253  1
