# generated using pymatgen
data_Dy6Lu4Si5As
_symmetry_space_group_name_H-M   'P 1'
_cell_length_a   8.38689700
_cell_length_b   8.39583164
_cell_length_c   6.21511700
_cell_angle_alpha   90.00000000
_cell_angle_beta   90.00000000
_cell_angle_gamma   119.96481541
_symmetry_Int_Tables_number   1
_chemical_formula_structural   Dy6Lu4Si5As
_chemical_formula_sum   'Dy6 Lu4 Si5 As1'
_cell_volume   379.13932976
_cell_formula_units_Z   1
loop_
 _symmetry_equiv_pos_site_id
 _symmetry_equiv_pos_as_xyz
  1  'x, y, z'
loop_
 _atom_site_type_symbol
 _atom_site_label
 _atom_site_symmetry_multiplicity
 _atom_site_fract_x
 _atom_site_fract_y
 _atom_site_fract_z
 _atom_site_occupancy
  Dy  Dy0  1  0.756894  0.000000  0.750000  1
  Dy  Dy1  1  0.755276  0.754809  0.250000  1
  Dy  Dy2  1  0.000467  0.245191  0.250000  1
  Dy  Dy3  1  0.996338  0.752439  0.750000  1
  Dy  Dy4  1  0.243899  0.247561  0.750000  1
  Dy  Dy5  1  0.244505  0.000000  0.250000  1
  Lu  Lu6  1  0.668982  0.336004  0.001573  1
  Lu  Lu7  1  0.332977  0.663996  0.498427  1
  Lu  Lu8  1  0.332977  0.663996  0.001573  1
  Lu  Lu9  1  0.668982  0.336004  0.498427  1
  Si  Si10  1  0.395553  0.394307  0.250000  1
  Si  Si11  1  0.001244  0.605693  0.250000  1
  Si  Si12  1  0.999560  0.395277  0.750000  1
  Si  Si13  1  0.604284  0.604723  0.750000  1
  Si  Si14  1  0.605730  0.000000  0.250000  1
  As  As15  1  0.392331  0.000000  0.750000  1
