# generated using pymatgen
data_FeOs2F12
_symmetry_space_group_name_H-M   'P 1'
_cell_length_a   5.31876592
_cell_length_b   5.67932375
_cell_length_c   9.21462980
_cell_angle_alpha   105.29965986
_cell_angle_beta   91.09235627
_cell_angle_gamma   118.90171074
_symmetry_Int_Tables_number   1
_chemical_formula_structural   FeOs2F12
_chemical_formula_sum   'Fe1 Os2 F12'
_cell_volume   231.47316398
_cell_formula_units_Z   1
loop_
 _symmetry_equiv_pos_site_id
 _symmetry_equiv_pos_as_xyz
  1  'x, y, z'
loop_
 _atom_site_type_symbol
 _atom_site_label
 _atom_site_symmetry_multiplicity
 _atom_site_fract_x
 _atom_site_fract_y
 _atom_site_fract_z
 _atom_site_occupancy
  Fe  Fe0  1  0.000000  0.000000  0.000000  1
  Os  Os1  1  0.773305  0.499836  0.254347  1
  Os  Os2  1  0.226695  0.500164  0.745653  1
  F  F3  1  0.820088  0.267068  0.698792  1
  F  F4  1  0.179912  0.732932  0.301208  1
  F  F5  1  0.179760  0.747336  0.927780  1
  F  F6  1  0.712201  0.724240  0.421115  1
  F  F7  1  0.287799  0.275760  0.578885  1
  F  F8  1  0.776119  0.266793  0.364189  1
  F  F9  1  0.223881  0.733207  0.635811  1
  F  F10  1  0.348740  0.250883  0.185036  1
  F  F11  1  0.651260  0.749117  0.814964  1
  F  F12  1  0.764246  0.727044  0.127629  1
  F  F13  1  0.235754  0.272956  0.872371  1
  F  F14  1  0.820240  0.252664  0.072220  1
