# generated using pymatgen
data_Ho2ErTh(CdCu2)2
_symmetry_space_group_name_H-M   'P 1'
_cell_length_a   7.61490092
_cell_length_b   7.61490054
_cell_length_c   3.68417500
_cell_angle_alpha   90.00000000
_cell_angle_beta   90.00000000
_cell_angle_gamma   91.21103393
_symmetry_Int_Tables_number   1
_chemical_formula_structural   Ho2ErTh(CdCu2)2
_chemical_formula_sum   'Ho2 Er1 Th1 Cd2 Cu4'
_cell_volume   213.58547979
_cell_formula_units_Z   1
loop_
 _symmetry_equiv_pos_site_id
 _symmetry_equiv_pos_as_xyz
  1  'x, y, z'
loop_
 _atom_site_type_symbol
 _atom_site_label
 _atom_site_symmetry_multiplicity
 _atom_site_fract_x
 _atom_site_fract_y
 _atom_site_fract_z
 _atom_site_occupancy
  Ho  Ho0  1  0.176313  0.328897  0.500000  1
  Ho  Ho1  1  0.828897  0.676313  0.500000  1
  Er  Er2  1  0.323728  0.823728  0.500000  1
  Th  Th3  1  0.672952  0.172952  0.500000  1
  Cd  Cd4  1  0.006284  0.996837  0.000000  1
  Cd  Cd5  1  0.496837  0.506284  0.000000  1
  Cu  Cu6  1  0.119359  0.619359  0.000000  1
  Cu  Cu7  1  0.882907  0.382907  0.000000  1
  Cu  Cu8  1  0.617541  0.875181  0.000000  1
  Cu  Cu9  1  0.375181  0.117541  0.000000  1
