# generated using pymatgen
data_MgVAsF12
_symmetry_space_group_name_H-M   'P 1'
_cell_length_a   5.36021384
_cell_length_b   10.84849550
_cell_length_c   5.37696805
_cell_angle_alpha   58.22529054
_cell_angle_beta   57.97376445
_cell_angle_gamma   58.27066611
_symmetry_Int_Tables_number   1
_chemical_formula_structural   MgVAsF12
_chemical_formula_sum   'Mg1 V1 As1 F12'
_cell_volume   211.74784859
_cell_formula_units_Z   1
loop_
 _symmetry_equiv_pos_site_id
 _symmetry_equiv_pos_as_xyz
  1  'x, y, z'
loop_
 _atom_site_type_symbol
 _atom_site_label
 _atom_site_symmetry_multiplicity
 _atom_site_fract_x
 _atom_site_fract_y
 _atom_site_fract_z
 _atom_site_occupancy
  Mg  Mg0  1  0.501552  0.752291  0.495446  1
  V  V1  1  0.997318  0.493537  0.011544  1
  As  As2  1  0.006579  0.003626  0.988901  1
  F  F3  1  0.339160  0.054216  0.779464  1
  F  F4  1  0.309737  0.585639  0.758682  1
  F  F5  1  0.135134  0.392059  0.321769  1
  F  F6  1  0.142197  0.878811  0.321629  1
  F  F7  1  0.230443  0.346210  0.853854  1
  F  F8  1  0.228548  0.834451  0.864236  1
  F  F9  1  0.874732  0.104134  0.678860  1
  F  F10  1  0.841158  0.623907  0.676912  1
  F  F11  1  0.664502  0.439270  0.225058  1
  F  F12  1  0.686806  0.925692  0.229326  1
  F  F13  1  0.782032  0.150819  0.141287  1
  F  F14  1  0.760104  0.665336  0.153033  1
