# generated using pymatgen
data_Hf6Al7Cu16H3
_symmetry_space_group_name_H-M   'P 1'
_cell_length_a   8.44574272
_cell_length_b   8.44574355
_cell_length_c   8.44574361
_cell_angle_alpha   120.42522395
_cell_angle_beta   120.08117098
_cell_angle_gamma   89.56226283
_symmetry_Int_Tables_number   1
_chemical_formula_structural   Hf6Al7Cu16H3
_chemical_formula_sum   'Hf6 Al7 Cu16 H3'
_cell_volume   424.34071164
_cell_formula_units_Z   1
loop_
 _symmetry_equiv_pos_site_id
 _symmetry_equiv_pos_as_xyz
  1  'x, y, z'
loop_
 _atom_site_type_symbol
 _atom_site_label
 _atom_site_symmetry_multiplicity
 _atom_site_fract_x
 _atom_site_fract_y
 _atom_site_fract_z
 _atom_site_occupancy
  Hf  Hf0  1  0.800143  0.199439  0.999238  1
  Hf  Hf1  1  0.800143  0.800905  0.600704  1
  Hf  Hf2  1  0.785785  0.785785  0.000000  1
  Hf  Hf3  1  0.200202  0.800905  0.000762  1
  Hf  Hf4  1  0.200202  0.199439  0.399296  1
  Hf  Hf5  1  0.208818  0.208818  0.000000  1
  Al  Al6  1  0.497682  0.496865  0.497681  1
  Al  Al7  1  0.497682  0.000003  0.000817  1
  Al  Al8  1  0.498190  0.998190  0.500000  1
  Al  Al9  1  0.999184  0.000003  0.502319  1
  Al  Al10  1  0.999184  0.496865  0.999183  1
  Al  Al11  1  0.998355  0.498355  0.500000  1
  Al  Al12  1  0.499281  0.499281  0.000000  1
  Cu  Cu13  1  0.471387  0.821631  0.649755  1
  Cu  Cu14  1  0.171877  0.821631  0.350245  1
  Cu  Cu15  1  0.166149  0.828759  0.662610  1
  Cu  Cu16  1  0.166149  0.503537  0.337390  1
  Cu  Cu17  1  0.510445  0.168915  0.341530  1
  Cu  Cu18  1  0.827384  0.168915  0.658470  1
  Cu  Cu19  1  0.830680  0.166307  0.335628  1
  Cu  Cu20  1  0.830680  0.495053  0.664372  1
  Cu  Cu21  1  0.857339  0.617648  0.239690  1
  Cu  Cu22  1  0.377958  0.617648  0.760310  1
  Cu  Cu23  1  0.380756  0.620734  0.239978  1
  Cu  Cu24  1  0.380756  0.140779  0.760022  1
  Cu  Cu25  1  0.141870  0.381256  0.760614  1
  Cu  Cu26  1  0.620642  0.381256  0.239386  1
  Cu  Cu27  1  0.617052  0.376871  0.759818  1
  Cu  Cu28  1  0.617052  0.857233  0.240182  1
  H  H29  1  0.041807  0.041807  0.000000  1
  H  H30  1  0.753132  0.912483  0.840650  1
  H  H31  1  0.071833  0.912483  0.159350  1
