# generated using pymatgen
data_Ga4Pd7Pt
_symmetry_space_group_name_H-M   'P 1'
_cell_length_a   4.10721200
_cell_length_b   5.61168112
_cell_length_c   7.90796258
_cell_angle_alpha   90.07243426
_cell_angle_beta   90.00000000
_cell_angle_gamma   90.00000000
_symmetry_Int_Tables_number   1
_chemical_formula_structural   Ga4Pd7Pt
_chemical_formula_sum   'Ga4 Pd7 Pt1'
_cell_volume   182.26545471
_cell_formula_units_Z   1
loop_
 _symmetry_equiv_pos_site_id
 _symmetry_equiv_pos_as_xyz
  1  'x, y, z'
loop_
 _atom_site_type_symbol
 _atom_site_label
 _atom_site_symmetry_multiplicity
 _atom_site_fract_x
 _atom_site_fract_y
 _atom_site_fract_z
 _atom_site_occupancy
  Ga  Ga0  1  0.750000  0.205444  0.391571  1
  Ga  Ga1  1  0.250000  0.794400  0.608201  1
  Ga  Ga2  1  0.750000  0.705431  0.108449  1
  Ga  Ga3  1  0.250000  0.295398  0.892100  1
  Pd  Pd4  1  0.250000  0.835573  0.933690  1
  Pd  Pd5  1  0.750000  0.664765  0.433384  1
  Pd  Pd6  1  0.250000  0.335486  0.567016  1
  Pd  Pd7  1  0.750000  0.040744  0.707179  1
  Pd  Pd8  1  0.250000  0.958163  0.292248  1
  Pd  Pd9  1  0.750000  0.542456  0.791818  1
  Pd  Pd10  1  0.250000  0.458507  0.208465  1
  Pt  Pt11  1  0.750000  0.163633  0.065879  1
