# generated using pymatgen
data_Dy3Tm2Sn2Bi
_symmetry_space_group_name_H-M   'P 1'
_cell_length_a   6.46829300
_cell_length_b   8.98318663
_cell_length_c   8.98736310
_cell_angle_alpha   120.01237345
_cell_angle_beta   89.99977008
_cell_angle_gamma   90.00032443
_symmetry_Int_Tables_number   1
_chemical_formula_structural   Dy3Tm2Sn2Bi
_chemical_formula_sum   'Dy6 Tm4 Sn4 Bi2'
_cell_volume   452.19823590
_cell_formula_units_Z   2
loop_
 _symmetry_equiv_pos_site_id
 _symmetry_equiv_pos_as_xyz
  1  'x, y, z'
loop_
 _atom_site_type_symbol
 _atom_site_label
 _atom_site_symmetry_multiplicity
 _atom_site_fract_x
 _atom_site_fract_y
 _atom_site_fract_z
 _atom_site_occupancy
  Dy  Dy0  1  0.750004  0.235142  0.994520  1
  Dy  Dy1  1  0.749999  0.764783  0.759334  1
  Dy  Dy2  1  0.749999  0.999975  0.242205  1
  Dy  Dy3  1  0.249999  0.760710  0.000378  1
  Dy  Dy4  1  0.250002  0.239355  0.239713  1
  Dy  Dy5  1  0.250001  0.000025  0.758975  1
  Tm  Tm6  1  0.496437  0.329174  0.665973  1
  Tm  Tm7  1  0.496440  0.670820  0.336775  1
  Tm  Tm8  1  0.003561  0.670825  0.336776  1
  Tm  Tm9  1  0.003562  0.329179  0.665970  1
  Sn  Sn10  1  0.750007  0.999992  0.603120  1
  Sn  Sn11  1  0.249997  0.395112  0.001369  1
  Sn  Sn12  1  0.250000  0.604947  0.606269  1
  Sn  Sn13  1  0.249991  0.000014  0.394802  1
  Bi  Bi14  1  0.749998  0.605231  0.999547  1
  Bi  Bi15  1  0.750001  0.394717  0.394276  1
