# generated using pymatgen
data_KZrAsSe4
_symmetry_space_group_name_H-M   'P 1'
_cell_length_a   6.81220700
_cell_length_b   7.81646700
_cell_length_c   16.13559700
_cell_angle_alpha   90.00000000
_cell_angle_beta   90.00000000
_cell_angle_gamma   90.00000000
_symmetry_Int_Tables_number   1
_chemical_formula_structural   KZrAsSe4
_chemical_formula_sum   'K4 Zr4 As4 Se16'
_cell_volume   859.17844591
_cell_formula_units_Z   4
loop_
 _symmetry_equiv_pos_site_id
 _symmetry_equiv_pos_as_xyz
  1  'x, y, z'
loop_
 _atom_site_type_symbol
 _atom_site_label
 _atom_site_symmetry_multiplicity
 _atom_site_fract_x
 _atom_site_fract_y
 _atom_site_fract_z
 _atom_site_occupancy
  K  K0  1  0.354661  0.000000  0.000000  1
  K  K1  1  0.645339  0.500000  0.500000  1
  K  K2  1  0.020780  0.000000  0.500000  1
  K  K3  1  0.979220  0.500000  0.000000  1
  Zr  Zr4  1  0.500000  0.250000  0.250000  1
  Zr  Zr5  1  0.500000  0.750000  0.750000  1
  Zr  Zr6  1  0.500000  0.750000  0.250000  1
  Zr  Zr7  1  0.500000  0.250000  0.750000  1
  As  As8  1  0.015799  0.000000  0.235636  1
  As  As9  1  0.015799  0.000000  0.764364  1
  As  As10  1  0.984201  0.500000  0.264364  1
  As  As11  1  0.984201  0.500000  0.735636  1
  Se  Se12  1  0.827246  0.257494  0.345891  1
  Se  Se13  1  0.827246  0.742506  0.654109  1
  Se  Se14  1  0.172754  0.757494  0.154109  1
  Se  Se15  1  0.172754  0.242506  0.845891  1
  Se  Se16  1  0.172754  0.242506  0.154109  1
  Se  Se17  1  0.172754  0.757494  0.845891  1
  Se  Se18  1  0.827246  0.742506  0.345891  1
  Se  Se19  1  0.827246  0.257494  0.654109  1
  Se  Se20  1  0.678064  0.000000  0.156374  1
  Se  Se21  1  0.678064  0.000000  0.843626  1
  Se  Se22  1  0.321936  0.500000  0.343626  1
  Se  Se23  1  0.321936  0.500000  0.656374  1
  Se  Se24  1  0.340592  0.000000  0.343615  1
  Se  Se25  1  0.340592  0.000000  0.656385  1
  Se  Se26  1  0.659408  0.500000  0.156385  1
  Se  Se27  1  0.659408  0.500000  0.843615  1
