# generated using pymatgen
data_Sc4B4As2Ru3Rh7
_symmetry_space_group_name_H-M   'P 1'
_cell_length_a   3.11573400
_cell_length_b   9.31921477
_cell_length_c   9.29817478
_cell_angle_alpha   90.07075892
_cell_angle_beta   90.00000000
_cell_angle_gamma   90.00000000
_symmetry_Int_Tables_number   1
_chemical_formula_structural   Sc4B4As2Ru3Rh7
_chemical_formula_sum   'Sc4 B4 As2 Ru3 Rh7'
_cell_volume   269.98340376
_cell_formula_units_Z   1
loop_
 _symmetry_equiv_pos_site_id
 _symmetry_equiv_pos_as_xyz
  1  'x, y, z'
loop_
 _atom_site_type_symbol
 _atom_site_label
 _atom_site_symmetry_multiplicity
 _atom_site_fract_x
 _atom_site_fract_y
 _atom_site_fract_z
 _atom_site_occupancy
  Sc  Sc0  1  0.000000  0.328106  0.173373  1
  Sc  Sc1  1  0.000000  0.826917  0.323419  1
  Sc  Sc2  1  0.000000  0.173022  0.673034  1
  Sc  Sc3  1  0.000000  0.675230  0.830898  1
  B  B4  1  0.000000  0.624137  0.122089  1
  B  B5  1  0.000000  0.122856  0.377165  1
  B  B6  1  0.000000  0.877386  0.623105  1
  B  B7  1  0.000000  0.375692  0.878074  1
  As  As8  1  0.000000  0.995659  0.001097  1
  As  As9  1  0.000000  0.499733  0.499180  1
  Ru  Ru10  1  0.499999  0.498611  0.000066  1
  Ru  Ru11  1  0.499999  0.786120  0.072132  1
  Ru  Ru12  1  0.499999  0.000094  0.499685  1
  Rh  Rh13  1  0.499999  0.074918  0.214841  1
  Rh  Rh14  1  0.499999  0.572573  0.285384  1
  Rh  Rh15  1  0.499999  0.284952  0.427205  1
  Rh  Rh16  1  0.499999  0.714999  0.573789  1
  Rh  Rh17  1  0.499999  0.426713  0.715090  1
  Rh  Rh18  1  0.499999  0.927964  0.784042  1
  Rh  Rh19  1  0.499999  0.214309  0.926324  1
