# generated using pymatgen
data_Cs3Ir2Br9
_symmetry_space_group_name_H-M   'P 1'
_cell_length_a   7.73853300
_cell_length_b   7.73853397
_cell_length_c   19.81339300
_cell_angle_alpha   90.00000000
_cell_angle_beta   90.00000000
_cell_angle_gamma   120.00000012
_symmetry_Int_Tables_number   1
_chemical_formula_structural   Cs3Ir2Br9
_chemical_formula_sum   'Cs6 Ir4 Br18'
_cell_volume   1027.55911843
_cell_formula_units_Z   2
loop_
 _symmetry_equiv_pos_site_id
 _symmetry_equiv_pos_as_xyz
  1  'x, y, z'
loop_
 _atom_site_type_symbol
 _atom_site_label
 _atom_site_symmetry_multiplicity
 _atom_site_fract_x
 _atom_site_fract_y
 _atom_site_fract_z
 _atom_site_occupancy
  Cs  Cs0  1  0.000000  0.000000  0.250000  1
  Cs  Cs1  1  0.000000  0.000000  0.750000  1
  Cs  Cs2  1  0.333333  0.666667  0.065404  1
  Cs  Cs3  1  0.666667  0.333333  0.565404  1
  Cs  Cs4  1  0.666667  0.333333  0.934596  1
  Cs  Cs5  1  0.333333  0.666667  0.434596  1
  Ir  Ir6  1  0.333333  0.666667  0.833688  1
  Ir  Ir7  1  0.666667  0.333333  0.333688  1
  Ir  Ir8  1  0.666667  0.333333  0.166312  1
  Ir  Ir9  1  0.333333  0.666667  0.666312  1
  Br  Br10  1  0.521958  0.043915  0.250000  1
  Br  Br11  1  0.478042  0.521958  0.750000  1
  Br  Br12  1  0.043915  0.521958  0.750000  1
  Br  Br13  1  0.956085  0.478042  0.250000  1
  Br  Br14  1  0.521958  0.478042  0.250000  1
  Br  Br15  1  0.478042  0.956085  0.750000  1
  Br  Br16  1  0.820022  0.640044  0.095278  1
  Br  Br17  1  0.179978  0.820022  0.595278  1
  Br  Br18  1  0.640044  0.820022  0.595278  1
  Br  Br19  1  0.359956  0.179978  0.095278  1
  Br  Br20  1  0.820022  0.179978  0.095278  1
  Br  Br21  1  0.179978  0.359956  0.904722  1
  Br  Br22  1  0.179978  0.820022  0.904722  1
  Br  Br23  1  0.179978  0.359956  0.595278  1
  Br  Br24  1  0.640044  0.820022  0.904722  1
  Br  Br25  1  0.359956  0.179978  0.404722  1
  Br  Br26  1  0.820022  0.640044  0.404722  1
  Br  Br27  1  0.820022  0.179978  0.404722  1
