# generated using pymatgen
data_Er4Al18CoNi3Rh2
_symmetry_space_group_name_H-M   'P 1'
_cell_length_a   7.44063043
_cell_length_b   7.44063028
_cell_length_c   9.28883116
_cell_angle_alpha   90.01059954
_cell_angle_beta   90.01059858
_cell_angle_gamma   118.97918385
_symmetry_Int_Tables_number   1
_chemical_formula_structural   Er4Al18CoNi3Rh2
_chemical_formula_sum   'Er4 Al18 Co1 Ni3 Rh2'
_cell_volume   449.87015348
_cell_formula_units_Z   1
loop_
 _symmetry_equiv_pos_site_id
 _symmetry_equiv_pos_as_xyz
  1  'x, y, z'
loop_
 _atom_site_type_symbol
 _atom_site_label
 _atom_site_symmetry_multiplicity
 _atom_site_fract_x
 _atom_site_fract_y
 _atom_site_fract_z
 _atom_site_occupancy
  Er  Er0  1  0.996108  0.676644  0.749558  1
  Er  Er1  1  0.005565  0.324490  0.250151  1
  Er  Er2  1  0.675510  0.994435  0.749849  1
  Er  Er3  1  0.323356  0.003892  0.250442  1
  Al  Al4  1  0.134005  0.134724  0.749622  1
  Al  Al5  1  0.865276  0.865995  0.250378  1
  Al  Al6  1  0.993900  0.337867  0.573665  1
  Al  Al7  1  0.999000  0.657958  0.426339  1
  Al  Al8  1  0.001345  0.661161  0.074946  1
  Al  Al9  1  0.338839  0.998655  0.925054  1
  Al  Al10  1  0.997980  0.338879  0.925459  1
  Al  Al11  1  0.661121  0.002020  0.074541  1
  Al  Al12  1  0.662133  0.006100  0.426335  1
  Al  Al13  1  0.342042  0.001000  0.573661  1
  Al  Al14  1  0.335219  0.335256  0.049407  1
  Al  Al15  1  0.664744  0.664781  0.950593  1
  Al  Al16  1  0.666203  0.663406  0.546012  1
  Al  Al17  1  0.336594  0.333797  0.453988  1
  Al  Al18  1  0.341635  0.556450  0.749180  1
  Al  Al19  1  0.657869  0.440976  0.253162  1
  Al  Al20  1  0.559024  0.342131  0.746838  1
  Al  Al21  1  0.443550  0.658365  0.250820  1
  Co  Co22  1  0.671264  0.328736  0.500000  1
  Ni  Ni23  1  0.328202  0.671798  0.500000  1
  Ni  Ni24  1  0.328451  0.671549  0.000000  1
  Ni  Ni25  1  0.670901  0.329099  0.000000  1
  Rh  Rh26  1  0.000089  0.999911  0.500000  1
  Rh  Rh27  1  0.000075  0.999925  0.000000  1
