# generated using pymatgen
data_Dy3Al3GePd2
_symmetry_space_group_name_H-M   'P 1'
_cell_length_a   7.06916100
_cell_length_b   7.06916261
_cell_length_c   4.15847100
_cell_angle_alpha   90.00000000
_cell_angle_beta   90.00000000
_cell_angle_gamma   120.00000651
_symmetry_Int_Tables_number   1
_chemical_formula_structural   Dy3Al3GePd2
_chemical_formula_sum   'Dy3 Al3 Ge1 Pd2'
_cell_volume   179.97000337
_cell_formula_units_Z   1
loop_
 _symmetry_equiv_pos_site_id
 _symmetry_equiv_pos_as_xyz
  1  'x, y, z'
loop_
 _atom_site_type_symbol
 _atom_site_label
 _atom_site_symmetry_multiplicity
 _atom_site_fract_x
 _atom_site_fract_y
 _atom_site_fract_z
 _atom_site_occupancy
  Dy  Dy0  1  0.583868  0.003427  0.500000  1
  Dy  Dy1  1  0.419559  0.416132  0.500000  1
  Dy  Dy2  1  0.996573  0.580441  0.500000  1
  Al  Al3  1  0.770509  0.755596  0.000000  1
  Al  Al4  1  0.985087  0.229491  0.000000  1
  Al  Al5  1  0.244404  0.014913  0.000000  1
  Ge  Ge6  1  0.333333  0.666667  0.000000  1
  Pd  Pd7  1  0.666667  0.333333  0.000000  1
  Pd  Pd8  1  0.000000  0.000000  0.500000  1
