# generated using pymatgen
data_ScNb(PRh)2
_symmetry_space_group_name_H-M   'P 1'
_cell_length_a   3.78040500
_cell_length_b   6.39538300
_cell_length_c   7.34085700
_cell_angle_alpha   90.00000000
_cell_angle_beta   90.00000000
_cell_angle_gamma   90.00000000
_symmetry_Int_Tables_number   1
_chemical_formula_structural   ScNb(PRh)2
_chemical_formula_sum   'Sc2 Nb2 P4 Rh4'
_cell_volume   177.48091177
_cell_formula_units_Z   2
loop_
 _symmetry_equiv_pos_site_id
 _symmetry_equiv_pos_as_xyz
  1  'x, y, z'
loop_
 _atom_site_type_symbol
 _atom_site_label
 _atom_site_symmetry_multiplicity
 _atom_site_fract_x
 _atom_site_fract_y
 _atom_site_fract_z
 _atom_site_occupancy
  Sc  Sc0  1  0.250000  0.029031  0.823620  1
  Sc  Sc1  1  0.250000  0.529031  0.676380  1
  Nb  Nb2  1  0.750000  0.970777  0.179307  1
  Nb  Nb3  1  0.750000  0.470777  0.320693  1
  P  P4  1  0.250000  0.762181  0.370875  1
  P  P5  1  0.250000  0.262181  0.129125  1
  P  P6  1  0.750000  0.242374  0.617313  1
  P  P7  1  0.750000  0.742374  0.882687  1
  Rh  Rh8  1  0.250000  0.143542  0.438641  1
  Rh  Rh9  1  0.250000  0.643542  0.061359  1
  Rh  Rh10  1  0.750000  0.852095  0.563268  1
  Rh  Rh11  1  0.750000  0.352095  0.936732  1
