# generated using pymatgen
data_Yb4Pr16(Ga3Sn)3
_symmetry_space_group_name_H-M   'P 1'
_cell_length_a   8.10731700
_cell_length_b   8.10731700
_cell_length_c   14.34584300
_cell_angle_alpha   90.00000000
_cell_angle_beta   90.00000000
_cell_angle_gamma   90.00000000
_symmetry_Int_Tables_number   1
_chemical_formula_structural   Yb4Pr16(Ga3Sn)3
_chemical_formula_sum   'Yb4 Pr16 Ga9 Sn3'
_cell_volume   942.93201752
_cell_formula_units_Z   1
loop_
 _symmetry_equiv_pos_site_id
 _symmetry_equiv_pos_as_xyz
  1  'x, y, z'
loop_
 _atom_site_type_symbol
 _atom_site_label
 _atom_site_symmetry_multiplicity
 _atom_site_fract_x
 _atom_site_fract_y
 _atom_site_fract_z
 _atom_site_occupancy
  Yb  Yb0  1  0.000000  0.500000  0.747949  1
  Yb  Yb1  1  0.000000  0.500000  0.244143  1
  Yb  Yb2  1  0.500000  0.000000  0.245392  1
  Yb  Yb3  1  0.500000  0.000000  0.757945  1
  Pr  Pr4  1  0.828485  0.830983  0.606263  1
  Pr  Pr5  1  0.169053  0.825877  0.103065  1
  Pr  Pr6  1  0.170333  0.828767  0.393694  1
  Pr  Pr7  1  0.829667  0.171233  0.393694  1
  Pr  Pr8  1  0.671233  0.670333  0.393694  1
  Pr  Pr9  1  0.669017  0.328485  0.606263  1
  Pr  Pr10  1  0.330983  0.671515  0.606263  1
  Pr  Pr11  1  0.674123  0.669053  0.103065  1
  Pr  Pr12  1  0.677130  0.332442  0.897337  1
  Pr  Pr13  1  0.832442  0.822870  0.897337  1
  Pr  Pr14  1  0.328767  0.329667  0.393694  1
  Pr  Pr15  1  0.171515  0.169017  0.606263  1
  Pr  Pr16  1  0.830947  0.174123  0.103065  1
  Pr  Pr17  1  0.322870  0.667558  0.897337  1
  Pr  Pr18  1  0.325877  0.330947  0.103065  1
  Pr  Pr19  1  0.167558  0.177130  0.897337  1
  Ga  Ga20  1  0.618330  0.380720  0.248927  1
  Ga  Ga21  1  0.119253  0.881765  0.751449  1
  Ga  Ga22  1  0.381765  0.380747  0.751449  1
  Ga  Ga23  1  0.381670  0.619280  0.248927  1
  Ga  Ga24  1  0.880720  0.881670  0.248927  1
  Ga  Ga25  1  0.618235  0.619253  0.751449  1
  Ga  Ga26  1  0.880747  0.118235  0.751449  1
  Ga  Ga27  1  0.119280  0.118330  0.248927  1
  Ga  Ga28  1  0.000000  0.500000  0.001479  1
  Sn  Sn29  1  0.000000  0.500000  0.500937  1
  Sn  Sn30  1  0.500000  0.000000  0.499018  1
  Sn  Sn31  1  0.500000  0.000000  0.000194  1
