# generated using pymatgen
data_Ir3PbCl12
_symmetry_space_group_name_H-M   'P 1'
_cell_length_a   12.48869328
_cell_length_b   11.90236173
_cell_length_c   6.21221243
_cell_angle_alpha   80.54592280
_cell_angle_beta   70.06941414
_cell_angle_gamma   33.04477218
_symmetry_Int_Tables_number   1
_chemical_formula_structural   Ir3PbCl12
_chemical_formula_sum   'Ir3 Pb1 Cl12'
_cell_volume   459.88940713
_cell_formula_units_Z   1
loop_
 _symmetry_equiv_pos_site_id
 _symmetry_equiv_pos_as_xyz
  1  'x, y, z'
loop_
 _atom_site_type_symbol
 _atom_site_label
 _atom_site_symmetry_multiplicity
 _atom_site_fract_x
 _atom_site_fract_y
 _atom_site_fract_z
 _atom_site_occupancy
  Ir  Ir0  1  0.826215  0.826215  0.673785  1
  Ir  Ir1  1  0.668692  0.668692  0.831308  1
  Ir  Ir2  1  0.590881  0.590881  0.409119  1
  Pb  Pb3  1  0.414094  0.414094  0.585906  1
  Cl  Cl4  1  0.724222  0.311638  0.251233  1
  Cl  Cl5  1  0.859752  0.469864  0.084958  1
  Cl  Cl6  1  0.398873  0.791148  0.156145  1
  Cl  Cl7  1  0.469864  0.859752  0.585425  1
  Cl  Cl8  1  0.105289  0.693374  0.367948  1
  Cl  Cl9  1  0.311638  0.724222  0.712907  1
  Cl  Cl10  1  0.551366  0.943164  0.972589  1
  Cl  Cl11  1  0.943164  0.551366  0.532882  1
  Cl  Cl12  1  0.036442  0.614985  0.899840  1
  Cl  Cl13  1  0.791148  0.398873  0.653835  1
  Cl  Cl14  1  0.693374  0.105289  0.833390  1
  Cl  Cl15  1  0.614985  0.036442  0.448733  1
