# generated using pymatgen
data_Nd8In4Pd7Rh
_symmetry_space_group_name_H-M   'P 1'
_cell_length_a   7.93944010
_cell_length_b   7.93944025
_cell_length_c   7.76219100
_cell_angle_alpha   90.00925890
_cell_angle_beta   90.00925890
_cell_angle_gamma   89.80253745
_symmetry_Int_Tables_number   1
_chemical_formula_structural   Nd8In4Pd7Rh
_chemical_formula_sum   'Nd8 In4 Pd7 Rh1'
_cell_volume   489.28454286
_cell_formula_units_Z   1
loop_
 _symmetry_equiv_pos_site_id
 _symmetry_equiv_pos_as_xyz
  1  'x, y, z'
loop_
 _atom_site_type_symbol
 _atom_site_label
 _atom_site_symmetry_multiplicity
 _atom_site_fract_x
 _atom_site_fract_y
 _atom_site_fract_z
 _atom_site_occupancy
  Nd  Nd0  1  0.830156  0.174877  0.497791  1
  Nd  Nd1  1  0.174877  0.830156  0.497791  1
  Nd  Nd2  1  0.321739  0.321739  0.004698  1
  Nd  Nd3  1  0.673256  0.673256  0.998830  1
  Nd  Nd4  1  0.673922  0.673922  0.501028  1
  Nd  Nd5  1  0.320835  0.320835  0.495239  1
  Nd  Nd6  1  0.175580  0.829431  0.002095  1
  Nd  Nd7  1  0.829431  0.175580  0.002095  1
  In  In8  1  0.497519  0.999966  0.250125  1
  In  In9  1  0.000355  0.499683  0.750106  1
  In  In10  1  0.499683  0.000355  0.750106  1
  In  In11  1  0.999966  0.497519  0.250125  1
  Pd  Pd12  1  0.626202  0.374603  0.250947  1
  Pd  Pd13  1  0.374603  0.626202  0.250947  1
  Pd  Pd14  1  0.125504  0.125504  0.751100  1
  Pd  Pd15  1  0.874422  0.874422  0.750810  1
  Pd  Pd16  1  0.373572  0.626755  0.748966  1
  Pd  Pd17  1  0.626755  0.373572  0.748966  1
  Pd  Pd18  1  0.873034  0.873034  0.248965  1
  Rh  Rh19  1  0.128587  0.128587  0.249267  1
