# generated using pymatgen
data_Cs11NaV4O16
_symmetry_space_group_name_H-M   'P 1'
_cell_length_a   8.61175041
_cell_length_b   8.61169457
_cell_length_c   11.59814840
_cell_angle_alpha   111.79831873
_cell_angle_beta   111.79954155
_cell_angle_gamma   89.99627444
_symmetry_Int_Tables_number   1
_chemical_formula_structural   Cs11NaV4O16
_chemical_formula_sum   'Cs11 Na1 V4 O16'
_cell_volume   731.98576408
_cell_formula_units_Z   1
loop_
 _symmetry_equiv_pos_site_id
 _symmetry_equiv_pos_as_xyz
  1  'x, y, z'
loop_
 _atom_site_type_symbol
 _atom_site_label
 _atom_site_symmetry_multiplicity
 _atom_site_fract_x
 _atom_site_fract_y
 _atom_site_fract_z
 _atom_site_occupancy
  Cs  Cs0  1  0.289207  0.289207  0.578457  1
  Cs  Cs1  1  0.499942  0.999972  0.000005  1
  Cs  Cs2  1  0.249955  0.750008  0.499995  1
  Cs  Cs3  1  0.930215  0.930213  0.246147  1
  Cs  Cs4  1  0.069708  0.683953  0.753788  1
  Cs  Cs5  1  0.710739  0.710751  0.421545  1
  Cs  Cs6  1  0.999980  0.499935  0.000010  1
  Cs  Cs7  1  0.683963  0.069697  0.753789  1
  Cs  Cs8  1  0.316036  0.316039  0.246273  1
  Cs  Cs9  1  0.750017  0.249945  0.499997  1
  Cs  Cs10  1  0.499988  0.499981  0.999991  1
  Na  Na11  1  0.000036  0.000059  0.000014  1
  V  V12  1  0.866398  0.377276  0.243633  1
  V  V13  1  0.133630  0.133622  0.756373  1
  V  V14  1  0.622788  0.622772  0.756417  1
  V  V15  1  0.377237  0.866394  0.243601  1
  O  O16  1  0.388327  0.012025  0.400247  1
  O  O17  1  0.784562  0.784539  0.889918  1
  O  O18  1  0.660859  0.337529  0.232596  1
  O  O19  1  0.337509  0.660850  0.232594  1
  O  O20  1  0.012032  0.388336  0.400305  1
  O  O21  1  0.571800  0.894999  0.232620  1
  O  O22  1  0.339189  0.104960  0.767425  1
  O  O23  1  0.215541  0.894679  0.110104  1
  O  O24  1  0.611696  0.611683  0.599734  1
  O  O25  1  0.105399  0.105385  0.889859  1
  O  O26  1  0.662406  0.428222  0.767351  1
  O  O27  1  0.988020  0.988004  0.599705  1
  O  O28  1  0.894969  0.571835  0.232610  1
  O  O29  1  0.894641  0.215552  0.110125  1
  O  O30  1  0.104973  0.339186  0.767427  1
  O  O31  1  0.428235  0.662389  0.767345  1
