# generated using pymatgen
data_Nd4TlPd3RhPb
_symmetry_space_group_name_H-M   'P 1'
_cell_length_a   3.83136900
_cell_length_b   7.97212327
_cell_length_c   7.96094819
_cell_angle_alpha   90.07494319
_cell_angle_beta   90.00000000
_cell_angle_gamma   90.00000000
_symmetry_Int_Tables_number   1
_chemical_formula_structural   Nd4TlPd3RhPb
_chemical_formula_sum   'Nd4 Tl1 Pd3 Rh1 Pb1'
_cell_volume   243.16015539
_cell_formula_units_Z   1
loop_
 _symmetry_equiv_pos_site_id
 _symmetry_equiv_pos_as_xyz
  1  'x, y, z'
loop_
 _atom_site_type_symbol
 _atom_site_label
 _atom_site_symmetry_multiplicity
 _atom_site_fract_x
 _atom_site_fract_y
 _atom_site_fract_z
 _atom_site_occupancy
  Nd  Nd0  1  0.500000  0.171867  0.673699  1
  Nd  Nd1  1  0.500000  0.818817  0.317023  1
  Nd  Nd2  1  0.500000  0.334996  0.174742  1
  Nd  Nd3  1  0.500000  0.676756  0.837062  1
  Tl  Tl4  1  0.000000  0.999514  0.000907  1
  Pd  Pd5  1  0.000000  0.373916  0.873871  1
  Pd  Pd6  1  0.000000  0.875645  0.623558  1
  Pd  Pd7  1  0.000000  0.123488  0.375339  1
  Rh  Rh8  1  0.000000  0.624040  0.124507  1
  Pb  Pb9  1  0.000000  0.500959  0.499290  1
