# generated using pymatgen
data_AcThZn4CdSn
_symmetry_space_group_name_H-M   'P 1'
_cell_length_a   8.94154376
_cell_length_b   8.94154487
_cell_length_c   9.34362000
_cell_angle_alpha   90.00000000
_cell_angle_beta   90.00000000
_cell_angle_gamma   150.33758267
_symmetry_Int_Tables_number   1
_chemical_formula_structural   AcThZn4CdSn
_chemical_formula_sum   'Ac2 Th2 Zn8 Cd2 Sn2'
_cell_volume   369.69863862
_cell_formula_units_Z   2
loop_
 _symmetry_equiv_pos_site_id
 _symmetry_equiv_pos_as_xyz
  1  'x, y, z'
loop_
 _atom_site_type_symbol
 _atom_site_label
 _atom_site_symmetry_multiplicity
 _atom_site_fract_x
 _atom_site_fract_y
 _atom_site_fract_z
 _atom_site_occupancy
  Ac  Ac0  1  0.000000  0.000000  0.500000  1
  Ac  Ac1  1  0.000000  0.000000  0.000000  1
  Th  Th2  1  0.207033  0.792967  0.250000  1
  Th  Th3  1  0.792967  0.207033  0.750000  1
  Zn  Zn4  1  0.811178  0.188822  0.393443  1
  Zn  Zn5  1  0.188822  0.811178  0.606557  1
  Zn  Zn6  1  0.811178  0.188822  0.106557  1
  Zn  Zn7  1  0.188822  0.811178  0.893443  1
  Zn  Zn8  1  0.664065  0.335935  0.478701  1
  Zn  Zn9  1  0.335935  0.664065  0.521299  1
  Zn  Zn10  1  0.664065  0.335935  0.021299  1
  Zn  Zn11  1  0.335935  0.664065  0.978701  1
  Cd  Cd12  1  0.398590  0.601410  0.250000  1
  Cd  Cd13  1  0.601410  0.398590  0.750000  1
  Sn  Sn14  1  0.566351  0.433649  0.250000  1
  Sn  Sn15  1  0.433649  0.566351  0.750000  1
