# generated using pymatgen
data_Tb10Sn6AsCl
_symmetry_space_group_name_H-M   'P 1'
_cell_length_a   9.15185400
_cell_length_b   9.15185482
_cell_length_c   6.72593900
_cell_angle_alpha   90.00000000
_cell_angle_beta   90.00000000
_cell_angle_gamma   119.99999704
_symmetry_Int_Tables_number   1
_chemical_formula_structural   Tb10Sn6AsCl
_chemical_formula_sum   'Tb10 Sn6 As1 Cl1'
_cell_volume   487.86737205
_cell_formula_units_Z   1
loop_
 _symmetry_equiv_pos_site_id
 _symmetry_equiv_pos_as_xyz
  1  'x, y, z'
loop_
 _atom_site_type_symbol
 _atom_site_label
 _atom_site_symmetry_multiplicity
 _atom_site_fract_x
 _atom_site_fract_y
 _atom_site_fract_z
 _atom_site_occupancy
  Tb  Tb0  1  0.251342  0.251342  0.754699  1
  Tb  Tb1  1  0.000000  0.748658  0.754699  1
  Tb  Tb2  1  0.251342  0.000000  0.245301  1
  Tb  Tb3  1  0.748658  0.000000  0.754699  1
  Tb  Tb4  1  0.333333  0.666667  0.500000  1
  Tb  Tb5  1  0.666667  0.333333  0.500000  1
  Tb  Tb6  1  0.748658  0.748658  0.245301  1
  Tb  Tb7  1  0.000000  0.251342  0.245301  1
  Tb  Tb8  1  0.333333  0.666667  0.000000  1
  Tb  Tb9  1  0.666667  0.333333  0.000000  1
  Sn  Sn10  1  0.604159  0.000000  0.249525  1
  Sn  Sn11  1  0.000000  0.604159  0.249525  1
  Sn  Sn12  1  0.604159  0.604159  0.750475  1
  Sn  Sn13  1  0.395841  0.395841  0.249525  1
  Sn  Sn14  1  0.000000  0.395841  0.750475  1
  Sn  Sn15  1  0.395841  0.000000  0.750475  1
  As  As16  1  0.000000  0.000000  0.000000  1
  Cl  Cl17  1  0.000000  0.000000  0.500000  1
