# generated using pymatgen
data_Y2P7(IrRu5)2
_symmetry_space_group_name_H-M   'P 1'
_cell_length_a   9.41133201
_cell_length_b   9.47047804
_cell_length_c   3.95988800
_cell_angle_alpha   90.00000000
_cell_angle_beta   90.00000000
_cell_angle_gamma   120.16601048
_symmetry_Int_Tables_number   1
_chemical_formula_structural   Y2P7(IrRu5)2
_chemical_formula_sum   'Y2 P7 Ir2 Ru10'
_cell_volume   305.14593940
_cell_formula_units_Z   1
loop_
 _symmetry_equiv_pos_site_id
 _symmetry_equiv_pos_as_xyz
  1  'x, y, z'
loop_
 _atom_site_type_symbol
 _atom_site_label
 _atom_site_symmetry_multiplicity
 _atom_site_fract_x
 _atom_site_fract_y
 _atom_site_fract_z
 _atom_site_occupancy
  Y  Y0  1  0.668311  0.333673  0.500000  1
  Y  Y1  1  0.330503  0.665383  0.000000  1
  P  P2  1  0.600530  0.716162  0.500000  1
  P  P3  1  0.000449  0.000839  0.000000  1
  P  P4  1  0.278384  0.880146  0.500000  1
  P  P5  1  0.113086  0.401724  0.500000  1
  P  P6  1  0.885534  0.576735  0.000000  1
  P  P7  1  0.424968  0.303931  0.000000  1
  P  P8  1  0.697344  0.118765  0.000000  1
  Ir  Ir9  1  0.551730  0.942597  0.500000  1
  Ir  Ir10  1  0.389657  0.445826  0.500000  1
  Ru  Ru11  1  0.914099  0.125541  0.500000  1
  Ru  Ru12  1  0.213698  0.087478  0.500000  1
  Ru  Ru13  1  0.874952  0.791632  0.500000  1
  Ru  Ru14  1  0.726767  0.891879  0.000000  1
  Ru  Ru15  1  0.109423  0.838398  0.000000  1
  Ru  Ru16  1  0.166106  0.271596  0.000000  1
  Ru  Ru17  1  0.431119  0.066444  0.000000  1
  Ru  Ru18  1  0.936017  0.361605  0.000000  1
  Ru  Ru19  1  0.637919  0.570750  0.000000  1
  Ru  Ru20  1  0.049403  0.608894  0.500000  1
