# generated using pymatgen
data_Er3Tm5(B6Ru)4
_symmetry_space_group_name_H-M   'P 1'
_cell_length_a   3.62286500
_cell_length_b   9.07693300
_cell_length_c   11.45086800
_cell_angle_alpha   90.00229466
_cell_angle_beta   90.00000000
_cell_angle_gamma   90.00000000
_symmetry_Int_Tables_number   1
_chemical_formula_structural   Er3Tm5(B6Ru)4
_chemical_formula_sum   'Er3 Tm5 B24 Ru4'
_cell_volume   376.55610149
_cell_formula_units_Z   1
loop_
 _symmetry_equiv_pos_site_id
 _symmetry_equiv_pos_as_xyz
  1  'x, y, z'
loop_
 _atom_site_type_symbol
 _atom_site_label
 _atom_site_symmetry_multiplicity
 _atom_site_fract_x
 _atom_site_fract_y
 _atom_site_fract_z
 _atom_site_occupancy
  Er  Er0  1  0.000000  0.322137  0.414092  1
  Er  Er1  1  0.000000  0.677866  0.585890  1
  Er  Er2  1  0.000000  0.822144  0.085833  1
  Tm  Tm3  1  0.000000  0.177948  0.914197  1
  Tm  Tm4  1  0.000000  0.943890  0.372497  1
  Tm  Tm5  1  0.000000  0.056171  0.627549  1
  Tm  Tm6  1  0.000000  0.443798  0.127364  1
  Tm  Tm7  1  0.000000  0.556073  0.872554  1
  B  B8  1  0.500000  0.553969  0.433424  1
  B  B9  1  0.500000  0.445965  0.566642  1
  B  B10  1  0.500000  0.054077  0.066339  1
  B  B11  1  0.500000  0.946283  0.933460  1
  B  B12  1  0.500000  0.748809  0.420028  1
  B  B13  1  0.500000  0.251187  0.580052  1
  B  B14  1  0.500000  0.248698  0.079687  1
  B  B15  1  0.500000  0.751290  0.920023  1
  B  B16  1  0.500000  0.791956  0.265779  1
  B  B17  1  0.500000  0.207926  0.734446  1
  B  B18  1  0.500000  0.291911  0.234084  1
  B  B19  1  0.500000  0.708108  0.765844  1
  B  B20  1  0.500000  0.631664  0.184549  1
  B  B21  1  0.500000  0.368083  0.815579  1
  B  B22  1  0.500000  0.131717  0.315376  1
  B  B23  1  0.500000  0.868383  0.684651  1
  B  B24  1  0.500000  0.982832  0.212970  1
  B  B25  1  0.500000  0.017513  0.787112  1
  B  B26  1  0.500000  0.482752  0.286907  1
  B  B27  1  0.500000  0.517130  0.713126  1
  B  B28  1  0.500000  0.606474  0.029344  1
  B  B29  1  0.500000  0.393105  0.970524  1
  B  B30  1  0.500000  0.106408  0.470684  1
  B  B31  1  0.500000  0.893637  0.529361  1
  Ru  Ru32  1  0.000000  0.638120  0.320851  1
  Ru  Ru33  1  0.000000  0.361766  0.679246  1
  Ru  Ru34  1  0.000000  0.138127  0.178987  1
  Ru  Ru35  1  0.000000  0.862083  0.820953  1
