# generated using pymatgen
data_LiDy5NiP12Ir17
_symmetry_space_group_name_H-M   'P 1'
_cell_length_a   12.68506548
_cell_length_b   12.77569784
_cell_length_c   3.96138300
_cell_angle_alpha   90.00000000
_cell_angle_beta   90.00000000
_cell_angle_gamma   120.03519732
_symmetry_Int_Tables_number   1
_chemical_formula_structural   LiDy5NiP12Ir17
_chemical_formula_sum   'Li1 Dy5 Ni1 P12 Ir17'
_cell_volume   555.77712674
_cell_formula_units_Z   1
loop_
 _symmetry_equiv_pos_site_id
 _symmetry_equiv_pos_as_xyz
  1  'x, y, z'
loop_
 _atom_site_type_symbol
 _atom_site_label
 _atom_site_symmetry_multiplicity
 _atom_site_fract_x
 _atom_site_fract_y
 _atom_site_fract_z
 _atom_site_occupancy
  Li  Li0  1  0.999597  0.443994  0.500000  1
  Dy  Dy1  1  0.332010  0.664364  0.500000  1
  Dy  Dy2  1  0.670254  0.336114  0.500000  1
  Dy  Dy3  1  0.001361  0.809794  0.000000  1
  Dy  Dy4  1  0.191341  0.189830  0.000000  1
  Dy  Dy5  1  0.812625  0.998906  0.000000  1
  Ni  Ni6  1  0.537426  0.538236  0.500000  1
  P  P7  1  0.999495  0.632736  0.500000  1
  P  P8  1  0.367152  0.366507  0.500000  1
  P  P9  1  0.640838  0.998926  0.500000  1
  P  P10  1  0.514639  0.686155  0.000000  1
  P  P11  1  0.308267  0.825950  0.000000  1
  P  P12  1  0.169011  0.483145  0.000000  1
  P  P13  1  0.484863  0.175874  0.000000  1
  P  P14  1  0.689266  0.520161  0.000000  1
  P  P15  1  0.830982  0.316372  0.000000  1
  P  P16  1  0.999181  0.179167  0.500000  1
  P  P17  1  0.819879  0.821303  0.500000  1
  P  P18  1  0.178472  0.001050  0.500000  1
  Ir  Ir19  1  0.504937  0.867597  0.000000  1
  Ir  Ir20  1  0.130475  0.640113  0.000000  1
  Ir  Ir21  1  0.359075  0.491620  0.000000  1
  Ir  Ir22  1  0.493960  0.362905  0.000000  1
  Ir  Ir23  1  0.869035  0.511428  0.000000  1
  Ir  Ir24  1  0.639183  0.134171  0.000000  1
  Ir  Ir25  1  0.460994  0.000461  0.500000  1
  Ir  Ir26  1  0.998748  0.280101  0.000000  1
  Ir  Ir27  1  0.714308  0.717932  0.000000  1
  Ir  Ir28  1  0.285605  0.001582  0.000000  1
  Ir  Ir29  1  0.621048  0.804670  0.500000  1
  Ir  Ir30  1  0.198924  0.824347  0.500000  1
  Ir  Ir31  1  0.180222  0.372386  0.500000  1
  Ir  Ir32  1  0.377518  0.180497  0.500000  1
  Ir  Ir33  1  0.803774  0.627942  0.500000  1
  Ir  Ir34  1  0.816603  0.192437  0.500000  1
  Ir  Ir35  1  0.998931  0.001226  0.500000  1
