# generated using pymatgen
data_YbCe2Pr(Si5Pt3)2
_symmetry_space_group_name_H-M   'P 1'
_cell_length_a   8.23113803
_cell_length_b   8.25204798
_cell_length_c   8.25204689
_cell_angle_alpha   136.71918554
_cell_angle_beta   104.97783817
_cell_angle_gamma   90.81610585
_symmetry_Int_Tables_number   1
_chemical_formula_structural   YbCe2Pr(Si5Pt3)2
_chemical_formula_sum   'Yb1 Ce2 Pr1 Si10 Pt6'
_cell_volume   353.45738575
_cell_formula_units_Z   1
loop_
 _symmetry_equiv_pos_site_id
 _symmetry_equiv_pos_as_xyz
  1  'x, y, z'
loop_
 _atom_site_type_symbol
 _atom_site_label
 _atom_site_symmetry_multiplicity
 _atom_site_fract_x
 _atom_site_fract_y
 _atom_site_fract_z
 _atom_site_occupancy
  Yb  Yb0  1  0.860584  0.627923  0.232661  1
  Ce  Ce1  1  0.139412  0.369663  0.769749  1
  Ce  Ce2  1  0.399263  0.129710  0.269553  1
  Pr  Pr3  1  0.604517  0.872436  0.732082  1
  Si  Si4  1  0.498831  0.749584  0.248176  1
  Si  Si5  1  0.498831  0.250655  0.749247  1
  Si  Si6  1  0.227515  0.979701  0.750241  1
  Si  Si7  1  0.772643  0.521297  0.751905  1
  Si  Si8  1  0.772643  0.020738  0.251346  1
  Si  Si9  1  0.227515  0.477275  0.247814  1
  Si  Si10  1  0.037110  0.887787  0.149322  1
  Si  Si11  1  0.964619  0.114762  0.849857  1
  Si  Si12  1  0.737651  0.387069  0.350583  1
  Si  Si13  1  0.260727  0.610928  0.649800  1
  Pt  Pt14  1  0.000162  0.750234  0.749164  1
  Pt  Pt15  1  0.000162  0.250998  0.249929  1
  Pt  Pt16  1  0.247695  0.860534  0.387161  1
  Pt  Pt17  1  0.747618  0.136212  0.611405  1
  Pt  Pt18  1  0.476858  0.365246  0.111612  1
  Pt  Pt19  1  0.525643  0.637249  0.888393  1
