# generated using pymatgen
data_Y2PSe
_symmetry_space_group_name_H-M   'P 1'
_cell_length_a   7.08181965
_cell_length_b   7.08182001
_cell_length_c   7.08181947
_cell_angle_alpha   33.16429733
_cell_angle_beta   33.16429600
_cell_angle_gamma   33.16429814
_symmetry_Int_Tables_number   1
_chemical_formula_structural   Y2PSe
_chemical_formula_sum   'Y2 P1 Se1'
_cell_volume   94.61047376
_cell_formula_units_Z   1
loop_
 _symmetry_equiv_pos_site_id
 _symmetry_equiv_pos_as_xyz
  1  'x, y, z'
loop_
 _atom_site_type_symbol
 _atom_site_label
 _atom_site_symmetry_multiplicity
 _atom_site_fract_x
 _atom_site_fract_y
 _atom_site_fract_z
 _atom_site_occupancy
  Y  Y0  1  0.242614  0.242614  0.242614  1
  Y  Y1  1  0.757386  0.757386  0.757386  1
  P  P2  1  0.500000  0.500000  0.500000  1
  Se  Se3  1  0.000000  0.000000  0.000000  1
