# generated using pymatgen
data_HoErNb4C5
_symmetry_space_group_name_H-M   'P 1'
_cell_length_a   5.73213591
_cell_length_b   5.73213566
_cell_length_c   5.61704631
_cell_angle_alpha   81.77637464
_cell_angle_beta   81.77636794
_cell_angle_gamma   121.40238204
_symmetry_Int_Tables_number   1
_chemical_formula_structural   HoErNb4C5
_chemical_formula_sum   'Ho1 Er1 Nb4 C5'
_cell_volume   150.64916322
_cell_formula_units_Z   1
loop_
 _symmetry_equiv_pos_site_id
 _symmetry_equiv_pos_as_xyz
  1  'x, y, z'
loop_
 _atom_site_type_symbol
 _atom_site_label
 _atom_site_symmetry_multiplicity
 _atom_site_fract_x
 _atom_site_fract_y
 _atom_site_fract_z
 _atom_site_occupancy
  Ho  Ho0  1  0.760529  0.760529  0.757027  1
  Er  Er1  1  0.239897  0.239897  0.243463  1
  Nb  Nb2  1  0.100957  0.453433  0.740947  1
  Nb  Nb3  1  0.546600  0.899354  0.258881  1
  Nb  Nb4  1  0.899354  0.546600  0.258881  1
  Nb  Nb5  1  0.453433  0.100957  0.740947  1
  C  C6  1  0.499173  0.499173  0.500069  1
  C  C7  1  0.678608  0.320680  0.000289  1
  C  C8  1  0.320680  0.678608  0.000289  1
  C  C9  1  0.821252  0.179518  0.499604  1
  C  C10  1  0.179518  0.821252  0.499604  1
