# generated using pymatgen
data_TbSm3Se3O4
_symmetry_space_group_name_H-M   'P 1'
_cell_length_a   6.68844518
_cell_length_b   6.68844471
_cell_length_c   8.39781800
_cell_angle_alpha   90.00000000
_cell_angle_beta   90.00000000
_cell_angle_gamma   145.55138120
_symmetry_Int_Tables_number   1
_chemical_formula_structural   TbSm3Se3O4
_chemical_formula_sum   'Tb1 Sm3 Se3 O4'
_cell_volume   212.50912409
_cell_formula_units_Z   1
loop_
 _symmetry_equiv_pos_site_id
 _symmetry_equiv_pos_as_xyz
  1  'x, y, z'
loop_
 _atom_site_type_symbol
 _atom_site_label
 _atom_site_symmetry_multiplicity
 _atom_site_fract_x
 _atom_site_fract_y
 _atom_site_fract_z
 _atom_site_occupancy
  Tb  Tb0  1  0.994668  0.005332  0.000000  1
  Sm  Sm1  1  0.318444  0.681556  0.238206  1
  Sm  Sm2  1  0.318444  0.681556  0.761794  1
  Sm  Sm3  1  0.984951  0.015049  0.500000  1
  Se  Se4  1  0.680653  0.319347  0.000000  1
  Se  Se5  1  0.646615  0.353385  0.651742  1
  Se  Se6  1  0.646615  0.353385  0.348258  1
  O  O7  1  0.386084  0.613916  0.500000  1
  O  O8  1  0.914799  0.085201  0.757639  1
  O  O9  1  0.411356  0.588644  0.000000  1
  O  O10  1  0.914799  0.085201  0.242361  1
