# generated using pymatgen
data_Rb2NdReN4
_symmetry_space_group_name_H-M   'P 1'
_cell_length_a   11.21246578
_cell_length_b   10.85109762
_cell_length_c   8.27462100
_cell_angle_alpha   70.31300856
_cell_angle_beta   65.67200053
_cell_angle_gamma   44.01499165
_symmetry_Int_Tables_number   1
_chemical_formula_structural   Rb2NdReN4
_chemical_formula_sum   'Rb8 Nd4 Re4 N16'
_cell_volume   636.10824126
_cell_formula_units_Z   4
loop_
 _symmetry_equiv_pos_site_id
 _symmetry_equiv_pos_as_xyz
  1  'x, y, z'
loop_
 _atom_site_type_symbol
 _atom_site_label
 _atom_site_symmetry_multiplicity
 _atom_site_fract_x
 _atom_site_fract_y
 _atom_site_fract_z
 _atom_site_occupancy
  Rb  Rb0  1  0.561000  0.939000  0.939000  1
  Rb  Rb1  1  0.939000  0.561000  0.561000  1
  Rb  Rb2  1  0.311000  0.689000  0.689000  1
  Rb  Rb3  1  0.109002  0.109002  0.890998  1
  Rb  Rb4  1  0.140998  0.140998  0.359002  1
  Rb  Rb5  1  0.359002  0.359002  0.140998  1
  Rb  Rb6  1  0.689000  0.311000  0.311000  1
  Rb  Rb7  1  0.890998  0.890998  0.109002  1
  Nd  Nd8  1  0.340810  0.340810  0.659190  1
  Nd  Nd9  1  0.909190  0.909190  0.590810  1
  Nd  Nd10  1  0.659190  0.659190  0.340810  1
  Nd  Nd11  1  0.590810  0.590810  0.909190  1
  Re  Re12  1  0.503901  0.996099  0.503901  1
  Re  Re13  1  0.996099  0.503901  0.996099  1
  Re  Re14  1  0.746099  0.253901  0.746099  1
  Re  Re15  1  0.253901  0.746099  0.253901  1
  N  N16  1  0.012602  0.649165  0.811835  1
  N  N17  1  0.692729  0.300531  0.970277  1
  N  N18  1  0.649165  0.012602  0.526397  1
  N  N19  1  0.526397  0.811835  0.649165  1
  N  N20  1  0.237398  0.600835  0.438165  1
  N  N21  1  0.723603  0.438165  0.600835  1
  N  N22  1  0.970277  0.036464  0.692729  1
  N  N23  1  0.557271  0.949469  0.279723  1
  N  N24  1  0.438165  0.723603  0.237398  1
  N  N25  1  0.949469  0.557271  0.213536  1
  N  N26  1  0.300531  0.692729  0.036464  1
  N  N27  1  0.811835  0.526397  0.012602  1
  N  N28  1  0.213536  0.279723  0.949469  1
  N  N29  1  0.600835  0.237398  0.723603  1
  N  N30  1  0.279723  0.213536  0.557271  1
  N  N31  1  0.036464  0.970277  0.300531  1
