# generated using pymatgen
data_SrLa3(AlAu2)6
_symmetry_space_group_name_H-M   'P 1'
_cell_length_a   8.79777493
_cell_length_b   8.79777407
_cell_length_c   8.79777663
_cell_angle_alpha   57.86288625
_cell_angle_beta   57.86289018
_cell_angle_gamma   57.86288653
_symmetry_Int_Tables_number   1
_chemical_formula_structural   SrLa3(AlAu2)6
_chemical_formula_sum   'Sr1 La3 Al6 Au12'
_cell_volume   457.88580975
_cell_formula_units_Z   1
loop_
 _symmetry_equiv_pos_site_id
 _symmetry_equiv_pos_as_xyz
  1  'x, y, z'
loop_
 _atom_site_type_symbol
 _atom_site_label
 _atom_site_symmetry_multiplicity
 _atom_site_fract_x
 _atom_site_fract_y
 _atom_site_fract_z
 _atom_site_occupancy
  Sr  Sr0  1  0.409208  0.409208  0.409208  1
  La  La1  1  0.908781  0.908781  0.908781  1
  La  La2  1  0.591443  0.591443  0.591443  1
  La  La3  1  0.091732  0.091732  0.091732  1
  Al  Al4  1  0.058467  0.250906  0.440831  1
  Al  Al5  1  0.440831  0.058467  0.250906  1
  Al  Al6  1  0.250906  0.440831  0.058467  1
  Al  Al7  1  0.941008  0.750254  0.558051  1
  Al  Al8  1  0.558051  0.941008  0.750254  1
  Al  Al9  1  0.750254  0.558051  0.941008  1
  Au  Au10  1  0.976993  0.365277  0.703297  1
  Au  Au11  1  0.703297  0.976993  0.365277  1
  Au  Au12  1  0.365277  0.703297  0.976993  1
  Au  Au13  1  0.203601  0.864580  0.477624  1
  Au  Au14  1  0.477624  0.203601  0.864580  1
  Au  Au15  1  0.864580  0.477624  0.203601  1
  Au  Au16  1  0.021567  0.634977  0.296001  1
  Au  Au17  1  0.296001  0.021567  0.634977  1
  Au  Au18  1  0.634977  0.296001  0.021567  1
  Au  Au19  1  0.798411  0.132808  0.524183  1
  Au  Au20  1  0.524183  0.798411  0.132808  1
  Au  Au21  1  0.132808  0.524183  0.798411  1
