# generated using pymatgen
data_Tm6Fe4Co19
_symmetry_space_group_name_H-M   'P 1'
_cell_length_a   8.31518500
_cell_length_b   8.31518506
_cell_length_c   8.32006901
_cell_angle_alpha   119.98058517
_cell_angle_beta   90.00000000
_cell_angle_gamma   120.00000373
_symmetry_Int_Tables_number   1
_chemical_formula_structural   Tm6Fe4Co19
_chemical_formula_sum   'Tm6 Fe4 Co19'
_cell_volume   406.89572332
_cell_formula_units_Z   1
loop_
 _symmetry_equiv_pos_site_id
 _symmetry_equiv_pos_as_xyz
  1  'x, y, z'
loop_
 _atom_site_type_symbol
 _atom_site_label
 _atom_site_symmetry_multiplicity
 _atom_site_fract_x
 _atom_site_fract_y
 _atom_site_fract_z
 _atom_site_occupancy
  Tm  Tm0  1  0.711229  0.998765  0.286302  1
  Tm  Tm1  1  0.287538  0.998765  0.286303  1
  Tm  Tm2  1  0.287538  0.575075  0.286303  1
  Tm  Tm3  1  0.712463  0.001235  0.713698  1
  Tm  Tm4  1  0.288772  0.001235  0.713699  1
  Tm  Tm5  1  0.712464  0.424927  0.713699  1
  Fe  Fe6  1  0.000000  0.000000  0.000000  1
  Fe  Fe7  1  0.000000  0.000000  0.500000  1
  Fe  Fe8  1  0.000000  0.500000  0.500000  1
  Fe  Fe9  1  0.500000  0.500000  0.500000  1
  Co  Co10  1  0.500000  0.000000  0.000000  1
  Co  Co11  1  0.000000  0.500000  0.000000  1
  Co  Co12  1  0.500000  0.500000  0.000000  1
  Co  Co13  1  0.676889  0.353778  0.030667  1
  Co  Co14  1  0.370468  0.246590  0.122713  1
  Co  Co15  1  0.876121  0.246590  0.122713  1
  Co  Co16  1  0.876121  0.752243  0.122713  1
  Co  Co17  1  0.676330  0.352660  0.322804  1
  Co  Co18  1  0.676330  0.646474  0.322804  1
  Co  Co19  1  0.970143  0.646474  0.322804  1
  Co  Co20  1  0.121870  0.243741  0.365611  1
  Co  Co21  1  0.878128  0.756257  0.634387  1
  Co  Co22  1  0.029857  0.353526  0.677196  1
  Co  Co23  1  0.323670  0.353526  0.677196  1
  Co  Co24  1  0.323670  0.647340  0.677196  1
  Co  Co25  1  0.123877  0.247755  0.877285  1
  Co  Co26  1  0.123877  0.753408  0.877285  1
  Co  Co27  1  0.629530  0.753408  0.877285  1
  Co  Co28  1  0.323111  0.646222  0.969333  1
