# generated using pymatgen
data_Y4Al15Si3(Ir2Os)2
_symmetry_space_group_name_H-M   'P 1'
_cell_length_a   7.54598925
_cell_length_b   7.53015157
_cell_length_c   9.37771900
_cell_angle_alpha   90.02886806
_cell_angle_beta   89.91008885
_cell_angle_gamma   119.52583927
_symmetry_Int_Tables_number   1
_chemical_formula_structural   Y4Al15Si3(Ir2Os)2
_chemical_formula_sum   'Y4 Al15 Si3 Ir4 Os2'
_cell_volume   463.66302609
_cell_formula_units_Z   1
loop_
 _symmetry_equiv_pos_site_id
 _symmetry_equiv_pos_as_xyz
  1  'x, y, z'
loop_
 _atom_site_type_symbol
 _atom_site_label
 _atom_site_symmetry_multiplicity
 _atom_site_fract_x
 _atom_site_fract_y
 _atom_site_fract_z
 _atom_site_occupancy
  Y  Y0  1  0.993687  0.671411  0.247509  1
  Y  Y1  1  0.005531  0.322351  0.753588  1
  Y  Y2  1  0.683086  0.000401  0.247620  1
  Y  Y3  1  0.321652  0.006278  0.749771  1
  Al  Al4  1  0.997070  0.667751  0.921480  1
  Al  Al5  1  0.998267  0.664067  0.575858  1
  Al  Al6  1  0.335773  0.000237  0.423760  1
  Al  Al7  1  0.002060  0.335818  0.427994  1
  Al  Al8  1  0.663492  0.998728  0.575885  1
  Al  Al9  1  0.658468  0.993358  0.921906  1
  Al  Al10  1  0.335240  0.000832  0.076395  1
  Al  Al11  1  0.334630  0.334125  0.552949  1
  Al  Al12  1  0.666840  0.667383  0.446963  1
  Al  Al13  1  0.666534  0.667658  0.054469  1
  Al  Al14  1  0.337715  0.334340  0.946770  1
  Al  Al15  1  0.336832  0.548364  0.250287  1
  Al  Al16  1  0.663279  0.449783  0.750323  1
  Al  Al17  1  0.547138  0.337566  0.250215  1
  Al  Al18  1  0.449019  0.660911  0.749471  1
  Si  Si19  1  0.131460  0.126619  0.251220  1
  Si  Si20  1  0.871470  0.873521  0.750223  1
  Si  Si21  1  0.002193  0.336448  0.073407  1
  Ir  Ir22  1  0.679410  0.328764  0.001987  1
  Ir  Ir23  1  0.319678  0.663428  0.000279  1
  Ir  Ir24  1  0.327842  0.671072  0.499173  1
  Ir  Ir25  1  0.671981  0.328805  0.499116  1
  Os  Os26  1  0.999548  0.009131  0.001543  1
  Os  Os27  1  0.000109  0.000851  0.499840  1
