# generated using pymatgen
data_K4LuPaBr12
_symmetry_space_group_name_H-M   'P 1'
_cell_length_a   7.67242900
_cell_length_b   7.67242900
_cell_length_c   11.40674100
_cell_angle_alpha   90.00000000
_cell_angle_beta   90.00000000
_cell_angle_gamma   90.00000000
_symmetry_Int_Tables_number   1
_chemical_formula_structural   K4LuPaBr12
_chemical_formula_sum   'K4 Lu1 Pa1 Br12'
_cell_volume   671.47111789
_cell_formula_units_Z   1
loop_
 _symmetry_equiv_pos_site_id
 _symmetry_equiv_pos_as_xyz
  1  'x, y, z'
loop_
 _atom_site_type_symbol
 _atom_site_label
 _atom_site_symmetry_multiplicity
 _atom_site_fract_x
 _atom_site_fract_y
 _atom_site_fract_z
 _atom_site_occupancy
  K  K0  1  0.500000  0.000000  0.804688  1
  K  K1  1  0.500000  0.000000  0.195312  1
  K  K2  1  0.000000  0.500000  0.195312  1
  K  K3  1  0.000000  0.500000  0.804688  1
  Lu  Lu4  1  0.000000  0.000000  0.000000  1
  Pa  Pa5  1  0.500000  0.500000  0.500000  1
  Br  Br6  1  0.751623  0.255692  0.000000  1
  Br  Br7  1  0.248377  0.744308  0.000000  1
  Br  Br8  1  0.500000  0.500000  0.259577  1
  Br  Br9  1  0.304044  0.205597  0.500000  1
  Br  Br10  1  0.255692  0.248377  0.000000  1
  Br  Br11  1  0.794403  0.304044  0.500000  1
  Br  Br12  1  0.000000  0.000000  0.239758  1
  Br  Br13  1  0.695956  0.794403  0.500000  1
  Br  Br14  1  0.205597  0.695956  0.500000  1
  Br  Br15  1  0.500000  0.500000  0.740423  1
  Br  Br16  1  0.744308  0.751623  0.000000  1
  Br  Br17  1  0.000000  0.000000  0.760242  1
