# generated using pymatgen
data_TbY3(ReC2)2
_symmetry_space_group_name_H-M   'P 1'
_cell_length_a   5.13416100
_cell_length_b   6.60014900
_cell_length_c   9.90999600
_cell_angle_alpha   90.00000000
_cell_angle_beta   90.00000000
_cell_angle_gamma   90.00000000
_symmetry_Int_Tables_number   1
_chemical_formula_structural   TbY3(ReC2)2
_chemical_formula_sum   'Tb2 Y6 Re4 C8'
_cell_volume   335.81237987
_cell_formula_units_Z   2
loop_
 _symmetry_equiv_pos_site_id
 _symmetry_equiv_pos_as_xyz
  1  'x, y, z'
loop_
 _atom_site_type_symbol
 _atom_site_label
 _atom_site_symmetry_multiplicity
 _atom_site_fract_x
 _atom_site_fract_y
 _atom_site_fract_z
 _atom_site_occupancy
  Tb  Tb0  1  0.750000  0.532136  0.783556  1
  Tb  Tb1  1  0.250000  0.967864  0.283556  1
  Y  Y2  1  0.750000  0.679798  0.443731  1
  Y  Y3  1  0.250000  0.820202  0.943731  1
  Y  Y4  1  0.750000  0.180216  0.056326  1
  Y  Y5  1  0.250000  0.319784  0.556326  1
  Y  Y6  1  0.250000  0.467599  0.216513  1
  Y  Y7  1  0.750000  0.032401  0.716513  1
  Re  Re8  1  0.250000  0.278211  0.864868  1
  Re  Re9  1  0.250000  0.778132  0.635066  1
  Re  Re10  1  0.750000  0.221789  0.364868  1
  Re  Re11  1  0.750000  0.721868  0.135066  1
  C  C12  1  0.250000  0.678195  0.452154  1
  C  C13  1  0.250000  0.545006  0.759072  1
  C  C14  1  0.750000  0.455066  0.240804  1
  C  C15  1  0.750000  0.821805  0.952154  1
  C  C16  1  0.250000  0.044934  0.740804  1
  C  C17  1  0.250000  0.178645  0.047910  1
  C  C18  1  0.750000  0.321355  0.547910  1
  C  C19  1  0.750000  0.954994  0.259072  1
