# generated using pymatgen
data_Li4P2PdPt5
_symmetry_space_group_name_H-M   'P 1'
_cell_length_a   7.16934249
_cell_length_b   7.17412844
_cell_length_c   7.18718199
_cell_angle_alpha   90.00778631
_cell_angle_beta   90.30842956
_cell_angle_gamma   89.64483407
_symmetry_Int_Tables_number   1
_chemical_formula_structural   Li4P2PdPt5
_chemical_formula_sum   'Li8 P4 Pd2 Pt10'
_cell_volume   369.65150486
_cell_formula_units_Z   2
loop_
 _symmetry_equiv_pos_site_id
 _symmetry_equiv_pos_as_xyz
  1  'x, y, z'
loop_
 _atom_site_type_symbol
 _atom_site_label
 _atom_site_symmetry_multiplicity
 _atom_site_fract_x
 _atom_site_fract_y
 _atom_site_fract_z
 _atom_site_occupancy
  Li  Li0  1  0.291459  0.293695  0.285805  1
  Li  Li1  1  0.037332  0.462006  0.540453  1
  Li  Li2  1  0.546826  0.040049  0.454316  1
  Li  Li3  1  0.457911  0.544285  0.045934  1
  Li  Li4  1  0.205345  0.706842  0.794061  1
  Li  Li5  1  0.955272  0.956903  0.960896  1
  Li  Li6  1  0.792695  0.207472  0.707718  1
  Li  Li7  1  0.707691  0.791611  0.206752  1
  P  P8  1  0.876821  0.374118  0.125800  1
  P  P9  1  0.375080  0.127225  0.881627  1
  P  P10  1  0.630727  0.626015  0.620671  1
  P  P11  1  0.121946  0.870028  0.374598  1
  Pd  Pd12  1  0.180201  0.075311  0.623824  1
  Pd  Pd13  1  0.424209  0.376889  0.676613  1
  Pt  Pt14  1  0.079676  0.624898  0.166571  1
  Pt  Pt15  1  0.923990  0.126739  0.332139  1
  Pt  Pt16  1  0.328291  0.919125  0.125712  1
  Pt  Pt17  1  0.666854  0.419700  0.373284  1
  Pt  Pt18  1  0.575177  0.874848  0.826652  1
  Pt  Pt19  1  0.625802  0.170770  0.080928  1
  Pt  Pt20  1  0.374453  0.670415  0.424785  1
  Pt  Pt21  1  0.873601  0.835609  0.580185  1
  Pt  Pt22  1  0.121590  0.326316  0.915252  1
  Pt  Pt23  1  0.827050  0.579131  0.875426  1
