# generated using pymatgen
data_Ho8Cu3Si12Os
_symmetry_space_group_name_H-M   'P 1'
_cell_length_a   8.04431302
_cell_length_b   8.04381362
_cell_length_c   8.00298600
_cell_angle_alpha   89.99911927
_cell_angle_beta   90.00081516
_cell_angle_gamma   119.99417278
_symmetry_Int_Tables_number   1
_chemical_formula_structural   Ho8Cu3Si12Os
_chemical_formula_sum   'Ho8 Cu3 Si12 Os1'
_cell_volume   448.49659272
_cell_formula_units_Z   1
loop_
 _symmetry_equiv_pos_site_id
 _symmetry_equiv_pos_as_xyz
  1  'x, y, z'
loop_
 _atom_site_type_symbol
 _atom_site_label
 _atom_site_symmetry_multiplicity
 _atom_site_fract_x
 _atom_site_fract_y
 _atom_site_fract_z
 _atom_site_occupancy
  Ho  Ho0  1  0.999993  0.000002  0.251630  1
  Ho  Ho1  1  0.000011  0.000021  0.748495  1
  Ho  Ho2  1  0.498795  0.501183  0.245869  1
  Ho  Ho3  1  0.498786  0.997618  0.245846  1
  Ho  Ho4  1  0.002372  0.501206  0.245915  1
  Ho  Ho5  1  0.496640  0.503350  0.754138  1
  Ho  Ho6  1  0.496636  0.993306  0.754181  1
  Ho  Ho7  1  0.006692  0.503354  0.754115  1
  Cu  Cu8  1  0.333381  0.666721  0.495741  1
  Cu  Cu9  1  0.666656  0.333277  0.504513  1
  Cu  Cu10  1  0.666729  0.333368  0.995873  1
  Si  Si11  1  0.168325  0.831674  0.500318  1
  Si  Si12  1  0.168337  0.336679  0.500333  1
  Si  Si13  1  0.663330  0.831667  0.500333  1
  Si  Si14  1  0.831564  0.168429  0.499648  1
  Si  Si15  1  0.831585  0.663117  0.499636  1
  Si  Si16  1  0.336876  0.168408  0.499624  1
  Si  Si17  1  0.832064  0.167922  0.999043  1
  Si  Si18  1  0.832086  0.664176  0.999013  1
  Si  Si19  1  0.335917  0.167953  0.999024  1
  Si  Si20  1  0.166702  0.833321  0.001224  1
  Si  Si21  1  0.166634  0.333331  0.001253  1
  Si  Si22  1  0.666571  0.833331  0.001225  1
  Os  Os23  1  0.333317  0.666585  0.003009  1
