# generated using pymatgen
data_K2Rb4ErAlAs4
_symmetry_space_group_name_H-M   'P 1'
_cell_length_a   9.48592235
_cell_length_b   9.48592197
_cell_length_c   9.48592083
_cell_angle_alpha   130.38425461
_cell_angle_beta   67.51852794
_cell_angle_gamma   137.26279827
_symmetry_Int_Tables_number   1
_chemical_formula_structural   K2Rb4ErAlAs4
_chemical_formula_sum   'K2 Rb4 Er1 Al1 As4'
_cell_volume   433.95826652
_cell_formula_units_Z   1
loop_
 _symmetry_equiv_pos_site_id
 _symmetry_equiv_pos_as_xyz
  1  'x, y, z'
loop_
 _atom_site_type_symbol
 _atom_site_label
 _atom_site_symmetry_multiplicity
 _atom_site_fract_x
 _atom_site_fract_y
 _atom_site_fract_z
 _atom_site_occupancy
  K  K0  1  0.750000  0.250000  0.500000  1
  K  K1  1  0.250000  0.750000  0.500000  1
  Rb  Rb2  1  0.325631  0.723526  0.030313  1
  Rb  Rb3  1  0.174369  0.204680  0.397895  1
  Rb  Rb4  1  0.806786  0.776473  0.602105  1
  Rb  Rb5  1  0.693214  0.295320  0.969688  1
  Er  Er6  1  0.250000  0.250000  0.000000  1
  Al  Al7  1  0.749999  0.749999  0.000000  1
  As  As8  1  0.887307  0.167290  0.094740  1
  As  As9  1  0.612692  0.707431  0.279982  1
  As  As10  1  0.427449  0.332710  0.720019  1
  As  As11  1  0.072551  0.792569  0.905261  1
