# generated using pymatgen
data_GdSiTc4Ge
_symmetry_space_group_name_H-M   'P 1'
_cell_length_a   7.40860300
_cell_length_b   7.40860295
_cell_length_c   4.17770700
_cell_angle_alpha   90.00000000
_cell_angle_beta   90.00000000
_cell_angle_gamma   90.64672743
_symmetry_Int_Tables_number   1
_chemical_formula_structural   GdSiTc4Ge
_chemical_formula_sum   'Gd2 Si2 Tc8 Ge2'
_cell_volume   229.28885970
_cell_formula_units_Z   2
loop_
 _symmetry_equiv_pos_site_id
 _symmetry_equiv_pos_as_xyz
  1  'x, y, z'
loop_
 _atom_site_type_symbol
 _atom_site_label
 _atom_site_symmetry_multiplicity
 _atom_site_fract_x
 _atom_site_fract_y
 _atom_site_fract_z
 _atom_site_occupancy
  Gd  Gd0  1  0.500000  0.500000  0.000000  1
  Gd  Gd1  1  0.000000  0.000000  0.500000  1
  Si  Si2  1  0.206280  0.793720  0.000000  1
  Si  Si3  1  0.793720  0.206280  0.000000  1
  Tc  Tc4  1  0.599961  0.152922  0.500000  1
  Tc  Tc5  1  0.400039  0.847078  0.500000  1
  Tc  Tc6  1  0.088645  0.346721  0.000000  1
  Tc  Tc7  1  0.911355  0.653279  0.000000  1
  Tc  Tc8  1  0.152922  0.599961  0.500000  1
  Tc  Tc9  1  0.847078  0.400039  0.500000  1
  Tc  Tc10  1  0.346721  0.088645  0.000000  1
  Tc  Tc11  1  0.653279  0.911355  0.000000  1
  Ge  Ge12  1  0.708628  0.708628  0.500000  1
  Ge  Ge13  1  0.291372  0.291372  0.500000  1
