# generated using pymatgen
data_Yb11ErZn24
_symmetry_space_group_name_H-M   'P 1'
_cell_length_a   4.57353500
_cell_length_b   7.45606502
_cell_length_c   21.61418101
_cell_angle_alpha   89.99471863
_cell_angle_beta   90.00000000
_cell_angle_gamma   90.00000000
_symmetry_Int_Tables_number   1
_chemical_formula_structural   Yb11ErZn24
_chemical_formula_sum   'Yb11 Er1 Zn24'
_cell_volume   737.05598259
_cell_formula_units_Z   1
loop_
 _symmetry_equiv_pos_site_id
 _symmetry_equiv_pos_as_xyz
  1  'x, y, z'
loop_
 _atom_site_type_symbol
 _atom_site_label
 _atom_site_symmetry_multiplicity
 _atom_site_fract_x
 _atom_site_fract_y
 _atom_site_fract_z
 _atom_site_occupancy
  Yb  Yb0  1  0.250000  0.701993  0.000050  1
  Yb  Yb1  1  0.750000  0.298770  0.000181  1
  Yb  Yb2  1  0.750000  0.201103  0.499762  1
  Yb  Yb3  1  0.250000  0.799909  0.500372  1
  Yb  Yb4  1  0.250000  0.799504  0.166383  1
  Yb  Yb5  1  0.750000  0.201088  0.833272  1
  Yb  Yb6  1  0.750000  0.298537  0.333421  1
  Yb  Yb7  1  0.250000  0.702278  0.666585  1
  Yb  Yb8  1  0.250000  0.701278  0.333383  1
  Yb  Yb9  1  0.750000  0.299227  0.666448  1
  Yb  Yb10  1  0.750000  0.200699  0.166994  1
  Er  Er11  1  0.250000  0.791565  0.832998  1
  Zn  Zn12  1  0.250000  0.416145  0.104022  1
  Zn  Zn13  1  0.750000  0.585749  0.895365  1
  Zn  Zn14  1  0.750000  0.914658  0.396656  1
  Zn  Zn15  1  0.250000  0.086709  0.603465  1
  Zn  Zn16  1  0.250000  0.413644  0.230673  1
  Zn  Zn17  1  0.750000  0.586583  0.771039  1
  Zn  Zn18  1  0.750000  0.913643  0.269943  1
  Zn  Zn19  1  0.250000  0.082079  0.732247  1
  Zn  Zn20  1  0.250000  0.414628  0.436367  1
  Zn  Zn21  1  0.750000  0.587005  0.563919  1
  Zn  Zn22  1  0.750000  0.916650  0.062341  1
  Zn  Zn23  1  0.250000  0.081327  0.934555  1
  Zn  Zn24  1  0.250000  0.086965  0.063376  1
  Zn  Zn25  1  0.750000  0.911189  0.933439  1
  Zn  Zn26  1  0.750000  0.585095  0.436617  1
  Zn  Zn27  1  0.250000  0.415943  0.562839  1
  Zn  Zn28  1  0.250000  0.084726  0.270206  1
  Zn  Zn29  1  0.750000  0.912083  0.732909  1
  Zn  Zn30  1  0.750000  0.584006  0.229943  1
  Zn  Zn31  1  0.250000  0.418303  0.768771  1
  Zn  Zn32  1  0.250000  0.085539  0.396855  1
  Zn  Zn33  1  0.750000  0.916711  0.604139  1
  Zn  Zn34  1  0.750000  0.587072  0.102560  1
  Zn  Zn35  1  0.250000  0.417597  0.897901  1
