# generated using pymatgen
data_NaSr4Sb2P
_symmetry_space_group_name_H-M   'P 1'
_cell_length_a   8.45735600
_cell_length_b   9.74235900
_cell_length_c   13.08799100
_cell_angle_alpha   90.00000000
_cell_angle_beta   90.00000000
_cell_angle_gamma   90.00000000
_symmetry_Int_Tables_number   1
_chemical_formula_structural   NaSr4Sb2P
_chemical_formula_sum   'Na4 Sr16 Sb8 P4'
_cell_volume   1078.37976156
_cell_formula_units_Z   4
loop_
 _symmetry_equiv_pos_site_id
 _symmetry_equiv_pos_as_xyz
  1  'x, y, z'
loop_
 _atom_site_type_symbol
 _atom_site_label
 _atom_site_symmetry_multiplicity
 _atom_site_fract_x
 _atom_site_fract_y
 _atom_site_fract_z
 _atom_site_occupancy
  Na  Na0  1  0.025549  0.750000  0.501617  1
  Na  Na1  1  0.974451  0.250000  0.498383  1
  Na  Na2  1  0.525549  0.250000  0.998383  1
  Na  Na3  1  0.474451  0.750000  0.001617  1
  Sr  Sr4  1  0.854833  0.750000  0.797100  1
  Sr  Sr5  1  0.145167  0.250000  0.202900  1
  Sr  Sr6  1  0.354833  0.250000  0.702900  1
  Sr  Sr7  1  0.645167  0.750000  0.297100  1
  Sr  Sr8  1  0.700601  0.509609  0.561087  1
  Sr  Sr9  1  0.299399  0.490391  0.438913  1
  Sr  Sr10  1  0.200601  0.490391  0.938913  1
  Sr  Sr11  1  0.299399  0.009609  0.438913  1
  Sr  Sr12  1  0.799399  0.509609  0.061087  1
  Sr  Sr13  1  0.700601  0.990391  0.561087  1
  Sr  Sr14  1  0.799399  0.990391  0.061087  1
  Sr  Sr15  1  0.200601  0.009609  0.938913  1
  Sr  Sr16  1  0.344559  0.750000  0.707465  1
  Sr  Sr17  1  0.655441  0.250000  0.292535  1
  Sr  Sr18  1  0.844559  0.250000  0.792535  1
  Sr  Sr19  1  0.155441  0.750000  0.207465  1
  Sb  Sb20  1  0.566836  0.503516  0.829677  1
  Sb  Sb21  1  0.433164  0.496484  0.170323  1
  Sb  Sb22  1  0.066836  0.496484  0.670323  1
  Sb  Sb23  1  0.433164  0.003516  0.170323  1
  Sb  Sb24  1  0.933164  0.503516  0.329677  1
  Sb  Sb25  1  0.566836  0.996484  0.829677  1
  Sb  Sb26  1  0.933164  0.996484  0.329677  1
  Sb  Sb27  1  0.066836  0.003516  0.670323  1
  P  P28  1  0.019691  0.750000  0.997133  1
  P  P29  1  0.980309  0.250000  0.002867  1
  P  P30  1  0.519691  0.250000  0.502867  1
  P  P31  1  0.480309  0.750000  0.497133  1
