# generated using pymatgen
data_ZrNb5Al16Ir7
_symmetry_space_group_name_H-M   'P 1'
_cell_length_a   8.63757219
_cell_length_b   8.61444327
_cell_length_c   8.61444413
_cell_angle_alpha   60.17770965
_cell_angle_beta   59.91114157
_cell_angle_gamma   59.91114332
_symmetry_Int_Tables_number   1
_chemical_formula_structural   ZrNb5Al16Ir7
_chemical_formula_sum   'Zr1 Nb5 Al16 Ir7'
_cell_volume   453.23649267
_cell_formula_units_Z   1
loop_
 _symmetry_equiv_pos_site_id
 _symmetry_equiv_pos_as_xyz
  1  'x, y, z'
loop_
 _atom_site_type_symbol
 _atom_site_label
 _atom_site_symmetry_multiplicity
 _atom_site_fract_x
 _atom_site_fract_y
 _atom_site_fract_z
 _atom_site_occupancy
  Zr  Zr0  1  0.313849  0.686151  0.686151  1
  Nb  Nb1  1  0.683980  0.683313  0.316020  1
  Nb  Nb2  1  0.316687  0.683313  0.316020  1
  Nb  Nb3  1  0.680293  0.319707  0.319707  1
  Nb  Nb4  1  0.316687  0.316020  0.683313  1
  Nb  Nb5  1  0.683980  0.316020  0.683313  1
  Al  Al6  1  0.880119  0.881047  0.358716  1
  Al  Al7  1  0.880119  0.358716  0.881047  1
  Al  Al8  1  0.360426  0.880982  0.880982  1
  Al  Al9  1  0.877611  0.880982  0.880982  1
  Al  Al10  1  0.119018  0.122389  0.639574  1
  Al  Al11  1  0.119018  0.639574  0.122389  1
  Al  Al12  1  0.641284  0.119881  0.119881  1
  Al  Al13  1  0.118953  0.119881  0.119881  1
  Al  Al14  1  0.661679  0.660402  0.016240  1
  Al  Al15  1  0.661679  0.016240  0.660402  1
  Al  Al16  1  0.013396  0.660722  0.660722  1
  Al  Al17  1  0.665160  0.660722  0.660722  1
  Al  Al18  1  0.339278  0.334840  0.986604  1
  Al  Al19  1  0.339278  0.986604  0.334840  1
  Al  Al20  1  0.983760  0.338321  0.338321  1
  Al  Al21  1  0.339598  0.338321  0.338321  1
  Ir  Ir22  1  0.000829  0.999171  0.999171  1
  Ir  Ir23  1  0.999478  0.000522  0.499300  1
  Ir  Ir24  1  0.500700  0.000522  0.499300  1
  Ir  Ir25  1  0.001481  0.498519  0.498519  1
  Ir  Ir26  1  0.500700  0.499300  0.000522  1
  Ir  Ir27  1  0.999478  0.499300  0.000522  1
  Ir  Ir28  1  0.501481  0.998519  0.998519  1
