# generated using pymatgen
data_Sm3Pa(Sn5Rh3)2
_symmetry_space_group_name_H-M   'P 1'
_cell_length_a   13.57288167
_cell_length_b   13.57288124
_cell_length_c   7.29108361
_cell_angle_alpha   90.07460899
_cell_angle_beta   89.92539037
_cell_angle_gamma   161.01649663
_symmetry_Int_Tables_number   1
_chemical_formula_structural   Sm3Pa(Sn5Rh3)2
_chemical_formula_sum   'Sm3 Pa1 Sn10 Rh6'
_cell_volume   436.93256125
_cell_formula_units_Z   1
loop_
 _symmetry_equiv_pos_site_id
 _symmetry_equiv_pos_as_xyz
  1  'x, y, z'
loop_
 _atom_site_type_symbol
 _atom_site_label
 _atom_site_symmetry_multiplicity
 _atom_site_fract_x
 _atom_site_fract_y
 _atom_site_fract_z
 _atom_site_occupancy
  Sm  Sm0  1  0.172662  0.827338  0.755158  1
  Sm  Sm1  1  0.827162  0.172838  0.253198  1
  Sm  Sm2  1  0.475544  0.524456  0.737760  1
  Pa  Pa3  1  0.524983  0.475017  0.236372  1
  Sn  Sn4  1  0.880090  0.119910  0.733340  1
  Sn  Sn5  1  0.121118  0.878882  0.231554  1
  Sn  Sn6  1  0.704411  0.295589  0.046997  1
  Sn  Sn7  1  0.295584  0.704416  0.548216  1
  Sn  Sn8  1  0.597123  0.402877  0.613897  1
  Sn  Sn9  1  0.403283  0.596717  0.112748  1
  Sn  Sn10  1  0.951439  0.048561  0.400341  1
  Sn  Sn11  1  0.047688  0.952312  0.894723  1
  Sn  Sn12  1  0.290315  0.709685  0.975562  1
  Sn  Sn13  1  0.710308  0.289692  0.475686  1
  Rh  Rh14  1  0.050731  0.949269  0.507351  1
  Rh  Rh15  1  0.951277  0.048723  0.024124  1
  Rh  Rh16  1  0.777505  0.222495  0.763369  1
  Rh  Rh17  1  0.222929  0.777071  0.264044  1
  Rh  Rh18  1  0.394231  0.605769  0.483667  1
  Rh  Rh19  1  0.601617  0.398383  0.997891  1
