# generated using pymatgen
data_Dy2Lu4Co17TcP12
_symmetry_space_group_name_H-M   'P 1'
_cell_length_a   3.66782000
_cell_length_b   10.45966800
_cell_length_c   12.12924400
_cell_angle_alpha   90.00000000
_cell_angle_beta   90.00000000
_cell_angle_gamma   90.00000000
_symmetry_Int_Tables_number   1
_chemical_formula_structural   Dy2Lu4Co17TcP12
_chemical_formula_sum   'Dy2 Lu4 Co17 Tc1 P12'
_cell_volume   465.32849382
_cell_formula_units_Z   1
loop_
 _symmetry_equiv_pos_site_id
 _symmetry_equiv_pos_as_xyz
  1  'x, y, z'
loop_
 _atom_site_type_symbol
 _atom_site_label
 _atom_site_symmetry_multiplicity
 _atom_site_fract_x
 _atom_site_fract_y
 _atom_site_fract_z
 _atom_site_occupancy
  Dy  Dy0  1  0.000000  0.500000  0.524914  1
  Dy  Dy1  1  0.500000  0.000000  0.477076  1
  Lu  Lu2  1  0.500000  0.818061  0.206623  1
  Lu  Lu3  1  0.500000  0.181939  0.206623  1
  Lu  Lu4  1  0.000000  0.682290  0.795295  1
  Lu  Lu5  1  0.000000  0.317710  0.795295  1
  Co  Co6  1  0.000000  0.000000  0.839600  1
  Co  Co7  1  0.500000  0.500000  0.704425  1
  Co  Co8  1  0.000000  0.000000  0.294904  1
  Co  Co9  1  0.000000  0.500000  0.987342  1
  Co  Co10  1  0.500000  0.000000  0.014738  1
  Co  Co11  1  0.500000  0.331565  0.990462  1
  Co  Co12  1  0.500000  0.668435  0.990462  1
  Co  Co13  1  0.000000  0.166631  0.005832  1
  Co  Co14  1  0.000000  0.833369  0.005832  1
  Co  Co15  1  0.500000  0.296295  0.430652  1
  Co  Co16  1  0.500000  0.703705  0.430652  1
  Co  Co17  1  0.000000  0.203289  0.569443  1
  Co  Co18  1  0.000000  0.796711  0.569443  1
  Co  Co19  1  0.500000  0.878087  0.709522  1
  Co  Co20  1  0.500000  0.121913  0.709522  1
  Co  Co21  1  0.000000  0.621986  0.291454  1
  Co  Co22  1  0.000000  0.378014  0.291454  1
  Tc  Tc23  1  0.500000  0.500000  0.156854  1
  P  P24  1  0.500000  0.500000  0.880789  1
  P  P25  1  0.000000  0.000000  0.117972  1
  P  P26  1  0.500000  0.500000  0.349531  1
  P  P27  1  0.000000  0.000000  0.655200  1
  P  P28  1  0.500000  0.311518  0.618148  1
  P  P29  1  0.500000  0.688482  0.618148  1
  P  P30  1  0.000000  0.187994  0.382821  1
  P  P31  1  0.000000  0.812006  0.382821  1
  P  P32  1  0.500000  0.848711  0.890912  1
  P  P33  1  0.500000  0.151289  0.890912  1
  P  P34  1  0.000000  0.656942  0.107165  1
  P  P35  1  0.000000  0.343058  0.107165  1
