# generated using pymatgen
data_Tb3DyGeBr6
_symmetry_space_group_name_H-M   'P 1'
_cell_length_a   4.10678000
_cell_length_b   13.29943803
_cell_length_c   14.12318403
_cell_angle_alpha   89.99199007
_cell_angle_beta   90.00000000
_cell_angle_gamma   90.00000000
_symmetry_Int_Tables_number   1
_chemical_formula_structural   Tb3DyGeBr6
_chemical_formula_sum   'Tb6 Dy2 Ge2 Br12'
_cell_volume   771.37816729
_cell_formula_units_Z   2
loop_
 _symmetry_equiv_pos_site_id
 _symmetry_equiv_pos_as_xyz
  1  'x, y, z'
loop_
 _atom_site_type_symbol
 _atom_site_label
 _atom_site_symmetry_multiplicity
 _atom_site_fract_x
 _atom_site_fract_y
 _atom_site_fract_z
 _atom_site_occupancy
  Tb  Tb0  1  0.500000  0.118913  0.340026  1
  Tb  Tb1  1  0.500000  0.881087  0.659974  1
  Tb  Tb2  1  0.000000  0.118882  0.578786  1
  Tb  Tb3  1  0.000000  0.881118  0.421214  1
  Tb  Tb4  1  0.000000  0.618852  0.921298  1
  Tb  Tb5  1  0.000000  0.381148  0.078702  1
  Dy  Dy6  1  0.500000  0.618645  0.159652  1
  Dy  Dy7  1  0.500000  0.381355  0.840348  1
  Ge  Ge8  1  0.500000  0.000000  0.500000  1
  Ge  Ge9  1  0.500000  0.500000  0.000000  1
  Br  Br10  1  0.500000  0.244468  0.162697  1
  Br  Br11  1  0.500000  0.755532  0.837303  1
  Br  Br12  1  0.500000  0.744081  0.336715  1
  Br  Br13  1  0.500000  0.255919  0.663285  1
  Br  Br14  1  0.000000  0.254921  0.411511  1
  Br  Br15  1  0.000000  0.745079  0.588489  1
  Br  Br16  1  0.000000  0.754228  0.089142  1
  Br  Br17  1  0.000000  0.245772  0.910858  1
  Br  Br18  1  0.000000  0.001707  0.243771  1
  Br  Br19  1  0.000000  0.998293  0.756229  1
  Br  Br20  1  0.000000  0.502544  0.255834  1
  Br  Br21  1  0.000000  0.497456  0.744166  1
