# generated using pymatgen
data_NaPr3Ti8O20
_symmetry_space_group_name_H-M   'P 1'
_cell_length_a   5.86722700
_cell_length_b   7.78904773
_cell_length_c   8.78500000
_cell_angle_alpha   90.02472332
_cell_angle_beta   90.00000000
_cell_angle_gamma   90.00000000
_symmetry_Int_Tables_number   1
_chemical_formula_structural   NaPr3Ti8O20
_chemical_formula_sum   'Na1 Pr3 Ti8 O20'
_cell_volume   401.47543879
_cell_formula_units_Z   1
loop_
 _symmetry_equiv_pos_site_id
 _symmetry_equiv_pos_as_xyz
  1  'x, y, z'
loop_
 _atom_site_type_symbol
 _atom_site_label
 _atom_site_symmetry_multiplicity
 _atom_site_fract_x
 _atom_site_fract_y
 _atom_site_fract_z
 _atom_site_occupancy
  Na  Na0  1  0.000000  0.350747  0.668370  1
  Pr  Pr1  1  0.000000  0.632980  0.335244  1
  Pr  Pr2  1  0.000000  0.858271  0.828075  1
  Pr  Pr3  1  0.000000  0.143174  0.171343  1
  Ti  Ti4  1  0.500000  0.113992  0.858212  1
  Ti  Ti5  1  0.500000  0.881110  0.144747  1
  Ti  Ti6  1  0.500000  0.616538  0.639289  1
  Ti  Ti7  1  0.500000  0.388792  0.360648  1
  Ti  Ti8  1  0.247090  0.500840  0.992113  1
  Ti  Ti9  1  0.749239  0.004273  0.502551  1
  Ti  Ti10  1  0.752910  0.500840  0.992113  1
  Ti  Ti11  1  0.250761  0.004273  0.502551  1
  O  O12  1  0.257780  0.899437  0.290650  1
  O  O13  1  0.263418  0.082350  0.711713  1
  O  O14  1  0.741946  0.401171  0.208729  1
  O  O15  1  0.734617  0.614534  0.796794  1
  O  O16  1  0.736582  0.082350  0.711713  1
  O  O17  1  0.742220  0.899437  0.290650  1
  O  O18  1  0.265383  0.614534  0.796794  1
  O  O19  1  0.258054  0.401171  0.208729  1
  O  O20  1  0.500000  0.336618  0.918365  1
  O  O21  1  0.500000  0.662135  0.080661  1
  O  O22  1  0.500000  0.831251  0.565736  1
  O  O23  1  0.500000  0.167289  0.425130  1
  O  O24  1  0.284370  0.001010  0.002963  1
  O  O25  1  0.713007  0.506197  0.497261  1
  O  O26  1  0.715630  0.001010  0.002963  1
  O  O27  1  0.286993  0.506197  0.497261  1
  O  O28  1  0.000000  0.155755  0.442592  1
  O  O29  1  0.000000  0.840571  0.550791  1
  O  O30  1  0.000000  0.661100  0.053529  1
  O  O31  1  0.000000  0.340061  0.951719  1
