# generated using pymatgen
data_Ce2ErTm(NiP)4
_symmetry_space_group_name_H-M   'P 1'
_cell_length_a   3.93342800
_cell_length_b   3.93342887
_cell_length_c   15.35431800
_cell_angle_alpha   90.00000000
_cell_angle_beta   90.00000000
_cell_angle_gamma   120.00000950
_symmetry_Int_Tables_number   1
_chemical_formula_structural   Ce2ErTm(NiP)4
_chemical_formula_sum   'Ce2 Er1 Tm1 Ni4 P4'
_cell_volume   205.73284279
_cell_formula_units_Z   1
loop_
 _symmetry_equiv_pos_site_id
 _symmetry_equiv_pos_as_xyz
  1  'x, y, z'
loop_
 _atom_site_type_symbol
 _atom_site_label
 _atom_site_symmetry_multiplicity
 _atom_site_fract_x
 _atom_site_fract_y
 _atom_site_fract_z
 _atom_site_occupancy
  Ce  Ce0  1  0.000000  0.000000  0.499772  1
  Ce  Ce1  1  0.000000  0.000000  0.000228  1
  Er  Er2  1  0.000000  0.000000  0.750000  1
  Tm  Tm3  1  0.000000  0.000000  0.250000  1
  Ni  Ni4  1  0.333333  0.666667  0.365641  1
  Ni  Ni5  1  0.666667  0.333333  0.634066  1
  Ni  Ni6  1  0.666667  0.333333  0.865934  1
  Ni  Ni7  1  0.333333  0.666667  0.134359  1
  P  P8  1  0.333333  0.666667  0.875717  1
  P  P9  1  0.666667  0.333333  0.124795  1
  P  P10  1  0.666667  0.333333  0.375205  1
  P  P11  1  0.333333  0.666667  0.624283  1
