# generated using pymatgen
data_CeEuBeSi4Rh
_symmetry_space_group_name_H-M   'P 1'
_cell_length_a   8.69387577
_cell_length_b   8.69387577
_cell_length_c   4.00368900
_cell_angle_alpha   90.00000000
_cell_angle_beta   90.00000000
_cell_angle_gamma   151.75871456
_symmetry_Int_Tables_number   1
_chemical_formula_structural   CeEuBeSi4Rh
_chemical_formula_sum   'Ce1 Eu1 Be1 Si4 Rh1'
_cell_volume   143.19201095
_cell_formula_units_Z   1
loop_
 _symmetry_equiv_pos_site_id
 _symmetry_equiv_pos_as_xyz
  1  'x, y, z'
loop_
 _atom_site_type_symbol
 _atom_site_label
 _atom_site_symmetry_multiplicity
 _atom_site_fract_x
 _atom_site_fract_y
 _atom_site_fract_z
 _atom_site_occupancy
  Ce  Ce0  1  0.388371  0.611629  0.750000  1
  Eu  Eu1  1  0.598843  0.401157  0.250000  1
  Be  Be2  1  0.827418  0.172582  0.250000  1
  Si  Si3  1  0.958853  0.041147  0.250000  1
  Si  Si4  1  0.036906  0.963094  0.750000  1
  Si  Si5  1  0.256154  0.743846  0.250000  1
  Si  Si6  1  0.750832  0.249168  0.750000  1
  Rh  Rh7  1  0.182623  0.817377  0.750000  1
