# generated using pymatgen
data_Lu2ScGa5
_symmetry_space_group_name_H-M   'P 1'
_cell_length_a   5.86197900
_cell_length_b   9.37289300
_cell_length_c   11.41476100
_cell_angle_alpha   90.00000000
_cell_angle_beta   90.00000000
_cell_angle_gamma   90.00000000
_symmetry_Int_Tables_number   1
_chemical_formula_structural   Lu2ScGa5
_chemical_formula_sum   'Lu8 Sc4 Ga20'
_cell_volume   627.16922605
_cell_formula_units_Z   4
loop_
 _symmetry_equiv_pos_site_id
 _symmetry_equiv_pos_as_xyz
  1  'x, y, z'
loop_
 _atom_site_type_symbol
 _atom_site_label
 _atom_site_symmetry_multiplicity
 _atom_site_fract_x
 _atom_site_fract_y
 _atom_site_fract_z
 _atom_site_occupancy
  Lu  Lu0  1  0.887177  0.500947  0.352010  1
  Lu  Lu1  1  0.612823  0.999053  0.852010  1
  Lu  Lu2  1  0.112823  0.000947  0.647990  1
  Lu  Lu3  1  0.387177  0.499053  0.147990  1
  Lu  Lu4  1  0.112823  0.499053  0.647990  1
  Lu  Lu5  1  0.387177  0.000947  0.147990  1
  Lu  Lu6  1  0.887177  0.999053  0.352010  1
  Lu  Lu7  1  0.612823  0.500947  0.852010  1
  Sc  Sc8  1  0.856744  0.750000  0.072782  1
  Sc  Sc9  1  0.643256  0.750000  0.572782  1
  Sc  Sc10  1  0.143256  0.250000  0.927218  1
  Sc  Sc11  1  0.356744  0.250000  0.427218  1
  Ga  Ga12  1  0.875418  0.052498  0.090608  1
  Ga  Ga13  1  0.624582  0.447502  0.590608  1
  Ga  Ga14  1  0.124582  0.552498  0.909392  1
  Ga  Ga15  1  0.375418  0.947502  0.409392  1
  Ga  Ga16  1  0.124582  0.947502  0.909392  1
  Ga  Ga17  1  0.375418  0.552498  0.409392  1
  Ga  Ga18  1  0.875418  0.447502  0.090608  1
  Ga  Ga19  1  0.624582  0.052498  0.590608  1
  Ga  Ga20  1  0.151967  0.750000  0.257250  1
  Ga  Ga21  1  0.348033  0.750000  0.757250  1
  Ga  Ga22  1  0.848033  0.250000  0.742750  1
  Ga  Ga23  1  0.651967  0.250000  0.242750  1
  Ga  Ga24  1  0.396120  0.750000  0.999639  1
  Ga  Ga25  1  0.103880  0.750000  0.499639  1
  Ga  Ga26  1  0.603880  0.250000  0.000361  1
  Ga  Ga27  1  0.896120  0.250000  0.500361  1
  Ga  Ga28  1  0.614894  0.750000  0.294154  1
  Ga  Ga29  1  0.885106  0.750000  0.794154  1
  Ga  Ga30  1  0.385106  0.250000  0.705846  1
  Ga  Ga31  1  0.114894  0.250000  0.205846  1
