# generated using pymatgen
data_Zn14B6Ir15Rh2Au
_symmetry_space_group_name_H-M   'P 1'
_cell_length_a   2.89986000
_cell_length_b   11.42688083
_cell_length_c   15.01190911
_cell_angle_alpha   90.04381322
_cell_angle_beta   90.00000000
_cell_angle_gamma   90.00000000
_symmetry_Int_Tables_number   1
_chemical_formula_structural   Zn14B6Ir15Rh2Au
_chemical_formula_sum   'Zn14 B6 Ir15 Rh2 Au1'
_cell_volume   497.43979852
_cell_formula_units_Z   1
loop_
 _symmetry_equiv_pos_site_id
 _symmetry_equiv_pos_as_xyz
  1  'x, y, z'
loop_
 _atom_site_type_symbol
 _atom_site_label
 _atom_site_symmetry_multiplicity
 _atom_site_fract_x
 _atom_site_fract_y
 _atom_site_fract_z
 _atom_site_occupancy
  Zn  Zn0  1  0.500000  0.501246  0.351316  1
  Zn  Zn1  1  0.500000  0.000031  0.651752  1
  Zn  Zn2  1  0.500000  0.388070  0.997859  1
  Zn  Zn3  1  0.500000  0.115470  0.995805  1
  Zn  Zn4  1  0.500000  0.611902  0.997800  1
  Zn  Zn5  1  0.500000  0.884534  0.995709  1
  Zn  Zn6  1  0.500000  0.373294  0.769206  1
  Zn  Zn7  1  0.500000  0.134776  0.237105  1
  Zn  Zn8  1  0.500000  0.626739  0.769184  1
  Zn  Zn9  1  0.500000  0.865366  0.237356  1
  Zn  Zn10  1  0.500000  0.297470  0.603642  1
  Zn  Zn11  1  0.500000  0.205125  0.398626  1
  Zn  Zn12  1  0.500000  0.701776  0.602899  1
  Zn  Zn13  1  0.500000  0.793849  0.399241  1
  B  B14  1  0.500000  0.498591  0.531764  1
  B  B15  1  0.500000  0.999827  0.470243  1
  B  B16  1  0.500000  0.142083  0.820167  1
  B  B17  1  0.500000  0.359480  0.178233  1
  B  B18  1  0.500000  0.857803  0.820002  1
  B  B19  1  0.500000  0.640480  0.177896  1
  Ir  Ir20  1  0.000000  0.247693  0.892481  1
  Ir  Ir21  1  0.000000  0.253249  0.105080  1
  Ir  Ir22  1  0.000000  0.752259  0.892284  1
  Ir  Ir23  1  0.000000  0.746744  0.104670  1
  Ir  Ir24  1  0.000000  0.500488  0.642986  1
  Ir  Ir25  1  0.000000  0.000085  0.357655  1
  Ir  Ir26  1  0.000000  0.171749  0.715732  1
  Ir  Ir27  1  0.000000  0.331271  0.283546  1
  Ir  Ir28  1  0.000000  0.828030  0.715484  1
  Ir  Ir29  1  0.000000  0.669676  0.283095  1
  Ir  Ir30  1  0.000000  0.499873  0.135538  1
  Ir  Ir31  1  0.000000  0.999953  0.861363  1
  Ir  Ir32  1  0.000000  0.122416  0.529864  1
  Ir  Ir33  1  0.000000  0.378807  0.471099  1
  Ir  Ir34  1  0.000000  0.877645  0.530221  1
  Rh  Rh35  1  0.000000  0.622150  0.471646  1
  Rh  Rh36  1  0.000000  0.500103  0.877692  1
  Au  Au37  1  0.000000  0.999899  0.123753  1
