# generated using pymatgen
data_DyHo2Zr2Sn3
_symmetry_space_group_name_H-M   'P 1'
_cell_length_a   8.83035892
_cell_length_b   8.81791527
_cell_length_c   6.09547600
_cell_angle_alpha   90.00000000
_cell_angle_beta   90.00000000
_cell_angle_gamma   119.95338833
_symmetry_Int_Tables_number   1
_chemical_formula_structural   DyHo2Zr2Sn3
_chemical_formula_sum   'Dy2 Ho4 Zr4 Sn6'
_cell_volume   411.23145606
_cell_formula_units_Z   2
loop_
 _symmetry_equiv_pos_site_id
 _symmetry_equiv_pos_as_xyz
  1  'x, y, z'
loop_
 _atom_site_type_symbol
 _atom_site_label
 _atom_site_symmetry_multiplicity
 _atom_site_fract_x
 _atom_site_fract_y
 _atom_site_fract_z
 _atom_site_occupancy
  Dy  Dy0  1  0.000000  0.759955  0.750000  1
  Dy  Dy1  1  0.000000  0.240045  0.250000  1
  Ho  Ho2  1  0.759330  0.759500  0.250000  1
  Ho  Ho3  1  0.759330  0.999830  0.750000  1
  Ho  Ho4  1  0.240670  0.240500  0.750000  1
  Ho  Ho5  1  0.240670  0.000170  0.250000  1
  Zr  Zr6  1  0.333127  0.666564  0.500000  1
  Zr  Zr7  1  0.666873  0.333436  0.000000  1
  Zr  Zr8  1  0.666873  0.333436  0.500000  1
  Zr  Zr9  1  0.333127  0.666564  0.000000  1
  Sn  Sn10  1  0.400496  0.000178  0.750000  1
  Sn  Sn11  1  0.400496  0.400318  0.250000  1
  Sn  Sn12  1  0.000000  0.599712  0.250000  1
  Sn  Sn13  1  0.000000  0.400288  0.750000  1
  Sn  Sn14  1  0.599504  0.599682  0.750000  1
  Sn  Sn15  1  0.599504  0.999822  0.250000  1
