# generated using pymatgen
data_TbHo2Al10(SiRu2)2
_symmetry_space_group_name_H-M   'P 1'
_cell_length_a   8.67802700
_cell_length_b   8.67689032
_cell_length_c   9.62149600
_cell_angle_alpha   90.00000000
_cell_angle_beta   90.00000000
_cell_angle_gamma   120.00433736
_symmetry_Int_Tables_number   1
_chemical_formula_structural   TbHo2Al10(SiRu2)2
_chemical_formula_sum   'Tb2 Ho4 Al20 Si4 Ru8'
_cell_volume   627.39255009
_cell_formula_units_Z   2
loop_
 _symmetry_equiv_pos_site_id
 _symmetry_equiv_pos_as_xyz
  1  'x, y, z'
loop_
 _atom_site_type_symbol
 _atom_site_label
 _atom_site_symmetry_multiplicity
 _atom_site_fract_x
 _atom_site_fract_y
 _atom_site_fract_z
 _atom_site_occupancy
  Tb  Tb0  1  0.194933  0.389867  0.250000  1
  Tb  Tb1  1  0.805067  0.610133  0.750000  1
  Ho  Ho2  1  0.609357  0.804795  0.250000  1
  Ho  Ho3  1  0.390643  0.195205  0.750000  1
  Ho  Ho4  1  0.195436  0.804795  0.250000  1
  Ho  Ho5  1  0.804564  0.195205  0.750000  1
  Al  Al6  1  0.164907  0.329815  0.577324  1
  Al  Al7  1  0.835093  0.670185  0.422676  1
  Al  Al8  1  0.670102  0.835169  0.577121  1
  Al  Al9  1  0.835093  0.670185  0.077324  1
  Al  Al10  1  0.329898  0.164831  0.422879  1
  Al  Al11  1  0.164907  0.329815  0.922676  1
  Al  Al12  1  0.165067  0.835169  0.577121  1
  Al  Al13  1  0.329898  0.164831  0.077121  1
  Al  Al14  1  0.834933  0.164831  0.422879  1
  Al  Al15  1  0.670102  0.835169  0.922879  1
  Al  Al16  1  0.834933  0.164831  0.077121  1
  Al  Al17  1  0.165067  0.835169  0.922879  1
  Al  Al18  1  0.563380  0.126759  0.250000  1
  Al  Al19  1  0.436620  0.873241  0.750000  1
  Al  Al20  1  0.872891  0.436624  0.250000  1
  Al  Al21  1  0.127109  0.563376  0.750000  1
  Al  Al22  1  0.563734  0.436624  0.250000  1
  Al  Al23  1  0.436266  0.563376  0.750000  1
  Al  Al24  1  0.999827  0.999654  0.250000  1
  Al  Al25  1  0.000173  0.000346  0.750000  1
  Si  Si26  1  0.333518  0.667036  0.037042  1
  Si  Si27  1  0.666482  0.332964  0.962958  1
  Si  Si28  1  0.666482  0.332964  0.537042  1
  Si  Si29  1  0.333518  0.667036  0.462958  1
  Ru  Ru30  1  0.500000  0.000000  0.000000  1
  Ru  Ru31  1  0.000000  0.500000  0.000000  1
  Ru  Ru32  1  0.500000  0.000000  0.500000  1
  Ru  Ru33  1  0.500000  0.500000  0.000000  1
  Ru  Ru34  1  0.000000  0.500000  0.500000  1
  Ru  Ru35  1  0.500000  0.500000  0.500000  1
  Ru  Ru36  1  0.000000  0.000000  0.000000  1
  Ru  Ru37  1  0.000000  0.000000  0.500000  1
