# generated using pymatgen
data_Dy6Al24FeRu5Rh2
_symmetry_space_group_name_H-M   'P 1'
_cell_length_a   8.77279250
_cell_length_b   8.77279270
_cell_length_c   9.55029807
_cell_angle_alpha   90.01170074
_cell_angle_beta   89.98829927
_cell_angle_gamma   119.78835555
_symmetry_Int_Tables_number   1
_chemical_formula_structural   Dy6Al24FeRu5Rh2
_chemical_formula_sum   'Dy6 Al24 Fe1 Ru5 Rh2'
_cell_volume   637.88961518
_cell_formula_units_Z   1
loop_
 _symmetry_equiv_pos_site_id
 _symmetry_equiv_pos_as_xyz
  1  'x, y, z'
loop_
 _atom_site_type_symbol
 _atom_site_label
 _atom_site_symmetry_multiplicity
 _atom_site_fract_x
 _atom_site_fract_y
 _atom_site_fract_z
 _atom_site_occupancy
  Dy  Dy0  1  0.193672  0.806328  0.249960  1
  Dy  Dy1  1  0.189131  0.385269  0.249971  1
  Dy  Dy2  1  0.614731  0.810869  0.249971  1
  Dy  Dy3  1  0.806328  0.193672  0.750040  1
  Dy  Dy4  1  0.810869  0.614731  0.750029  1
  Dy  Dy5  1  0.385269  0.189131  0.750029  1
  Al  Al6  1  0.561430  0.438570  0.250293  1
  Al  Al7  1  0.561172  0.124322  0.250385  1
  Al  Al8  1  0.875678  0.438828  0.250385  1
  Al  Al9  1  0.438570  0.561430  0.749707  1
  Al  Al10  1  0.438828  0.875678  0.749615  1
  Al  Al11  1  0.124322  0.561172  0.749615  1
  Al  Al12  1  0.319389  0.158635  0.423253  1
  Al  Al13  1  0.839599  0.160401  0.423737  1
  Al  Al14  1  0.841365  0.680611  0.423253  1
  Al  Al15  1  0.680611  0.841365  0.576747  1
  Al  Al16  1  0.160401  0.839599  0.576263  1
  Al  Al17  1  0.158635  0.319389  0.576747  1
  Al  Al18  1  0.675758  0.838776  0.922016  1
  Al  Al19  1  0.162781  0.837219  0.922475  1
  Al  Al20  1  0.161224  0.324242  0.922016  1
  Al  Al21  1  0.324242  0.161224  0.077984  1
  Al  Al22  1  0.837219  0.162781  0.077525  1
  Al  Al23  1  0.838776  0.675758  0.077984  1
  Al  Al24  1  0.667473  0.332527  0.517779  1
  Al  Al25  1  0.332527  0.667473  0.482221  1
  Al  Al26  1  0.332623  0.667377  0.018483  1
  Al  Al27  1  0.667377  0.332623  0.981517  1
  Al  Al28  1  0.999391  0.000609  0.256000  1
  Al  Al29  1  0.000609  0.999391  0.744000  1
  Fe  Fe30  1  0.000000  0.000000  0.500000  1
  Ru  Ru31  1  0.000000  0.000000  0.000000  1
  Ru  Ru32  1  0.500000  0.000000  0.500000  1
  Ru  Ru33  1  0.000000  0.500000  0.500000  1
  Ru  Ru34  1  0.500000  0.000000  0.000000  1
  Ru  Ru35  1  0.000000  0.500000  0.000000  1
  Rh  Rh36  1  0.500000  0.500000  0.500000  1
  Rh  Rh37  1  0.500000  0.500000  0.000000  1
