# generated using pymatgen
data_CaSm6PtI12
_symmetry_space_group_name_H-M   'P 1'
_cell_length_a   9.90183649
_cell_length_b   9.90183753
_cell_length_c   9.90183900
_cell_angle_alpha   106.84334967
_cell_angle_beta   106.84335148
_cell_angle_gamma   106.84335404
_symmetry_Int_Tables_number   1
_chemical_formula_structural   CaSm6PtI12
_chemical_formula_sum   'Ca1 Sm6 Pt1 I12'
_cell_volume   811.95457205
_cell_formula_units_Z   1
loop_
 _symmetry_equiv_pos_site_id
 _symmetry_equiv_pos_as_xyz
  1  'x, y, z'
loop_
 _atom_site_type_symbol
 _atom_site_label
 _atom_site_symmetry_multiplicity
 _atom_site_fract_x
 _atom_site_fract_y
 _atom_site_fract_z
 _atom_site_occupancy
  Ca  Ca0  1  0.500000  0.500000  0.500000  1
  Sm  Sm1  1  0.899754  0.974145  0.694110  1
  Sm  Sm2  1  0.694110  0.899754  0.974145  1
  Sm  Sm3  1  0.974145  0.694110  0.899754  1
  Sm  Sm4  1  0.100246  0.025855  0.305890  1
  Sm  Sm5  1  0.305890  0.100246  0.025855  1
  Sm  Sm6  1  0.025855  0.305890  0.100246  1
  Pt  Pt7  1  0.000000  0.000000  0.000000  1
  I  I8  1  0.926186  0.321394  0.774021  1
  I  I9  1  0.774021  0.926186  0.321394  1
  I  I10  1  0.321394  0.774021  0.926186  1
  I  I11  1  0.073814  0.678606  0.225979  1
  I  I12  1  0.225979  0.073814  0.678606  1
  I  I13  1  0.678606  0.225979  0.073814  1
  I  I14  1  0.539637  0.845742  0.618312  1
  I  I15  1  0.618312  0.539637  0.845742  1
  I  I16  1  0.845742  0.618312  0.539637  1
  I  I17  1  0.460363  0.154258  0.381688  1
  I  I18  1  0.381688  0.460363  0.154258  1
  I  I19  1  0.154258  0.381688  0.460363  1
