# generated using pymatgen
data_CsNaTi2(PO5)2
_symmetry_space_group_name_H-M   'P 1'
_cell_length_a   6.39985800
_cell_length_b   10.70330500
_cell_length_c   12.98808000
_cell_angle_alpha   90.00000000
_cell_angle_beta   90.00000000
_cell_angle_gamma   90.00000000
_symmetry_Int_Tables_number   1
_chemical_formula_structural   CsNaTi2(PO5)2
_chemical_formula_sum   'Cs4 Na4 Ti8 P8 O40'
_cell_volume   889.67870208
_cell_formula_units_Z   4
loop_
 _symmetry_equiv_pos_site_id
 _symmetry_equiv_pos_as_xyz
  1  'x, y, z'
loop_
 _atom_site_type_symbol
 _atom_site_label
 _atom_site_symmetry_multiplicity
 _atom_site_fract_x
 _atom_site_fract_y
 _atom_site_fract_z
 _atom_site_occupancy
  Cs  Cs0  1  0.145785  0.586057  0.094191  1
  Cs  Cs1  1  0.854215  0.086057  0.905809  1
  Cs  Cs2  1  0.354215  0.586057  0.594191  1
  Cs  Cs3  1  0.645785  0.086057  0.405809  1
  Na  Na4  1  0.742859  0.298723  0.154167  1
  Na  Na5  1  0.257141  0.798723  0.845833  1
  Na  Na6  1  0.757141  0.298723  0.654167  1
  Na  Na7  1  0.242859  0.798723  0.345833  1
  Ti  Ti8  1  0.472853  0.011035  0.127648  1
  Ti  Ti9  1  0.527147  0.511035  0.872352  1
  Ti  Ti10  1  0.027147  0.011035  0.627648  1
  Ti  Ti11  1  0.972853  0.511035  0.372352  1
  Ti  Ti12  1  0.242476  0.271869  0.246978  1
  Ti  Ti13  1  0.757524  0.771869  0.753022  1
  Ti  Ti14  1  0.257524  0.271869  0.746978  1
  Ti  Ti15  1  0.742476  0.771869  0.253022  1
  P  P16  1  0.339294  0.275610  0.999024  1
  P  P17  1  0.660706  0.775610  0.000976  1
  P  P18  1  0.160706  0.275610  0.499024  1
  P  P19  1  0.839294  0.775610  0.500976  1
  P  P20  1  0.983088  0.024388  0.186711  1
  P  P21  1  0.016912  0.524388  0.813289  1
  P  P22  1  0.516912  0.024388  0.686711  1
  P  P23  1  0.483088  0.524388  0.313289  1
  O  O24  1  0.011454  0.390994  0.490939  1
  O  O25  1  0.988546  0.890994  0.509061  1
  O  O26  1  0.488546  0.390994  0.990939  1
  O  O27  1  0.511454  0.890994  0.009061  1
  O  O28  1  0.283345  0.550804  0.375957  1
  O  O29  1  0.716655  0.050804  0.624043  1
  O  O30  1  0.216655  0.550804  0.875957  1
  O  O31  1  0.783345  0.050804  0.124043  1
  O  O32  1  0.437430  0.157470  0.215944  1
  O  O33  1  0.562570  0.657470  0.784056  1
  O  O34  1  0.062570  0.157470  0.715944  1
  O  O35  1  0.937430  0.657470  0.284056  1
  O  O36  1  0.008962  0.399867  0.271456  1
  O  O37  1  0.991038  0.899867  0.728544  1
  O  O38  1  0.491038  0.399867  0.771456  1
  O  O39  1  0.508962  0.899867  0.228544  1
  O  O40  1  0.454562  0.412518  0.238784  1
  O  O41  1  0.545438  0.912518  0.761216  1
  O  O42  1  0.045438  0.412518  0.738784  1
  O  O43  1  0.954562  0.912518  0.261216  1
  O  O44  1  0.166049  0.998429  0.112400  1
  O  O45  1  0.833951  0.498429  0.887600  1
  O  O46  1  0.333951  0.998429  0.612400  1
  O  O47  1  0.666049  0.498429  0.387600  1
  O  O48  1  0.470077  0.157231  0.014449  1
  O  O49  1  0.529923  0.657231  0.985551  1
  O  O50  1  0.029923  0.157231  0.514449  1
  O  O51  1  0.970077  0.657231  0.485551  1
  O  O52  1  0.020462  0.144603  0.251647  1
  O  O53  1  0.979538  0.644603  0.748353  1
  O  O54  1  0.479538  0.144603  0.751647  1
  O  O55  1  0.520462  0.644603  0.248353  1
  O  O56  1  0.289172  0.264873  0.397347  1
  O  O57  1  0.710828  0.764873  0.602653  1
  O  O58  1  0.210828  0.264873  0.897347  1
  O  O59  1  0.789172  0.764873  0.102653  1
  O  O60  1  0.184377  0.297328  0.090542  1
  O  O61  1  0.815623  0.797328  0.909458  1
  O  O62  1  0.315623  0.297328  0.590542  1
  O  O63  1  0.684377  0.797328  0.409458  1
