# generated using pymatgen
data_Th3Al3Zn2Co
_symmetry_space_group_name_H-M   'P 1'
_cell_length_a   7.03279000
_cell_length_b   7.03279017
_cell_length_c   4.40833300
_cell_angle_alpha   90.00000000
_cell_angle_beta   90.00000000
_cell_angle_gamma   119.99999918
_symmetry_Int_Tables_number   1
_chemical_formula_structural   Th3Al3Zn2Co
_chemical_formula_sum   'Th3 Al3 Zn2 Co1'
_cell_volume   188.82536731
_cell_formula_units_Z   1
loop_
 _symmetry_equiv_pos_site_id
 _symmetry_equiv_pos_as_xyz
  1  'x, y, z'
loop_
 _atom_site_type_symbol
 _atom_site_label
 _atom_site_symmetry_multiplicity
 _atom_site_fract_x
 _atom_site_fract_y
 _atom_site_fract_z
 _atom_site_occupancy
  Th  Th0  1  0.604329  0.000000  0.000000  1
  Th  Th1  1  0.000000  0.604329  0.000000  1
  Th  Th2  1  0.395671  0.395671  0.000000  1
  Al  Al3  1  0.229196  0.000000  0.500000  1
  Al  Al4  1  0.000000  0.229196  0.500000  1
  Al  Al5  1  0.770804  0.770804  0.500000  1
  Zn  Zn6  1  0.333333  0.666667  0.500000  1
  Zn  Zn7  1  0.666667  0.333333  0.500000  1
  Co  Co8  1  0.000000  0.000000  0.000000  1
