# generated using pymatgen
data_Zr10AlZnSb4
_symmetry_space_group_name_H-M   'P 1'
_cell_length_a   5.53472560
_cell_length_b   8.37429662
_cell_length_c   8.37429636
_cell_angle_alpha   83.73061151
_cell_angle_beta   70.70335242
_cell_angle_gamma   70.70335123
_symmetry_Int_Tables_number   1
_chemical_formula_structural   Zr10AlZnSb4
_chemical_formula_sum   'Zr10 Al1 Zn1 Sb4'
_cell_volume   345.75731369
_cell_formula_units_Z   1
loop_
 _symmetry_equiv_pos_site_id
 _symmetry_equiv_pos_as_xyz
  1  'x, y, z'
loop_
 _atom_site_type_symbol
 _atom_site_label
 _atom_site_symmetry_multiplicity
 _atom_site_fract_x
 _atom_site_fract_y
 _atom_site_fract_z
 _atom_site_occupancy
  Zr  Zr0  1  0.250000  0.500000  0.500000  1
  Zr  Zr1  1  0.750000  0.500000  0.500000  1
  Zr  Zr2  1  0.076731  0.138378  0.709264  1
  Zr  Zr3  1  0.924374  0.861622  0.290736  1
  Zr  Zr4  1  0.785996  0.290736  0.138378  1
  Zr  Zr5  1  0.423269  0.290736  0.861622  1
  Zr  Zr6  1  0.215110  0.709264  0.861622  1
  Zr  Zr7  1  0.575626  0.709264  0.138378  1
  Zr  Zr8  1  0.714004  0.861622  0.709264  1
  Zr  Zr9  1  0.284890  0.138378  0.290736  1
  Al  Al10  1  0.250000  0.000000  0.000000  1
  Zn  Zn11  1  0.750000  0.000000  0.000000  1
  Sb  Sb12  1  0.163852  0.500000  0.172296  1
  Sb  Sb13  1  0.836148  0.500000  0.827704  1
  Sb  Sb14  1  0.336148  0.827704  0.500000  1
  Sb  Sb15  1  0.663852  0.172296  0.500000  1
