# generated using pymatgen
data_Ta3Ti3(V2Ga3)2
_symmetry_space_group_name_H-M   'P 1'
_cell_length_a   7.55731300
_cell_length_b   7.55731271
_cell_length_c   5.04121900
_cell_angle_alpha   90.00000000
_cell_angle_beta   90.00000000
_cell_angle_gamma   119.99999688
_symmetry_Int_Tables_number   1
_chemical_formula_structural   Ta3Ti3(V2Ga3)2
_chemical_formula_sum   'Ta3 Ti3 V4 Ga6'
_cell_volume   249.34520023
_cell_formula_units_Z   1
loop_
 _symmetry_equiv_pos_site_id
 _symmetry_equiv_pos_as_xyz
  1  'x, y, z'
loop_
 _atom_site_type_symbol
 _atom_site_label
 _atom_site_symmetry_multiplicity
 _atom_site_fract_x
 _atom_site_fract_y
 _atom_site_fract_z
 _atom_site_occupancy
  Ta  Ta0  1  0.766280  0.766280  0.750000  1
  Ta  Ta1  1  0.233720  0.000000  0.750000  1
  Ta  Ta2  1  0.000000  0.233720  0.750000  1
  Ti  Ti3  1  0.247842  0.247842  0.250000  1
  Ti  Ti4  1  0.752158  0.000000  0.250000  1
  Ti  Ti5  1  0.000000  0.752158  0.250000  1
  V  V6  1  0.666667  0.333333  0.001508  1
  V  V7  1  0.333333  0.666667  0.001508  1
  V  V8  1  0.333333  0.666667  0.498492  1
  V  V9  1  0.666667  0.333333  0.498492  1
  Ga  Ga10  1  0.406705  0.406705  0.750000  1
  Ga  Ga11  1  0.593295  0.000000  0.750000  1
  Ga  Ga12  1  0.000000  0.593295  0.750000  1
  Ga  Ga13  1  0.600777  0.600777  0.250000  1
  Ga  Ga14  1  0.399223  0.000000  0.250000  1
  Ga  Ga15  1  0.000000  0.399223  0.250000  1
