# generated using pymatgen
data_MoIr2Os4W
_symmetry_space_group_name_H-M   'P 1'
_cell_length_a   5.57480500
_cell_length_b   5.55748876
_cell_length_c   4.40266700
_cell_angle_alpha   90.00000000
_cell_angle_beta   90.00000000
_cell_angle_gamma   120.10313069
_symmetry_Int_Tables_number   1
_chemical_formula_structural   MoIr2Os4W
_chemical_formula_sum   'Mo1 Ir2 Os4 W1'
_cell_volume   118.00556295
_cell_formula_units_Z   1
loop_
 _symmetry_equiv_pos_site_id
 _symmetry_equiv_pos_as_xyz
  1  'x, y, z'
loop_
 _atom_site_type_symbol
 _atom_site_label
 _atom_site_symmetry_multiplicity
 _atom_site_fract_x
 _atom_site_fract_y
 _atom_site_fract_z
 _atom_site_occupancy
  Mo  Mo0  1  0.337730  0.675460  0.750000  1
  Ir  Ir1  1  0.165886  0.331772  0.250000  1
  Ir  Ir2  1  0.835064  0.670128  0.750000  1
  Os  Os3  1  0.665314  0.838992  0.250000  1
  Os  Os4  1  0.173678  0.838992  0.250000  1
  Os  Os5  1  0.332416  0.159045  0.750000  1
  Os  Os6  1  0.826628  0.159045  0.750000  1
  W  W7  1  0.663284  0.326567  0.250000  1
