# generated using pymatgen
data_Sm3Ho(CuP2)4
_symmetry_space_group_name_H-M   'P 1'
_cell_length_a   3.74329900
_cell_length_b   3.82198631
_cell_length_c   19.75051700
_cell_angle_alpha   89.97701864
_cell_angle_beta   90.00000000
_cell_angle_gamma   90.00000000
_symmetry_Int_Tables_number   1
_chemical_formula_structural   Sm3Ho(CuP2)4
_chemical_formula_sum   'Sm3 Ho1 Cu4 P8'
_cell_volume   282.56741498
_cell_formula_units_Z   1
loop_
 _symmetry_equiv_pos_site_id
 _symmetry_equiv_pos_as_xyz
  1  'x, y, z'
loop_
 _atom_site_type_symbol
 _atom_site_label
 _atom_site_symmetry_multiplicity
 _atom_site_fract_x
 _atom_site_fract_y
 _atom_site_fract_z
 _atom_site_occupancy
  Sm  Sm0  1  0.250000  0.713257  0.380421  1
  Sm  Sm1  1  0.250000  0.786413  0.884053  1
  Sm  Sm2  1  0.750000  0.287586  0.618332  1
  Ho  Ho3  1  0.750000  0.212531  0.118230  1
  Cu  Cu4  1  0.250000  0.211945  0.247338  1
  Cu  Cu5  1  0.750000  0.787650  0.751509  1
  Cu  Cu6  1  0.250000  0.287758  0.750778  1
  Cu  Cu7  1  0.750000  0.712622  0.247808  1
  P  P8  1  0.750000  0.814032  0.501746  1
  P  P9  1  0.750000  0.686552  0.005420  1
  P  P10  1  0.250000  0.187336  0.497068  1
  P  P11  1  0.250000  0.312006  0.000669  1
  P  P12  1  0.250000  0.712410  0.171150  1
  P  P13  1  0.750000  0.212611  0.323114  1
  P  P14  1  0.750000  0.287274  0.826556  1
  P  P15  1  0.250000  0.788017  0.675806  1
