# generated using pymatgen
data_PrU3(CoP)4
_symmetry_space_group_name_H-M   'P 1'
_cell_length_a   3.88183100
_cell_length_b   3.88183103
_cell_length_c   15.28096900
_cell_angle_alpha   90.00000000
_cell_angle_beta   90.00000000
_cell_angle_gamma   120.00000830
_symmetry_Int_Tables_number   1
_chemical_formula_structural   PrU3(CoP)4
_chemical_formula_sum   'Pr1 U3 Co4 P4'
_cell_volume   199.41358482
_cell_formula_units_Z   1
loop_
 _symmetry_equiv_pos_site_id
 _symmetry_equiv_pos_as_xyz
  1  'x, y, z'
loop_
 _atom_site_type_symbol
 _atom_site_label
 _atom_site_symmetry_multiplicity
 _atom_site_fract_x
 _atom_site_fract_y
 _atom_site_fract_z
 _atom_site_occupancy
  Pr  Pr0  1  0.000000  0.000000  0.250000  1
  U  U1  1  0.000000  0.000000  0.750000  1
  U  U2  1  0.000000  0.000000  0.993543  1
  U  U3  1  0.000000  0.000000  0.506457  1
  Co  Co4  1  0.333333  0.666667  0.094600  1
  Co  Co5  1  0.666667  0.333333  0.879823  1
  Co  Co6  1  0.666667  0.333333  0.620177  1
  Co  Co7  1  0.333333  0.666667  0.405400  1
  P  P8  1  0.333333  0.666667  0.632467  1
  P  P9  1  0.666667  0.333333  0.380964  1
  P  P10  1  0.666667  0.333333  0.119036  1
  P  P11  1  0.333333  0.666667  0.867533  1
