# generated using pymatgen
data_Pr(NbSe2)5
_symmetry_space_group_name_H-M   'P 1'
_cell_length_a   6.12021840
_cell_length_b   8.41586601
_cell_length_c   9.16883467
_cell_angle_alpha   116.10907786
_cell_angle_beta   96.59446328
_cell_angle_gamma   103.80823547
_symmetry_Int_Tables_number   1
_chemical_formula_structural   Pr(NbSe2)5
_chemical_formula_sum   'Pr1 Nb5 Se10'
_cell_volume   398.50628835
_cell_formula_units_Z   1
loop_
 _symmetry_equiv_pos_site_id
 _symmetry_equiv_pos_as_xyz
  1  'x, y, z'
loop_
 _atom_site_type_symbol
 _atom_site_label
 _atom_site_symmetry_multiplicity
 _atom_site_fract_x
 _atom_site_fract_y
 _atom_site_fract_z
 _atom_site_occupancy
  Pr  Pr0  1  0.667441  0.508551  0.994138  1
  Nb  Nb1  1  0.002480  0.995476  0.000567  1
  Nb  Nb2  1  0.598833  0.206797  0.202228  1
  Nb  Nb3  1  0.196196  0.399195  0.398027  1
  Nb  Nb4  1  0.798082  0.599219  0.603419  1
  Nb  Nb5  1  0.403681  0.795323  0.798344  1
  Se  Se6  1  0.237707  0.065939  0.290494  1
  Se  Se7  1  0.052612  0.660772  0.890848  1
  Se  Se8  1  0.834604  0.263580  0.487890  1
  Se  Se9  1  0.636792  0.876571  0.101288  1
  Se  Se10  1  0.424096  0.449430  0.678245  1
  Se  Se11  1  0.899918  0.545185  0.317356  1
  Se  Se12  1  0.698850  0.129905  0.907039  1
  Se  Se13  1  0.496677  0.734515  0.511409  1
  Se  Se14  1  0.286119  0.335032  0.107607  1
  Se  Se15  1  0.098714  0.932107  0.712703  1
