# generated using pymatgen
data_Sc2V3Si7Pt9
_symmetry_space_group_name_H-M   'P 1'
_cell_length_a   9.84172500
_cell_length_b   9.84423780
_cell_length_c   3.86551900
_cell_angle_alpha   90.00000000
_cell_angle_beta   90.00000000
_cell_angle_gamma   119.98645376
_symmetry_Int_Tables_number   1
_chemical_formula_structural   Sc2V3Si7Pt9
_chemical_formula_sum   'Sc2 V3 Si7 Pt9'
_cell_volume   324.37773070
_cell_formula_units_Z   1
loop_
 _symmetry_equiv_pos_site_id
 _symmetry_equiv_pos_as_xyz
  1  'x, y, z'
loop_
 _atom_site_type_symbol
 _atom_site_label
 _atom_site_symmetry_multiplicity
 _atom_site_fract_x
 _atom_site_fract_y
 _atom_site_fract_z
 _atom_site_occupancy
  Sc  Sc0  1  0.333316  0.666642  0.000000  1
  Sc  Sc1  1  0.666678  0.333444  0.499998  1
  V  V2  1  0.214608  0.117615  0.499998  1
  V  V3  1  0.882350  0.096919  0.499998  1
  V  V4  1  0.902974  0.785491  0.499998  1
  Si  Si5  1  0.288642  0.412106  0.499998  1
  Si  Si6  1  0.587693  0.876360  0.499998  1
  Si  Si7  1  0.123480  0.711360  0.499998  1
  Si  Si8  1  0.416183  0.115568  0.000000  1
  Si  Si9  1  0.884463  0.300689  0.000000  1
  Si  Si10  1  0.699439  0.583899  0.000000  1
  Si  Si11  1  0.000017  0.999893  0.000000  1
  Pt  Pt12  1  0.057242  0.445488  0.499998  1
  Pt  Pt13  1  0.554547  0.611680  0.499998  1
  Pt  Pt14  1  0.388253  0.942881  0.499998  1
  Pt  Pt15  1  0.119757  0.276374  0.000000  1
  Pt  Pt16  1  0.723493  0.843344  0.000000  1
  Pt  Pt17  1  0.156718  0.880174  0.000000  1
  Pt  Pt18  1  0.438328  0.360865  0.000000  1
  Pt  Pt19  1  0.639223  0.077490  0.000000  1
  Pt  Pt20  1  0.922595  0.561722  0.000000  1
