# generated using pymatgen
data_NaNb2WS6
_symmetry_space_group_name_H-M   'P 1'
_cell_length_a   5.73539000
_cell_length_b   5.73538962
_cell_length_c   14.89212300
_cell_angle_alpha   90.00000000
_cell_angle_beta   90.00000000
_cell_angle_gamma   120.00000220
_symmetry_Int_Tables_number   1
_chemical_formula_structural   NaNb2WS6
_chemical_formula_sum   'Na2 Nb4 W2 S12'
_cell_volume   424.24146838
_cell_formula_units_Z   2
loop_
 _symmetry_equiv_pos_site_id
 _symmetry_equiv_pos_as_xyz
  1  'x, y, z'
loop_
 _atom_site_type_symbol
 _atom_site_label
 _atom_site_symmetry_multiplicity
 _atom_site_fract_x
 _atom_site_fract_y
 _atom_site_fract_z
 _atom_site_occupancy
  Na  Na0  1  0.333333  0.666667  0.251542  1
  Na  Na1  1  0.666667  0.333333  0.749787  1
  Nb  Nb2  1  0.666667  0.333333  0.999946  1
  Nb  Nb3  1  0.333333  0.666667  0.500122  1
  Nb  Nb4  1  0.000000  0.000000  0.500048  1
  Nb  Nb5  1  0.666667  0.333333  0.499967  1
  W  W6  1  0.333333  0.666667  0.999592  1
  W  W7  1  0.000000  0.000000  0.999968  1
  S  S8  1  0.668565  0.666541  0.393823  1
  S  S9  1  0.666543  0.668427  0.606305  1
  S  S10  1  0.009204  0.676061  0.895882  1
  S  S11  1  0.666857  0.990796  0.895882  1
  S  S12  1  0.667702  0.993888  0.103667  1
  S  S13  1  0.333459  0.002024  0.393823  1
  S  S14  1  0.001885  0.333457  0.606305  1
  S  S15  1  0.331573  0.998115  0.606305  1
  S  S16  1  0.006112  0.673814  0.103667  1
  S  S17  1  0.323939  0.333143  0.895882  1
  S  S18  1  0.997976  0.331435  0.393823  1
  S  S19  1  0.326186  0.332298  0.103667  1
