# generated using pymatgen
data_PrAs4(RuRh)3
_symmetry_space_group_name_H-M   'P 1'
_cell_length_a   7.20910700
_cell_length_b   7.20910792
_cell_length_c   3.91291700
_cell_angle_alpha   90.00000000
_cell_angle_beta   90.00000000
_cell_angle_gamma   120.00000953
_symmetry_Int_Tables_number   1
_chemical_formula_structural   PrAs4(RuRh)3
_chemical_formula_sum   'Pr1 As4 Ru3 Rh3'
_cell_volume   176.11413922
_cell_formula_units_Z   1
loop_
 _symmetry_equiv_pos_site_id
 _symmetry_equiv_pos_as_xyz
  1  'x, y, z'
loop_
 _atom_site_type_symbol
 _atom_site_label
 _atom_site_symmetry_multiplicity
 _atom_site_fract_x
 _atom_site_fract_y
 _atom_site_fract_z
 _atom_site_occupancy
  Pr  Pr0  1  0.000000  0.000000  0.000000  1
  As  As1  1  0.804140  0.195860  0.500000  1
  As  As2  1  0.391718  0.195860  0.500000  1
  As  As3  1  0.333333  0.666667  0.000000  1
  As  As4  1  0.804140  0.608282  0.500000  1
  Ru  Ru5  1  0.533679  0.067360  0.000000  1
  Ru  Ru6  1  0.932640  0.466321  0.000000  1
  Ru  Ru7  1  0.533679  0.466321  0.000000  1
  Rh  Rh8  1  0.198900  0.801100  0.500000  1
  Rh  Rh9  1  0.198900  0.397800  0.500000  1
  Rh  Rh10  1  0.602200  0.801100  0.500000  1
