# generated using pymatgen
data_Er7Sc2Ti(Si5Ir2)4
_symmetry_space_group_name_H-M   'P 1'
_cell_length_a   12.52443437
_cell_length_b   12.52443432
_cell_length_c   4.18401300
_cell_angle_alpha   90.00000000
_cell_angle_beta   90.00000000
_cell_angle_gamma   89.32490467
_symmetry_Int_Tables_number   1
_chemical_formula_structural   Er7Sc2Ti(Si5Ir2)4
_chemical_formula_sum   'Er7 Sc2 Ti1 Si20 Ir8'
_cell_volume   656.26481238
_cell_formula_units_Z   1
loop_
 _symmetry_equiv_pos_site_id
 _symmetry_equiv_pos_as_xyz
  1  'x, y, z'
loop_
 _atom_site_type_symbol
 _atom_site_label
 _atom_site_symmetry_multiplicity
 _atom_site_fract_x
 _atom_site_fract_y
 _atom_site_fract_z
 _atom_site_occupancy
  Er  Er0  1  0.493614  0.505384  0.000000  1
  Er  Er1  1  0.994616  0.006386  0.000000  1
  Er  Er2  1  0.822623  0.677377  0.500000  1
  Er  Er3  1  0.884776  0.383189  0.500000  1
  Er  Er4  1  0.116811  0.615224  0.500000  1
  Er  Er5  1  0.379766  0.120234  0.500000  1
  Er  Er6  1  0.608727  0.891273  0.500000  1
  Sc  Sc7  1  0.673886  0.168777  0.500000  1
  Sc  Sc8  1  0.331223  0.826114  0.500000  1
  Ti  Ti9  1  0.175110  0.324890  0.500000  1
  Si  Si10  1  0.563679  0.070106  0.000000  1
  Si  Si11  1  0.429894  0.936321  0.000000  1
  Si  Si12  1  0.068510  0.431490  0.000000  1
  Si  Si13  1  0.934145  0.565855  0.000000  1
  Si  Si14  1  0.662168  0.700824  0.000000  1
  Si  Si15  1  0.329129  0.304086  0.000000  1
  Si  Si16  1  0.167301  0.802607  0.000000  1
  Si  Si17  1  0.832708  0.200210  0.000000  1
  Si  Si18  1  0.299790  0.667292  0.000000  1
  Si  Si19  1  0.697393  0.332699  0.000000  1
  Si  Si20  1  0.195914  0.170871  0.000000  1
  Si  Si21  1  0.799176  0.837832  0.000000  1
  Si  Si22  1  0.653058  0.501599  0.500000  1
  Si  Si23  1  0.334730  0.451038  0.500000  1
  Si  Si24  1  0.153036  0.986965  0.500000  1
  Si  Si25  1  0.829593  0.970293  0.500000  1
  Si  Si26  1  0.529707  0.670407  0.500000  1
  Si  Si27  1  0.513035  0.346964  0.500000  1
  Si  Si28  1  0.048962  0.165270  0.500000  1
  Si  Si29  1  0.998401  0.846942  0.500000  1
  Ir  Ir30  1  0.744211  0.517328  0.000000  1
  Ir  Ir31  1  0.250156  0.485152  0.000000  1
  Ir  Ir32  1  0.242904  0.983876  0.000000  1
  Ir  Ir33  1  0.752260  0.024659  0.000000  1
  Ir  Ir34  1  0.475341  0.747740  0.000000  1
  Ir  Ir35  1  0.516124  0.257096  0.000000  1
  Ir  Ir36  1  0.014848  0.249844  0.000000  1
  Ir  Ir37  1  0.982672  0.755789  0.000000  1
