# generated using pymatgen
data_CsRb2NaSn3Se8
_symmetry_space_group_name_H-M   'P 1'
_cell_length_a   8.75643100
_cell_length_b   8.75643100
_cell_length_c   14.07099800
_cell_angle_alpha   90.00000000
_cell_angle_beta   90.00000000
_cell_angle_gamma   90.00000000
_symmetry_Int_Tables_number   1
_chemical_formula_structural   CsRb2NaSn3Se8
_chemical_formula_sum   'Cs2 Rb4 Na2 Sn6 Se16'
_cell_volume   1078.89495161
_cell_formula_units_Z   2
loop_
 _symmetry_equiv_pos_site_id
 _symmetry_equiv_pos_as_xyz
  1  'x, y, z'
loop_
 _atom_site_type_symbol
 _atom_site_label
 _atom_site_symmetry_multiplicity
 _atom_site_fract_x
 _atom_site_fract_y
 _atom_site_fract_z
 _atom_site_occupancy
  Cs  Cs0  1  0.500000  0.500000  0.000000  1
  Cs  Cs1  1  0.000000  0.000000  0.000000  1
  Rb  Rb2  1  0.000000  0.000000  0.716967  1
  Rb  Rb3  1  0.500000  0.500000  0.716967  1
  Rb  Rb4  1  0.500000  0.500000  0.283033  1
  Rb  Rb5  1  0.000000  0.000000  0.283033  1
  Na  Na6  1  0.000000  0.500000  0.000000  1
  Na  Na7  1  0.500000  0.000000  0.000000  1
  Sn  Sn8  1  0.500000  0.000000  0.752102  1
  Sn  Sn9  1  0.500000  0.000000  0.247898  1
  Sn  Sn10  1  0.000000  0.500000  0.752102  1
  Sn  Sn11  1  0.000000  0.500000  0.247898  1
  Sn  Sn12  1  0.500000  0.000000  0.500000  1
  Sn  Sn13  1  0.000000  0.500000  0.500000  1
  Se  Se14  1  0.344255  0.844255  0.621789  1
  Se  Se15  1  0.170616  0.670616  0.849378  1
  Se  Se16  1  0.844255  0.344255  0.378211  1
  Se  Se17  1  0.344255  0.155745  0.378211  1
  Se  Se18  1  0.670616  0.829384  0.849378  1
  Se  Se19  1  0.670616  0.170616  0.150622  1
  Se  Se20  1  0.829384  0.670616  0.150622  1
  Se  Se21  1  0.329384  0.829384  0.150622  1
  Se  Se22  1  0.844255  0.655745  0.621789  1
  Se  Se23  1  0.829384  0.329384  0.849378  1
  Se  Se24  1  0.655745  0.844255  0.378211  1
  Se  Se25  1  0.655745  0.155745  0.621789  1
  Se  Se26  1  0.155745  0.655745  0.378211  1
  Se  Se27  1  0.170616  0.329384  0.150622  1
  Se  Se28  1  0.155745  0.344255  0.621789  1
  Se  Se29  1  0.329384  0.170616  0.849378  1
