# generated using pymatgen
data_PrMg2Si2(PPd5)4
_symmetry_space_group_name_H-M   'P 1'
_cell_length_a   8.65778856
_cell_length_b   8.65249124
_cell_length_c   8.65249262
_cell_angle_alpha   60.04050112
_cell_angle_beta   59.97974996
_cell_angle_gamma   59.97974781
_symmetry_Int_Tables_number   1
_chemical_formula_structural   PrMg2Si2(PPd5)4
_chemical_formula_sum   'Pr1 Mg2 Si2 P4 Pd20'
_cell_volume   458.32553504
_cell_formula_units_Z   1
loop_
 _symmetry_equiv_pos_site_id
 _symmetry_equiv_pos_as_xyz
  1  'x, y, z'
loop_
 _atom_site_type_symbol
 _atom_site_label
 _atom_site_symmetry_multiplicity
 _atom_site_fract_x
 _atom_site_fract_y
 _atom_site_fract_z
 _atom_site_occupancy
  Pr  Pr0  1  0.750000  0.750000  0.750000  1
  Mg  Mg1  1  0.250000  0.250000  0.250000  1
  Mg  Mg2  1  0.000000  0.000000  0.000000  1
  Si  Si3  1  0.735425  0.264575  0.264575  1
  Si  Si4  1  0.264575  0.735425  0.735425  1
  P  P5  1  0.264664  0.735336  0.264664  1
  P  P6  1  0.735336  0.264664  0.735336  1
  P  P7  1  0.264664  0.264664  0.735336  1
  P  P8  1  0.735336  0.735336  0.264664  1
  Pd  Pd9  1  0.379554  0.380022  0.380022  1
  Pd  Pd10  1  0.612673  0.609977  0.609977  1
  Pd  Pd11  1  0.380022  0.379554  0.860404  1
  Pd  Pd12  1  0.380022  0.860404  0.379554  1
  Pd  Pd13  1  0.609977  0.612673  0.167374  1
  Pd  Pd14  1  0.609977  0.167374  0.612673  1
  Pd  Pd15  1  0.860404  0.380022  0.380022  1
  Pd  Pd16  1  0.167374  0.609977  0.609977  1
  Pd  Pd17  1  0.341846  0.000365  0.000365  1
  Pd  Pd18  1  0.657425  0.000365  0.000365  1
  Pd  Pd19  1  0.000365  0.341846  0.657425  1
  Pd  Pd20  1  0.000365  0.657425  0.341846  1
  Pd  Pd21  1  0.001792  0.343958  0.998263  1
  Pd  Pd22  1  0.655988  0.998263  0.343958  1
  Pd  Pd23  1  0.998263  0.655988  0.001792  1
  Pd  Pd24  1  0.343958  0.001792  0.655988  1
  Pd  Pd25  1  0.001792  0.998263  0.343958  1
  Pd  Pd26  1  0.998263  0.001792  0.655988  1
  Pd  Pd27  1  0.655988  0.343958  0.998263  1
  Pd  Pd28  1  0.343958  0.655988  0.001792  1
