# generated using pymatgen
data_Ho5ErTiMn5O18
_symmetry_space_group_name_H-M   'P 1'
_cell_length_a   6.18679545
_cell_length_b   6.18061696
_cell_length_c   11.65676303
_cell_angle_alpha   90.21708464
_cell_angle_beta   89.56411475
_cell_angle_gamma   120.03189825
_symmetry_Int_Tables_number   1
_chemical_formula_structural   Ho5ErTiMn5O18
_chemical_formula_sum   'Ho5 Er1 Ti1 Mn5 O18'
_cell_volume   385.88147874
_cell_formula_units_Z   1
loop_
 _symmetry_equiv_pos_site_id
 _symmetry_equiv_pos_as_xyz
  1  'x, y, z'
loop_
 _atom_site_type_symbol
 _atom_site_label
 _atom_site_symmetry_multiplicity
 _atom_site_fract_x
 _atom_site_fract_y
 _atom_site_fract_z
 _atom_site_occupancy
  Ho  Ho0  1  0.334654  0.666891  0.733784  1
  Ho  Ho1  1  0.667758  0.333104  0.733755  1
  Ho  Ho2  1  0.330603  0.664819  0.227684  1
  Ho  Ho3  1  0.002461  0.000004  0.775753  1
  Ho  Ho4  1  0.998904  0.999997  0.271941  1
  Er  Er5  1  0.665736  0.335184  0.227518  1
  Ti  Ti6  1  0.665351  0.000141  0.499238  1
  Mn  Mn7  1  0.666916  0.667006  0.999424  1
  Mn  Mn8  1  0.999455  0.332828  0.999443  1
  Mn  Mn9  1  0.999584  0.665885  0.498321  1
  Mn  Mn10  1  0.333892  0.333886  0.498315  1
  Mn  Mn11  1  0.333402  0.000277  0.999641  1
  O  O12  1  0.667072  0.333591  0.020885  1
  O  O13  1  0.359479  0.693216  0.518803  1
  O  O14  1  0.666430  0.306915  0.519005  1
  O  O15  1  0.333464  0.666367  0.020640  1
  O  O16  1  0.000523  0.999978  0.974014  1
  O  O17  1  0.972765  0.999930  0.475105  1
  O  O18  1  0.360272  0.000022  0.836217  1
  O  O19  1  0.357596  0.356445  0.330985  1
  O  O20  1  0.998627  0.642303  0.331022  1
  O  O21  1  0.000803  0.360613  0.836510  1
  O  O22  1  0.640221  0.639375  0.836506  1
  O  O23  1  0.636732  0.001221  0.333349  1
  O  O24  1  0.307094  0.001323  0.162842  1
  O  O25  1  0.311077  0.310923  0.666147  1
  O  O26  1  0.000211  0.689099  0.666111  1
  O  O27  1  0.997624  0.305023  0.162830  1
  O  O28  1  0.693984  0.693646  0.162815  1
  O  O29  1  0.697312  0.999988  0.667400  1
