# generated using pymatgen
data_Dy2GaGe(Ru2C)2
_symmetry_space_group_name_H-M   'P 1'
_cell_length_a   5.92081898
_cell_length_b   5.92082019
_cell_length_c   7.34123600
_cell_angle_alpha   90.00000000
_cell_angle_beta   90.00000000
_cell_angle_gamma   141.75287322
_symmetry_Int_Tables_number   1
_chemical_formula_structural   Dy2GaGe(Ru2C)2
_chemical_formula_sum   'Dy2 Ga1 Ge1 Ru4 C2'
_cell_volume   159.31687292
_cell_formula_units_Z   1
loop_
 _symmetry_equiv_pos_site_id
 _symmetry_equiv_pos_as_xyz
  1  'x, y, z'
loop_
 _atom_site_type_symbol
 _atom_site_label
 _atom_site_symmetry_multiplicity
 _atom_site_fract_x
 _atom_site_fract_y
 _atom_site_fract_z
 _atom_site_occupancy
  Dy  Dy0  1  0.546361  0.453639  0.250000  1
  Dy  Dy1  1  0.453629  0.546371  0.750000  1
  Ga  Ga2  1  0.266586  0.733414  0.250000  1
  Ge  Ge3  1  0.732612  0.267388  0.750000  1
  Ru  Ru4  1  0.838414  0.161586  0.054422  1
  Ru  Ru5  1  0.161402  0.838598  0.939872  1
  Ru  Ru6  1  0.161402  0.838598  0.560128  1
  Ru  Ru7  1  0.838414  0.161586  0.445578  1
  C  C8  1  0.000590  0.999410  0.001994  1
  C  C9  1  0.000590  0.999410  0.498006  1
