# generated using pymatgen
data_Y8OsRuI8
_symmetry_space_group_name_H-M   'P 1'
_cell_length_a   11.44449326
_cell_length_b   11.44449392
_cell_length_c   6.21015817
_cell_angle_alpha   90.03656342
_cell_angle_beta   90.03657043
_cell_angle_gamma   88.37841197
_symmetry_Int_Tables_number   1
_chemical_formula_structural   Y8OsRuI8
_chemical_formula_sum   'Y8 Os1 Ru1 I8'
_cell_volume   813.05830593
_cell_formula_units_Z   1
loop_
 _symmetry_equiv_pos_site_id
 _symmetry_equiv_pos_as_xyz
  1  'x, y, z'
loop_
 _atom_site_type_symbol
 _atom_site_label
 _atom_site_symmetry_multiplicity
 _atom_site_fract_x
 _atom_site_fract_y
 _atom_site_fract_z
 _atom_site_occupancy
  Y  Y0  1  0.802446  0.083902  0.998796  1
  Y  Y1  1  0.083893  0.802441  0.499421  1
  Y  Y2  1  0.078315  0.195284  0.000021  1
  Y  Y3  1  0.195296  0.078325  0.500623  1
  Y  Y4  1  0.921675  0.804704  0.999377  1
  Y  Y5  1  0.916098  0.197554  0.501204  1
  Y  Y6  1  0.197559  0.916107  0.000579  1
  Y  Y7  1  0.804716  0.921685  0.499979  1
  Os  Os8  1  0.000117  0.999883  0.750000  1
  Ru  Ru9  1  0.999885  0.000115  0.250000  1
  I  I10  1  0.644732  0.152060  0.509663  1
  I  I11  1  0.858238  0.648832  0.505583  1
  I  I12  1  0.351168  0.141762  0.994417  1
  I  I13  1  0.141776  0.351161  0.494756  1
  I  I14  1  0.648839  0.858224  0.005244  1
  I  I15  1  0.355241  0.847934  0.490667  1
  I  I16  1  0.152066  0.644759  0.009333  1
  I  I17  1  0.847940  0.355268  0.990337  1
