# generated using pymatgen
data_Ho7ErSbPd24
_symmetry_space_group_name_H-M   'P 1'
_cell_length_a   8.38284406
_cell_length_b   8.38284406
_cell_length_c   8.38284406
_cell_angle_alpha   89.99036241
_cell_angle_beta   89.99036241
_cell_angle_gamma   89.99036241
_symmetry_Int_Tables_number   1
_chemical_formula_structural   Ho7ErSbPd24
_chemical_formula_sum   'Ho7 Er1 Sb1 Pd24'
_cell_volume   589.07981745
_cell_formula_units_Z   1
loop_
 _symmetry_equiv_pos_site_id
 _symmetry_equiv_pos_as_xyz
  1  'x, y, z'
loop_
 _atom_site_type_symbol
 _atom_site_label
 _atom_site_symmetry_multiplicity
 _atom_site_fract_x
 _atom_site_fract_y
 _atom_site_fract_z
 _atom_site_occupancy
  Ho  Ho0  1  0.745839  0.745839  0.254171  1
  Ho  Ho1  1  0.745839  0.254171  0.745839  1
  Ho  Ho2  1  0.254171  0.745839  0.745839  1
  Ho  Ho3  1  0.745828  0.745828  0.745828  1
  Ho  Ho4  1  0.745816  0.254167  0.254167  1
  Ho  Ho5  1  0.254167  0.254167  0.745816  1
  Ho  Ho6  1  0.254167  0.745816  0.254167  1
  Er  Er7  1  0.254259  0.254259  0.254259  1
  Sb  Sb8  1  0.999980  0.999980  0.999980  1
  Pd  Pd9  1  0.000110  0.000110  0.304636  1
  Pd  Pd10  1  0.735914  0.000001  0.499993  1
  Pd  Pd11  1  0.735914  0.499993  0.000001  1
  Pd  Pd12  1  0.499993  0.000001  0.735914  1
  Pd  Pd13  1  0.000001  0.735914  0.499993  1
  Pd  Pd14  1  0.499896  0.000110  0.264082  1
  Pd  Pd15  1  0.000110  0.264082  0.499896  1
  Pd  Pd16  1  0.499993  0.735914  0.000001  1
  Pd  Pd17  1  0.254823  0.499872  0.499872  1
  Pd  Pd18  1  0.499997  0.499997  0.745171  1
  Pd  Pd19  1  0.499872  0.499872  0.254823  1
  Pd  Pd20  1  0.499872  0.254823  0.499872  1
  Pd  Pd21  1  0.499997  0.745171  0.499997  1
  Pd  Pd22  1  0.745171  0.499997  0.499997  1
  Pd  Pd23  1  0.304636  0.000110  0.000110  1
  Pd  Pd24  1  0.000009  0.000009  0.695335  1
  Pd  Pd25  1  0.000110  0.499896  0.264082  1
  Pd  Pd26  1  0.000110  0.304636  0.000110  1
  Pd  Pd27  1  0.000009  0.695335  0.000009  1
  Pd  Pd28  1  0.695335  0.000009  0.000009  1
  Pd  Pd29  1  0.264082  0.499896  0.000110  1
  Pd  Pd30  1  0.264082  0.000110  0.499896  1
  Pd  Pd31  1  0.000001  0.499993  0.735914  1
  Pd  Pd32  1  0.499896  0.264082  0.000110  1
