# generated using pymatgen
data_La7Sm2Sc11Sn16
_symmetry_space_group_name_H-M   'P 1'
_cell_length_a   7.89591666
_cell_length_b   8.10158560
_cell_length_c   15.21231400
_cell_angle_alpha   90.20035495
_cell_angle_beta   90.08487066
_cell_angle_gamma   90.19501546
_symmetry_Int_Tables_number   1
_chemical_formula_structural   La7Sm2Sc11Sn16
_chemical_formula_sum   'La7 Sm2 Sc11 Sn16'
_cell_volume   973.11060895
_cell_formula_units_Z   1
loop_
 _symmetry_equiv_pos_site_id
 _symmetry_equiv_pos_as_xyz
  1  'x, y, z'
loop_
 _atom_site_type_symbol
 _atom_site_label
 _atom_site_symmetry_multiplicity
 _atom_site_fract_x
 _atom_site_fract_y
 _atom_site_fract_z
 _atom_site_occupancy
  La  La0  1  0.007821  0.172031  0.593446  1
  La  La1  1  0.493553  0.671833  0.405549  1
  La  La2  1  0.995727  0.826351  0.096089  1
  La  La3  1  0.493976  0.671180  0.095890  1
  La  La4  1  0.992798  0.828647  0.405022  1
  La  La5  1  0.504911  0.326357  0.593268  1
  La  La6  1  0.006200  0.174580  0.905157  1
  Sm  Sm7  1  0.840180  0.664018  0.877437  1
  Sm  Sm8  1  0.508917  0.325720  0.902638  1
  Sc  Sc9  1  0.340100  0.835853  0.871586  1
  Sc  Sc10  1  0.839511  0.662245  0.626695  1
  Sc  Sc11  1  0.659895  0.161355  0.372947  1
  Sc  Sc12  1  0.158793  0.338459  0.127171  1
  Sc  Sc13  1  0.657796  0.161909  0.130563  1
  Sc  Sc14  1  0.159650  0.337362  0.372757  1
  Sc  Sc15  1  0.340604  0.840544  0.625018  1
  Sc  Sc16  1  0.172676  0.503947  0.749813  1
  Sc  Sc17  1  0.670535  0.996363  0.748208  1
  Sc  Sc18  1  0.827650  0.493190  0.251025  1
  Sc  Sc19  1  0.327855  0.005385  0.249984  1
  Sn  Sn20  1  0.326317  0.048404  0.043058  1
  Sn  Sn21  1  0.827242  0.454576  0.456218  1
  Sn  Sn22  1  0.675570  0.953655  0.543743  1
  Sn  Sn23  1  0.192272  0.540630  0.956840  1
  Sn  Sn24  1  0.665002  0.967627  0.958482  1
  Sn  Sn25  1  0.171837  0.546234  0.543600  1
  Sn  Sn26  1  0.325568  0.045978  0.454713  1
  Sn  Sn27  1  0.820512  0.446980  0.048887  1
  Sn  Sn28  1  0.529147  0.632399  0.745641  1
  Sn  Sn29  1  0.038844  0.871619  0.746460  1
  Sn  Sn30  1  0.464072  0.366127  0.251736  1
  Sn  Sn31  1  0.966057  0.133034  0.250091  1
  Sn  Sn32  1  0.314815  0.143037  0.750525  1
  Sn  Sn33  1  0.810042  0.353771  0.748174  1
  Sn  Sn34  1  0.687019  0.859011  0.251127  1
  Sn  Sn35  1  0.186535  0.639590  0.250446  1
