# generated using pymatgen
data_NbSb3O10
_symmetry_space_group_name_H-M   'P 1'
_cell_length_a   6.94809898
_cell_length_b   6.93276640
_cell_length_c   5.52859846
_cell_angle_alpha   77.42364725
_cell_angle_beta   77.12250707
_cell_angle_gamma   41.27901589
_symmetry_Int_Tables_number   1
_chemical_formula_structural   NbSb3O10
_chemical_formula_sum   'Nb1 Sb3 O10'
_cell_volume   170.74927228
_cell_formula_units_Z   1
loop_
 _symmetry_equiv_pos_site_id
 _symmetry_equiv_pos_as_xyz
  1  'x, y, z'
loop_
 _atom_site_type_symbol
 _atom_site_label
 _atom_site_symmetry_multiplicity
 _atom_site_fract_x
 _atom_site_fract_y
 _atom_site_fract_z
 _atom_site_occupancy
  Nb  Nb0  1  0.367173  0.889005  0.226834  1
  Sb  Sb1  1  0.095923  0.611969  0.280327  1
  Sb  Sb2  1  0.623107  0.100368  0.784681  1
  Sb  Sb3  1  0.889033  0.394337  0.721131  1
  O  O4  1  0.401313  0.590447  0.249653  1
  O  O5  1  0.587390  0.416932  0.745942  1
  O  O6  1  0.821388  0.975855  0.453584  1
  O  O7  1  0.034060  0.179151  0.043654  1
  O  O8  1  0.220635  0.372903  0.625269  1
  O  O9  1  0.630847  0.777907  0.877846  1
  O  O10  1  0.784615  0.619970  0.378608  1
  O  O11  1  0.377776  0.220207  0.120317  1
  O  O12  1  0.983536  0.815857  0.952812  1
  O  O13  1  0.183203  0.035092  0.539342  1
