# generated using pymatgen
data_Er4TlPd11
_symmetry_space_group_name_H-M   'P 1'
_cell_length_a   4.19535000
_cell_length_b   5.80540510
_cell_length_c   11.62305600
_cell_angle_alpha   86.79185934
_cell_angle_beta   90.00000000
_cell_angle_gamma   90.00000000
_symmetry_Int_Tables_number   1
_chemical_formula_structural   Er4TlPd11
_chemical_formula_sum   'Er4 Tl1 Pd11'
_cell_volume   282.64408936
_cell_formula_units_Z   1
loop_
 _symmetry_equiv_pos_site_id
 _symmetry_equiv_pos_as_xyz
  1  'x, y, z'
loop_
 _atom_site_type_symbol
 _atom_site_label
 _atom_site_symmetry_multiplicity
 _atom_site_fract_x
 _atom_site_fract_y
 _atom_site_fract_z
 _atom_site_occupancy
  Er  Er0  1  0.500000  0.756742  0.378227  1
  Er  Er1  1  0.500000  0.716713  0.858922  1
  Er  Er2  1  0.500000  0.283287  0.141078  1
  Er  Er3  1  0.500000  0.243258  0.621773  1
  Tl  Tl4  1  0.000000  0.000000  0.000000  1
  Pd  Pd5  1  0.000000  0.016269  0.253019  1
  Pd  Pd6  1  0.000000  0.983731  0.746981  1
  Pd  Pd7  1  0.000000  0.500000  0.000000  1
  Pd  Pd8  1  0.000000  0.500000  0.500000  1
  Pd  Pd9  1  0.000000  0.518779  0.251769  1
  Pd  Pd10  1  0.000000  0.481221  0.748231  1
  Pd  Pd11  1  0.500000  0.257247  0.377866  1
  Pd  Pd12  1  0.500000  0.230532  0.877587  1
  Pd  Pd13  1  0.500000  0.769468  0.122413  1
  Pd  Pd14  1  0.500000  0.742753  0.622134  1
  Pd  Pd15  1  0.000000  0.000000  0.500000  1
