# generated using pymatgen
data_Dy5Y(SnRh)6
_symmetry_space_group_name_H-M   'P 1'
_cell_length_a   7.50498857
_cell_length_b   7.49396424
_cell_length_c   7.89579600
_cell_angle_alpha   90.00000000
_cell_angle_beta   90.00000000
_cell_angle_gamma   119.95187677
_symmetry_Int_Tables_number   1
_chemical_formula_structural   Dy5Y(SnRh)6
_chemical_formula_sum   'Dy5 Y1 Sn6 Rh6'
_cell_volume   384.76769074
_cell_formula_units_Z   1
loop_
 _symmetry_equiv_pos_site_id
 _symmetry_equiv_pos_as_xyz
  1  'x, y, z'
loop_
 _atom_site_type_symbol
 _atom_site_label
 _atom_site_symmetry_multiplicity
 _atom_site_fract_x
 _atom_site_fract_y
 _atom_site_fract_z
 _atom_site_occupancy
  Dy  Dy0  1  0.592989  0.000576  0.750000  1
  Dy  Dy1  1  0.406906  0.407602  0.750000  1
  Dy  Dy2  1  0.000021  0.592739  0.750000  1
  Dy  Dy3  1  0.591959  0.999736  0.250000  1
  Dy  Dy4  1  0.408035  0.407823  0.250000  1
  Y  Y5  1  0.999978  0.592574  0.250000  1
  Sn  Sn6  1  0.257225  0.998955  0.999692  1
  Sn  Sn7  1  0.742854  0.741786  0.500379  1
  Sn  Sn8  1  0.999965  0.259099  0.499330  1
  Sn  Sn9  1  0.999965  0.259099  0.000670  1
  Sn  Sn10  1  0.742854  0.741786  0.999621  1
  Sn  Sn11  1  0.257225  0.998955  0.500308  1
  Rh  Rh12  1  0.664441  0.331594  0.998146  1
  Rh  Rh13  1  0.664441  0.331594  0.501854  1
  Rh  Rh14  1  0.335556  0.667148  0.998251  1
  Rh  Rh15  1  0.335556  0.667148  0.501749  1
  Rh  Rh16  1  0.000047  0.001173  0.750000  1
  Rh  Rh17  1  0.999985  0.000614  0.250000  1
