# generated using pymatgen
data_Ac4Re6O19
_symmetry_space_group_name_H-M   'P 1'
_cell_length_a   8.02617161
_cell_length_b   8.02617094
_cell_length_c   8.02617000
_cell_angle_alpha   109.47122584
_cell_angle_beta   109.47122414
_cell_angle_gamma   109.47121526
_symmetry_Int_Tables_number   1
_chemical_formula_structural   Ac4Re6O19
_chemical_formula_sum   'Ac4 Re6 O19'
_cell_volume   398.01853028
_cell_formula_units_Z   1
loop_
 _symmetry_equiv_pos_site_id
 _symmetry_equiv_pos_as_xyz
  1  'x, y, z'
loop_
 _atom_site_type_symbol
 _atom_site_label
 _atom_site_symmetry_multiplicity
 _atom_site_fract_x
 _atom_site_fract_y
 _atom_site_fract_z
 _atom_site_occupancy
  Ac  Ac0  1  0.321079  0.000000  0.000000  1
  Ac  Ac1  1  0.678921  0.678921  0.678921  1
  Ac  Ac2  1  0.000000  0.321079  0.000000  1
  Ac  Ac3  1  0.000000  0.000000  0.321079  1
  Re  Re4  1  0.631817  0.500000  0.131817  1
  Re  Re5  1  0.500000  0.868183  0.368183  1
  Re  Re6  1  0.131817  0.631817  0.500000  1
  Re  Re7  1  0.500000  0.131817  0.631817  1
  Re  Re8  1  0.868183  0.368183  0.500000  1
  Re  Re9  1  0.368183  0.500000  0.868183  1
  O  O10  1  0.000000  0.000000  0.000000  1
  O  O11  1  0.333276  0.699986  0.063109  1
  O  O12  1  0.636876  0.270167  0.936891  1
  O  O13  1  0.666724  0.729833  0.366710  1
  O  O14  1  0.936891  0.636876  0.270167  1
  O  O15  1  0.699986  0.063109  0.333276  1
  O  O16  1  0.300014  0.633290  0.363124  1
  O  O17  1  0.633290  0.363124  0.300014  1
  O  O18  1  0.270167  0.936891  0.636876  1
  O  O19  1  0.366710  0.666724  0.729833  1
  O  O20  1  0.325303  0.000000  0.325303  1
  O  O21  1  0.325303  0.325303  0.000000  1
  O  O22  1  0.000000  0.674697  0.674697  1
  O  O23  1  0.674697  0.674697  0.000000  1
  O  O24  1  0.000000  0.325303  0.325303  1
  O  O25  1  0.674697  0.000000  0.674697  1
  O  O26  1  0.363124  0.300014  0.633290  1
  O  O27  1  0.063109  0.333276  0.699986  1
  O  O28  1  0.729833  0.366710  0.666724  1
