# generated using pymatgen
data_Ti3Re2Si3Mo
_symmetry_space_group_name_H-M   'P 1'
_cell_length_a   6.84652472
_cell_length_b   6.84652477
_cell_length_c   3.25952300
_cell_angle_alpha   90.00000000
_cell_angle_beta   90.00000000
_cell_angle_gamma   119.80691916
_symmetry_Int_Tables_number   1
_chemical_formula_structural   Ti3Re2Si3Mo
_chemical_formula_sum   'Ti3 Re2 Si3 Mo1'
_cell_volume   132.57655519
_cell_formula_units_Z   1
loop_
 _symmetry_equiv_pos_site_id
 _symmetry_equiv_pos_as_xyz
  1  'x, y, z'
loop_
 _atom_site_type_symbol
 _atom_site_label
 _atom_site_symmetry_multiplicity
 _atom_site_fract_x
 _atom_site_fract_y
 _atom_site_fract_z
 _atom_site_occupancy
  Ti  Ti0  1  0.401757  0.401757  0.500000  1
  Ti  Ti1  1  0.596595  0.999041  0.500000  1
  Ti  Ti2  1  0.999041  0.596595  0.500000  1
  Re  Re3  1  0.263848  0.000506  0.000000  1
  Re  Re4  1  0.000506  0.263848  0.000000  1
  Si  Si5  1  0.666468  0.332054  0.000000  1
  Si  Si6  1  0.332054  0.666468  0.000000  1
  Si  Si7  1  0.001828  0.001828  0.500000  1
  Mo  Mo8  1  0.737904  0.737904  0.000000  1
