# generated using pymatgen
data_Rb3CuGe4
_symmetry_space_group_name_H-M   'P 1'
_cell_length_a   5.96455900
_cell_length_b   6.93508400
_cell_length_c   12.66597500
_cell_angle_alpha   90.00000000
_cell_angle_beta   90.00000000
_cell_angle_gamma   90.00000000
_symmetry_Int_Tables_number   1
_chemical_formula_structural   Rb3CuGe4
_chemical_formula_sum   'Rb6 Cu2 Ge8'
_cell_volume   523.92448012
_cell_formula_units_Z   2
loop_
 _symmetry_equiv_pos_site_id
 _symmetry_equiv_pos_as_xyz
  1  'x, y, z'
loop_
 _atom_site_type_symbol
 _atom_site_label
 _atom_site_symmetry_multiplicity
 _atom_site_fract_x
 _atom_site_fract_y
 _atom_site_fract_z
 _atom_site_occupancy
  Rb  Rb0  1  0.428134  0.500000  0.500000  1
  Rb  Rb1  1  0.571866  0.000000  0.000000  1
  Rb  Rb2  1  0.165804  0.000000  0.763507  1
  Rb  Rb3  1  0.165804  0.000000  0.236493  1
  Rb  Rb4  1  0.834196  0.500000  0.736493  1
  Rb  Rb5  1  0.834196  0.500000  0.263507  1
  Cu  Cu6  1  0.694418  0.500000  0.000000  1
  Cu  Cu7  1  0.305582  0.000000  0.500000  1
  Ge  Ge8  1  0.340416  0.500000  0.106518  1
  Ge  Ge9  1  0.340416  0.500000  0.893482  1
  Ge  Ge10  1  0.049168  0.305220  0.000000  1
  Ge  Ge11  1  0.049168  0.694780  0.000000  1
  Ge  Ge12  1  0.950832  0.805220  0.500000  1
  Ge  Ge13  1  0.950832  0.194780  0.500000  1
  Ge  Ge14  1  0.659584  0.000000  0.393482  1
  Ge  Ge15  1  0.659584  0.000000  0.606518  1
