# generated using pymatgen
data_Nd8Be(Si4Pt)3
_symmetry_space_group_name_H-M   'P 1'
_cell_length_a   8.19031400
_cell_length_b   8.19031488
_cell_length_c   8.56196400
_cell_angle_alpha   90.00000000
_cell_angle_beta   90.00000000
_cell_angle_gamma   119.99999646
_symmetry_Int_Tables_number   1
_chemical_formula_structural   Nd8Be(Si4Pt)3
_chemical_formula_sum   'Nd8 Be1 Si12 Pt3'
_cell_volume   497.39932909
_cell_formula_units_Z   1
loop_
 _symmetry_equiv_pos_site_id
 _symmetry_equiv_pos_as_xyz
  1  'x, y, z'
loop_
 _atom_site_type_symbol
 _atom_site_label
 _atom_site_symmetry_multiplicity
 _atom_site_fract_x
 _atom_site_fract_y
 _atom_site_fract_z
 _atom_site_occupancy
  Nd  Nd0  1  0.000000  0.000000  0.751051  1
  Nd  Nd1  1  0.000000  0.000000  0.248880  1
  Nd  Nd2  1  0.498967  0.501033  0.751379  1
  Nd  Nd3  1  0.498967  0.997932  0.751379  1
  Nd  Nd4  1  0.002068  0.501033  0.751379  1
  Nd  Nd5  1  0.499518  0.500482  0.248590  1
  Nd  Nd6  1  0.000965  0.500482  0.248590  1
  Nd  Nd7  1  0.499518  0.999035  0.248590  1
  Be  Be8  1  0.333333  0.666667  0.001382  1
  Si  Si9  1  0.833868  0.166132  0.999583  1
  Si  Si10  1  0.833868  0.667734  0.999583  1
  Si  Si11  1  0.332266  0.166132  0.999583  1
  Si  Si12  1  0.833620  0.166380  0.500482  1
  Si  Si13  1  0.833620  0.667242  0.500482  1
  Si  Si14  1  0.332758  0.166380  0.500482  1
  Si  Si15  1  0.165837  0.834163  0.499517  1
  Si  Si16  1  0.668326  0.834163  0.499517  1
  Si  Si17  1  0.165837  0.331674  0.499517  1
  Si  Si18  1  0.172089  0.827911  0.000331  1
  Si  Si19  1  0.655822  0.827911  0.000331  1
  Si  Si20  1  0.172089  0.344178  0.000331  1
  Pt  Pt21  1  0.666667  0.333333  0.999219  1
  Pt  Pt22  1  0.666667  0.333333  0.500499  1
  Pt  Pt23  1  0.333333  0.666667  0.499319  1
