# generated using pymatgen
data_CaTb3Al18OsPd5
_symmetry_space_group_name_H-M   'P 1'
_cell_length_a   7.64372565
_cell_length_b   7.63972857
_cell_length_c   9.50070737
_cell_angle_alpha   90.05886719
_cell_angle_beta   90.07203044
_cell_angle_gamma   119.67112133
_symmetry_Int_Tables_number   1
_chemical_formula_structural   CaTb3Al18OsPd5
_chemical_formula_sum   'Ca1 Tb3 Al18 Os1 Pd5'
_cell_volume   482.05678558
_cell_formula_units_Z   1
loop_
 _symmetry_equiv_pos_site_id
 _symmetry_equiv_pos_as_xyz
  1  'x, y, z'
loop_
 _atom_site_type_symbol
 _atom_site_label
 _atom_site_symmetry_multiplicity
 _atom_site_fract_x
 _atom_site_fract_y
 _atom_site_fract_z
 _atom_site_occupancy
  Ca  Ca0  1  0.994872  0.670050  0.248873  1
  Tb  Tb1  1  0.005235  0.331348  0.750584  1
  Tb  Tb2  1  0.669678  0.995673  0.249164  1
  Tb  Tb3  1  0.329896  0.003786  0.750952  1
  Al  Al4  1  0.129126  0.132330  0.249146  1
  Al  Al5  1  0.869641  0.871207  0.750830  1
  Al  Al6  1  0.995952  0.334937  0.074835  1
  Al  Al7  1  0.994758  0.659721  0.926342  1
  Al  Al8  1  0.998422  0.665942  0.577145  1
  Al  Al9  1  0.333553  0.000876  0.422428  1
  Al  Al10  1  0.001113  0.334692  0.423712  1
  Al  Al11  1  0.665520  0.998977  0.576868  1
  Al  Al12  1  0.666127  0.003002  0.924873  1
  Al  Al13  1  0.339476  0.004269  0.074631  1
  Al  Al14  1  0.334207  0.334384  0.559177  1
  Al  Al15  1  0.665163  0.665679  0.441662  1
  Al  Al16  1  0.668157  0.661904  0.052969  1
  Al  Al17  1  0.337326  0.332198  0.946607  1
  Al  Al18  1  0.340117  0.546745  0.249091  1
  Al  Al19  1  0.660846  0.452975  0.753362  1
  Al  Al20  1  0.546666  0.337809  0.246102  1
  Al  Al21  1  0.455147  0.662848  0.750968  1
  Os  Os22  1  0.670817  0.326400  0.999107  1
  Pd  Pd23  1  0.328428  0.671524  0.999068  1
  Pd  Pd24  1  0.327958  0.672026  0.500857  1
  Pd  Pd25  1  0.670982  0.327464  0.500778  1
  Pd  Pd26  1  0.000805  0.000552  0.999227  1
  Pd  Pd27  1  0.000011  0.000682  0.500643  1
