# generated using pymatgen
data_Pm2CrSiO8
_symmetry_space_group_name_H-M   'P 1'
_cell_length_a   6.04115895
_cell_length_b   6.04115961
_cell_length_c   6.04116060
_cell_angle_alpha   105.88262135
_cell_angle_beta   116.91478952
_cell_angle_gamma   105.88262375
_symmetry_Int_Tables_number   1
_chemical_formula_structural   Pm2CrSiO8
_chemical_formula_sum   'Pm2 Cr1 Si1 O8'
_cell_volume   167.54754699
_cell_formula_units_Z   1
loop_
 _symmetry_equiv_pos_site_id
 _symmetry_equiv_pos_as_xyz
  1  'x, y, z'
loop_
 _atom_site_type_symbol
 _atom_site_label
 _atom_site_symmetry_multiplicity
 _atom_site_fract_x
 _atom_site_fract_y
 _atom_site_fract_z
 _atom_site_occupancy
  Pm  Pm0  1  0.875000  0.250001  0.125000  1
  Pm  Pm1  1  0.125000  0.750000  0.875000  1
  Cr  Cr2  1  0.625000  0.750000  0.374999  1
  Si  Si3  1  0.375000  0.250000  0.624999  1
  O  O4  1  0.284103  0.571190  0.212912  1
  O  O5  1  0.641722  0.928809  0.212912  1
  O  O6  1  0.207486  0.072965  0.280452  1
  O  O7  1  0.787089  0.571191  0.358279  1
  O  O8  1  0.207486  0.427034  0.634520  1
  O  O9  1  0.787089  0.928809  0.715897  1
  O  O10  1  0.365480  0.072965  0.792514  1
  O  O11  1  0.719548  0.427034  0.792514  1
