# generated using pymatgen
data_Ac2TeOs2
_symmetry_space_group_name_H-M   'P 1'
_cell_length_a   4.38631900
_cell_length_b   4.38631866
_cell_length_c   18.07116100
_cell_angle_alpha   90.00000000
_cell_angle_beta   90.00000000
_cell_angle_gamma   120.00001012
_symmetry_Int_Tables_number   1
_chemical_formula_structural   Ac2TeOs2
_chemical_formula_sum   'Ac4 Te2 Os4'
_cell_volume   301.10435354
_cell_formula_units_Z   2
loop_
 _symmetry_equiv_pos_site_id
 _symmetry_equiv_pos_as_xyz
  1  'x, y, z'
loop_
 _atom_site_type_symbol
 _atom_site_label
 _atom_site_symmetry_multiplicity
 _atom_site_fract_x
 _atom_site_fract_y
 _atom_site_fract_z
 _atom_site_occupancy
  Ac  Ac0  1  0.000000  0.000000  0.118572  1
  Ac  Ac1  1  0.000000  0.000000  0.881428  1
  Ac  Ac2  1  0.000000  0.000000  0.618572  1
  Ac  Ac3  1  0.000000  0.000000  0.381428  1
  Te  Te4  1  0.333333  0.666667  0.250000  1
  Te  Te5  1  0.666667  0.333333  0.750000  1
  Os  Os6  1  0.333333  0.666667  0.505339  1
  Os  Os7  1  0.666667  0.333333  0.494661  1
  Os  Os8  1  0.666667  0.333333  0.005339  1
  Os  Os9  1  0.333333  0.666667  0.994661  1
