# generated using pymatgen
data_Y3Mg3TlHgPb
_symmetry_space_group_name_H-M   'P 1'
_cell_length_a   7.51970400
_cell_length_b   7.51970253
_cell_length_c   4.66937500
_cell_angle_alpha   90.00000000
_cell_angle_beta   90.00000000
_cell_angle_gamma   120.00000645
_symmetry_Int_Tables_number   1
_chemical_formula_structural   Y3Mg3TlHgPb
_chemical_formula_sum   'Y3 Mg3 Tl1 Hg1 Pb1'
_cell_volume   228.66029735
_cell_formula_units_Z   1
loop_
 _symmetry_equiv_pos_site_id
 _symmetry_equiv_pos_as_xyz
  1  'x, y, z'
loop_
 _atom_site_type_symbol
 _atom_site_label
 _atom_site_symmetry_multiplicity
 _atom_site_fract_x
 _atom_site_fract_y
 _atom_site_fract_z
 _atom_site_occupancy
  Y  Y0  1  0.423490  0.417382  0.500000  1
  Y  Y1  1  0.993891  0.576510  0.500000  1
  Y  Y2  1  0.582618  0.006109  0.500000  1
  Mg  Mg3  1  0.765018  0.759825  0.000000  1
  Mg  Mg4  1  0.240175  0.005193  0.000000  1
  Mg  Mg5  1  0.994807  0.234982  0.000000  1
  Tl  Tl6  1  0.666667  0.333333  0.000000  1
  Hg  Hg7  1  0.000000  0.000000  0.500000  1
  Pb  Pb8  1  0.333333  0.666667  0.000000  1
