# generated using pymatgen
data_Mn7VSbO12
_symmetry_space_group_name_H-M   'P 1'
_cell_length_a   11.09484220
_cell_length_b   11.09484190
_cell_length_c   11.09484200
_cell_angle_alpha   147.44298428
_cell_angle_beta   132.35902200
_cell_angle_gamma   58.89350314
_symmetry_Int_Tables_number   1
_chemical_formula_structural   Mn7VSbO12
_chemical_formula_sum   'Mn14 V2 Sb2 O24'
_cell_volume   538.54983593
_cell_formula_units_Z   2
loop_
 _symmetry_equiv_pos_site_id
 _symmetry_equiv_pos_as_xyz
  1  'x, y, z'
loop_
 _atom_site_type_symbol
 _atom_site_label
 _atom_site_symmetry_multiplicity
 _atom_site_fract_x
 _atom_site_fract_y
 _atom_site_fract_z
 _atom_site_occupancy
  Mn  Mn0  1  0.794154  0.925654  0.868500  1
  Mn  Mn1  1  0.158299  0.158299  0.500000  1
  Mn  Mn2  1  0.809980  0.333583  0.476397  1
  Mn  Mn3  1  0.158299  0.658299  0.000000  1
  Mn  Mn4  1  0.642814  0.166417  0.476397  1
  Mn  Mn5  1  0.841701  0.341701  0.000000  1
  Mn  Mn6  1  0.557154  0.425654  0.131500  1
  Mn  Mn7  1  0.000000  0.000000  0.500000  1
  Mn  Mn8  1  0.357186  0.833583  0.523603  1
  Mn  Mn9  1  0.841701  0.841701  0.500000  1
  Mn  Mn10  1  0.190020  0.666417  0.523603  1
  Mn  Mn11  1  0.205846  0.074346  0.131500  1
  Mn  Mn12  1  0.442846  0.574346  0.868500  1
  Mn  Mn13  1  0.000000  0.500000  0.000000  1
  V  V14  1  0.370657  0.250000  0.120657  1
  V  V15  1  0.629343  0.750000  0.879343  1
  Sb  Sb16  1  0.500000  0.000000  0.500000  1
  Sb  Sb17  1  0.000000  0.500000  0.500000  1
  O  O18  1  0.266395  0.990667  0.275728  1
  O  O19  1  0.111539  0.829276  0.282263  1
  O  O20  1  0.739990  0.513285  0.753274  1
  O  O21  1  0.785061  0.509333  0.275728  1
  O  O22  1  0.739990  0.986715  0.226704  1
  O  O23  1  0.406696  0.174999  0.231697  1
  O  O24  1  0.443303  0.674999  0.768303  1
  O  O25  1  0.556697  0.325001  0.231697  1
  O  O26  1  0.733605  0.009333  0.724272  1
  O  O27  1  0.919733  0.200437  0.273883  1
  O  O28  1  0.260010  0.486715  0.246726  1
  O  O29  1  0.952987  0.670724  0.282263  1
  O  O30  1  0.593304  0.825001  0.768303  1
  O  O31  1  0.573446  0.299563  0.719296  1
  O  O32  1  0.080267  0.354150  0.280704  1
  O  O33  1  0.888461  0.170724  0.717737  1
  O  O34  1  0.214939  0.490667  0.724272  1
  O  O35  1  0.919733  0.645850  0.719296  1
  O  O36  1  0.047013  0.329276  0.717737  1
  O  O37  1  0.426554  0.700437  0.280704  1
  O  O38  1  0.573446  0.854150  0.273883  1
  O  O39  1  0.260010  0.013285  0.773296  1
  O  O40  1  0.426554  0.145850  0.726117  1
  O  O41  1  0.080267  0.799563  0.726117  1
