# generated using pymatgen
data_Ho10Tl3In5(PdRh)2
_symmetry_space_group_name_H-M   'P 1'
_cell_length_a   3.61143800
_cell_length_b   8.14232400
_cell_length_c   18.28142749
_cell_angle_alpha   89.97658262
_cell_angle_beta   90.00000000
_cell_angle_gamma   90.00000000
_symmetry_Int_Tables_number   1
_chemical_formula_structural   Ho10Tl3In5(PdRh)2
_chemical_formula_sum   'Ho10 Tl3 In5 Pd2 Rh2'
_cell_volume   537.57444013
_cell_formula_units_Z   1
loop_
 _symmetry_equiv_pos_site_id
 _symmetry_equiv_pos_as_xyz
  1  'x, y, z'
loop_
 _atom_site_type_symbol
 _atom_site_label
 _atom_site_symmetry_multiplicity
 _atom_site_fract_x
 _atom_site_fract_y
 _atom_site_fract_z
 _atom_site_occupancy
  Ho  Ho0  1  0.000000  0.496971  0.500306  1
  Ho  Ho1  1  0.000000  0.000263  0.000208  1
  Ho  Ho2  1  0.000000  0.732776  0.279431  1
  Ho  Ho3  1  0.000000  0.267801  0.720620  1
  Ho  Ho4  1  0.000000  0.745738  0.780212  1
  Ho  Ho5  1  0.000000  0.253909  0.219196  1
  Ho  Ho6  1  0.000000  0.614860  0.088807  1
  Ho  Ho7  1  0.000000  0.385785  0.911029  1
  Ho  Ho8  1  0.000000  0.883907  0.586358  1
  Ho  Ho9  1  0.000000  0.117022  0.414564  1
  Tl  Tl10  1  0.500000  0.709225  0.933627  1
  Tl  Tl11  1  0.500000  0.291899  0.065946  1
  Tl  Tl12  1  0.500000  0.791746  0.434342  1
  In  In13  1  0.500000  0.206837  0.567252  1
  In  In14  1  0.500000  0.576733  0.648788  1
  In  In15  1  0.500000  0.419801  0.350158  1
  In  In16  1  0.500000  0.920346  0.150803  1
  In  In17  1  0.500000  0.078747  0.849378  1
  Pd  Pd18  1  0.500000  0.978411  0.696822  1
  Pd  Pd19  1  0.500000  0.025931  0.302152  1
  Rh  Rh20  1  0.500000  0.526095  0.197321  1
  Rh  Rh21  1  0.500000  0.475197  0.802680  1
