# generated using pymatgen
data_Sr2Al3InI16
_symmetry_space_group_name_H-M   'P 1'
_cell_length_a   8.38933270
_cell_length_b   8.60594282
_cell_length_c   15.87040300
_cell_angle_alpha   87.66545765
_cell_angle_beta   90.43671612
_cell_angle_gamma   90.08567572
_symmetry_Int_Tables_number   1
_chemical_formula_structural   Sr2Al3InI16
_chemical_formula_sum   'Sr2 Al3 In1 I16'
_cell_volume   1144.82815511
_cell_formula_units_Z   1
loop_
 _symmetry_equiv_pos_site_id
 _symmetry_equiv_pos_as_xyz
  1  'x, y, z'
loop_
 _atom_site_type_symbol
 _atom_site_label
 _atom_site_symmetry_multiplicity
 _atom_site_fract_x
 _atom_site_fract_y
 _atom_site_fract_z
 _atom_site_occupancy
  Sr  Sr0  1  0.753812  0.079170  0.814962  1
  Sr  Sr1  1  0.247198  0.078688  0.312267  1
  Al  Al2  1  0.065370  0.220395  0.079694  1
  Al  Al3  1  0.571668  0.642912  0.778129  1
  Al  Al4  1  0.428571  0.642715  0.277749  1
  In  In5  1  0.934332  0.224719  0.578119  1
  I  I6  1  0.426356  0.615475  0.641312  1
  I  I7  1  0.572542  0.615853  0.141829  1
  I  I8  1  0.867131  0.723795  0.760413  1
  I  I9  1  0.132993  0.722984  0.258666  1
  I  I10  1  0.940133  0.496510  0.488532  1
  I  I11  1  0.059661  0.474123  0.996767  1
  I  I12  1  0.923576  0.995520  0.003715  1
  I  I13  1  0.086267  0.981403  0.498498  1
  I  I14  1  0.626092  0.122617  0.616064  1
  I  I15  1  0.355026  0.129591  0.111809  1
  I  I16  1  0.558494  0.392384  0.875730  1
  I  I17  1  0.442085  0.392044  0.375559  1
  I  I18  1  0.441603  0.856700  0.866794  1
  I  I19  1  0.560026  0.857607  0.366381  1
  I  I20  1  0.925022  0.235431  0.224757  1
  I  I21  1  0.082038  0.234158  0.736658  1
