# generated using pymatgen
data_Er16In5CoNiHg
_symmetry_space_group_name_H-M   'P 1'
_cell_length_a   10.25508700
_cell_length_b   10.27981769
_cell_length_c   6.93369278
_cell_angle_alpha   90.03782718
_cell_angle_beta   90.00000000
_cell_angle_gamma   119.92044059
_symmetry_Int_Tables_number   1
_chemical_formula_structural   Er16In5CoNiHg
_chemical_formula_sum   'Er16 In5 Co1 Ni1 Hg1'
_cell_volume   633.53042377
_cell_formula_units_Z   1
loop_
 _symmetry_equiv_pos_site_id
 _symmetry_equiv_pos_as_xyz
  1  'x, y, z'
loop_
 _atom_site_type_symbol
 _atom_site_label
 _atom_site_symmetry_multiplicity
 _atom_site_fract_x
 _atom_site_fract_y
 _atom_site_fract_z
 _atom_site_occupancy
  Er  Er0  1  0.532069  0.064137  0.794131  1
  Er  Er1  1  0.931496  0.469957  0.795069  1
  Er  Er2  1  0.538460  0.469957  0.795069  1
  Er  Er3  1  0.464721  0.929443  0.289206  1
  Er  Er4  1  0.071902  0.534755  0.293454  1
  Er  Er5  1  0.462852  0.534755  0.293454  1
  Er  Er6  1  0.822881  0.645762  0.485594  1
  Er  Er7  1  0.356090  0.177754  0.499535  1
  Er  Er8  1  0.821665  0.177754  0.499535  1
  Er  Er9  1  0.177894  0.355788  0.998030  1
  Er  Er10  1  0.648120  0.819691  0.002027  1
  Er  Er11  1  0.171571  0.819691  0.002027  1
  Er  Er12  1  0.668561  0.337121  0.178407  1
  Er  Er13  1  0.333627  0.667254  0.682794  1
  Er  Er14  1  0.999054  0.998107  0.777732  1
  Er  Er15  1  0.000705  0.001409  0.279485  1
  In  In16  1  0.326975  0.162921  0.038317  1
  In  In17  1  0.835945  0.162921  0.038317  1
  In  In18  1  0.162664  0.325325  0.539166  1
  In  In19  1  0.674289  0.837382  0.538730  1
  In  In20  1  0.163095  0.837382  0.538730  1
  Co  Co21  1  0.333220  0.666443  0.066273  1
  Ni  Ni22  1  0.666716  0.333431  0.566834  1
  Hg  Hg23  1  0.835429  0.670860  0.043994  1
