# generated using pymatgen
data_Tb2HoSc2Pb3
_symmetry_space_group_name_H-M   'P 1'
_cell_length_a   8.92705982
_cell_length_b   8.92041388
_cell_length_c   6.37976900
_cell_angle_alpha   90.00000000
_cell_angle_beta   90.00000000
_cell_angle_gamma   119.97537375
_symmetry_Int_Tables_number   1
_chemical_formula_structural   Tb2HoSc2Pb3
_chemical_formula_sum   'Tb4 Ho2 Sc4 Pb6'
_cell_volume   440.08518895
_cell_formula_units_Z   2
loop_
 _symmetry_equiv_pos_site_id
 _symmetry_equiv_pos_as_xyz
  1  'x, y, z'
loop_
 _atom_site_type_symbol
 _atom_site_label
 _atom_site_symmetry_multiplicity
 _atom_site_fract_x
 _atom_site_fract_y
 _atom_site_fract_z
 _atom_site_occupancy
  Tb  Tb0  1  0.238801  0.999875  0.250000  1
  Tb  Tb1  1  0.238801  0.238926  0.750000  1
  Tb  Tb2  1  0.999716  0.761240  0.750000  1
  Tb  Tb3  1  0.999716  0.238476  0.250000  1
  Ho  Ho4  1  0.761161  0.761288  0.250000  1
  Ho  Ho5  1  0.761161  0.999873  0.750000  1
  Sc  Sc6  1  0.333427  0.666714  0.000000  1
  Sc  Sc7  1  0.666729  0.333364  0.500000  1
  Sc  Sc8  1  0.666729  0.333364  0.000000  1
  Sc  Sc9  1  0.333427  0.666714  0.500000  1
  Pb  Pb10  1  0.600966  0.999576  0.250000  1
  Pb  Pb11  1  0.600966  0.601390  0.750000  1
  Pb  Pb12  1  0.999452  0.398561  0.750000  1
  Pb  Pb13  1  0.999452  0.600891  0.250000  1
  Pb  Pb14  1  0.399749  0.399712  0.250000  1
  Pb  Pb15  1  0.399749  0.000037  0.750000  1
