# generated using pymatgen
data_La7Yb(W2C3)4
_symmetry_space_group_name_H-M   'P 1'
_cell_length_a   6.76926504
_cell_length_b   6.01418405
_cell_length_c   12.02068419
_cell_angle_alpha   68.56337094
_cell_angle_beta   90.03929279
_cell_angle_gamma   89.99177755
_symmetry_Int_Tables_number   1
_chemical_formula_structural   La7Yb(W2C3)4
_chemical_formula_sum   'La7 Yb1 W8 C12'
_cell_volume   455.52696223
_cell_formula_units_Z   1
loop_
 _symmetry_equiv_pos_site_id
 _symmetry_equiv_pos_as_xyz
  1  'x, y, z'
loop_
 _atom_site_type_symbol
 _atom_site_label
 _atom_site_symmetry_multiplicity
 _atom_site_fract_x
 _atom_site_fract_y
 _atom_site_fract_z
 _atom_site_occupancy
  La  La0  1  0.277836  0.321787  0.592935  1
  La  La1  1  0.218044  0.329178  0.090367  1
  La  La2  1  0.720937  0.676514  0.407588  1
  La  La3  1  0.994134  0.725048  0.636127  1
  La  La4  1  0.500370  0.273992  0.867660  1
  La  La5  1  0.001491  0.272486  0.367094  1
  La  La6  1  0.506149  0.726172  0.131333  1
  Yb  Yb7  1  0.790710  0.691559  0.907886  1
  W  W8  1  0.996275  0.822280  0.119782  1
  W  W9  1  0.495605  0.178605  0.379924  1
  W  W10  1  0.002405  0.177346  0.879784  1
  W  W11  1  0.502413  0.820548  0.620326  1
  W  W12  1  0.751285  0.175246  0.662708  1
  W  W13  1  0.248110  0.823464  0.337951  1
  W  W14  1  0.748530  0.180574  0.159878  1
  W  W15  1  0.252892  0.821507  0.838188  1
  C  C16  1  0.624260  0.504449  0.641836  1
  C  C17  1  0.127082  0.493238  0.857239  1
  C  C18  1  0.372180  0.494311  0.357365  1
  C  C19  1  0.871524  0.508918  0.140759  1
  C  C20  1  0.211308  0.927411  0.987018  1
  C  C21  1  0.712105  0.065694  0.512996  1
  C  C22  1  0.787191  0.063804  0.012618  1
  C  C23  1  0.284653  0.933920  0.487627  1
  C  C24  1  0.488747  0.028889  0.245622  1
  C  C25  1  0.009377  0.023543  0.748775  1
  C  C26  1  0.988708  0.975763  0.251900  1
  C  C27  1  0.515680  0.963754  0.756713  1
