# generated using pymatgen
data_K16TiSnSb8
_symmetry_space_group_name_H-M   'P 1'
_cell_length_a   11.58716590
_cell_length_b   11.58716545
_cell_length_c   11.58716600
_cell_angle_alpha   59.99999844
_cell_angle_beta   59.99999972
_cell_angle_gamma   60.00000183
_symmetry_Int_Tables_number   1
_chemical_formula_structural   K16TiSnSb8
_chemical_formula_sum   'K16 Ti1 Sn1 Sb8'
_cell_volume   1100.06073703
_cell_formula_units_Z   1
loop_
 _symmetry_equiv_pos_site_id
 _symmetry_equiv_pos_as_xyz
  1  'x, y, z'
loop_
 _atom_site_type_symbol
 _atom_site_label
 _atom_site_symmetry_multiplicity
 _atom_site_fract_x
 _atom_site_fract_y
 _atom_site_fract_z
 _atom_site_occupancy
  K  K0  1  0.624784  0.125647  0.624784  1
  K  K1  1  0.624784  0.624784  0.125647  1
  K  K2  1  0.125647  0.624784  0.624784  1
  K  K3  1  0.624784  0.624784  0.624784  1
  K  K4  1  0.021901  0.021901  0.478099  1
  K  K5  1  0.775777  0.224223  0.224223  1
  K  K6  1  0.224223  0.775777  0.775777  1
  K  K7  1  0.775777  0.775777  0.224223  1
  K  K8  1  0.775777  0.224223  0.775777  1
  K  K9  1  0.224223  0.775777  0.224223  1
  K  K10  1  0.478099  0.021901  0.478099  1
  K  K11  1  0.478099  0.021901  0.021901  1
  K  K12  1  0.021901  0.478099  0.478099  1
  K  K13  1  0.021901  0.478099  0.021901  1
  K  K14  1  0.224223  0.224223  0.775777  1
  K  K15  1  0.478099  0.478099  0.021901  1
  Ti  Ti16  1  0.750000  0.750000  0.750000  1
  Sn  Sn17  1  0.500000  0.500000  0.500000  1
  Sb  Sb18  1  0.396321  0.811036  0.396321  1
  Sb  Sb19  1  0.847998  0.847998  0.456006  1
  Sb  Sb20  1  0.456006  0.847998  0.847998  1
  Sb  Sb21  1  0.847998  0.847998  0.847998  1
  Sb  Sb22  1  0.811036  0.396321  0.396321  1
  Sb  Sb23  1  0.396321  0.396321  0.396321  1
  Sb  Sb24  1  0.396321  0.396321  0.811036  1
  Sb  Sb25  1  0.847998  0.456006  0.847998  1
