# generated using pymatgen
data_YbNi2(Sb6Os)2
_symmetry_space_group_name_H-M   'P 1'
_cell_length_a   8.12416344
_cell_length_b   8.10848382
_cell_length_c   8.12416232
_cell_angle_alpha   109.44111622
_cell_angle_beta   109.43924525
_cell_angle_gamma   109.61177634
_symmetry_Int_Tables_number   1
_chemical_formula_structural   YbNi2(Sb6Os)2
_chemical_formula_sum   'Yb1 Ni2 Sb12 Os2'
_cell_volume   411.57852495
_cell_formula_units_Z   1
loop_
 _symmetry_equiv_pos_site_id
 _symmetry_equiv_pos_as_xyz
  1  'x, y, z'
loop_
 _atom_site_type_symbol
 _atom_site_label
 _atom_site_symmetry_multiplicity
 _atom_site_fract_x
 _atom_site_fract_y
 _atom_site_fract_z
 _atom_site_occupancy
  Yb  Yb0  1  0.000000  0.000000  0.000000  1
  Ni  Ni1  1  0.500000  0.000000  0.000000  1
  Ni  Ni2  1  0.000000  0.000000  0.500000  1
  Sb  Sb3  1  0.845911  0.666770  0.506250  1
  Sb  Sb4  1  0.154089  0.333230  0.493750  1
  Sb  Sb5  1  0.160520  0.666770  0.820860  1
  Sb  Sb6  1  0.839480  0.333230  0.179140  1
  Sb  Sb7  1  0.660882  0.505542  0.844660  1
  Sb  Sb8  1  0.339118  0.494458  0.155340  1
  Sb  Sb9  1  0.666354  0.824093  0.157738  1
  Sb  Sb10  1  0.333646  0.175907  0.842262  1
  Sb  Sb11  1  0.504483  0.844946  0.665462  1
  Sb  Sb12  1  0.495517  0.155054  0.334538  1
  Sb  Sb13  1  0.179482  0.844946  0.340462  1
  Sb  Sb14  1  0.820518  0.155054  0.659538  1
  Os  Os15  1  0.500000  0.500000  0.500000  1
  Os  Os16  1  0.000000  0.500000  0.000000  1
