# generated using pymatgen
data_LuSc19(SiBi5)2
_symmetry_space_group_name_H-M   'P 1'
_cell_length_a   7.65835811
_cell_length_b   8.91517500
_cell_length_c   11.31192695
_cell_angle_alpha   90.00000000
_cell_angle_beta   90.17156257
_cell_angle_gamma   90.00000000
_symmetry_Int_Tables_number   1
_chemical_formula_structural   LuSc19(SiBi5)2
_chemical_formula_sum   'Lu1 Sc19 Si2 Bi10'
_cell_volume   772.32516853
_cell_formula_units_Z   1
loop_
 _symmetry_equiv_pos_site_id
 _symmetry_equiv_pos_as_xyz
  1  'x, y, z'
loop_
 _atom_site_type_symbol
 _atom_site_label
 _atom_site_symmetry_multiplicity
 _atom_site_fract_x
 _atom_site_fract_y
 _atom_site_fract_z
 _atom_site_occupancy
  Lu  Lu0  1  0.672453  0.250000  0.711953  1
  Sc  Sc1  1  0.038354  0.250000  0.513048  1
  Sc  Sc2  1  0.985985  0.750000  0.490192  1
  Sc  Sc3  1  0.483904  0.750000  0.009564  1
  Sc  Sc4  1  0.537106  0.250000  0.988223  1
  Sc  Sc5  1  0.351239  0.250000  0.294245  1
  Sc  Sc6  1  0.653622  0.750000  0.720804  1
  Sc  Sc7  1  0.155184  0.750000  0.780691  1
  Sc  Sc8  1  0.852640  0.250000  0.203382  1
  Sc  Sc9  1  0.170506  0.250000  0.790817  1
  Sc  Sc10  1  0.812291  0.750000  0.221045  1
  Sc  Sc11  1  0.312454  0.750000  0.279395  1
  Sc  Sc12  1  0.183336  0.075320  0.055960  1
  Sc  Sc13  1  0.808988  0.953916  0.941078  1
  Sc  Sc14  1  0.311056  0.954608  0.558980  1
  Sc  Sc15  1  0.808988  0.546084  0.941078  1
  Sc  Sc16  1  0.684254  0.074814  0.442782  1
  Sc  Sc17  1  0.183336  0.424680  0.055960  1
  Sc  Sc18  1  0.684254  0.425186  0.442782  1
  Sc  Sc19  1  0.311056  0.545392  0.558980  1
  Si  Si20  1  0.411497  0.250000  0.530590  1
  Si  Si21  1  0.912017  0.250000  0.965384  1
  Bi  Bi22  1  0.593118  0.750000  0.461883  1
  Bi  Bi23  1  0.091590  0.750000  0.039107  1
  Bi  Bi24  1  0.061935  0.005152  0.324850  1
  Bi  Bi25  1  0.939174  0.995555  0.675368  1
  Bi  Bi26  1  0.432461  0.996763  0.825614  1
  Bi  Bi27  1  0.939174  0.504445  0.675368  1
  Bi  Bi28  1  0.561817  0.004856  0.175207  1
  Bi  Bi29  1  0.061935  0.494848  0.324850  1
  Bi  Bi30  1  0.561817  0.495144  0.175207  1
  Bi  Bi31  1  0.432461  0.503237  0.825614  1
