# generated using pymatgen
data_TmLuTh2(ZnRh)4
_symmetry_space_group_name_H-M   'P 1'
_cell_length_a   3.94481200
_cell_length_b   7.09910905
_cell_length_c   8.37305524
_cell_angle_alpha   89.92331663
_cell_angle_beta   90.00000000
_cell_angle_gamma   90.00000000
_symmetry_Int_Tables_number   1
_chemical_formula_structural   TmLuTh2(ZnRh)4
_chemical_formula_sum   'Tm1 Lu1 Th2 Zn4 Rh4'
_cell_volume   234.48427624
_cell_formula_units_Z   1
loop_
 _symmetry_equiv_pos_site_id
 _symmetry_equiv_pos_as_xyz
  1  'x, y, z'
loop_
 _atom_site_type_symbol
 _atom_site_label
 _atom_site_symmetry_multiplicity
 _atom_site_fract_x
 _atom_site_fract_y
 _atom_site_fract_z
 _atom_site_occupancy
  Tm  Tm0  1  0.250000  0.049457  0.317738  1
  Lu  Lu1  1  0.750000  0.950341  0.682625  1
  Th  Th2  1  0.250000  0.549886  0.190872  1
  Th  Th3  1  0.750000  0.450132  0.808906  1
  Zn  Zn4  1  0.250000  0.644403  0.560146  1
  Zn  Zn5  1  0.750000  0.355970  0.440088  1
  Zn  Zn6  1  0.750000  0.885025  0.061167  1
  Zn  Zn7  1  0.250000  0.114764  0.938370  1
  Rh  Rh8  1  0.250000  0.739888  0.874549  1
  Rh  Rh9  1  0.750000  0.260818  0.125011  1
  Rh  Rh10  1  0.750000  0.756717  0.368443  1
  Rh  Rh11  1  0.250000  0.242600  0.632084  1
