# generated using pymatgen
data_Rb4TbPaTe6
_symmetry_space_group_name_H-M   'P 1'
_cell_length_a   8.22364607
_cell_length_b   8.22364565
_cell_length_c   8.97775734
_cell_angle_alpha   81.04347094
_cell_angle_beta   81.04345968
_cell_angle_gamma   120.05552757
_symmetry_Int_Tables_number   1
_chemical_formula_structural   Rb4TbPaTe6
_chemical_formula_sum   'Rb4 Tb1 Pa1 Te6'
_cell_volume   499.34462096
_cell_formula_units_Z   1
loop_
 _symmetry_equiv_pos_site_id
 _symmetry_equiv_pos_as_xyz
  1  'x, y, z'
loop_
 _atom_site_type_symbol
 _atom_site_label
 _atom_site_symmetry_multiplicity
 _atom_site_fract_x
 _atom_site_fract_y
 _atom_site_fract_z
 _atom_site_occupancy
  Rb  Rb0  1  0.499970  0.500030  0.000000  1
  Rb  Rb1  1  0.654236  0.345764  0.500000  1
  Rb  Rb2  1  0.345478  0.654522  0.500000  1
  Rb  Rb3  1  0.000185  0.999815  0.500000  1
  Tb  Tb4  1  0.167864  0.832136  0.000000  1
  Pa  Pa5  1  0.832088  0.167912  0.000000  1
  Te  Te6  1  0.804736  0.814012  0.200821  1
  Te  Te7  1  0.185988  0.195264  0.799179  1
  Te  Te8  1  0.440133  0.056825  0.204512  1
  Te  Te9  1  0.579395  0.953247  0.796043  1
  Te  Te10  1  0.943175  0.559867  0.795488  1
  Te  Te11  1  0.046753  0.420605  0.203957  1
