# generated using pymatgen
data_TbDy7(HfIr3)2
_symmetry_space_group_name_H-M   'P 1'
_cell_length_a   10.86407801
_cell_length_b   10.85912200
_cell_length_c   6.26574600
_cell_angle_alpha   90.00000000
_cell_angle_beta   90.00356571
_cell_angle_gamma   90.00000000
_symmetry_Int_Tables_number   1
_chemical_formula_structural   TbDy7(HfIr3)2
_chemical_formula_sum   'Tb2 Dy14 Hf4 Ir12'
_cell_volume   739.19730100
_cell_formula_units_Z   2
loop_
 _symmetry_equiv_pos_site_id
 _symmetry_equiv_pos_as_xyz
  1  'x, y, z'
loop_
 _atom_site_type_symbol
 _atom_site_label
 _atom_site_symmetry_multiplicity
 _atom_site_fract_x
 _atom_site_fract_y
 _atom_site_fract_z
 _atom_site_occupancy
  Tb  Tb0  1  0.288910  0.086052  0.375037  1
  Tb  Tb1  1  0.288910  0.913948  0.875037  1
  Dy  Dy2  1  0.710896  0.085799  0.875339  1
  Dy  Dy3  1  0.710896  0.914201  0.375339  1
  Dy  Dy4  1  0.585905  0.789039  0.875317  1
  Dy  Dy5  1  0.585905  0.210961  0.375317  1
  Dy  Dy6  1  0.414369  0.788917  0.375331  1
  Dy  Dy7  1  0.414369  0.211083  0.875331  1
  Dy  Dy8  1  0.210919  0.414293  0.624723  1
  Dy  Dy9  1  0.210919  0.585707  0.124723  1
  Dy  Dy10  1  0.789101  0.414237  0.124641  1
  Dy  Dy11  1  0.789101  0.585763  0.624641  1
  Dy  Dy12  1  0.914242  0.710893  0.124664  1
  Dy  Dy13  1  0.914242  0.289107  0.624664  1
  Dy  Dy14  1  0.085658  0.710822  0.624592  1
  Dy  Dy15  1  0.085658  0.289178  0.124592  1
  Hf  Hf16  1  0.999774  0.999928  0.500121  1
  Hf  Hf17  1  0.999774  0.000072  0.000121  1
  Hf  Hf18  1  0.500040  0.499993  0.000057  1
  Hf  Hf19  1  0.500040  0.500007  0.500057  1
  Ir  Ir20  1  0.857287  0.142715  0.249968  1
  Ir  Ir21  1  0.857287  0.857285  0.749968  1
  Ir  Ir22  1  0.142397  0.143018  0.750275  1
  Ir  Ir23  1  0.142397  0.856982  0.250275  1
  Ir  Ir24  1  0.642717  0.357300  0.750014  1
  Ir  Ir25  1  0.642717  0.642700  0.250014  1
  Ir  Ir26  1  0.357339  0.357481  0.249893  1
  Ir  Ir27  1  0.357339  0.642519  0.749893  1
  Ir  Ir28  1  0.500440  0.000022  0.122167  1
  Ir  Ir29  1  0.500440  0.999978  0.622167  1
  Ir  Ir30  1  0.000005  0.499969  0.877862  1
  Ir  Ir31  1  0.000005  0.500031  0.377862  1
