# generated using pymatgen
data_La2Nd2SmSi4
_symmetry_space_group_name_H-M   'P 1'
_cell_length_a   7.91959500
_cell_length_b   7.91959500
_cell_length_c   15.32216800
_cell_angle_alpha   90.00000000
_cell_angle_beta   90.00000000
_cell_angle_gamma   90.00000000
_symmetry_Int_Tables_number   1
_chemical_formula_structural   La2Nd2SmSi4
_chemical_formula_sum   'La8 Nd8 Sm4 Si16'
_cell_volume   961.00614658
_cell_formula_units_Z   4
loop_
 _symmetry_equiv_pos_site_id
 _symmetry_equiv_pos_as_xyz
  1  'x, y, z'
loop_
 _atom_site_type_symbol
 _atom_site_label
 _atom_site_symmetry_multiplicity
 _atom_site_fract_x
 _atom_site_fract_y
 _atom_site_fract_z
 _atom_site_occupancy
  La  La0  1  0.987156  0.622289  0.052542  1
  La  La1  1  0.012844  0.377711  0.552542  1
  La  La2  1  0.622289  0.987156  0.947458  1
  La  La3  1  0.122289  0.512844  0.802542  1
  La  La4  1  0.877711  0.487156  0.302542  1
  La  La5  1  0.512844  0.122289  0.197458  1
  La  La6  1  0.487156  0.877711  0.697458  1
  La  La7  1  0.377711  0.012844  0.447458  1
  Nd  Nd8  1  0.373564  0.481006  0.373387  1
  Nd  Nd9  1  0.873564  0.018994  0.376613  1
  Nd  Nd10  1  0.981006  0.126436  0.123387  1
  Nd  Nd11  1  0.018994  0.873564  0.623387  1
  Nd  Nd12  1  0.626436  0.518994  0.873387  1
  Nd  Nd13  1  0.481006  0.373564  0.626613  1
  Nd  Nd14  1  0.518994  0.626436  0.126613  1
  Nd  Nd15  1  0.126436  0.981006  0.876613  1
  Sm  Sm16  1  0.691547  0.691547  0.500000  1
  Sm  Sm17  1  0.808453  0.191547  0.750000  1
  Sm  Sm18  1  0.191547  0.808453  0.250000  1
  Sm  Sm19  1  0.308453  0.308453  0.000000  1
  Si  Si20  1  0.079050  0.713678  0.439099  1
  Si  Si21  1  0.920950  0.286322  0.939099  1
  Si  Si22  1  0.713678  0.079050  0.560901  1
  Si  Si23  1  0.213679  0.420950  0.189099  1
  Si  Si24  1  0.786322  0.579050  0.689099  1
  Si  Si25  1  0.420950  0.213679  0.810901  1
  Si  Si26  1  0.579050  0.786322  0.310901  1
  Si  Si27  1  0.286322  0.920950  0.060901  1
  Si  Si28  1  0.830383  0.806940  0.796041  1
  Si  Si29  1  0.169617  0.193060  0.296041  1
  Si  Si30  1  0.806940  0.830383  0.203959  1
  Si  Si31  1  0.306940  0.669617  0.546041  1
  Si  Si32  1  0.693060  0.330383  0.046041  1
  Si  Si33  1  0.669617  0.306940  0.453959  1
  Si  Si34  1  0.330383  0.693060  0.953959  1
  Si  Si35  1  0.193060  0.169617  0.703959  1
