# generated using pymatgen
data_Er(Hf3Sn2)3
_symmetry_space_group_name_H-M   'P 1'
_cell_length_a   8.55521791
_cell_length_b   8.55521919
_cell_length_c   5.76524100
_cell_angle_alpha   90.00000000
_cell_angle_beta   90.00000000
_cell_angle_gamma   121.02394790
_symmetry_Int_Tables_number   1
_chemical_formula_structural   Er(Hf3Sn2)3
_chemical_formula_sum   'Er1 Hf9 Sn6'
_cell_volume   361.60644097
_cell_formula_units_Z   1
loop_
 _symmetry_equiv_pos_site_id
 _symmetry_equiv_pos_as_xyz
  1  'x, y, z'
loop_
 _atom_site_type_symbol
 _atom_site_label
 _atom_site_symmetry_multiplicity
 _atom_site_fract_x
 _atom_site_fract_y
 _atom_site_fract_z
 _atom_site_occupancy
  Er  Er0  1  0.769001  0.769001  0.750000  1
  Hf  Hf1  1  0.251379  0.002095  0.750000  1
  Hf  Hf2  1  0.002095  0.251379  0.750000  1
  Hf  Hf3  1  0.233218  0.233218  0.250000  1
  Hf  Hf4  1  0.750582  0.000110  0.250000  1
  Hf  Hf5  1  0.000110  0.750582  0.250000  1
  Hf  Hf6  1  0.665001  0.333610  0.000486  1
  Hf  Hf7  1  0.333610  0.665001  0.000486  1
  Hf  Hf8  1  0.333610  0.665001  0.499514  1
  Hf  Hf9  1  0.665001  0.333610  0.499514  1
  Sn  Sn10  1  0.391369  0.391369  0.750000  1
  Sn  Sn11  1  0.606436  0.003111  0.750000  1
  Sn  Sn12  1  0.003111  0.606436  0.750000  1
  Sn  Sn13  1  0.605425  0.605425  0.250000  1
  Sn  Sn14  1  0.391068  0.998988  0.250000  1
  Sn  Sn15  1  0.998988  0.391068  0.250000  1
