# generated using pymatgen
data_Rb4BiSb3Pt2
_symmetry_space_group_name_H-M   'P 1'
_cell_length_a   8.27106492
_cell_length_b   8.20076199
_cell_length_c   6.96908400
_cell_angle_alpha   90.00000000
_cell_angle_beta   90.00000000
_cell_angle_gamma   125.25672647
_symmetry_Int_Tables_number   1
_chemical_formula_structural   Rb4BiSb3Pt2
_chemical_formula_sum   'Rb4 Bi1 Sb3 Pt2'
_cell_volume   385.99952885
_cell_formula_units_Z   1
loop_
 _symmetry_equiv_pos_site_id
 _symmetry_equiv_pos_as_xyz
  1  'x, y, z'
loop_
 _atom_site_type_symbol
 _atom_site_label
 _atom_site_symmetry_multiplicity
 _atom_site_fract_x
 _atom_site_fract_y
 _atom_site_fract_z
 _atom_site_occupancy
  Rb  Rb0  1  0.566689  0.359718  0.750000  1
  Rb  Rb1  1  0.371488  0.565284  0.250000  1
  Rb  Rb2  1  0.174743  0.788353  0.750000  1
  Rb  Rb3  1  0.801775  0.197077  0.250000  1
  Bi  Bi4  1  0.714826  0.904733  0.750000  1
  Sb  Sb5  1  0.902125  0.727316  0.250000  1
  Sb  Sb6  1  0.300451  0.075925  0.250000  1
  Sb  Sb7  1  0.091818  0.306029  0.750000  1
  Pt  Pt8  1  0.038042  0.037783  0.001992  1
  Pt  Pt9  1  0.038042  0.037783  0.498008  1
