# generated using pymatgen
data_Y7Er(Si4Mo3)4
_symmetry_space_group_name_H-M   'P 1'
_cell_length_a   6.78195204
_cell_length_b   6.96410679
_cell_length_c   12.95178860
_cell_angle_alpha   89.99847156
_cell_angle_beta   90.00264575
_cell_angle_gamma   89.96958066
_symmetry_Int_Tables_number   1
_chemical_formula_structural   Y7Er(Si4Mo3)4
_chemical_formula_sum   'Y7 Er1 Si16 Mo12'
_cell_volume   611.71597397
_cell_formula_units_Z   1
loop_
 _symmetry_equiv_pos_site_id
 _symmetry_equiv_pos_as_xyz
  1  'x, y, z'
loop_
 _atom_site_type_symbol
 _atom_site_label
 _atom_site_symmetry_multiplicity
 _atom_site_fract_x
 _atom_site_fract_y
 _atom_site_fract_z
 _atom_site_occupancy
  Y  Y0  1  0.497440  0.333062  0.094077  1
  Y  Y1  1  0.997614  0.166922  0.405954  1
  Y  Y2  1  0.502591  0.666812  0.594109  1
  Y  Y3  1  0.002223  0.833012  0.906395  1
  Y  Y4  1  0.502244  0.667267  0.906324  1
  Y  Y5  1  0.002320  0.833080  0.594101  1
  Y  Y6  1  0.497301  0.333031  0.405406  1
  Er  Er7  1  0.997038  0.167010  0.094246  1
  Si  Si8  1  0.658276  0.042369  0.547647  1
  Si  Si9  1  0.158483  0.457407  0.952860  1
  Si  Si10  1  0.340466  0.958579  0.047874  1
  Si  Si11  1  0.841587  0.542250  0.452122  1
  Si  Si12  1  0.341739  0.957539  0.452042  1
  Si  Si13  1  0.841890  0.541252  0.047902  1
  Si  Si14  1  0.658555  0.042244  0.952834  1
  Si  Si15  1  0.158430  0.457923  0.547635  1
  Si  Si16  1  0.534936  0.364991  0.750250  1
  Si  Si17  1  0.034836  0.134757  0.750041  1
  Si  Si18  1  0.465341  0.635263  0.249591  1
  Si  Si19  1  0.965569  0.865884  0.249565  1
  Si  Si20  1  0.802942  0.628017  0.750356  1
  Si  Si21  1  0.302744  0.871584  0.750178  1
  Si  Si22  1  0.196641  0.371206  0.249498  1
  Si  Si23  1  0.697735  0.128474  0.249656  1
  Mo  Mo24  1  0.830738  0.334873  0.625326  1
  Mo  Mo25  1  0.330195  0.165042  0.875055  1
  Mo  Mo26  1  0.169380  0.665160  0.125238  1
  Mo  Mo27  1  0.669816  0.835176  0.374427  1
  Mo  Mo28  1  0.169250  0.665211  0.374287  1
  Mo  Mo29  1  0.670077  0.835313  0.124969  1
  Mo  Mo30  1  0.830876  0.334163  0.875100  1
  Mo  Mo31  1  0.330539  0.164814  0.625194  1
  Mo  Mo32  1  0.666046  0.999837  0.750190  1
  Mo  Mo33  1  0.166072  0.500092  0.750185  1
  Mo  Mo34  1  0.333992  0.000791  0.249652  1
  Mo  Mo35  1  0.834078  0.499590  0.249717  1
