# generated using pymatgen
data_YbSi3AsRh6
_symmetry_space_group_name_H-M   'P 1'
_cell_length_a   7.07874273
_cell_length_b   7.07874241
_cell_length_c   3.78163700
_cell_angle_alpha   90.00000000
_cell_angle_beta   90.00000000
_cell_angle_gamma   119.75841846
_symmetry_Int_Tables_number   1
_chemical_formula_structural   YbSi3AsRh6
_chemical_formula_sum   'Yb1 Si3 As1 Rh6'
_cell_volume   164.50336551
_cell_formula_units_Z   1
loop_
 _symmetry_equiv_pos_site_id
 _symmetry_equiv_pos_as_xyz
  1  'x, y, z'
loop_
 _atom_site_type_symbol
 _atom_site_label
 _atom_site_symmetry_multiplicity
 _atom_site_fract_x
 _atom_site_fract_y
 _atom_site_fract_z
 _atom_site_occupancy
  Yb  Yb0  1  0.003503  0.996497  0.000000  1
  Si  Si1  1  0.799092  0.602671  0.500000  1
  Si  Si2  1  0.333102  0.666898  0.000000  1
  Si  Si3  1  0.397329  0.200908  0.500000  1
  As  As4  1  0.806825  0.193175  0.500000  1
  Rh  Rh5  1  0.524711  0.064791  0.000000  1
  Rh  Rh6  1  0.599588  0.795926  0.500000  1
  Rh  Rh7  1  0.204074  0.400412  0.500000  1
  Rh  Rh8  1  0.534038  0.465962  0.000000  1
  Rh  Rh9  1  0.195865  0.804135  0.500000  1
  Rh  Rh10  1  0.935209  0.475289  0.000000  1
