# generated using pymatgen
data_Dy8Sc11Si16Hg
_symmetry_space_group_name_H-M   'P 1'
_cell_length_a   7.05102458
_cell_length_b   7.40400867
_cell_length_c   14.03334200
_cell_angle_alpha   90.00000000
_cell_angle_beta   90.00000000
_cell_angle_gamma   89.88520011
_symmetry_Int_Tables_number   1
_chemical_formula_structural   Dy8Sc11Si16Hg
_chemical_formula_sum   'Dy8 Sc11 Si16 Hg1'
_cell_volume   732.62103670
_cell_formula_units_Z   1
loop_
 _symmetry_equiv_pos_site_id
 _symmetry_equiv_pos_as_xyz
  1  'x, y, z'
loop_
 _atom_site_type_symbol
 _atom_site_label
 _atom_site_symmetry_multiplicity
 _atom_site_fract_x
 _atom_site_fract_y
 _atom_site_fract_z
 _atom_site_occupancy
  Dy  Dy0  1  0.010205  0.173949  0.096917  1
  Dy  Dy1  1  0.990976  0.817266  0.901603  1
  Dy  Dy2  1  0.484288  0.673301  0.901739  1
  Dy  Dy3  1  0.990976  0.817266  0.598397  1
  Dy  Dy4  1  0.511301  0.323918  0.097165  1
  Dy  Dy5  1  0.010205  0.173949  0.403083  1
  Dy  Dy6  1  0.511301  0.323918  0.402835  1
  Dy  Dy7  1  0.484288  0.673301  0.598261  1
  Sc  Sc8  1  0.838362  0.497869  0.250000  1
  Sc  Sc9  1  0.339322  0.002774  0.250000  1
  Sc  Sc10  1  0.657824  0.998331  0.750000  1
  Sc  Sc11  1  0.325632  0.183126  0.625671  1
  Sc  Sc12  1  0.671053  0.823961  0.375057  1
  Sc  Sc13  1  0.169753  0.679892  0.373232  1
  Sc  Sc14  1  0.671053  0.823961  0.124943  1
  Sc  Sc15  1  0.837770  0.325293  0.625821  1
  Sc  Sc16  1  0.325632  0.183126  0.874329  1
  Sc  Sc17  1  0.837770  0.325293  0.874179  1
  Sc  Sc18  1  0.169753  0.679892  0.126768  1
  Si  Si19  1  0.028043  0.096108  0.750000  1
  Si  Si20  1  0.967783  0.886461  0.250000  1
  Si  Si21  1  0.467185  0.617374  0.250000  1
  Si  Si22  1  0.544332  0.379285  0.750000  1
  Si  Si23  1  0.291521  0.889290  0.750000  1
  Si  Si24  1  0.713189  0.127811  0.250000  1
  Si  Si25  1  0.212612  0.372995  0.250000  1
  Si  Si26  1  0.769769  0.630801  0.750000  1
  Si  Si27  1  0.161539  0.459347  0.528780  1
  Si  Si28  1  0.842369  0.536324  0.462029  1
  Si  Si29  1  0.344261  0.965904  0.462020  1
  Si  Si30  1  0.842369  0.536324  0.037971  1
  Si  Si31  1  0.657573  0.033207  0.540456  1
  Si  Si32  1  0.161539  0.459347  0.971220  1
  Si  Si33  1  0.657573  0.033207  0.959544  1
  Si  Si34  1  0.344261  0.965904  0.037980  1
  Hg  Hg35  1  0.156618  0.509926  0.750000  1
