# generated using pymatgen
data_Nd8Gd11PaRh16
_symmetry_space_group_name_H-M   'P 1'
_cell_length_a   7.55219884
_cell_length_b   7.61556167
_cell_length_c   14.62377900
_cell_angle_alpha   89.75537975
_cell_angle_beta   90.28256538
_cell_angle_gamma   89.87236016
_symmetry_Int_Tables_number   1
_chemical_formula_structural   Nd8Gd11PaRh16
_chemical_formula_sum   'Nd8 Gd11 Pa1 Rh16'
_cell_volume   841.05545596
_cell_formula_units_Z   1
loop_
 _symmetry_equiv_pos_site_id
 _symmetry_equiv_pos_as_xyz
  1  'x, y, z'
loop_
 _atom_site_type_symbol
 _atom_site_label
 _atom_site_symmetry_multiplicity
 _atom_site_fract_x
 _atom_site_fract_y
 _atom_site_fract_z
 _atom_site_occupancy
  Nd  Nd0  1  0.490396  0.318214  0.906138  1
  Nd  Nd1  1  0.992999  0.181369  0.592384  1
  Nd  Nd2  1  0.507773  0.680024  0.405546  1
  Nd  Nd3  1  0.006790  0.824904  0.096592  1
  Nd  Nd4  1  0.503477  0.680641  0.096925  1
  Nd  Nd5  1  0.008191  0.819401  0.405821  1
  Nd  Nd6  1  0.491038  0.318099  0.591114  1
  Nd  Nd7  1  0.996027  0.175596  0.905217  1
  Gd  Gd8  1  0.340619  0.837978  0.878494  1
  Gd  Gd9  1  0.839720  0.661233  0.622245  1
  Gd  Gd10  1  0.661943  0.162871  0.378108  1
  Gd  Gd11  1  0.159922  0.338309  0.120409  1
  Gd  Gd12  1  0.658893  0.162615  0.120637  1
  Gd  Gd13  1  0.161402  0.338227  0.378432  1
  Gd  Gd14  1  0.338631  0.838395  0.622520  1
  Gd  Gd15  1  0.185715  0.491955  0.748374  1
  Gd  Gd16  1  0.678997  0.008398  0.748002  1
  Gd  Gd17  1  0.819464  0.505428  0.250329  1
  Gd  Gd18  1  0.320485  0.996990  0.250674  1
  Pa  Pa19  1  0.839717  0.656682  0.878256  1
  Rh  Rh20  1  0.327389  0.035291  0.042491  1
  Rh  Rh21  1  0.820839  0.466153  0.457020  1
  Rh  Rh22  1  0.678213  0.967027  0.544385  1
  Rh  Rh23  1  0.157172  0.544039  0.952190  1
  Rh  Rh24  1  0.692307  0.940176  0.955851  1
  Rh  Rh25  1  0.180172  0.537079  0.543101  1
  Rh  Rh26  1  0.321338  0.034518  0.457949  1
  Rh  Rh27  1  0.809403  0.473504  0.029883  1
  Rh  Rh28  1  0.557512  0.625171  0.758934  1
  Rh  Rh29  1  0.034165  0.871284  0.758902  1
  Rh  Rh30  1  0.456465  0.382357  0.248677  1
  Rh  Rh31  1  0.955752  0.122261  0.247561  1
  Rh  Rh32  1  0.302905  0.135569  0.750022  1
  Rh  Rh33  1  0.817297  0.367131  0.757946  1
  Rh  Rh34  1  0.694861  0.861527  0.249449  1
  Rh  Rh35  1  0.192008  0.639576  0.249423  1
