# generated using pymatgen
data_Ho12Co4HgIr
_symmetry_space_group_name_H-M   'P 1'
_cell_length_a   8.23650717
_cell_length_b   8.23671936
_cell_length_c   8.23650734
_cell_angle_alpha   111.31827088
_cell_angle_beta   110.25470234
_cell_angle_gamma   106.87236508
_symmetry_Int_Tables_number   1
_chemical_formula_structural   Ho12Co4HgIr
_chemical_formula_sum   'Ho12 Co4 Hg1 Ir1'
_cell_volume   429.45547648
_cell_formula_units_Z   1
loop_
 _symmetry_equiv_pos_site_id
 _symmetry_equiv_pos_as_xyz
  1  'x, y, z'
loop_
 _atom_site_type_symbol
 _atom_site_label
 _atom_site_symmetry_multiplicity
 _atom_site_fract_x
 _atom_site_fract_y
 _atom_site_fract_z
 _atom_site_occupancy
  Ho  Ho0  1  0.315542  0.620053  0.304511  1
  Ho  Ho1  1  0.684458  0.379947  0.695489  1
  Ho  Ho2  1  0.315523  0.011015  0.695493  1
  Ho  Ho3  1  0.684477  0.988985  0.304507  1
  Ho  Ho4  1  0.182883  0.285217  0.468100  1
  Ho  Ho5  1  0.817117  0.714783  0.531900  1
  Ho  Ho6  1  0.182882  0.714783  0.897665  1
  Ho  Ho7  1  0.817118  0.285217  0.102335  1
  Ho  Ho8  1  0.412777  0.218194  0.194595  1
  Ho  Ho9  1  0.587223  0.781806  0.805405  1
  Ho  Ho10  1  0.023599  0.218194  0.805417  1
  Ho  Ho11  1  0.976401  0.781806  0.194583  1
  Co  Co12  1  0.112675  0.612689  0.500014  1
  Co  Co13  1  0.887325  0.387311  0.499986  1
  Co  Co14  1  0.377042  0.000000  0.377042  1
  Co  Co15  1  0.622958  0.000000  0.622958  1
  Hg  Hg16  1  0.500000  0.500000  0.000000  1
  Ir  Ir17  1  0.000000  0.000000  0.000000  1
