# generated using pymatgen
data_Pr12B3SCl12
_symmetry_space_group_name_H-M   'P 1'
_cell_length_a   10.05066669
_cell_length_b   10.05066511
_cell_length_c   10.05066666
_cell_angle_alpha   109.90261417
_cell_angle_beta   109.90261624
_cell_angle_gamma   109.90262143
_symmetry_Int_Tables_number   1
_chemical_formula_structural   Pr12B3SCl12
_chemical_formula_sum   'Pr12 B3 S1 Cl12'
_cell_volume   768.82425470
_cell_formula_units_Z   1
loop_
 _symmetry_equiv_pos_site_id
 _symmetry_equiv_pos_as_xyz
  1  'x, y, z'
loop_
 _atom_site_type_symbol
 _atom_site_label
 _atom_site_symmetry_multiplicity
 _atom_site_fract_x
 _atom_site_fract_y
 _atom_site_fract_z
 _atom_site_occupancy
  Pr  Pr0  1  0.478498  0.499383  0.231145  1
  Pr  Pr1  1  0.750000  0.234556  0.265444  1
  Pr  Pr2  1  0.750000  0.013668  0.486332  1
  Pr  Pr3  1  0.231145  0.478498  0.499383  1
  Pr  Pr4  1  0.265444  0.750000  0.234556  1
  Pr  Pr5  1  0.021502  0.268855  0.000617  1
  Pr  Pr6  1  0.000617  0.021502  0.268855  1
  Pr  Pr7  1  0.486332  0.750000  0.013668  1
  Pr  Pr8  1  0.499383  0.231145  0.478498  1
  Pr  Pr9  1  0.013668  0.486332  0.750000  1
  Pr  Pr10  1  0.268855  0.000617  0.021502  1
  Pr  Pr11  1  0.234556  0.265444  0.750000  1
  B  B12  1  0.496949  0.003051  0.250000  1
  B  B13  1  0.003051  0.250000  0.496949  1
  B  B14  1  0.250000  0.496949  0.003051  1
  S  S15  1  0.250000  0.250000  0.250000  1
  Cl  Cl16  1  0.250000  0.754799  0.745201  1
  Cl  Cl17  1  0.505576  0.502651  0.752792  1
  Cl  Cl18  1  0.994424  0.747208  0.997349  1
  Cl  Cl19  1  0.745201  0.250000  0.754799  1
  Cl  Cl20  1  0.997349  0.994424  0.747208  1
  Cl  Cl21  1  0.250000  0.997774  0.502226  1
  Cl  Cl22  1  0.752792  0.505576  0.502651  1
  Cl  Cl23  1  0.502226  0.250000  0.997774  1
  Cl  Cl24  1  0.754799  0.745201  0.250000  1
  Cl  Cl25  1  0.747208  0.997349  0.994424  1
  Cl  Cl26  1  0.997774  0.502226  0.250000  1
  Cl  Cl27  1  0.502651  0.752792  0.505576  1
