# generated using pymatgen
data_Ce2Zr3ScF22
_symmetry_space_group_name_H-M   'P 1'
_cell_length_a   8.40629853
_cell_length_b   8.40629926
_cell_length_c   8.45520057
_cell_angle_alpha   124.81653769
_cell_angle_beta   106.34469316
_cell_angle_gamma   98.20270206
_symmetry_Int_Tables_number   1
_chemical_formula_structural   Ce2Zr3ScF22
_chemical_formula_sum   'Ce2 Zr3 Sc1 F22'
_cell_volume   434.41389429
_cell_formula_units_Z   1
loop_
 _symmetry_equiv_pos_site_id
 _symmetry_equiv_pos_as_xyz
  1  'x, y, z'
loop_
 _atom_site_type_symbol
 _atom_site_label
 _atom_site_symmetry_multiplicity
 _atom_site_fract_x
 _atom_site_fract_y
 _atom_site_fract_z
 _atom_site_occupancy
  Ce  Ce0  1  0.748852  0.244796  0.490527  1
  Ce  Ce1  1  0.245731  0.741675  0.490527  1
  Zr  Zr2  1  0.324873  0.368463  0.693336  1
  Zr  Zr3  1  0.177993  0.867474  0.045467  1
  Zr  Zr4  1  0.812342  0.135362  0.947704  1
  Sc  Sc5  1  0.683513  0.639072  0.322585  1
  F  F6  1  0.706523  0.907100  0.349845  1
  F  F7  1  0.293210  0.095993  0.653272  1
  F  F8  1  0.557278  0.360062  0.653272  1
  F  F9  1  0.943765  0.600591  0.808597  1
  F  F10  1  0.442746  0.643322  0.349845  1
  F  F11  1  0.058137  0.394107  0.187196  1
  F  F12  1  0.793089  0.129058  0.187196  1
  F  F13  1  0.208006  0.864832  0.808597  1
  F  F14  1  0.500148  0.500562  0.000710  1
  F  F15  1  0.998654  0.002197  0.000851  1
  F  F16  1  0.779544  0.874137  0.653681  1
  F  F17  1  0.220479  0.130729  0.351208  1
  F  F18  1  0.281049  0.632123  0.913172  1
  F  F19  1  0.719610  0.370725  0.090334  1
  F  F20  1  0.960254  0.734794  0.419917  1
  F  F21  1  0.047612  0.263382  0.584351  1
  F  F22  1  0.320969  0.536739  0.584351  1
  F  F23  1  0.174149  0.757620  0.211614  1
  F  F24  1  0.685124  0.459663  0.419917  1
  F  F25  1  0.824385  0.247185  0.785156  1
  F  F26  1  0.537971  0.960771  0.785156  1
  F  F27  1  0.453994  0.037465  0.211614  1
