# generated using pymatgen
data_Dy2Y6InSn(HgAu4)2
_symmetry_space_group_name_H-M   'P 1'
_cell_length_a   8.03515500
_cell_length_b   8.03515411
_cell_length_c   7.36698300
_cell_angle_alpha   90.00000000
_cell_angle_beta   90.00000000
_cell_angle_gamma   89.89264104
_symmetry_Int_Tables_number   1
_chemical_formula_structural   Dy2Y6InSn(HgAu4)2
_chemical_formula_sum   'Dy2 Y6 In1 Sn1 Hg2 Au8'
_cell_volume   475.63890934
_cell_formula_units_Z   1
loop_
 _symmetry_equiv_pos_site_id
 _symmetry_equiv_pos_as_xyz
  1  'x, y, z'
loop_
 _atom_site_type_symbol
 _atom_site_label
 _atom_site_symmetry_multiplicity
 _atom_site_fract_x
 _atom_site_fract_y
 _atom_site_fract_z
 _atom_site_occupancy
  Dy  Dy0  1  0.178666  0.816874  0.000691  1
  Dy  Dy1  1  0.821334  0.183126  0.000691  1
  Y  Y2  1  0.840446  0.163274  0.499993  1
  Y  Y3  1  0.159554  0.836726  0.499993  1
  Y  Y4  1  0.336609  0.340317  0.000098  1
  Y  Y5  1  0.663391  0.659683  0.000098  1
  Y  Y6  1  0.683553  0.679300  0.499205  1
  Y  Y7  1  0.316447  0.320700  0.499205  1
  In  In8  1  0.500000  0.000000  0.750263  1
  Sn  Sn9  1  0.000000  0.500000  0.249772  1
  Hg  Hg10  1  0.500000  0.000000  0.249254  1
  Hg  Hg11  1  0.000000  0.500000  0.750481  1
  Au  Au12  1  0.625646  0.371138  0.269732  1
  Au  Au13  1  0.374354  0.628862  0.269732  1
  Au  Au14  1  0.130642  0.123923  0.770625  1
  Au  Au15  1  0.869358  0.876077  0.770625  1
  Au  Au16  1  0.375644  0.631163  0.731198  1
  Au  Au17  1  0.624356  0.368837  0.731198  1
  Au  Au18  1  0.871433  0.874880  0.228571  1
  Au  Au19  1  0.128567  0.125120  0.228571  1
