# generated using pymatgen
data_LaTbDy2(Mo2O7)2
_symmetry_space_group_name_H-M   'P 1'
_cell_length_a   7.46993388
_cell_length_b   7.46993472
_cell_length_c   7.49695151
_cell_angle_alpha   59.26153392
_cell_angle_beta   59.26153204
_cell_angle_gamma   58.98618044
_symmetry_Int_Tables_number   1
_chemical_formula_structural   LaTbDy2(Mo2O7)2
_chemical_formula_sum   'La1 Tb1 Dy2 Mo4 O14'
_cell_volume   290.20243408
_cell_formula_units_Z   1
loop_
 _symmetry_equiv_pos_site_id
 _symmetry_equiv_pos_as_xyz
  1  'x, y, z'
loop_
 _atom_site_type_symbol
 _atom_site_label
 _atom_site_symmetry_multiplicity
 _atom_site_fract_x
 _atom_site_fract_y
 _atom_site_fract_z
 _atom_site_occupancy
  La  La0  1  0.125000  0.125000  0.125000  1
  Tb  Tb1  1  0.125000  0.125000  0.625000  1
  Dy  Dy2  1  0.625000  0.125000  0.125000  1
  Dy  Dy3  1  0.125000  0.625000  0.125000  1
  Mo  Mo4  1  0.625000  0.625000  0.625000  1
  Mo  Mo5  1  0.125000  0.625000  0.625000  1
  Mo  Mo6  1  0.625000  0.625000  0.125000  1
  Mo  Mo7  1  0.625000  0.125000  0.625000  1
  O  O8  1  0.997898  0.997898  0.996580  1
  O  O9  1  0.252102  0.252102  0.253420  1
  O  O10  1  0.288408  0.288408  0.700065  1
  O  O11  1  0.532703  0.532703  0.969961  1
  O  O12  1  0.708337  0.288344  0.717525  1
  O  O13  1  0.702864  0.288681  0.291501  1
  O  O14  1  0.288344  0.708337  0.717525  1
  O  O15  1  0.288681  0.702864  0.291501  1
  O  O16  1  0.717297  0.717297  0.280039  1
  O  O17  1  0.961656  0.541663  0.532475  1
  O  O18  1  0.547136  0.961319  0.958499  1
  O  O19  1  0.961592  0.961592  0.549935  1
  O  O20  1  0.961319  0.547136  0.958499  1
  O  O21  1  0.541663  0.961656  0.532475  1
