# generated using pymatgen
data_ZrTi2(Cu2Si3)2
_symmetry_space_group_name_H-M   'P 1'
_cell_length_a   3.65537284
_cell_length_b   3.65537243
_cell_length_c   13.98826074
_cell_angle_alpha   97.50765538
_cell_angle_beta   97.50765762
_cell_angle_gamma   89.99999701
_symmetry_Int_Tables_number   1
_chemical_formula_structural   ZrTi2(Cu2Si3)2
_chemical_formula_sum   'Zr1 Ti2 Cu4 Si6'
_cell_volume   183.68908990
_cell_formula_units_Z   1
loop_
 _symmetry_equiv_pos_site_id
 _symmetry_equiv_pos_as_xyz
  1  'x, y, z'
loop_
 _atom_site_type_symbol
 _atom_site_label
 _atom_site_symmetry_multiplicity
 _atom_site_fract_x
 _atom_site_fract_y
 _atom_site_fract_z
 _atom_site_occupancy
  Zr  Zr0  1  0.000000  0.000000  0.000000  1
  Ti  Ti1  1  0.678662  0.678662  0.357324  1
  Ti  Ti2  1  0.321338  0.321338  0.642676  1
  Cu  Cu3  1  0.595627  0.095628  0.191254  1
  Cu  Cu4  1  0.095628  0.595627  0.191254  1
  Cu  Cu5  1  0.904372  0.404372  0.808746  1
  Cu  Cu6  1  0.404372  0.904372  0.808746  1
  Si  Si7  1  0.542265  0.542265  0.084532  1
  Si  Si8  1  0.155291  0.155291  0.310581  1
  Si  Si9  1  0.750000  0.250000  0.500000  1
  Si  Si10  1  0.250000  0.750000  0.500000  1
  Si  Si11  1  0.844709  0.844709  0.689419  1
  Si  Si12  1  0.457735  0.457735  0.915468  1
