# generated using pymatgen
data_HfTa2B2Ru5
_symmetry_space_group_name_H-M   'P 1'
_cell_length_a   9.45042130
_cell_length_b   9.45042130
_cell_length_c   3.06510700
_cell_angle_alpha   90.00000000
_cell_angle_beta   90.00000000
_cell_angle_gamma   90.13226553
_symmetry_Int_Tables_number   1
_chemical_formula_structural   HfTa2B2Ru5
_chemical_formula_sum   'Hf2 Ta4 B4 Ru10'
_cell_volume   273.74539486
_cell_formula_units_Z   2
loop_
 _symmetry_equiv_pos_site_id
 _symmetry_equiv_pos_as_xyz
  1  'x, y, z'
loop_
 _atom_site_type_symbol
 _atom_site_label
 _atom_site_symmetry_multiplicity
 _atom_site_fract_x
 _atom_site_fract_y
 _atom_site_fract_z
 _atom_site_occupancy
  Hf  Hf0  1  0.824248  0.675752  0.000000  1
  Hf  Hf1  1  0.175752  0.324248  0.000000  1
  Ta  Ta2  1  0.323960  0.823960  0.000000  1
  Ta  Ta3  1  0.676040  0.176040  0.000000  1
  Ta  Ta4  1  0.500000  0.500000  0.000000  1
  Ta  Ta5  1  0.000000  0.000000  0.000000  1
  B  B6  1  0.621394  0.878606  0.000000  1
  B  B7  1  0.378606  0.121394  0.000000  1
  B  B8  1  0.121373  0.621373  0.000000  1
  B  B9  1  0.878627  0.378627  0.000000  1
  Ru  Ru10  1  0.567933  0.719331  0.500000  1
  Ru  Ru11  1  0.432067  0.280669  0.500000  1
  Ru  Ru12  1  0.074053  0.783016  0.500000  1
  Ru  Ru13  1  0.925947  0.216984  0.500000  1
  Ru  Ru14  1  0.283016  0.574053  0.500000  1
  Ru  Ru15  1  0.716984  0.425947  0.500000  1
  Ru  Ru16  1  0.219331  0.067933  0.500000  1
  Ru  Ru17  1  0.780669  0.932067  0.500000  1
  Ru  Ru18  1  0.500000  0.000000  0.500000  1
  Ru  Ru19  1  0.000000  0.500000  0.500000  1
