# generated using pymatgen
data_Er6OsO12
_symmetry_space_group_name_H-M   'P 1'
_cell_length_a   6.41667439
_cell_length_b   6.41667421
_cell_length_c   6.41667365
_cell_angle_alpha   98.67780399
_cell_angle_beta   98.67781187
_cell_angle_gamma   98.67780669
_symmetry_Int_Tables_number   1
_chemical_formula_structural   Er6OsO12
_chemical_formula_sum   'Er6 Os1 O12'
_cell_volume   254.07553789
_cell_formula_units_Z   1
loop_
 _symmetry_equiv_pos_site_id
 _symmetry_equiv_pos_as_xyz
  1  'x, y, z'
loop_
 _atom_site_type_symbol
 _atom_site_label
 _atom_site_symmetry_multiplicity
 _atom_site_fract_x
 _atom_site_fract_y
 _atom_site_fract_z
 _atom_site_occupancy
  Er  Er0  1  0.855811  0.388828  0.684255  1
  Er  Er1  1  0.611172  0.315745  0.144189  1
  Er  Er2  1  0.315745  0.144189  0.611172  1
  Er  Er3  1  0.684255  0.855811  0.388828  1
  Er  Er4  1  0.388828  0.684255  0.855811  1
  Er  Er5  1  0.144189  0.611172  0.315745  1
  Os  Os6  1  0.000000  0.000000  0.000000  1
  O  O7  1  0.926940  0.035575  0.700869  1
  O  O8  1  0.964425  0.299131  0.073060  1
  O  O9  1  0.590929  0.177315  0.432488  1
  O  O10  1  0.822685  0.567512  0.409071  1
  O  O11  1  0.299131  0.073060  0.964425  1
  O  O12  1  0.567512  0.409071  0.822685  1
  O  O13  1  0.432488  0.590929  0.177315  1
  O  O14  1  0.700869  0.926940  0.035575  1
  O  O15  1  0.177315  0.432488  0.590929  1
  O  O16  1  0.409071  0.822685  0.567512  1
  O  O17  1  0.035575  0.700869  0.926940  1
  O  O18  1  0.073060  0.964425  0.299131  1
