# generated using pymatgen
data_Y8Ti9Si16Mo3
_symmetry_space_group_name_H-M   'P 1'
_cell_length_a   7.02389321
_cell_length_b   7.02389346
_cell_length_c   12.91238600
_cell_angle_alpha   89.98685911
_cell_angle_beta   90.01314105
_cell_angle_gamma   89.98961047
_symmetry_Int_Tables_number   1
_chemical_formula_structural   Y8Ti9Si16Mo3
_chemical_formula_sum   'Y8 Ti9 Si16 Mo3'
_cell_volume   637.03352175
_cell_formula_units_Z   1
loop_
 _symmetry_equiv_pos_site_id
 _symmetry_equiv_pos_as_xyz
  1  'x, y, z'
loop_
 _atom_site_type_symbol
 _atom_site_label
 _atom_site_symmetry_multiplicity
 _atom_site_fract_x
 _atom_site_fract_y
 _atom_site_fract_z
 _atom_site_occupancy
  Y  Y0  1  0.997934  0.660032  0.033453  1
  Y  Y1  1  0.000437  0.340408  0.533054  1
  Y  Y2  1  0.660032  0.997934  0.966547  1
  Y  Y3  1  0.158526  0.501350  0.781835  1
  Y  Y4  1  0.841020  0.499634  0.283304  1
  Y  Y5  1  0.501350  0.158526  0.218165  1
  Y  Y6  1  0.499634  0.841020  0.716696  1
  Y  Y7  1  0.340408  0.000437  0.466946  1
  Ti  Ti8  1  0.347044  0.509197  0.374417  1
  Ti  Ti9  1  0.847287  0.990896  0.376402  1
  Ti  Ti10  1  0.008501  0.151930  0.124772  1
  Ti  Ti11  1  0.990896  0.847287  0.623598  1
  Ti  Ti12  1  0.509197  0.347044  0.625583  1
  Ti  Ti13  1  0.151930  0.008501  0.875228  1
  Ti  Ti14  1  0.326862  0.326862  0.000000  1
  Ti  Ti15  1  0.491671  0.653776  0.127448  1
  Ti  Ti16  1  0.653776  0.491671  0.872552  1
  Si  Si17  1  0.046971  0.708743  0.435018  1
  Si  Si18  1  0.951918  0.291748  0.934069  1
  Si  Si19  1  0.708743  0.046971  0.564982  1
  Si  Si20  1  0.209129  0.453302  0.184917  1
  Si  Si21  1  0.791194  0.547701  0.684569  1
  Si  Si22  1  0.453302  0.209129  0.815083  1
  Si  Si23  1  0.547701  0.791194  0.315431  1
  Si  Si24  1  0.291748  0.951918  0.065931  1
  Si  Si25  1  0.798471  0.870764  0.184773  1
  Si  Si26  1  0.299078  0.629873  0.565322  1
  Si  Si27  1  0.702032  0.370025  0.065210  1
  Si  Si28  1  0.629873  0.299078  0.434678  1
  Si  Si29  1  0.370025  0.702032  0.934790  1
  Si  Si30  1  0.129383  0.201066  0.314965  1
  Si  Si31  1  0.201066  0.129383  0.685035  1
  Si  Si32  1  0.870764  0.798471  0.815227  1
  Mo  Mo33  1  0.673054  0.673054  0.500000  1
  Mo  Mo34  1  0.826113  0.172928  0.749291  1
  Mo  Mo35  1  0.172928  0.826113  0.250709  1
