# generated using pymatgen
data_Cs4NaMnS4
_symmetry_space_group_name_H-M   'P 1'
_cell_length_a   8.66683913
_cell_length_b   8.66683803
_cell_length_c   8.66683811
_cell_angle_alpha   132.51161106
_cell_angle_beta   131.54583970
_cell_angle_gamma   70.18655823
_symmetry_Int_Tables_number   1
_chemical_formula_structural   Cs4NaMnS4
_chemical_formula_sum   'Cs4 Na1 Mn1 S4'
_cell_volume   352.04760899
_cell_formula_units_Z   1
loop_
 _symmetry_equiv_pos_site_id
 _symmetry_equiv_pos_as_xyz
  1  'x, y, z'
loop_
 _atom_site_type_symbol
 _atom_site_label
 _atom_site_symmetry_multiplicity
 _atom_site_fract_x
 _atom_site_fract_y
 _atom_site_fract_z
 _atom_site_occupancy
  Cs  Cs0  1  0.518152  0.858836  0.672155  1
  Cs  Cs1  1  0.481848  0.154002  0.340683  1
  Cs  Cs2  1  0.813319  0.641164  0.159317  1
  Cs  Cs3  1  0.186681  0.345998  0.827845  1
  Na  Na4  1  0.000000  0.250000  0.250000  1
  Mn  Mn5  1  0.000000  0.750000  0.750000  1
  S  S6  1  0.063048  0.855860  0.118391  1
  S  S7  1  0.737469  0.444656  0.381609  1
  S  S8  1  0.936952  0.055344  0.792813  1
  S  S9  1  0.262532  0.644140  0.707187  1
