# generated using pymatgen
data_La3TbLuP12Ru19
_symmetry_space_group_name_H-M   'P 1'
_cell_length_a   4.02151700
_cell_length_b   12.63084167
_cell_length_c   12.62971419
_cell_angle_alpha   120.00258914
_cell_angle_beta   90.00000000
_cell_angle_gamma   90.00000000
_symmetry_Int_Tables_number   1
_chemical_formula_structural   La3TbLuP12Ru19
_chemical_formula_sum   'La3 Tb1 Lu1 P12 Ru19'
_cell_volume   555.56518587
_cell_formula_units_Z   1
loop_
 _symmetry_equiv_pos_site_id
 _symmetry_equiv_pos_as_xyz
  1  'x, y, z'
loop_
 _atom_site_type_symbol
 _atom_site_label
 _atom_site_symmetry_multiplicity
 _atom_site_fract_x
 _atom_site_fract_y
 _atom_site_fract_z
 _atom_site_occupancy
  La  La0  1  0.500000  0.000055  0.183233  1
  La  La1  1  0.500000  0.183160  0.999932  1
  La  La2  1  0.500000  0.816759  0.816831  1
  Tb  Tb3  1  0.000000  0.666658  0.333354  1
  Lu  Lu4  1  0.000000  0.333290  0.666621  1
  P  P5  1  0.000000  0.000209  0.809717  1
  P  P6  1  0.000000  0.809524  0.999789  1
  P  P7  1  0.000000  0.190279  0.190493  1
  P  P8  1  0.500000  0.304183  0.479605  1
  P  P9  1  0.500000  0.175364  0.695787  1
  P  P10  1  0.500000  0.520399  0.824613  1
  P  P11  1  0.500000  0.825330  0.521317  1
  P  P12  1  0.500000  0.478662  0.304047  1
  P  P13  1  0.500000  0.695950  0.174633  1
  P  P14  1  0.000000  0.999874  0.375136  1
  P  P15  1  0.000000  0.375329  0.000147  1
  P  P16  1  0.000000  0.624886  0.624714  1
  Ru  Ru17  1  0.000000  0.999961  0.553965  1
  Ru  Ru18  1  0.000000  0.554055  0.000034  1
  Ru  Ru19  1  0.000000  0.446032  0.446010  1
  Ru  Ru20  1  0.500000  0.000317  0.711513  1
  Ru  Ru21  1  0.500000  0.711197  0.999664  1
  Ru  Ru22  1  0.500000  0.288467  0.288823  1
  Ru  Ru23  1  0.000000  0.196696  0.383118  1
  Ru  Ru24  1  0.000000  0.186432  0.803339  1
  Ru  Ru25  1  0.000000  0.616926  0.813556  1
  Ru  Ru26  1  0.000000  0.814306  0.618172  1
  Ru  Ru27  1  0.000000  0.381807  0.196102  1
  Ru  Ru28  1  0.000000  0.803912  0.185712  1
  Ru  Ru29  1  0.500000  0.126934  0.495551  1
  Ru  Ru30  1  0.500000  0.368590  0.873025  1
  Ru  Ru31  1  0.500000  0.504404  0.631415  1
  Ru  Ru32  1  0.500000  0.631289  0.506143  1
  Ru  Ru33  1  0.500000  0.493880  0.125192  1
  Ru  Ru34  1  0.500000  0.874778  0.368695  1
  Ru  Ru35  1  0.000000  0.000007  0.999999  1
