# generated using pymatgen
data_Dy2Ho3Rh5
_symmetry_space_group_name_H-M   'P 1'
_cell_length_a   3.42799100
_cell_length_b   3.42799100
_cell_length_c   17.12426400
_cell_angle_alpha   90.00000000
_cell_angle_beta   90.00000000
_cell_angle_gamma   90.00000000
_symmetry_Int_Tables_number   1
_chemical_formula_structural   Dy2Ho3Rh5
_chemical_formula_sum   'Dy2 Ho3 Rh5'
_cell_volume   201.22932049
_cell_formula_units_Z   1
loop_
 _symmetry_equiv_pos_site_id
 _symmetry_equiv_pos_as_xyz
  1  'x, y, z'
loop_
 _atom_site_type_symbol
 _atom_site_label
 _atom_site_symmetry_multiplicity
 _atom_site_fract_x
 _atom_site_fract_y
 _atom_site_fract_z
 _atom_site_occupancy
  Dy  Dy0  1  0.000000  0.000000  0.000573  1
  Dy  Dy1  1  0.000000  0.000000  0.799811  1
  Ho  Ho2  1  0.000000  0.000000  0.200327  1
  Ho  Ho3  1  0.000000  0.000000  0.399864  1
  Ho  Ho4  1  0.000000  0.000000  0.599361  1
  Rh  Rh5  1  0.500000  0.500000  0.100949  1
  Rh  Rh6  1  0.500000  0.500000  0.300069  1
  Rh  Rh7  1  0.500000  0.500000  0.499589  1
  Rh  Rh8  1  0.500000  0.500000  0.698542  1
  Rh  Rh9  1  0.500000  0.500000  0.900915  1
