# generated using pymatgen
data_Dy9Ho(Pb3O)2
_symmetry_space_group_name_H-M   'P 1'
_cell_length_a   9.11840831
_cell_length_b   9.11393853
_cell_length_c   9.11788262
_cell_angle_alpha   125.76481854
_cell_angle_beta   125.77918203
_cell_angle_gamma   80.25045259
_symmetry_Int_Tables_number   1
_chemical_formula_structural   Dy9Ho(Pb3O)2
_chemical_formula_sum   'Dy9 Ho1 Pb6 O2'
_cell_volume   481.40635311
_cell_formula_units_Z   1
loop_
 _symmetry_equiv_pos_site_id
 _symmetry_equiv_pos_as_xyz
  1  'x, y, z'
loop_
 _atom_site_type_symbol
 _atom_site_label
 _atom_site_symmetry_multiplicity
 _atom_site_fract_x
 _atom_site_fract_y
 _atom_site_fract_z
 _atom_site_occupancy
  Dy  Dy0  1  0.998406  0.199158  0.500000  1
  Dy  Dy1  1  0.800847  0.300858  0.799255  1
  Dy  Dy2  1  0.498421  0.998355  0.799242  1
  Dy  Dy3  1  0.501592  0.001603  0.200745  1
  Dy  Dy4  1  0.001610  0.800805  0.500000  1
  Dy  Dy5  1  0.499980  0.500021  0.999927  1
  Dy  Dy6  1  0.199179  0.699113  0.200758  1
  Dy  Dy7  1  0.699040  0.498439  0.500000  1
  Dy  Dy8  1  0.000053  0.000094  0.000073  1
  Ho  Ho9  1  0.300493  0.502138  0.500000  1
  Pb  Pb10  1  0.852192  0.352056  0.204121  1
  Pb  Pb11  1  0.148071  0.647935  0.795879  1
  Pb  Pb12  1  0.351974  0.148251  0.500000  1
  Pb  Pb13  1  0.749892  0.749928  0.999849  1
  Pb  Pb14  1  0.648003  0.851995  0.500000  1
  Pb  Pb15  1  0.250043  0.250079  0.000151  1
  O  O16  1  0.750000  0.249995  0.500000  1
  O  O17  1  0.250204  0.749177  0.500000  1
