# generated using pymatgen
data_Yb3ErReOs7
_symmetry_space_group_name_H-M   'P 1'
_cell_length_a   5.37010000
_cell_length_b   5.37009948
_cell_length_c   8.56425000
_cell_angle_alpha   90.00000000
_cell_angle_beta   90.00000000
_cell_angle_gamma   119.99999087
_symmetry_Int_Tables_number   1
_chemical_formula_structural   Yb3ErReOs7
_chemical_formula_sum   'Yb3 Er1 Re1 Os7'
_cell_volume   213.88715914
_cell_formula_units_Z   1
loop_
 _symmetry_equiv_pos_site_id
 _symmetry_equiv_pos_as_xyz
  1  'x, y, z'
loop_
 _atom_site_type_symbol
 _atom_site_label
 _atom_site_symmetry_multiplicity
 _atom_site_fract_x
 _atom_site_fract_y
 _atom_site_fract_z
 _atom_site_occupancy
  Yb  Yb0  1  0.666667  0.333333  0.571587  1
  Yb  Yb1  1  0.666667  0.333333  0.935701  1
  Yb  Yb2  1  0.333333  0.666667  0.059834  1
  Er  Er3  1  0.333333  0.666667  0.430177  1
  Re  Re4  1  0.000000  0.000000  0.500359  1
  Os  Os5  1  0.000000  0.000000  0.001837  1
  Os  Os6  1  0.826633  0.173367  0.252188  1
  Os  Os7  1  0.826633  0.653266  0.252188  1
  Os  Os8  1  0.346734  0.173367  0.252188  1
  Os  Os9  1  0.172789  0.827211  0.747980  1
  Os  Os10  1  0.172789  0.345578  0.747980  1
  Os  Os11  1  0.654422  0.827211  0.747980  1
