# generated using pymatgen
data_TbCo2P3Ir2Rh
_symmetry_space_group_name_H-M   'P 1'
_cell_length_a   3.86023300
_cell_length_b   10.58164700
_cell_length_c   12.25221100
_cell_angle_alpha   90.00000000
_cell_angle_beta   90.00000000
_cell_angle_gamma   90.00000000
_symmetry_Int_Tables_number   1
_chemical_formula_structural   TbCo2P3Ir2Rh
_chemical_formula_sum   'Tb4 Co8 P12 Ir8 Rh4'
_cell_volume   500.47369516
_cell_formula_units_Z   4
loop_
 _symmetry_equiv_pos_site_id
 _symmetry_equiv_pos_as_xyz
  1  'x, y, z'
loop_
 _atom_site_type_symbol
 _atom_site_label
 _atom_site_symmetry_multiplicity
 _atom_site_fract_x
 _atom_site_fract_y
 _atom_site_fract_z
 _atom_site_occupancy
  Tb  Tb0  1  0.250000  0.583481  0.710535  1
  Tb  Tb1  1  0.250000  0.916519  0.210535  1
  Tb  Tb2  1  0.750000  0.416519  0.289465  1
  Tb  Tb3  1  0.750000  0.083481  0.789465  1
  Co  Co4  1  0.250000  0.882975  0.696375  1
  Co  Co5  1  0.250000  0.617025  0.196375  1
  Co  Co6  1  0.750000  0.117025  0.303625  1
  Co  Co7  1  0.750000  0.382975  0.803625  1
  Co  Co8  1  0.250000  0.463459  0.933517  1
  Co  Co9  1  0.250000  0.036541  0.433517  1
  Co  Co10  1  0.750000  0.536541  0.066483  1
  Co  Co11  1  0.750000  0.963459  0.566483  1
  P  P12  1  0.250000  0.431636  0.110161  1
  P  P13  1  0.250000  0.068364  0.610161  1
  P  P14  1  0.750000  0.568364  0.889839  1
  P  P15  1  0.750000  0.931636  0.389839  1
  P  P16  1  0.250000  0.274402  0.870129  1
  P  P17  1  0.250000  0.225598  0.370129  1
  P  P18  1  0.750000  0.725598  0.129871  1
  P  P19  1  0.750000  0.774402  0.629871  1
  P  P20  1  0.250000  0.599789  0.378395  1
  P  P21  1  0.250000  0.900211  0.878395  1
  P  P22  1  0.750000  0.400211  0.621605  1
  P  P23  1  0.750000  0.099789  0.121605  1
  Ir  Ir24  1  0.250000  0.409434  0.476023  1
  Ir  Ir25  1  0.250000  0.090566  0.976023  1
  Ir  Ir26  1  0.750000  0.590566  0.523977  1
  Ir  Ir27  1  0.750000  0.909434  0.023977  1
  Ir  Ir28  1  0.250000  0.225305  0.179247  1
  Ir  Ir29  1  0.250000  0.274695  0.679247  1
  Ir  Ir30  1  0.750000  0.774695  0.820753  1
  Ir  Ir31  1  0.750000  0.725305  0.320753  1
  Rh  Rh32  1  0.250000  0.719808  0.989404  1
  Rh  Rh33  1  0.250000  0.780192  0.489404  1
  Rh  Rh34  1  0.750000  0.280192  0.010596  1
  Rh  Rh35  1  0.750000  0.219808  0.510596  1
