# generated using pymatgen
data_Nd4InB4Rh9
_symmetry_space_group_name_H-M   'P 1'
_cell_length_a   5.61534900
_cell_length_b   5.61534893
_cell_length_c   21.01507400
_cell_angle_alpha   90.00000000
_cell_angle_beta   90.00000000
_cell_angle_gamma   120.00328173
_symmetry_Int_Tables_number   1
_chemical_formula_structural   Nd4InB4Rh9
_chemical_formula_sum   'Nd8 In2 B8 Rh18'
_cell_volume   573.85304943
_cell_formula_units_Z   2
loop_
 _symmetry_equiv_pos_site_id
 _symmetry_equiv_pos_as_xyz
  1  'x, y, z'
loop_
 _atom_site_type_symbol
 _atom_site_label
 _atom_site_symmetry_multiplicity
 _atom_site_fract_x
 _atom_site_fract_y
 _atom_site_fract_z
 _atom_site_occupancy
  Nd  Nd0  1  0.666670  0.333330  0.524840  1
  Nd  Nd1  1  0.333330  0.666670  0.475160  1
  Nd  Nd2  1  0.333330  0.666670  0.024840  1
  Nd  Nd3  1  0.666670  0.333330  0.975160  1
  Nd  Nd4  1  0.666659  0.333341  0.675344  1
  Nd  Nd5  1  0.333341  0.666659  0.324656  1
  Nd  Nd6  1  0.333341  0.666659  0.175344  1
  Nd  Nd7  1  0.666659  0.333341  0.824656  1
  In  In8  1  0.000000  0.000000  0.500000  1
  In  In9  1  0.000000  0.000000  0.000000  1
  B  B10  1  0.999981  0.000019  0.675635  1
  B  B11  1  0.000019  0.999981  0.324365  1
  B  B12  1  0.000019  0.999981  0.175635  1
  B  B13  1  0.999981  0.000019  0.824365  1
  B  B14  1  0.666708  0.333292  0.324397  1
  B  B15  1  0.333292  0.666708  0.675603  1
  B  B16  1  0.333292  0.666708  0.824397  1
  B  B17  1  0.666708  0.333292  0.175603  1
  Rh  Rh18  1  0.166732  0.333511  0.750000  1
  Rh  Rh19  1  0.166724  0.833276  0.750000  1
  Rh  Rh20  1  0.666489  0.833268  0.750000  1
  Rh  Rh21  1  0.833268  0.666489  0.250000  1
  Rh  Rh22  1  0.833276  0.166724  0.250000  1
  Rh  Rh23  1  0.333511  0.166732  0.250000  1
  Rh  Rh24  1  0.167186  0.334465  0.608705  1
  Rh  Rh25  1  0.167174  0.832826  0.608708  1
  Rh  Rh26  1  0.665535  0.832814  0.608705  1
  Rh  Rh27  1  0.832814  0.665535  0.391295  1
  Rh  Rh28  1  0.832826  0.167174  0.391292  1
  Rh  Rh29  1  0.334465  0.167186  0.391295  1
  Rh  Rh30  1  0.832814  0.665535  0.108705  1
  Rh  Rh31  1  0.832826  0.167174  0.108708  1
  Rh  Rh32  1  0.334465  0.167186  0.108705  1
  Rh  Rh33  1  0.167186  0.334465  0.891295  1
  Rh  Rh34  1  0.167174  0.832826  0.891292  1
  Rh  Rh35  1  0.665535  0.832814  0.891295  1
