# generated using pymatgen
data_Cs3Tb(VS4)2
_symmetry_space_group_name_H-M   'P 1'
_cell_length_a   10.09738486
_cell_length_b   7.05052600
_cell_length_c   12.09846766
_cell_angle_alpha   90.00000000
_cell_angle_beta   89.31260357
_cell_angle_gamma   90.00000000
_symmetry_Int_Tables_number   1
_chemical_formula_structural   Cs3Tb(VS4)2
_chemical_formula_sum   'Cs6 Tb2 V4 S16'
_cell_volume   861.25060511
_cell_formula_units_Z   2
loop_
 _symmetry_equiv_pos_site_id
 _symmetry_equiv_pos_as_xyz
  1  'x, y, z'
loop_
 _atom_site_type_symbol
 _atom_site_label
 _atom_site_symmetry_multiplicity
 _atom_site_fract_x
 _atom_site_fract_y
 _atom_site_fract_z
 _atom_site_occupancy
  Cs  Cs0  1  0.370829  0.803992  0.080924  1
  Cs  Cs1  1  0.401327  0.307295  0.342687  1
  Cs  Cs2  1  0.849024  0.306889  0.439040  1
  Cs  Cs3  1  0.150976  0.806889  0.560961  1
  Cs  Cs4  1  0.598673  0.807295  0.657313  1
  Cs  Cs5  1  0.629172  0.303992  0.919076  1
  Tb  Tb6  1  0.892302  0.781237  0.142427  1
  Tb  Tb7  1  0.107698  0.281237  0.857573  1
  V  V8  1  0.082794  0.336339  0.146087  1
  V  V9  1  0.646331  0.805355  0.309612  1
  V  V10  1  0.353669  0.305354  0.690388  1
  V  V11  1  0.917206  0.836339  0.853913  1
  S  S12  1  0.932565  0.404374  0.028407  1
  S  S13  1  0.264962  0.305444  0.051578  1
  S  S14  1  0.679601  0.039388  0.197421  1
  S  S15  1  0.669899  0.557560  0.203906  1
  S  S16  1  0.044878  0.078589  0.238303  1
  S  S17  1  0.090855  0.578491  0.255346  1
  S  S18  1  0.456857  0.813692  0.389344  1
  S  S19  1  0.815429  0.803635  0.415943  1
  S  S20  1  0.184572  0.303634  0.584057  1
  S  S21  1  0.543142  0.313691  0.610656  1
  S  S22  1  0.909145  0.078490  0.744654  1
  S  S23  1  0.955122  0.578589  0.761697  1
  S  S24  1  0.330101  0.057561  0.796094  1
  S  S25  1  0.320399  0.539386  0.802579  1
  S  S26  1  0.735037  0.805445  0.948422  1
  S  S27  1  0.067435  0.904374  0.971592  1
