# generated using pymatgen
data_Pr3Dy2Zr2P12Ir17
_symmetry_space_group_name_H-M   'P 1'
_cell_length_a   12.71738500
_cell_length_b   12.96570107
_cell_length_c   4.02498800
_cell_angle_alpha   90.00000000
_cell_angle_beta   90.00000000
_cell_angle_gamma   119.36845883
_symmetry_Int_Tables_number   1
_chemical_formula_structural   Pr3Dy2Zr2P12Ir17
_chemical_formula_sum   'Pr3 Dy2 Zr2 P12 Ir17'
_cell_volume   578.38602639
_cell_formula_units_Z   1
loop_
 _symmetry_equiv_pos_site_id
 _symmetry_equiv_pos_as_xyz
  1  'x, y, z'
loop_
 _atom_site_type_symbol
 _atom_site_label
 _atom_site_symmetry_multiplicity
 _atom_site_fract_x
 _atom_site_fract_y
 _atom_site_fract_z
 _atom_site_occupancy
  Pr  Pr0  1  0.002089  0.814807  0.000000  1
  Pr  Pr1  1  0.187282  0.185193  0.000000  1
  Pr  Pr2  1  0.813099  0.000000  0.000000  1
  Dy  Dy3  1  0.329582  0.660649  0.500000  1
  Dy  Dy4  1  0.668934  0.339351  0.500000  1
  Zr  Zr5  1  0.996718  0.445854  0.500000  1
  Zr  Zr6  1  0.550864  0.554146  0.500000  1
  P  P7  1  0.004919  0.646717  0.500000  1
  P  P8  1  0.358202  0.353283  0.500000  1
  P  P9  1  0.641976  0.000000  0.500000  1
  P  P10  1  0.514248  0.686712  0.000000  1
  P  P11  1  0.308233  0.822319  0.000000  1
  P  P12  1  0.164486  0.480755  0.000000  1
  P  P13  1  0.485913  0.177681  0.000000  1
  P  P14  1  0.683731  0.519245  0.000000  1
  P  P15  1  0.827535  0.313288  0.000000  1
  P  P16  1  0.999789  0.176964  0.500000  1
  P  P17  1  0.822824  0.823036  0.500000  1
  P  P18  1  0.185155  0.000000  0.500000  1
  Ir  Ir19  1  0.503600  0.864493  0.000000  1
  Ir  Ir20  1  0.127254  0.642525  0.000000  1
  Ir  Ir21  1  0.355096  0.496606  0.000000  1
  Ir  Ir22  1  0.484729  0.357475  0.000000  1
  Ir  Ir23  1  0.858491  0.503394  0.000000  1
  Ir  Ir24  1  0.639108  0.135507  0.000000  1
  Ir  Ir25  1  0.463706  0.000000  0.500000  1
  Ir  Ir26  1  0.996430  0.280029  0.000000  1
  Ir  Ir27  1  0.716402  0.719971  0.000000  1
  Ir  Ir28  1  0.295143  0.000000  0.000000  1
  Ir  Ir29  1  0.619490  0.805019  0.500000  1
  Ir  Ir30  1  0.208536  0.825522  0.500000  1
  Ir  Ir31  1  0.177609  0.370407  0.500000  1
  Ir  Ir32  1  0.383014  0.174478  0.500000  1
  Ir  Ir33  1  0.807202  0.629593  0.500000  1
  Ir  Ir34  1  0.814471  0.194981  0.500000  1
  Ir  Ir35  1  0.004142  0.000000  0.500000  1
