# generated using pymatgen
data_Hf6Ti4Ga4SiGe
_symmetry_space_group_name_H-M   'P 1'
_cell_length_a   7.85749200
_cell_length_b   7.84161992
_cell_length_c   5.41651600
_cell_angle_alpha   90.00000000
_cell_angle_beta   90.00000000
_cell_angle_gamma   120.06697869
_symmetry_Int_Tables_number   1
_chemical_formula_structural   Hf6Ti4Ga4SiGe
_chemical_formula_sum   'Hf6 Ti4 Ga4 Si1 Ge1'
_cell_volume   288.83305085
_cell_formula_units_Z   1
loop_
 _symmetry_equiv_pos_site_id
 _symmetry_equiv_pos_as_xyz
  1  'x, y, z'
loop_
 _atom_site_type_symbol
 _atom_site_label
 _atom_site_symmetry_multiplicity
 _atom_site_fract_x
 _atom_site_fract_y
 _atom_site_fract_z
 _atom_site_occupancy
  Hf  Hf0  1  0.250235  0.000000  0.250000  1
  Hf  Hf1  1  0.751793  0.000000  0.750000  1
  Hf  Hf2  1  0.998664  0.241719  0.250000  1
  Hf  Hf3  1  0.997879  0.756268  0.750000  1
  Hf  Hf4  1  0.756945  0.758281  0.250000  1
  Hf  Hf5  1  0.241610  0.243732  0.750000  1
  Ti  Ti6  1  0.335642  0.670160  0.001840  1
  Ti  Ti7  1  0.665483  0.329840  0.001840  1
  Ti  Ti8  1  0.665483  0.329840  0.498160  1
  Ti  Ti9  1  0.335642  0.670160  0.498160  1
  Ga  Ga10  1  0.999611  0.600429  0.250000  1
  Ga  Ga11  1  0.000588  0.400600  0.750000  1
  Ga  Ga12  1  0.399182  0.399571  0.250000  1
  Ga  Ga13  1  0.599987  0.599400  0.750000  1
  Si  Si14  1  0.605746  0.000000  0.250000  1
  Ge  Ge15  1  0.395509  0.000000  0.750000  1
