# generated using pymatgen
data_Tb4Sm(ThSe4)3
_symmetry_space_group_name_H-M   'P 1'
_cell_length_a   11.26080639
_cell_length_b   4.09858400
_cell_length_c   11.05531628
_cell_angle_alpha   90.00000000
_cell_angle_beta   89.82959881
_cell_angle_gamma   90.00000000
_symmetry_Int_Tables_number   1
_chemical_formula_structural   Tb4Sm(ThSe4)3
_chemical_formula_sum   'Tb4 Sm1 Th3 Se12'
_cell_volume   510.23774567
_cell_formula_units_Z   1
loop_
 _symmetry_equiv_pos_site_id
 _symmetry_equiv_pos_as_xyz
  1  'x, y, z'
loop_
 _atom_site_type_symbol
 _atom_site_label
 _atom_site_symmetry_multiplicity
 _atom_site_fract_x
 _atom_site_fract_y
 _atom_site_fract_z
 _atom_site_occupancy
  Tb  Tb0  1  0.484676  0.250000  0.187863  1
  Tb  Tb1  1  0.983176  0.250000  0.314152  1
  Tb  Tb2  1  0.517320  0.750000  0.811679  1
  Tb  Tb3  1  0.013723  0.750000  0.685546  1
  Sm  Sm4  1  0.696924  0.750000  0.495819  1
  Th  Th5  1  0.197185  0.750000  0.999272  1
  Th  Th6  1  0.305750  0.250000  0.501571  1
  Th  Th7  1  0.801942  0.250000  0.003508  1
  Se  Se8  1  0.546701  0.250000  0.627287  1
  Se  Se9  1  0.045854  0.250000  0.872079  1
  Se  Se10  1  0.452672  0.750000  0.371655  1
  Se  Se11  1  0.954953  0.750000  0.128115  1
  Se  Se12  1  0.614961  0.750000  0.055107  1
  Se  Se13  1  0.117616  0.750000  0.445131  1
  Se  Se14  1  0.384492  0.250000  0.944742  1
  Se  Se15  1  0.881170  0.250000  0.554329  1
  Se  Se16  1  0.726325  0.250000  0.293931  1
  Se  Se17  1  0.224633  0.250000  0.201583  1
  Se  Se18  1  0.273359  0.750000  0.704506  1
  Se  Se19  1  0.776567  0.750000  0.802126  1
