# generated using pymatgen
data_HoPa3Tc7Sb6
_symmetry_space_group_name_H-M   'P 1'
_cell_length_a   7.62171804
_cell_length_b   7.59253743
_cell_length_c   7.59253600
_cell_angle_alpha   109.39323303
_cell_angle_beta   109.54909465
_cell_angle_gamma   109.54909816
_symmetry_Int_Tables_number   1
_chemical_formula_structural   HoPa3Tc7Sb6
_chemical_formula_sum   'Ho1 Pa3 Tc7 Sb6'
_cell_volume   337.89867405
_cell_formula_units_Z   1
loop_
 _symmetry_equiv_pos_site_id
 _symmetry_equiv_pos_as_xyz
  1  'x, y, z'
loop_
 _atom_site_type_symbol
 _atom_site_label
 _atom_site_symmetry_multiplicity
 _atom_site_fract_x
 _atom_site_fract_y
 _atom_site_fract_z
 _atom_site_occupancy
  Ho  Ho0  1  0.500000  0.000000  0.000000  1
  Pa  Pa1  1  0.500000  0.500000  0.500000  1
  Pa  Pa2  1  0.000000  0.000000  0.500000  1
  Pa  Pa3  1  0.000000  0.500000  0.000000  1
  Tc  Tc4  1  0.753565  0.253565  0.507128  1
  Tc  Tc5  1  0.500000  0.253565  0.746435  1
  Tc  Tc6  1  0.500000  0.746435  0.253565  1
  Tc  Tc7  1  0.246435  0.492872  0.746435  1
  Tc  Tc8  1  0.753565  0.507128  0.253565  1
  Tc  Tc9  1  0.246435  0.746435  0.492872  1
  Tc  Tc10  1  0.000000  0.000000  0.000000  1
  Sb  Sb11  1  0.312529  0.308299  0.000000  1
  Sb  Sb12  1  0.995770  0.308299  0.308299  1
  Sb  Sb13  1  0.004230  0.691701  0.691701  1
  Sb  Sb14  1  0.687471  0.000000  0.691701  1
  Sb  Sb15  1  0.312529  0.000000  0.308299  1
  Sb  Sb16  1  0.687471  0.691701  0.000000  1
