# generated using pymatgen
data_Rb2Zr3GeSe8
_symmetry_space_group_name_H-M   'P 1'
_cell_length_a   6.72586000
_cell_length_b   7.80653600
_cell_length_c   16.91100300
_cell_angle_alpha   90.00000000
_cell_angle_beta   90.00000000
_cell_angle_gamma   90.00000000
_symmetry_Int_Tables_number   1
_chemical_formula_structural   Rb2Zr3GeSe8
_chemical_formula_sum   'Rb4 Zr6 Ge2 Se16'
_cell_volume   887.92351280
_cell_formula_units_Z   2
loop_
 _symmetry_equiv_pos_site_id
 _symmetry_equiv_pos_as_xyz
  1  'x, y, z'
loop_
 _atom_site_type_symbol
 _atom_site_label
 _atom_site_symmetry_multiplicity
 _atom_site_fract_x
 _atom_site_fract_y
 _atom_site_fract_z
 _atom_site_occupancy
  Rb  Rb0  1  0.342836  0.000000  0.000000  1
  Rb  Rb1  1  0.652810  0.500000  0.500000  1
  Rb  Rb2  1  0.021201  0.000000  0.500000  1
  Rb  Rb3  1  0.978302  0.500000  0.000000  1
  Zr  Zr4  1  0.997449  0.500000  0.252700  1
  Zr  Zr5  1  0.997449  0.500000  0.747300  1
  Zr  Zr6  1  0.499326  0.245383  0.250041  1
  Zr  Zr7  1  0.499326  0.754617  0.749959  1
  Zr  Zr8  1  0.499326  0.754617  0.250041  1
  Zr  Zr9  1  0.499326  0.245383  0.749959  1
  Ge  Ge10  1  0.003838  0.000000  0.248365  1
  Ge  Ge11  1  0.003838  0.000000  0.751635  1
  Se  Se12  1  0.830277  0.253440  0.341619  1
  Se  Se13  1  0.830277  0.746560  0.658381  1
  Se  Se14  1  0.169233  0.743666  0.158891  1
  Se  Se15  1  0.169233  0.256334  0.841109  1
  Se  Se16  1  0.169233  0.256334  0.158891  1
  Se  Se17  1  0.169233  0.743666  0.841109  1
  Se  Se18  1  0.830277  0.746560  0.341619  1
  Se  Se19  1  0.830277  0.253440  0.658381  1
  Se  Se20  1  0.661178  0.000000  0.158759  1
  Se  Se21  1  0.661178  0.000000  0.841241  1
  Se  Se22  1  0.330739  0.500000  0.342295  1
  Se  Se23  1  0.330739  0.500000  0.657705  1
  Se  Se24  1  0.345399  0.000000  0.342192  1
  Se  Se25  1  0.345399  0.000000  0.657808  1
  Se  Se26  1  0.666151  0.500000  0.159446  1
  Se  Se27  1  0.666151  0.500000  0.840554  1
