# generated using pymatgen
data_Yb8MnSi16W11
_symmetry_space_group_name_H-M   'P 1'
_cell_length_a   6.73284630
_cell_length_b   6.89030877
_cell_length_c   12.94573600
_cell_angle_alpha   89.91653815
_cell_angle_beta   89.94326456
_cell_angle_gamma   90.19134679
_symmetry_Int_Tables_number   1
_chemical_formula_structural   Yb8MnSi16W11
_chemical_formula_sum   'Yb8 Mn1 Si16 W11'
_cell_volume   600.56640267
_cell_formula_units_Z   1
loop_
 _symmetry_equiv_pos_site_id
 _symmetry_equiv_pos_as_xyz
  1  'x, y, z'
loop_
 _atom_site_type_symbol
 _atom_site_label
 _atom_site_symmetry_multiplicity
 _atom_site_fract_x
 _atom_site_fract_y
 _atom_site_fract_z
 _atom_site_occupancy
  Yb  Yb0  1  0.997826  0.165905  0.089699  1
  Yb  Yb1  1  0.000462  0.831960  0.911770  1
  Yb  Yb2  1  0.504035  0.667841  0.910489  1
  Yb  Yb3  1  0.001139  0.833767  0.589476  1
  Yb  Yb4  1  0.499916  0.333523  0.090378  1
  Yb  Yb5  1  0.999020  0.165794  0.408584  1
  Yb  Yb6  1  0.497242  0.335930  0.408833  1
  Yb  Yb7  1  0.501131  0.667805  0.590423  1
  Mn  Mn8  1  0.164916  0.657667  0.126500  1
  Si  Si9  1  0.034178  0.119854  0.750580  1
  Si  Si10  1  0.969550  0.873166  0.243710  1
  Si  Si11  1  0.459760  0.625145  0.247017  1
  Si  Si12  1  0.535358  0.380255  0.751060  1
  Si  Si13  1  0.298035  0.863759  0.750600  1
  Si  Si14  1  0.700830  0.135309  0.250610  1
  Si  Si15  1  0.197862  0.367142  0.247905  1
  Si  Si16  1  0.799873  0.637478  0.750152  1
  Si  Si17  1  0.159991  0.457310  0.544189  1
  Si  Si18  1  0.838618  0.542269  0.455049  1
  Si  Si19  1  0.340706  0.959180  0.454077  1
  Si  Si20  1  0.847247  0.543896  0.049027  1
  Si  Si21  1  0.660868  0.043152  0.543576  1
  Si  Si22  1  0.161302  0.458121  0.957602  1
  Si  Si23  1  0.659513  0.043747  0.956074  1
  Si  Si24  1  0.337311  0.950050  0.049083  1
  W  W25  1  0.159635  0.488756  0.750869  1
  W  W26  1  0.839228  0.510767  0.250328  1
  W  W27  1  0.337710  0.990357  0.249431  1
  W  W28  1  0.659061  0.011863  0.750326  1
  W  W29  1  0.336500  0.168403  0.628196  1
  W  W30  1  0.665431  0.831242  0.371849  1
  W  W31  1  0.164017  0.668178  0.369034  1
  W  W32  1  0.664983  0.835728  0.128064  1
  W  W33  1  0.835229  0.333670  0.627907  1
  W  W34  1  0.334125  0.166368  0.874058  1
  W  W35  1  0.837395  0.334642  0.873473  1
