# generated using pymatgen
data_LaPrHf2F14
_symmetry_space_group_name_H-M   'P 1'
_cell_length_a   5.90737050
_cell_length_b   6.30801375
_cell_length_c   8.54059602
_cell_angle_alpha   78.03265787
_cell_angle_beta   90.03494039
_cell_angle_gamma   90.03885374
_symmetry_Int_Tables_number   1
_chemical_formula_structural   LaPrHf2F14
_chemical_formula_sum   'La1 Pr1 Hf2 F14'
_cell_volume   311.33776866
_cell_formula_units_Z   1
loop_
 _symmetry_equiv_pos_site_id
 _symmetry_equiv_pos_as_xyz
  1  'x, y, z'
loop_
 _atom_site_type_symbol
 _atom_site_label
 _atom_site_symmetry_multiplicity
 _atom_site_fract_x
 _atom_site_fract_y
 _atom_site_fract_z
 _atom_site_occupancy
  La  La0  1  0.699418  0.342910  0.686322  1
  Pr  Pr1  1  0.199674  0.660897  0.309736  1
  Hf  Hf2  1  0.209432  0.810584  0.776616  1
  Hf  Hf3  1  0.709458  0.189616  0.223303  1
  F  F4  1  0.385039  0.450056  0.523328  1
  F  F5  1  0.887198  0.553200  0.472718  1
  F  F6  1  0.925170  0.941464  0.227605  1
  F  F7  1  0.420499  0.061568  0.773273  1
  F  F8  1  0.456724  0.969272  0.241039  1
  F  F9  1  0.954617  0.026144  0.760065  1
  F  F10  1  0.497987  0.441301  0.215065  1
  F  F11  1  0.002107  0.555877  0.787976  1
  F  F12  1  0.202555  0.755984  0.016900  1
  F  F13  1  0.701704  0.242660  0.984200  1
  F  F14  1  0.213718  0.853887  0.536803  1
  F  F15  1  0.713527  0.139792  0.463004  1
  F  F16  1  0.985645  0.380411  0.215981  1
  F  F17  1  0.488248  0.624378  0.786065  1
