# generated using pymatgen
data_HoTm4Bi2As
_symmetry_space_group_name_H-M   'P 1'
_cell_length_a   7.96193800
_cell_length_b   9.06361400
_cell_length_c   11.94269200
_cell_angle_alpha   90.00000000
_cell_angle_beta   90.00000000
_cell_angle_gamma   90.00000000
_symmetry_Int_Tables_number   1
_chemical_formula_structural   HoTm4Bi2As
_chemical_formula_sum   'Ho4 Tm16 Bi8 As4'
_cell_volume   861.83162203
_cell_formula_units_Z   4
loop_
 _symmetry_equiv_pos_site_id
 _symmetry_equiv_pos_as_xyz
  1  'x, y, z'
loop_
 _atom_site_type_symbol
 _atom_site_label
 _atom_site_symmetry_multiplicity
 _atom_site_fract_x
 _atom_site_fract_y
 _atom_site_fract_z
 _atom_site_occupancy
  Ho  Ho0  1  0.634375  0.750000  0.292577  1
  Ho  Ho1  1  0.865625  0.750000  0.792577  1
  Ho  Ho2  1  0.365625  0.250000  0.707423  1
  Ho  Ho3  1  0.134375  0.250000  0.207423  1
  Tm  Tm4  1  0.817041  0.556785  0.062907  1
  Tm  Tm5  1  0.682959  0.943215  0.562907  1
  Tm  Tm6  1  0.182959  0.056785  0.937093  1
  Tm  Tm7  1  0.317041  0.443215  0.437093  1
  Tm  Tm8  1  0.182959  0.443215  0.937093  1
  Tm  Tm9  1  0.317041  0.056785  0.437093  1
  Tm  Tm10  1  0.817041  0.943215  0.062907  1
  Tm  Tm11  1  0.682959  0.556785  0.562907  1
  Tm  Tm12  1  0.156135  0.750000  0.210673  1
  Tm  Tm13  1  0.343865  0.750000  0.710673  1
  Tm  Tm14  1  0.843865  0.250000  0.789327  1
  Tm  Tm15  1  0.656135  0.250000  0.289327  1
  Tm  Tm16  1  0.463787  0.750000  0.000058  1
  Tm  Tm17  1  0.036213  0.750000  0.500058  1
  Tm  Tm18  1  0.536213  0.250000  0.999942  1
  Tm  Tm19  1  0.963787  0.250000  0.499942  1
  Bi  Bi20  1  0.925752  0.510094  0.326978  1
  Bi  Bi21  1  0.574248  0.989906  0.826978  1
  Bi  Bi22  1  0.074248  0.010094  0.673022  1
  Bi  Bi23  1  0.425752  0.489906  0.173022  1
  Bi  Bi24  1  0.074248  0.489906  0.673022  1
  Bi  Bi25  1  0.425752  0.010094  0.173022  1
  Bi  Bi26  1  0.925752  0.989906  0.326978  1
  Bi  Bi27  1  0.574248  0.510094  0.826978  1
  As  As28  1  0.412199  0.750000  0.479079  1
  As  As29  1  0.087801  0.750000  0.979079  1
  As  As30  1  0.587801  0.250000  0.520921  1
  As  As31  1  0.912199  0.250000  0.020921  1
