# generated using pymatgen
data_Dy2Ga7Ni2Ag
_symmetry_space_group_name_H-M   'P 1'
_cell_length_a   4.16469484
_cell_length_b   6.45586227
_cell_length_c   7.97575182
_cell_angle_alpha   90.89719662
_cell_angle_beta   105.13443563
_cell_angle_gamma   89.99999983
_symmetry_Int_Tables_number   1
_chemical_formula_structural   Dy2Ga7Ni2Ag
_chemical_formula_sum   'Dy2 Ga7 Ni2 Ag1'
_cell_volume   206.97666500
_cell_formula_units_Z   1
loop_
 _symmetry_equiv_pos_site_id
 _symmetry_equiv_pos_as_xyz
  1  'x, y, z'
loop_
 _atom_site_type_symbol
 _atom_site_label
 _atom_site_symmetry_multiplicity
 _atom_site_fract_x
 _atom_site_fract_y
 _atom_site_fract_z
 _atom_site_occupancy
  Dy  Dy0  1  0.376719  0.761340  0.753439  1
  Dy  Dy1  1  0.623281  0.238660  0.246561  1
  Ga  Ga2  1  0.000000  0.000000  0.000000  1
  Ga  Ga3  1  0.568103  0.741154  0.136207  1
  Ga  Ga4  1  0.431897  0.258846  0.863793  1
  Ga  Ga5  1  0.184596  0.544156  0.369191  1
  Ga  Ga6  1  0.815404  0.455844  0.630809  1
  Ga  Ga7  1  0.185408  0.946275  0.370815  1
  Ga  Ga8  1  0.814592  0.053725  0.629185  1
  Ni  Ni9  1  0.720903  0.750444  0.441807  1
  Ni  Ni10  1  0.279097  0.249556  0.558193  1
  Ag  Ag11  1  0.000000  0.500000  0.000000  1
