# generated using pymatgen
data_Th10GaSn5Bi2
_symmetry_space_group_name_H-M   'P 1'
_cell_length_a   9.70266409
_cell_length_b   9.70238249
_cell_length_c   6.55770607
_cell_angle_alpha   90.00801640
_cell_angle_beta   89.98396767
_cell_angle_gamma   120.00095329
_symmetry_Int_Tables_number   1
_chemical_formula_structural   Th10GaSn5Bi2
_chemical_formula_sum   'Th10 Ga1 Sn5 Bi2'
_cell_volume   534.62317065
_cell_formula_units_Z   1
loop_
 _symmetry_equiv_pos_site_id
 _symmetry_equiv_pos_as_xyz
  1  'x, y, z'
loop_
 _atom_site_type_symbol
 _atom_site_label
 _atom_site_symmetry_multiplicity
 _atom_site_fract_x
 _atom_site_fract_y
 _atom_site_fract_z
 _atom_site_occupancy
  Th  Th0  1  0.003347  0.729632  0.759001  1
  Th  Th1  1  0.273714  0.270368  0.759001  1
  Th  Th2  1  0.334193  0.670312  0.497331  1
  Th  Th3  1  0.663882  0.329688  0.497331  1
  Th  Th4  1  0.727201  0.726647  0.241275  1
  Th  Th5  1  0.725439  0.000000  0.759111  1
  Th  Th6  1  0.000554  0.273353  0.241275  1
  Th  Th7  1  0.274001  0.000000  0.241362  1
  Th  Th8  1  0.334421  0.670459  0.002717  1
  Th  Th9  1  0.663962  0.329541  0.002717  1
  Ga  Ga10  1  0.999416  0.000000  0.000215  1
  Sn  Sn11  1  0.383056  0.000000  0.747204  1
  Sn  Sn12  1  0.618248  0.000000  0.252825  1
  Sn  Sn13  1  0.382183  0.382243  0.252822  1
  Sn  Sn14  1  0.999940  0.617757  0.252822  1
  Sn  Sn15  1  0.999268  0.000000  0.500126  1
  Bi  Bi16  1  0.616739  0.616301  0.746432  1
  Bi  Bi17  1  0.000437  0.383699  0.746432  1
