# generated using pymatgen
data_Dy2ErGa6Co5Ni4
_symmetry_space_group_name_H-M   'P 1'
_cell_length_a   8.71250770
_cell_length_b   8.73498457
_cell_length_c   4.07898600
_cell_angle_alpha   90.00000000
_cell_angle_beta   90.00000000
_cell_angle_gamma   120.16286833
_symmetry_Int_Tables_number   1
_chemical_formula_structural   Dy2ErGa6Co5Ni4
_chemical_formula_sum   'Dy2 Er1 Ga6 Co5 Ni4'
_cell_volume   268.39416537
_cell_formula_units_Z   1
loop_
 _symmetry_equiv_pos_site_id
 _symmetry_equiv_pos_as_xyz
  1  'x, y, z'
loop_
 _atom_site_type_symbol
 _atom_site_label
 _atom_site_symmetry_multiplicity
 _atom_site_fract_x
 _atom_site_fract_y
 _atom_site_fract_z
 _atom_site_occupancy
  Dy  Dy0  1  0.668099  0.333625  0.500000  1
  Dy  Dy1  1  0.335530  0.670861  0.500000  1
  Er  Er2  1  0.999649  0.998471  0.000000  1
  Ga  Ga3  1  0.491333  0.490939  0.000000  1
  Ga  Ga4  1  0.509555  0.000323  0.000000  1
  Ga  Ga5  1  0.996558  0.508484  0.000000  1
  Ga  Ga6  1  0.725921  0.726371  0.500000  1
  Ga  Ga7  1  0.272737  0.998907  0.500000  1
  Ga  Ga8  1  0.999571  0.271131  0.500000  1
  Co  Co9  1  0.823886  0.186119  0.000000  1
  Co  Co10  1  0.813792  0.638367  0.000000  1
  Co  Co11  1  0.364123  0.177474  0.000000  1
  Co  Co12  1  0.186215  0.821532  0.000000  1
  Co  Co13  1  0.636386  0.813832  0.000000  1
  Ni  Ni14  1  0.177878  0.367889  0.000000  1
  Ni  Ni15  1  0.295352  0.293192  0.500000  1
  Ni  Ni16  1  0.703771  0.999680  0.500000  1
  Ni  Ni17  1  0.999641  0.702801  0.500000  1
