# generated using pymatgen
data_Na6CrMoN6
_symmetry_space_group_name_H-M   'P 1'
_cell_length_a   8.70105259
_cell_length_b   8.70105241
_cell_length_c   6.34388311
_cell_angle_alpha   69.11513317
_cell_angle_beta   69.11513110
_cell_angle_gamma   76.48812210
_symmetry_Int_Tables_number   1
_chemical_formula_structural   Na6CrMoN6
_chemical_formula_sum   'Na12 Cr2 Mo2 N12'
_cell_volume   416.11163088
_cell_formula_units_Z   2
loop_
 _symmetry_equiv_pos_site_id
 _symmetry_equiv_pos_as_xyz
  1  'x, y, z'
loop_
 _atom_site_type_symbol
 _atom_site_label
 _atom_site_symmetry_multiplicity
 _atom_site_fract_x
 _atom_site_fract_y
 _atom_site_fract_z
 _atom_site_occupancy
  Na  Na0  1  0.735490  0.288078  0.013562  1
  Na  Na1  1  0.288078  0.735490  0.513562  1
  Na  Na2  1  0.641462  0.593870  0.570317  1
  Na  Na3  1  0.593870  0.641462  0.070317  1
  Na  Na4  1  0.399583  0.353009  0.802735  1
  Na  Na5  1  0.353009  0.399583  0.302735  1
  Na  Na6  1  0.010789  0.524361  0.041433  1
  Na  Na7  1  0.524361  0.010789  0.541433  1
  Na  Na8  1  0.886601  0.876473  0.668957  1
  Na  Na9  1  0.876473  0.886601  0.168957  1
  Na  Na10  1  0.126426  0.139001  0.113762  1
  Na  Na11  1  0.139001  0.126426  0.613762  1
  Cr  Cr12  1  0.243279  0.756811  0.997294  1
  Cr  Cr13  1  0.756811  0.243279  0.497294  1
  Mo  Mo14  1  0.003053  0.499012  0.573859  1
  Mo  Mo15  1  0.499012  0.003053  0.073859  1
  N  N16  1  0.380349  0.604968  0.900367  1
  N  N17  1  0.604968  0.380349  0.400367  1
  N  N18  1  0.110919  0.842395  0.831879  1
  N  N19  1  0.842395  0.110919  0.331879  1
  N  N20  1  0.146260  0.364924  0.737614  1
  N  N21  1  0.364924  0.146260  0.237614  1
  N  N22  1  0.833997  0.595855  0.773570  1
  N  N23  1  0.595855  0.833997  0.273570  1
  N  N24  1  0.669601  0.119834  0.801583  1
  N  N25  1  0.119834  0.669601  0.301583  1
  N  N26  1  0.917564  0.360154  0.476269  1
  N  N27  1  0.360154  0.917564  0.976269  1
