# generated using pymatgen
data_Sm20GaSi7Hg4
_symmetry_space_group_name_H-M   'P 1'
_cell_length_a   7.79562411
_cell_length_b   7.79562401
_cell_length_c   14.60653900
_cell_angle_alpha   90.00958406
_cell_angle_beta   90.00958406
_cell_angle_gamma   89.63417015
_symmetry_Int_Tables_number   1
_chemical_formula_structural   Sm20GaSi7Hg4
_chemical_formula_sum   'Sm20 Ga1 Si7 Hg4'
_cell_volume   887.64688345
_cell_formula_units_Z   1
loop_
 _symmetry_equiv_pos_site_id
 _symmetry_equiv_pos_as_xyz
  1  'x, y, z'
loop_
 _atom_site_type_symbol
 _atom_site_label
 _atom_site_symmetry_multiplicity
 _atom_site_fract_x
 _atom_site_fract_y
 _atom_site_fract_z
 _atom_site_occupancy
  Sm  Sm0  1  0.839366  0.812651  0.888536  1
  Sm  Sm1  1  0.187349  0.160634  0.611464  1
  Sm  Sm2  1  0.837758  0.181769  0.388992  1
  Sm  Sm3  1  0.164679  0.816480  0.388693  1
  Sm  Sm4  1  0.317009  0.337242  0.388820  1
  Sm  Sm5  1  0.818231  0.162242  0.111008  1
  Sm  Sm6  1  0.314245  0.659044  0.888834  1
  Sm  Sm7  1  0.183520  0.835321  0.111307  1
  Sm  Sm8  1  0.496218  0.999358  0.778492  1
  Sm  Sm9  1  0.000493  0.498508  0.228191  1
  Sm  Sm10  1  0.340956  0.685755  0.611166  1
  Sm  Sm11  1  0.662758  0.682991  0.111180  1
  Sm  Sm12  1  0.654488  0.318918  0.608906  1
  Sm  Sm13  1  0.000642  0.503782  0.721508  1
  Sm  Sm14  1  0.813352  0.840000  0.611049  1
  Sm  Sm15  1  0.681082  0.345512  0.891094  1
  Sm  Sm16  1  0.160000  0.186648  0.888951  1
  Sm  Sm17  1  0.501492  0.999507  0.271809  1
  Sm  Sm18  1  0.685521  0.660950  0.389027  1
  Sm  Sm19  1  0.339050  0.314479  0.110973  1
  Ga  Ga20  1  0.874698  0.125302  0.750000  1
  Si  Si21  1  0.621048  0.378952  0.250000  1
  Si  Si22  1  0.380776  0.619224  0.250000  1
  Si  Si23  1  0.121530  0.119568  0.250008  1
  Si  Si24  1  0.378532  0.379305  0.750213  1
  Si  Si25  1  0.121199  0.878801  0.750000  1
  Si  Si26  1  0.880432  0.878470  0.249992  1
  Si  Si27  1  0.620695  0.621468  0.749787  1
  Hg  Hg28  1  0.000775  0.499993  0.005846  1
  Hg  Hg29  1  0.500623  0.998519  0.997459  1
  Hg  Hg30  1  0.500007  0.999225  0.494154  1
  Hg  Hg31  1  0.001481  0.499377  0.502541  1
