# generated using pymatgen
data_Hf8Ga3Si3Mo2
_symmetry_space_group_name_H-M   'P 1'
_cell_length_a   7.87143200
_cell_length_b   7.87143143
_cell_length_c   5.41218800
_cell_angle_alpha   90.00000000
_cell_angle_beta   90.00000000
_cell_angle_gamma   119.99999397
_symmetry_Int_Tables_number   1
_chemical_formula_structural   Hf8Ga3Si3Mo2
_chemical_formula_sum   'Hf8 Ga3 Si3 Mo2'
_cell_volume   290.40961888
_cell_formula_units_Z   1
loop_
 _symmetry_equiv_pos_site_id
 _symmetry_equiv_pos_as_xyz
  1  'x, y, z'
loop_
 _atom_site_type_symbol
 _atom_site_label
 _atom_site_symmetry_multiplicity
 _atom_site_fract_x
 _atom_site_fract_y
 _atom_site_fract_z
 _atom_site_occupancy
  Hf  Hf0  1  0.333333  0.666667  0.499524  1
  Hf  Hf1  1  0.666667  0.333333  0.499524  1
  Hf  Hf2  1  0.751706  0.751706  0.754921  1
  Hf  Hf3  1  0.248294  0.000000  0.754921  1
  Hf  Hf4  1  0.000000  0.248294  0.754921  1
  Hf  Hf5  1  0.247678  0.247678  0.246963  1
  Hf  Hf6  1  0.752322  0.000000  0.246963  1
  Hf  Hf7  1  0.000000  0.752322  0.246963  1
  Ga  Ga8  1  0.602279  0.602279  0.235086  1
  Ga  Ga9  1  0.397721  0.000000  0.235086  1
  Ga  Ga10  1  0.000000  0.397721  0.235086  1
  Si  Si11  1  0.396563  0.396563  0.767660  1
  Si  Si12  1  0.603437  0.000000  0.767660  1
  Si  Si13  1  0.000000  0.603437  0.767660  1
  Mo  Mo14  1  0.666667  0.333333  0.993530  1
  Mo  Mo15  1  0.333333  0.666667  0.993530  1
