# generated using pymatgen
data_La6Nd4Zn3GaRu6
_symmetry_space_group_name_H-M   'P 1'
_cell_length_a   8.55464803
_cell_length_b   8.60300771
_cell_length_c   8.55464827
_cell_angle_alpha   109.58577535
_cell_angle_beta   109.35640654
_cell_angle_gamma   109.58579113
_symmetry_Int_Tables_number   1
_chemical_formula_structural   La6Nd4Zn3GaRu6
_chemical_formula_sum   'La6 Nd4 Zn3 Ga1 Ru6'
_cell_volume   483.96815809
_cell_formula_units_Z   1
loop_
 _symmetry_equiv_pos_site_id
 _symmetry_equiv_pos_as_xyz
  1  'x, y, z'
loop_
 _atom_site_type_symbol
 _atom_site_label
 _atom_site_symmetry_multiplicity
 _atom_site_fract_x
 _atom_site_fract_y
 _atom_site_fract_z
 _atom_site_occupancy
  La  La0  1  0.250915  0.688038  0.441217  1
  La  La1  1  0.748972  0.811135  0.059773  1
  La  La2  1  0.440227  0.251362  0.689199  1
  La  La3  1  0.690302  0.437123  0.249085  1
  La  La4  1  0.058783  0.746821  0.809698  1
  La  La5  1  0.810801  0.062163  0.751028  1
  Nd  Nd6  1  0.221570  0.221384  0.220974  1
  Nd  Nd7  1  0.499405  0.999814  0.278430  1
  Nd  Nd8  1  0.279026  0.500410  0.000595  1
  Nd  Nd9  1  0.000000  0.278010  0.500000  1
  Zn  Zn10  1  0.586767  0.586222  0.584564  1
  Zn  Zn11  1  0.497798  0.999456  0.913233  1
  Zn  Zn12  1  0.915436  0.501659  0.002202  1
  Ga  Ga13  1  0.000000  0.912888  0.500000  1
  Ru  Ru14  1  0.244468  0.120600  0.866406  1
  Ru  Ru15  1  0.749109  0.375576  0.625034  1
  Ru  Ru16  1  0.874965  0.250543  0.124075  1
  Ru  Ru17  1  0.121939  0.876130  0.255532  1
  Ru  Ru18  1  0.633594  0.754193  0.378061  1
  Ru  Ru19  1  0.375925  0.626468  0.750891  1
