# generated using pymatgen
data_TbTm7(CdRu)2
_symmetry_space_group_name_H-M   'P 1'
_cell_length_a   9.52663936
_cell_length_b   9.52663921
_cell_length_c   9.51806400
_cell_angle_alpha   60.02977160
_cell_angle_beta   60.02977210
_cell_angle_gamma   59.94045386
_symmetry_Int_Tables_number   1
_chemical_formula_structural   TbTm7(CdRu)2
_chemical_formula_sum   'Tb2 Tm14 Cd4 Ru4'
_cell_volume   610.81874283
_cell_formula_units_Z   2
loop_
 _symmetry_equiv_pos_site_id
 _symmetry_equiv_pos_as_xyz
  1  'x, y, z'
loop_
 _atom_site_type_symbol
 _atom_site_label
 _atom_site_symmetry_multiplicity
 _atom_site_fract_x
 _atom_site_fract_y
 _atom_site_fract_z
 _atom_site_occupancy
  Tb  Tb0  1  0.562193  0.562193  0.937807  1
  Tb  Tb1  1  0.937807  0.937807  0.562193  1
  Tm  Tm2  1  0.347443  0.347443  0.346275  1
  Tm  Tm3  1  0.347443  0.347443  0.958839  1
  Tm  Tm4  1  0.346275  0.958839  0.347443  1
  Tm  Tm5  1  0.958839  0.346275  0.347443  1
  Tm  Tm6  1  0.812221  0.187779  0.187779  1
  Tm  Tm7  1  0.187779  0.812221  0.812221  1
  Tm  Tm8  1  0.187779  0.812221  0.187779  1
  Tm  Tm9  1  0.812221  0.187779  0.812221  1
  Tm  Tm10  1  0.188262  0.188262  0.811738  1
  Tm  Tm11  1  0.811738  0.811738  0.188262  1
  Tm  Tm12  1  0.940501  0.559499  0.559499  1
  Tm  Tm13  1  0.559499  0.940501  0.940501  1
  Tm  Tm14  1  0.559499  0.940501  0.559499  1
  Tm  Tm15  1  0.940501  0.559499  0.940501  1
  Cd  Cd16  1  0.580908  0.580908  0.579741  1
  Cd  Cd17  1  0.580908  0.580908  0.258443  1
  Cd  Cd18  1  0.579741  0.258443  0.580908  1
  Cd  Cd19  1  0.258443  0.579741  0.580908  1
  Ru  Ru20  1  0.141255  0.141255  0.138043  1
  Ru  Ru21  1  0.141255  0.141255  0.579447  1
  Ru  Ru22  1  0.138043  0.579447  0.141255  1
  Ru  Ru23  1  0.579447  0.138043  0.141255  1
