# generated using pymatgen
data_HoPu(TaN2)2
_symmetry_space_group_name_H-M   'P 1'
_cell_length_a   3.26741200
_cell_length_b   5.68148691
_cell_length_c   10.95023695
_cell_angle_alpha   89.90439447
_cell_angle_beta   90.00000000
_cell_angle_gamma   90.00000000
_symmetry_Int_Tables_number   1
_chemical_formula_structural   HoPu(TaN2)2
_chemical_formula_sum   'Ho2 Pu2 Ta4 N8'
_cell_volume   203.27727122
_cell_formula_units_Z   2
loop_
 _symmetry_equiv_pos_site_id
 _symmetry_equiv_pos_as_xyz
  1  'x, y, z'
loop_
 _atom_site_type_symbol
 _atom_site_label
 _atom_site_symmetry_multiplicity
 _atom_site_fract_x
 _atom_site_fract_y
 _atom_site_fract_z
 _atom_site_occupancy
  Ho  Ho0  1  0.750000  0.914694  0.361418  1
  Ho  Ho1  1  0.250000  0.085306  0.638582  1
  Pu  Pu2  1  0.250000  0.584881  0.862053  1
  Pu  Pu3  1  0.750000  0.415119  0.137947  1
  Ta  Ta4  1  0.250000  0.917821  0.110181  1
  Ta  Ta5  1  0.750000  0.082179  0.889819  1
  Ta  Ta6  1  0.750000  0.582591  0.607282  1
  Ta  Ta7  1  0.250000  0.417409  0.392718  1
  N  N8  1  0.250000  0.661191  0.247379  1
  N  N9  1  0.750000  0.338809  0.752621  1
  N  N10  1  0.750000  0.840484  0.742538  1
  N  N11  1  0.250000  0.159516  0.257462  1
  N  N12  1  0.250000  0.747574  0.507237  1
  N  N13  1  0.750000  0.252426  0.492763  1
  N  N14  1  0.750000  0.758669  0.006922  1
  N  N15  1  0.250000  0.241331  0.993078  1
