# generated using pymatgen
data_SrCaNi2(PdO4)2
_symmetry_space_group_name_H-M   'P 1'
_cell_length_a   5.28964600
_cell_length_b   6.13934800
_cell_length_c   11.27207300
_cell_angle_alpha   90.00000000
_cell_angle_beta   90.00000000
_cell_angle_gamma   90.00000000
_symmetry_Int_Tables_number   1
_chemical_formula_structural   SrCaNi2(PdO4)2
_chemical_formula_sum   'Sr2 Ca2 Ni4 Pd4 O16'
_cell_volume   366.06031808
_cell_formula_units_Z   2
loop_
 _symmetry_equiv_pos_site_id
 _symmetry_equiv_pos_as_xyz
  1  'x, y, z'
loop_
 _atom_site_type_symbol
 _atom_site_label
 _atom_site_symmetry_multiplicity
 _atom_site_fract_x
 _atom_site_fract_y
 _atom_site_fract_z
 _atom_site_occupancy
  Sr  Sr0  1  0.507683  0.000000  0.000000  1
  Sr  Sr1  1  0.492317  0.500000  0.500000  1
  Ca  Ca2  1  0.840848  0.000000  0.500000  1
  Ca  Ca3  1  0.159152  0.500000  0.000000  1
  Ni  Ni4  1  0.504552  0.500000  0.238499  1
  Ni  Ni5  1  0.504552  0.500000  0.761501  1
  Ni  Ni6  1  0.495448  0.000000  0.261501  1
  Ni  Ni7  1  0.495448  0.000000  0.738499  1
  Pd  Pd8  1  0.000000  0.250000  0.250000  1
  Pd  Pd9  1  0.000000  0.750000  0.750000  1
  Pd  Pd10  1  0.000000  0.750000  0.250000  1
  Pd  Pd11  1  0.000000  0.250000  0.750000  1
  O  O12  1  0.848334  0.500000  0.152726  1
  O  O13  1  0.848334  0.500000  0.847274  1
  O  O14  1  0.151666  0.000000  0.347274  1
  O  O15  1  0.151666  0.000000  0.652726  1
  O  O16  1  0.166885  0.500000  0.339030  1
  O  O17  1  0.166885  0.500000  0.660970  1
  O  O18  1  0.833115  0.000000  0.160970  1
  O  O19  1  0.833115  0.000000  0.839030  1
  O  O20  1  0.676633  0.248361  0.351587  1
  O  O21  1  0.676633  0.751639  0.648413  1
  O  O22  1  0.323367  0.748361  0.148413  1
  O  O23  1  0.323367  0.251639  0.851587  1
  O  O24  1  0.323367  0.251639  0.148413  1
  O  O25  1  0.323367  0.748361  0.851587  1
  O  O26  1  0.676633  0.751639  0.351587  1
  O  O27  1  0.676633  0.248361  0.648413  1
