# generated using pymatgen
data_DyU(PO3)8
_symmetry_space_group_name_H-M   'P 1'
_cell_length_a   8.32959210
_cell_length_b   8.27743839
_cell_length_c   8.68361295
_cell_angle_alpha   117.61366807
_cell_angle_beta   117.60190749
_cell_angle_gamma   90.19829790
_symmetry_Int_Tables_number   1
_chemical_formula_structural   DyU(PO3)8
_chemical_formula_sum   'Dy1 U1 P8 O24'
_cell_volume   451.61999481
_cell_formula_units_Z   1
loop_
 _symmetry_equiv_pos_site_id
 _symmetry_equiv_pos_as_xyz
  1  'x, y, z'
loop_
 _atom_site_type_symbol
 _atom_site_label
 _atom_site_symmetry_multiplicity
 _atom_site_fract_x
 _atom_site_fract_y
 _atom_site_fract_z
 _atom_site_occupancy
  Dy  Dy0  1  0.720142  0.714542  0.932762  1
  U  U1  1  0.278940  0.283239  0.065401  1
  P  P2  1  0.236389  0.767706  0.284331  1
  P  P3  1  0.529087  0.992225  0.265618  1
  P  P4  1  0.763117  0.529197  0.268879  1
  P  P5  1  0.764376  0.233522  0.714195  1
  P  P6  1  0.002760  0.770579  0.721922  1
  P  P7  1  0.995451  0.227857  0.279426  1
  P  P8  1  0.470808  0.008250  0.733013  1
  P  P9  1  0.238145  0.470340  0.731270  1
  O  O10  1  0.719081  0.081967  0.486698  1
  O  O11  1  0.451685  0.152632  0.245437  1
  O  O12  1  0.279348  0.915336  0.510664  1
  O  O13  1  0.088030  0.286158  0.513390  1
  O  O14  1  0.045034  0.751808  0.134154  1
  O  O15  1  0.137435  0.967396  0.850883  1
  O  O16  1  0.131499  0.631142  0.742043  1
  O  O17  1  0.564553  0.858107  0.107379  1
  O  O18  1  0.870970  0.033266  0.152548  1
  O  O19  1  0.543509  0.853546  0.756850  1
  O  O20  1  0.912395  0.713782  0.488667  1
  O  O21  1  0.852884  0.744934  0.760911  1
  O  O22  1  0.956970  0.234825  0.860677  1
  O  O23  1  0.870849  0.370946  0.265931  1
  O  O24  1  0.586509  0.473220  0.264481  1
  O  O25  1  0.607416  0.135333  0.724611  1
  O  O26  1  0.146380  0.266186  0.239807  1
  O  O27  1  0.735580  0.415770  0.729506  1
  O  O28  1  0.393818  0.874010  0.282468  1
  O  O29  1  0.249641  0.428216  0.888401  1
  O  O30  1  0.278710  0.582653  0.267307  1
  O  O31  1  0.742513  0.567375  0.111352  1
  O  O32  1  0.423936  0.147874  0.884581  1
  O  O33  1  0.412040  0.516060  0.734439  1
