# generated using pymatgen
data_Zr4UTc7
_symmetry_space_group_name_H-M   'P 1'
_cell_length_a   5.21831262
_cell_length_b   5.21831241
_cell_length_c   8.86187400
_cell_angle_alpha   90.00000000
_cell_angle_beta   90.00000000
_cell_angle_gamma   117.11858740
_symmetry_Int_Tables_number   1
_chemical_formula_structural   Zr4UTc7
_chemical_formula_sum   'Zr4 U1 Tc7'
_cell_volume   214.78673214
_cell_formula_units_Z   1
loop_
 _symmetry_equiv_pos_site_id
 _symmetry_equiv_pos_as_xyz
  1  'x, y, z'
loop_
 _atom_site_type_symbol
 _atom_site_label
 _atom_site_symmetry_multiplicity
 _atom_site_fract_x
 _atom_site_fract_y
 _atom_site_fract_z
 _atom_site_occupancy
  Zr  Zr0  1  0.327867  0.672133  0.448496  1
  Zr  Zr1  1  0.663173  0.336827  0.569483  1
  Zr  Zr2  1  0.663173  0.336827  0.930517  1
  Zr  Zr3  1  0.327867  0.672133  0.051504  1
  U  U4  1  0.849710  0.150290  0.250000  1
  Tc  Tc5  1  0.990301  0.009699  0.500579  1
  Tc  Tc6  1  0.990301  0.009699  0.999421  1
  Tc  Tc7  1  0.837236  0.632315  0.250000  1
  Tc  Tc8  1  0.367685  0.162764  0.250000  1
  Tc  Tc9  1  0.163963  0.836037  0.750000  1
  Tc  Tc10  1  0.168877  0.350151  0.750000  1
  Tc  Tc11  1  0.649849  0.831123  0.750000  1
