# generated using pymatgen
data_Dy5Sc(Be2Rh5)2
_symmetry_space_group_name_H-M   'P 1'
_cell_length_a   9.78750600
_cell_length_b   9.78750600
_cell_length_c   3.33368300
_cell_angle_alpha   90.00000000
_cell_angle_beta   90.00000000
_cell_angle_gamma   90.00000000
_symmetry_Int_Tables_number   1
_chemical_formula_structural   Dy5Sc(Be2Rh5)2
_chemical_formula_sum   'Dy5 Sc1 Be4 Rh10'
_cell_volume   319.35107541
_cell_formula_units_Z   1
loop_
 _symmetry_equiv_pos_site_id
 _symmetry_equiv_pos_as_xyz
  1  'x, y, z'
loop_
 _atom_site_type_symbol
 _atom_site_label
 _atom_site_symmetry_multiplicity
 _atom_site_fract_x
 _atom_site_fract_y
 _atom_site_fract_z
 _atom_site_occupancy
  Dy  Dy0  1  0.822271  0.327001  0.000000  1
  Dy  Dy1  1  0.327001  0.177729  0.000000  1
  Dy  Dy2  1  0.672999  0.822271  0.000000  1
  Dy  Dy3  1  0.177729  0.672999  0.000000  1
  Dy  Dy4  1  0.000000  0.000000  0.000000  1
  Sc  Sc5  1  0.500000  0.500000  0.000000  1
  Be  Be6  1  0.620300  0.122032  0.000000  1
  Be  Be7  1  0.122032  0.379700  0.000000  1
  Be  Be8  1  0.877968  0.620300  0.000000  1
  Be  Be9  1  0.379700  0.877968  0.000000  1
  Rh  Rh10  1  0.072236  0.222785  0.500000  1
  Rh  Rh11  1  0.222785  0.927764  0.500000  1
  Rh  Rh12  1  0.777215  0.072236  0.500000  1
  Rh  Rh13  1  0.927764  0.777215  0.500000  1
  Rh  Rh14  1  0.431835  0.716763  0.500000  1
  Rh  Rh15  1  0.568165  0.283237  0.500000  1
  Rh  Rh16  1  0.716763  0.568165  0.500000  1
  Rh  Rh17  1  0.283237  0.431835  0.500000  1
  Rh  Rh18  1  0.500000  0.000000  0.500000  1
  Rh  Rh19  1  0.000000  0.500000  0.500000  1
