# generated using pymatgen
data_LaSmZn5Ge
_symmetry_space_group_name_H-M   'P 1'
_cell_length_a   8.41071528
_cell_length_b   8.41071561
_cell_length_c   8.91987900
_cell_angle_alpha   90.00000000
_cell_angle_beta   90.00000000
_cell_angle_gamma   149.40097840
_symmetry_Int_Tables_number   1
_chemical_formula_structural   LaSmZn5Ge
_chemical_formula_sum   'La2 Sm2 Zn10 Ge2'
_cell_volume   321.19251872
_cell_formula_units_Z   2
loop_
 _symmetry_equiv_pos_site_id
 _symmetry_equiv_pos_as_xyz
  1  'x, y, z'
loop_
 _atom_site_type_symbol
 _atom_site_label
 _atom_site_symmetry_multiplicity
 _atom_site_fract_x
 _atom_site_fract_y
 _atom_site_fract_z
 _atom_site_occupancy
  La  La0  1  0.000000  0.000000  0.500000  1
  La  La1  1  0.000000  0.000000  0.000000  1
  Sm  Sm2  1  0.202300  0.797700  0.250000  1
  Sm  Sm3  1  0.797700  0.202300  0.750000  1
  Zn  Zn4  1  0.812800  0.187200  0.391342  1
  Zn  Zn5  1  0.187200  0.812800  0.608658  1
  Zn  Zn6  1  0.812800  0.187200  0.108658  1
  Zn  Zn7  1  0.187200  0.812800  0.891342  1
  Zn  Zn8  1  0.654530  0.345470  0.478001  1
  Zn  Zn9  1  0.345470  0.654530  0.521999  1
  Zn  Zn10  1  0.654530  0.345470  0.021999  1
  Zn  Zn11  1  0.345470  0.654530  0.978001  1
  Zn  Zn12  1  0.400590  0.599410  0.250000  1
  Zn  Zn13  1  0.599410  0.400590  0.750000  1
  Ge  Ge14  1  0.558378  0.441622  0.250000  1
  Ge  Ge15  1  0.441622  0.558378  0.750000  1
