# generated using pymatgen
data_Cs3NpO5
_symmetry_space_group_name_H-M   'P 1'
_cell_length_a   8.96362600
_cell_length_b   9.81836900
_cell_length_c   9.94030400
_cell_angle_alpha   90.00000000
_cell_angle_beta   90.00000000
_cell_angle_gamma   90.00000000
_symmetry_Int_Tables_number   1
_chemical_formula_structural   Cs3NpO5
_chemical_formula_sum   'Cs12 Np4 O20'
_cell_volume   874.82813969
_cell_formula_units_Z   4
loop_
 _symmetry_equiv_pos_site_id
 _symmetry_equiv_pos_as_xyz
  1  'x, y, z'
loop_
 _atom_site_type_symbol
 _atom_site_label
 _atom_site_symmetry_multiplicity
 _atom_site_fract_x
 _atom_site_fract_y
 _atom_site_fract_z
 _atom_site_occupancy
  Cs  Cs0  1  0.250000  0.000000  0.461957  1
  Cs  Cs1  1  0.750000  0.000000  0.538043  1
  Cs  Cs2  1  0.250000  0.500000  0.038043  1
  Cs  Cs3  1  0.750000  0.500000  0.961957  1
  Cs  Cs4  1  0.250000  0.000000  0.038782  1
  Cs  Cs5  1  0.750000  0.000000  0.961218  1
  Cs  Cs6  1  0.250000  0.500000  0.461218  1
  Cs  Cs7  1  0.750000  0.500000  0.538782  1
  Cs  Cs8  1  0.529478  0.250000  0.250000  1
  Cs  Cs9  1  0.470522  0.750000  0.750000  1
  Cs  Cs10  1  0.970522  0.750000  0.250000  1
  Cs  Cs11  1  0.029478  0.250000  0.750000  1
  Np  Np12  1  0.987720  0.250000  0.250000  1
  Np  Np13  1  0.012280  0.750000  0.750000  1
  Np  Np14  1  0.512280  0.750000  0.250000  1
  Np  Np15  1  0.487720  0.250000  0.750000  1
  O  O16  1  0.216391  0.250000  0.250000  1
  O  O17  1  0.783609  0.750000  0.750000  1
  O  O18  1  0.283609  0.750000  0.250000  1
  O  O19  1  0.716391  0.250000  0.750000  1
  O  O20  1  0.531021  0.552675  0.237856  1
  O  O21  1  0.468979  0.447325  0.762144  1
  O  O22  1  0.968979  0.447325  0.237856  1
  O  O23  1  0.968979  0.052675  0.262144  1
  O  O24  1  0.031021  0.552675  0.762144  1
  O  O25  1  0.031021  0.947325  0.737856  1
  O  O26  1  0.531021  0.947325  0.262144  1
  O  O27  1  0.468979  0.052675  0.737856  1
  O  O28  1  0.479860  0.262157  0.554986  1
  O  O29  1  0.520140  0.737843  0.445014  1
  O  O30  1  0.020140  0.737843  0.554986  1
  O  O31  1  0.020140  0.762157  0.945014  1
  O  O32  1  0.979860  0.262157  0.445014  1
  O  O33  1  0.979860  0.237843  0.054986  1
  O  O34  1  0.479860  0.237843  0.945014  1
  O  O35  1  0.520140  0.762157  0.054986  1
