# generated using pymatgen
data_EuTiCdSbO7
_symmetry_space_group_name_H-M   'P 1'
_cell_length_a   7.33958398
_cell_length_b   7.33958441
_cell_length_c   7.33958422
_cell_angle_alpha   120.62419229
_cell_angle_beta   118.82687354
_cell_angle_gamma   90.48304849
_symmetry_Int_Tables_number   1
_chemical_formula_structural   EuTiCdSbO7
_chemical_formula_sum   'Eu2 Ti2 Cd2 Sb2 O14'
_cell_volume   280.63924670
_cell_formula_units_Z   2
loop_
 _symmetry_equiv_pos_site_id
 _symmetry_equiv_pos_as_xyz
  1  'x, y, z'
loop_
 _atom_site_type_symbol
 _atom_site_label
 _atom_site_symmetry_multiplicity
 _atom_site_fract_x
 _atom_site_fract_y
 _atom_site_fract_z
 _atom_site_occupancy
  Eu  Eu0  1  0.000000  0.000000  0.000000  1
  Eu  Eu1  1  0.500000  0.000000  0.500000  1
  Ti  Ti2  1  0.500000  0.500000  0.500000  1
  Ti  Ti3  1  0.500000  0.000000  0.000000  1
  Cd  Cd4  1  0.000000  0.000000  0.500000  1
  Cd  Cd5  1  0.000000  0.500000  0.000000  1
  Sb  Sb6  1  0.500000  0.500000  0.000000  1
  Sb  Sb7  1  0.000000  0.500000  0.500000  1
  O  O8  1  0.124003  0.874003  0.250000  1
  O  O9  1  0.875997  0.125997  0.750000  1
  O  O10  1  0.428962  0.178962  0.250000  1
  O  O11  1  0.829109  0.579109  0.250000  1
  O  O12  1  0.433550  0.579306  0.258866  1
  O  O13  1  0.820440  0.174682  0.241134  1
  O  O14  1  0.433550  0.174682  0.854244  1
  O  O15  1  0.820440  0.579306  0.645756  1
  O  O16  1  0.571038  0.821038  0.750000  1
  O  O17  1  0.170891  0.420891  0.750000  1
  O  O18  1  0.566450  0.420694  0.741134  1
  O  O19  1  0.179560  0.825318  0.758866  1
  O  O20  1  0.566450  0.825318  0.145756  1
  O  O21  1  0.179560  0.420694  0.354244  1
