# generated using pymatgen
data_Nb8V2SiB4As
_symmetry_space_group_name_H-M   'P 1'
_cell_length_a   7.27081728
_cell_length_b   7.27081724
_cell_length_c   7.27081816
_cell_angle_alpha   129.81409393
_cell_angle_beta   129.81409273
_cell_angle_gamma   73.70414015
_symmetry_Int_Tables_number   1
_chemical_formula_structural   Nb8V2SiB4As
_chemical_formula_sum   'Nb8 V2 Si1 B4 As1'
_cell_volume   221.26519149
_cell_formula_units_Z   1
loop_
 _symmetry_equiv_pos_site_id
 _symmetry_equiv_pos_as_xyz
  1  'x, y, z'
loop_
 _atom_site_type_symbol
 _atom_site_label
 _atom_site_symmetry_multiplicity
 _atom_site_fract_x
 _atom_site_fract_y
 _atom_site_fract_z
 _atom_site_occupancy
  Nb  Nb0  1  0.803284  0.306958  0.839630  1
  Nb  Nb1  1  0.193042  0.696716  0.160370  1
  Nb  Nb2  1  0.467329  0.963655  0.160370  1
  Nb  Nb3  1  0.306958  0.467329  0.503674  1
  Nb  Nb4  1  0.032671  0.193042  0.496326  1
  Nb  Nb5  1  0.536345  0.032671  0.839630  1
  Nb  Nb6  1  0.696716  0.536345  0.503674  1
  Nb  Nb7  1  0.963655  0.803284  0.496326  1
  V  V8  1  0.999212  0.999212  0.000000  1
  V  V9  1  0.500788  0.500788  0.000000  1
  Si  Si10  1  0.750000  0.750000  0.000000  1
  B  B11  1  0.118247  0.618247  0.736494  1
  B  B12  1  0.881753  0.381753  0.263506  1
  B  B13  1  0.618247  0.881753  0.500000  1
  B  B14  1  0.381753  0.118247  0.500000  1
  As  As15  1  0.250000  0.250000  0.000000  1
