# generated using pymatgen
data_La9Nd11Ir7Pt5
_symmetry_space_group_name_H-M   'P 1'
_cell_length_a   11.49488371
_cell_length_b   11.49776514
_cell_length_c   6.56993384
_cell_angle_alpha   90.09903748
_cell_angle_beta   90.10066446
_cell_angle_gamma   89.92926698
_symmetry_Int_Tables_number   1
_chemical_formula_structural   La9Nd11Ir7Pt5
_chemical_formula_sum   'La9 Nd11 Ir7 Pt5'
_cell_volume   868.31511847
_cell_formula_units_Z   1
loop_
 _symmetry_equiv_pos_site_id
 _symmetry_equiv_pos_as_xyz
  1  'x, y, z'
loop_
 _atom_site_type_symbol
 _atom_site_label
 _atom_site_symmetry_multiplicity
 _atom_site_fract_x
 _atom_site_fract_y
 _atom_site_fract_z
 _atom_site_occupancy
  La  La0  1  0.090846  0.291595  0.110866  1
  La  La1  1  0.791899  0.408713  0.111112  1
  La  La2  1  0.205304  0.589516  0.117156  1
  La  La3  1  0.907781  0.708697  0.109796  1
  La  La4  1  0.410939  0.795027  0.383360  1
  La  La5  1  0.592966  0.207986  0.389092  1
  La  La6  1  0.290562  0.091146  0.389967  1
  La  La7  1  0.708770  0.908587  0.389773  1
  La  La8  1  0.410469  0.205276  0.880236  1
  Nd  Nd9  1  0.706166  0.088128  0.880748  1
  Nd  Nd10  1  0.294461  0.912978  0.881529  1
  Nd  Nd11  1  0.591936  0.796228  0.880999  1
  Nd  Nd12  1  0.084860  0.705065  0.618192  1
  Nd  Nd13  1  0.911145  0.295138  0.618946  1
  Nd  Nd14  1  0.202951  0.409100  0.617952  1
  Nd  Nd15  1  0.794516  0.588862  0.619326  1
  Nd  Nd16  1  0.000010  0.999613  0.996760  1
  Nd  Nd17  1  0.502238  0.499591  0.996413  1
  Nd  Nd18  1  0.501427  0.498416  0.503333  1
  Nd  Nd19  1  0.000094  0.000022  0.504156  1
  Ir  Ir20  1  0.153659  0.153100  0.750916  1
  Ir  Ir21  1  0.846512  0.846183  0.749143  1
  Ir  Ir22  1  0.655003  0.346633  0.748979  1
  Ir  Ir23  1  0.000444  0.500426  0.374076  1
  Ir  Ir24  1  0.499750  0.999229  0.125375  1
  Ir  Ir25  1  0.499189  0.999329  0.619608  1
  Ir  Ir26  1  0.000777  0.500825  0.881297  1
  Pt  Pt27  1  0.154038  0.845771  0.250201  1
  Pt  Pt28  1  0.347002  0.347687  0.250455  1
  Pt  Pt29  1  0.652240  0.653223  0.250386  1
  Pt  Pt30  1  0.846749  0.153415  0.250130  1
  Pt  Pt31  1  0.345303  0.654494  0.749722  1
