# generated using pymatgen
data_Yb12Dy8Si15Ag
_symmetry_space_group_name_H-M   'P 1'
_cell_length_a   7.46496390
_cell_length_b   7.79122491
_cell_length_c   15.15240867
_cell_angle_alpha   89.57973685
_cell_angle_beta   90.68974549
_cell_angle_gamma   90.34162423
_symmetry_Int_Tables_number   1
_chemical_formula_structural   Yb12Dy8Si15Ag
_chemical_formula_sum   'Yb12 Dy8 Si15 Ag1'
_cell_volume   881.17969426
_cell_formula_units_Z   1
loop_
 _symmetry_equiv_pos_site_id
 _symmetry_equiv_pos_as_xyz
  1  'x, y, z'
loop_
 _atom_site_type_symbol
 _atom_site_label
 _atom_site_symmetry_multiplicity
 _atom_site_fract_x
 _atom_site_fract_y
 _atom_site_fract_z
 _atom_site_occupancy
  Yb  Yb0  1  0.979636  0.817710  0.403332  1
  Yb  Yb1  1  0.470531  0.683532  0.096436  1
  Yb  Yb2  1  0.512555  0.321335  0.596716  1
  Yb  Yb3  1  0.028272  0.184507  0.903936  1
  Yb  Yb4  1  0.028109  0.178902  0.595826  1
  Yb  Yb5  1  0.529071  0.317268  0.903550  1
  Yb  Yb6  1  0.472143  0.681164  0.404058  1
  Yb  Yb7  1  0.971511  0.815823  0.096241  1
  Yb  Yb8  1  0.351455  0.020828  0.751949  1
  Yb  Yb9  1  0.850427  0.483529  0.750368  1
  Yb  Yb10  1  0.149051  0.518964  0.250647  1
  Yb  Yb11  1  0.646856  0.978376  0.249625  1
  Dy  Dy12  1  0.315539  0.175864  0.120355  1
  Dy  Dy13  1  0.822280  0.318285  0.374533  1
  Dy  Dy14  1  0.184362  0.678613  0.879768  1
  Dy  Dy15  1  0.675441  0.829939  0.625811  1
  Dy  Dy16  1  0.319741  0.177919  0.376923  1
  Dy  Dy17  1  0.814744  0.322425  0.120420  1
  Dy  Dy18  1  0.189214  0.677661  0.620286  1
  Dy  Dy19  1  0.686000  0.824218  0.879602  1
  Si  Si20  1  0.359669  0.967220  0.961661  1
  Si  Si21  1  0.646080  0.032361  0.463854  1
  Si  Si22  1  0.140166  0.467149  0.039216  1
  Si  Si23  1  0.154191  0.461940  0.460405  1
  Si  Si24  1  0.641239  0.032501  0.038791  1
  Si  Si25  1  0.359282  0.967781  0.536985  1
  Si  Si26  1  0.859002  0.532436  0.961559  1
  Si  Si27  1  0.976309  0.883980  0.749525  1
  Si  Si28  1  0.473927  0.617773  0.753255  1
  Si  Si29  1  0.525323  0.381968  0.246844  1
  Si  Si30  1  0.024349  0.113434  0.249501  1
  Si  Si31  1  0.245377  0.395546  0.751373  1
  Si  Si32  1  0.749414  0.108172  0.750533  1
  Si  Si33  1  0.252044  0.893486  0.249066  1
  Si  Si34  1  0.752040  0.604473  0.250567  1
  Ag  Ag35  1  0.844652  0.532917  0.536481  1
