# generated using pymatgen
data_Tb2Yb5Sm(Cu2Sn5)2
_symmetry_space_group_name_H-M   'P 1'
_cell_length_a   4.45111500
_cell_length_b   8.78219900
_cell_length_c   14.10061200
_cell_angle_alpha   90.00000000
_cell_angle_beta   90.00000000
_cell_angle_gamma   90.00000000
_symmetry_Int_Tables_number   1
_chemical_formula_structural   Tb2Yb5Sm(Cu2Sn5)2
_chemical_formula_sum   'Tb2 Yb5 Sm1 Cu4 Sn10'
_cell_volume   551.20106903
_cell_formula_units_Z   1
loop_
 _symmetry_equiv_pos_site_id
 _symmetry_equiv_pos_as_xyz
  1  'x, y, z'
loop_
 _atom_site_type_symbol
 _atom_site_label
 _atom_site_symmetry_multiplicity
 _atom_site_fract_x
 _atom_site_fract_y
 _atom_site_fract_z
 _atom_site_occupancy
  Tb  Tb0  1  0.500000  0.696167  0.000000  1
  Tb  Tb1  1  0.000000  0.298070  0.500000  1
  Yb  Yb2  1  0.500000  0.792091  0.741892  1
  Yb  Yb3  1  0.000000  0.205643  0.754662  1
  Yb  Yb4  1  0.000000  0.205643  0.245338  1
  Yb  Yb5  1  0.000000  0.865373  0.500000  1
  Yb  Yb6  1  0.500000  0.792091  0.258108  1
  Sm  Sm7  1  0.500000  0.138203  0.000000  1
  Cu  Cu8  1  0.500000  0.378649  0.644511  1
  Cu  Cu9  1  0.000000  0.623262  0.854324  1
  Cu  Cu10  1  0.000000  0.623262  0.145676  1
  Cu  Cu11  1  0.500000  0.378649  0.355489  1
  Sn  Sn12  1  0.500000  0.084023  0.395794  1
  Sn  Sn13  1  0.000000  0.553888  0.663027  1
  Sn  Sn14  1  0.000000  0.410542  0.000000  1
  Sn  Sn15  1  0.500000  0.443940  0.164038  1
  Sn  Sn16  1  0.500000  0.594135  0.500000  1
  Sn  Sn17  1  0.500000  0.443940  0.835962  1
  Sn  Sn18  1  0.000000  0.917260  0.896312  1
  Sn  Sn19  1  0.000000  0.553888  0.336973  1
  Sn  Sn20  1  0.500000  0.084023  0.604206  1
  Sn  Sn21  1  0.000000  0.917260  0.103688  1
