# generated using pymatgen
data_Dy16Zn3Co4Hg
_symmetry_space_group_name_H-M   'P 1'
_cell_length_a   9.36122666
_cell_length_b   9.35493024
_cell_length_c   9.35652116
_cell_angle_alpha   60.00136413
_cell_angle_beta   60.00413525
_cell_angle_gamma   60.00618023
_symmetry_Int_Tables_number   1
_chemical_formula_structural   Dy16Zn3Co4Hg
_chemical_formula_sum   'Dy16 Zn3 Co4 Hg1'
_cell_volume   579.44344034
_cell_formula_units_Z   1
loop_
 _symmetry_equiv_pos_site_id
 _symmetry_equiv_pos_as_xyz
  1  'x, y, z'
loop_
 _atom_site_type_symbol
 _atom_site_label
 _atom_site_symmetry_multiplicity
 _atom_site_fract_x
 _atom_site_fract_y
 _atom_site_fract_z
 _atom_site_occupancy
  Dy  Dy0  1  0.150264  0.547579  0.151032  1
  Dy  Dy1  1  0.690230  0.309685  0.690434  1
  Dy  Dy2  1  0.690380  0.309590  0.309610  1
  Dy  Dy3  1  0.938448  0.562129  0.562075  1
  Dy  Dy4  1  0.550087  0.149927  0.150028  1
  Dy  Dy5  1  0.150287  0.151013  0.547615  1
  Dy  Dy6  1  0.938424  0.937329  0.562076  1
  Dy  Dy7  1  0.309215  0.690093  0.310715  1
  Dy  Dy8  1  0.565129  0.937976  0.938032  1
  Dy  Dy9  1  0.565179  0.937960  0.558884  1
  Dy  Dy10  1  0.690224  0.690441  0.309696  1
  Dy  Dy11  1  0.565135  0.558881  0.938012  1
  Dy  Dy12  1  0.938353  0.562149  0.937314  1
  Dy  Dy13  1  0.309228  0.690066  0.690033  1
  Dy  Dy14  1  0.150330  0.151088  0.151060  1
  Dy  Dy15  1  0.309212  0.310693  0.690083  1
  Zn  Zn16  1  0.916836  0.237376  0.922882  1
  Zn  Zn17  1  0.916851  0.922890  0.922900  1
  Zn  Zn18  1  0.916825  0.922862  0.237420  1
  Co  Co19  1  0.359299  0.357879  0.924883  1
  Co  Co20  1  0.359266  0.924895  0.357849  1
  Co  Co21  1  0.923932  0.358698  0.358651  1
  Co  Co22  1  0.359316  0.357985  0.357903  1
  Hg  Hg23  1  0.237551  0.920815  0.920809  1
