# generated using pymatgen
data_Pa4Tc3(Ge3Rh2)2
_symmetry_space_group_name_H-M   'P 1'
_cell_length_a   7.30734462
_cell_length_b   7.30734464
_cell_length_c   7.31702500
_cell_angle_alpha   109.49805558
_cell_angle_beta   109.49805564
_cell_angle_gamma   109.44437617
_symmetry_Int_Tables_number   1
_chemical_formula_structural   Pa4Tc3(Ge3Rh2)2
_chemical_formula_sum   'Pa4 Tc3 Ge6 Rh4'
_cell_volume   300.66845849
_cell_formula_units_Z   1
loop_
 _symmetry_equiv_pos_site_id
 _symmetry_equiv_pos_as_xyz
  1  'x, y, z'
loop_
 _atom_site_type_symbol
 _atom_site_label
 _atom_site_symmetry_multiplicity
 _atom_site_fract_x
 _atom_site_fract_y
 _atom_site_fract_z
 _atom_site_occupancy
  Pa  Pa0  1  0.509731  0.490269  0.500000  1
  Pa  Pa1  1  0.980539  0.490269  0.990269  1
  Pa  Pa2  1  0.509731  0.019461  0.009731  1
  Pa  Pa3  1  0.000000  0.000000  0.500000  1
  Tc  Tc4  1  0.751597  0.503195  0.251597  1
  Tc  Tc5  1  0.496805  0.248403  0.748403  1
  Tc  Tc6  1  0.751597  0.248403  0.500000  1
  Ge  Ge7  1  0.684287  0.995830  0.685411  1
  Ge  Ge8  1  0.684287  0.688457  0.998876  1
  Ge  Ge9  1  0.311543  0.315713  0.001124  1
  Ge  Ge10  1  0.004170  0.688457  0.689581  1
  Ge  Ge11  1  0.004170  0.315713  0.314589  1
  Ge  Ge12  1  0.311543  0.995830  0.310419  1
  Rh  Rh13  1  0.250950  0.749050  0.500000  1
  Rh  Rh14  1  0.250950  0.501899  0.750950  1
  Rh  Rh15  1  0.498101  0.749050  0.249050  1
  Rh  Rh16  1  0.000000  0.000000  0.000000  1
