# generated using pymatgen
data_Li3Tm4MgPt4
_symmetry_space_group_name_H-M   'P 1'
_cell_length_a   3.97954300
_cell_length_b   6.99397657
_cell_length_c   8.47381435
_cell_angle_alpha   90.08324390
_cell_angle_beta   90.00000000
_cell_angle_gamma   90.00000000
_symmetry_Int_Tables_number   1
_chemical_formula_structural   Li3Tm4MgPt4
_chemical_formula_sum   'Li3 Tm4 Mg1 Pt4'
_cell_volume   235.84998962
_cell_formula_units_Z   1
loop_
 _symmetry_equiv_pos_site_id
 _symmetry_equiv_pos_as_xyz
  1  'x, y, z'
loop_
 _atom_site_type_symbol
 _atom_site_label
 _atom_site_symmetry_multiplicity
 _atom_site_fract_x
 _atom_site_fract_y
 _atom_site_fract_z
 _atom_site_occupancy
  Li  Li0  1  0.250000  0.375475  0.558519  1
  Li  Li1  1  0.250000  0.869523  0.940121  1
  Li  Li2  1  0.750000  0.623976  0.442378  1
  Tm  Tm3  1  0.250000  0.948284  0.326021  1
  Tm  Tm4  1  0.250000  0.453356  0.180346  1
  Tm  Tm5  1  0.750000  0.051647  0.676954  1
  Tm  Tm6  1  0.750000  0.551810  0.819640  1
  Mg  Mg7  1  0.750000  0.123005  0.058044  1
  Pt  Pt8  1  0.250000  0.258521  0.872371  1
  Pt  Pt9  1  0.250000  0.759870  0.627640  1
  Pt  Pt10  1  0.750000  0.741670  0.127389  1
  Pt  Pt11  1  0.750000  0.242865  0.370577  1
