# generated using pymatgen
data_Lu2Al9OsRh2
_symmetry_space_group_name_H-M   'P 1'
_cell_length_a   7.48079544
_cell_length_b   7.48079585
_cell_length_c   9.42351500
_cell_angle_alpha   90.00000000
_cell_angle_beta   90.00000000
_cell_angle_gamma   118.40598793
_symmetry_Int_Tables_number   1
_chemical_formula_structural   Lu2Al9OsRh2
_chemical_formula_sum   'Lu4 Al18 Os2 Rh4'
_cell_volume   463.86666829
_cell_formula_units_Z   2
loop_
 _symmetry_equiv_pos_site_id
 _symmetry_equiv_pos_as_xyz
  1  'x, y, z'
loop_
 _atom_site_type_symbol
 _atom_site_label
 _atom_site_symmetry_multiplicity
 _atom_site_fract_x
 _atom_site_fract_y
 _atom_site_fract_z
 _atom_site_occupancy
  Lu  Lu0  1  0.993147  0.680578  0.250000  1
  Lu  Lu1  1  0.006853  0.319422  0.750000  1
  Lu  Lu2  1  0.680578  0.993147  0.250000  1
  Lu  Lu3  1  0.319422  0.006853  0.750000  1
  Al  Al4  1  0.133574  0.133574  0.250000  1
  Al  Al5  1  0.866426  0.866426  0.750000  1
  Al  Al6  1  0.002377  0.338458  0.075954  1
  Al  Al7  1  0.997623  0.661542  0.924046  1
  Al  Al8  1  0.997623  0.661542  0.575954  1
  Al  Al9  1  0.338458  0.002377  0.424046  1
  Al  Al10  1  0.002377  0.338458  0.424046  1
  Al  Al11  1  0.661542  0.997623  0.575954  1
  Al  Al12  1  0.661542  0.997623  0.924046  1
  Al  Al13  1  0.338458  0.002377  0.075954  1
  Al  Al14  1  0.331500  0.331500  0.548599  1
  Al  Al15  1  0.668500  0.668500  0.451401  1
  Al  Al16  1  0.668500  0.668500  0.048599  1
  Al  Al17  1  0.331500  0.331500  0.951401  1
  Al  Al18  1  0.341492  0.555714  0.250000  1
  Al  Al19  1  0.658508  0.444286  0.750000  1
  Al  Al20  1  0.555714  0.341492  0.250000  1
  Al  Al21  1  0.444286  0.658508  0.750000  1
  Os  Os22  1  0.000000  0.000000  0.000000  1
  Os  Os23  1  0.000000  0.000000  0.500000  1
  Rh  Rh24  1  0.672115  0.327885  0.000000  1
  Rh  Rh25  1  0.327885  0.672115  0.000000  1
  Rh  Rh26  1  0.327885  0.672115  0.500000  1
  Rh  Rh27  1  0.672115  0.327885  0.500000  1
