# generated using pymatgen
data_SiNi4P3Ru4
_symmetry_space_group_name_H-M   'P 1'
_cell_length_a   3.70976600
_cell_length_b   5.65431193
_cell_length_c   6.89649398
_cell_angle_alpha   89.81252561
_cell_angle_beta   90.00000000
_cell_angle_gamma   90.00000000
_symmetry_Int_Tables_number   1
_chemical_formula_structural   SiNi4P3Ru4
_chemical_formula_sum   'Si1 Ni4 P3 Ru4'
_cell_volume   144.66128444
_cell_formula_units_Z   1
loop_
 _symmetry_equiv_pos_site_id
 _symmetry_equiv_pos_as_xyz
  1  'x, y, z'
loop_
 _atom_site_type_symbol
 _atom_site_label
 _atom_site_symmetry_multiplicity
 _atom_site_fract_x
 _atom_site_fract_y
 _atom_site_fract_z
 _atom_site_occupancy
  Si  Si0  1  0.250000  0.747761  0.622508  1
  Ni  Ni1  1  0.250000  0.352363  0.563821  1
  Ni  Ni2  1  0.750000  0.636009  0.430263  1
  Ni  Ni3  1  0.250000  0.865539  0.940619  1
  Ni  Ni4  1  0.750000  0.140493  0.066734  1
  P  P5  1  0.750000  0.246559  0.380953  1
  P  P6  1  0.250000  0.250796  0.877662  1
  P  P7  1  0.750000  0.749338  0.119544  1
  Ru  Ru8  1  0.750000  0.029874  0.675332  1
  Ru  Ru9  1  0.250000  0.978051  0.325787  1
  Ru  Ru10  1  0.750000  0.527207  0.827461  1
  Ru  Ru11  1  0.250000  0.476010  0.169316  1
