# generated using pymatgen
data_LuNb8CdS16
_symmetry_space_group_name_H-M   'P 1'
_cell_length_a   6.72881000
_cell_length_b   6.72880929
_cell_length_c   13.76576800
_cell_angle_alpha   90.00000000
_cell_angle_beta   90.00000000
_cell_angle_gamma   120.00001332
_symmetry_Int_Tables_number   1
_chemical_formula_structural   LuNb8CdS16
_chemical_formula_sum   'Lu1 Nb8 Cd1 S16'
_cell_volume   539.76846028
_cell_formula_units_Z   1
loop_
 _symmetry_equiv_pos_site_id
 _symmetry_equiv_pos_as_xyz
  1  'x, y, z'
loop_
 _atom_site_type_symbol
 _atom_site_label
 _atom_site_symmetry_multiplicity
 _atom_site_fract_x
 _atom_site_fract_y
 _atom_site_fract_z
 _atom_site_occupancy
  Lu  Lu0  1  0.000000  0.000000  0.000000  1
  Nb  Nb1  1  0.000000  0.000000  0.241697  1
  Nb  Nb2  1  0.000000  0.000000  0.758303  1
  Nb  Nb3  1  0.505089  0.494911  0.243887  1
  Nb  Nb4  1  0.505089  0.010179  0.243887  1
  Nb  Nb5  1  0.989821  0.494911  0.243887  1
  Nb  Nb6  1  0.494911  0.505089  0.756113  1
  Nb  Nb7  1  0.494911  0.989821  0.756113  1
  Nb  Nb8  1  0.010179  0.505089  0.756113  1
  Cd  Cd9  1  0.000000  0.000000  0.500000  1
  S  S10  1  0.333333  0.666667  0.872773  1
  S  S11  1  0.666667  0.333333  0.127227  1
  S  S12  1  0.666667  0.333333  0.358915  1
  S  S13  1  0.333333  0.666667  0.641085  1
  S  S14  1  0.166182  0.833818  0.356277  1
  S  S15  1  0.166182  0.332364  0.356277  1
  S  S16  1  0.667636  0.833818  0.356277  1
  S  S17  1  0.833818  0.166182  0.643723  1
  S  S18  1  0.833818  0.667636  0.643723  1
  S  S19  1  0.332364  0.166182  0.643723  1
  S  S20  1  0.830972  0.169028  0.870733  1
  S  S21  1  0.830972  0.661946  0.870733  1
  S  S22  1  0.338054  0.169028  0.870733  1
  S  S23  1  0.169028  0.830972  0.129267  1
  S  S24  1  0.169028  0.338054  0.129267  1
  S  S25  1  0.661946  0.830972  0.129267  1
