# generated using pymatgen
data_Dy5YHg10
_symmetry_space_group_name_H-M   'P 1'
_cell_length_a   6.38807310
_cell_length_b   6.38807185
_cell_length_c   10.18075318
_cell_angle_alpha   89.98688377
_cell_angle_beta   89.98688247
_cell_angle_gamma   105.09729469
_symmetry_Int_Tables_number   1
_chemical_formula_structural   Dy5YHg10
_chemical_formula_sum   'Dy5 Y1 Hg10'
_cell_volume   401.11143838
_cell_formula_units_Z   1
loop_
 _symmetry_equiv_pos_site_id
 _symmetry_equiv_pos_as_xyz
  1  'x, y, z'
loop_
 _atom_site_type_symbol
 _atom_site_label
 _atom_site_symmetry_multiplicity
 _atom_site_fract_x
 _atom_site_fract_y
 _atom_site_fract_z
 _atom_site_occupancy
  Dy  Dy0  1  0.212648  0.787352  0.000000  1
  Dy  Dy1  1  0.212674  0.787326  0.500000  1
  Dy  Dy2  1  0.787254  0.212746  0.500000  1
  Dy  Dy3  1  0.569189  0.569290  0.250045  1
  Dy  Dy4  1  0.430710  0.430811  0.749955  1
  Y  Y5  1  0.787124  0.212876  0.000000  1
  Hg  Hg6  1  0.037277  0.477703  0.250189  1
  Hg  Hg7  1  0.963292  0.522924  0.749649  1
  Hg  Hg8  1  0.477076  0.036708  0.250351  1
  Hg  Hg9  1  0.522297  0.962723  0.749811  1
  Hg  Hg10  1  0.970766  0.970500  0.250203  1
  Hg  Hg11  1  0.029500  0.029234  0.749797  1
  Hg  Hg12  1  0.293098  0.292833  0.029546  1
  Hg  Hg13  1  0.707167  0.706902  0.970454  1
  Hg  Hg14  1  0.707194  0.707266  0.529542  1
  Hg  Hg15  1  0.292734  0.292806  0.470458  1
