# generated using pymatgen
data_YEr2(In2Rh)2
_symmetry_space_group_name_H-M   'P 1'
_cell_length_a   7.92031433
_cell_length_b   7.91451338
_cell_length_c   3.73892000
_cell_angle_alpha   90.00000000
_cell_angle_beta   90.00000000
_cell_angle_gamma   120.09074514
_symmetry_Int_Tables_number   1
_chemical_formula_structural   YEr2(In2Rh)2
_chemical_formula_sum   'Y1 Er2 In4 Rh2'
_cell_volume   202.78955892
_cell_formula_units_Z   1
loop_
 _symmetry_equiv_pos_site_id
 _symmetry_equiv_pos_as_xyz
  1  'x, y, z'
loop_
 _atom_site_type_symbol
 _atom_site_label
 _atom_site_symmetry_multiplicity
 _atom_site_fract_x
 _atom_site_fract_y
 _atom_site_fract_z
 _atom_site_occupancy
  Y  Y0  1  0.699616  0.955081  0.500000  1
  Er  Er1  1  0.255453  0.297547  0.500000  1
  Er  Er2  1  0.042597  0.745208  0.500000  1
  In  In3  1  0.926552  0.336336  0.000000  1
  In  In4  1  0.408418  0.073659  0.000000  1
  In  In5  1  0.664556  0.591001  0.000000  1
  In  In6  1  0.331751  0.665499  0.000000  1
  Rh  Rh7  1  0.666284  0.334806  0.500000  1
  Rh  Rh8  1  0.004774  0.000863  0.000000  1
