# generated using pymatgen
data_Nd2NiH8Rh
_symmetry_space_group_name_H-M   'P 1'
_cell_length_a   3.81347101
_cell_length_b   4.96422400
_cell_length_c   6.31337912
_cell_angle_alpha   90.00000000
_cell_angle_beta   107.51662076
_cell_angle_gamma   90.00000000
_symmetry_Int_Tables_number   1
_chemical_formula_structural   Nd2NiH8Rh
_chemical_formula_sum   'Nd2 Ni1 H8 Rh1'
_cell_volume   113.97600969
_cell_formula_units_Z   1
loop_
 _symmetry_equiv_pos_site_id
 _symmetry_equiv_pos_as_xyz
  1  'x, y, z'
loop_
 _atom_site_type_symbol
 _atom_site_label
 _atom_site_symmetry_multiplicity
 _atom_site_fract_x
 _atom_site_fract_y
 _atom_site_fract_z
 _atom_site_occupancy
  Nd  Nd0  1  0.864702  0.750000  0.229965  1
  Nd  Nd1  1  0.131128  0.249999  0.762435  1
  Ni  Ni2  1  0.603969  0.750000  0.698644  1
  H  H3  1  0.305597  0.000118  0.110857  1
  H  H4  1  0.305597  0.499881  0.110857  1
  H  H5  1  0.911750  0.249999  0.323296  1
  H  H6  1  0.504361  0.992157  0.508438  1
  H  H7  1  0.504361  0.507844  0.508438  1
  H  H8  1  0.083266  0.750000  0.673093  1
  H  H9  1  0.689775  0.504454  0.880401  1
  H  H10  1  0.689775  0.995545  0.880401  1
  Rh  Rh11  1  0.405717  0.249999  0.313174  1
