# generated using pymatgen
data_Tm20Os4RhAu7
_symmetry_space_group_name_H-M   'P 1'
_cell_length_a   11.10001564
_cell_length_b   11.10001504
_cell_length_c   6.31626000
_cell_angle_alpha   89.76465853
_cell_angle_beta   89.76465855
_cell_angle_gamma   90.68666467
_symmetry_Int_Tables_number   1
_chemical_formula_structural   Tm20Os4RhAu7
_chemical_formula_sum   'Tm20 Os4 Rh1 Au7'
_cell_volume   778.15936941
_cell_formula_units_Z   1
loop_
 _symmetry_equiv_pos_site_id
 _symmetry_equiv_pos_as_xyz
  1  'x, y, z'
loop_
 _atom_site_type_symbol
 _atom_site_label
 _atom_site_symmetry_multiplicity
 _atom_site_fract_x
 _atom_site_fract_y
 _atom_site_fract_z
 _atom_site_occupancy
  Tm  Tm0  1  0.301367  0.078636  0.355702  1
  Tm  Tm1  1  0.299876  0.909336  0.857144  1
  Tm  Tm2  1  0.696410  0.081040  0.854536  1
  Tm  Tm3  1  0.696758  0.915830  0.352755  1
  Tm  Tm4  1  0.575122  0.795657  0.853015  1
  Tm  Tm5  1  0.581465  0.198698  0.356614  1
  Tm  Tm6  1  0.412991  0.795256  0.362804  1
  Tm  Tm7  1  0.416489  0.194979  0.857112  1
  Tm  Tm8  1  0.204343  0.424878  0.646985  1
  Tm  Tm9  1  0.204744  0.587009  0.137196  1
  Tm  Tm10  1  0.801302  0.418535  0.143386  1
  Tm  Tm11  1  0.805021  0.583511  0.642888  1
  Tm  Tm12  1  0.921364  0.698633  0.144298  1
  Tm  Tm13  1  0.918960  0.303590  0.645464  1
  Tm  Tm14  1  0.090664  0.700124  0.642856  1
  Tm  Tm15  1  0.084170  0.303242  0.147245  1
  Tm  Tm16  1  0.997356  0.001050  0.500301  1
  Tm  Tm17  1  0.998950  0.002644  0.999699  1
  Tm  Tm18  1  0.493194  0.502283  0.998895  1
  Tm  Tm19  1  0.497717  0.506806  0.501105  1
  Os  Os20  1  0.498379  0.996920  0.109651  1
  Os  Os21  1  0.498544  0.997750  0.607278  1
  Os  Os22  1  0.002250  0.501456  0.892722  1
  Os  Os23  1  0.003080  0.501621  0.390349  1
  Rh  Rh24  1  0.350075  0.649925  0.750000  1
  Au  Au25  1  0.844183  0.155817  0.250000  1
  Au  Au26  1  0.842658  0.844756  0.752715  1
  Au  Au27  1  0.155244  0.157342  0.747285  1
  Au  Au28  1  0.153431  0.846569  0.250000  1
  Au  Au29  1  0.652486  0.347514  0.750000  1
  Au  Au30  1  0.656774  0.655364  0.244212  1
  Au  Au31  1  0.344636  0.343226  0.255788  1
