# generated using pymatgen
data_Ho3Er5Tc3OsC8
_symmetry_space_group_name_H-M   'P 1'
_cell_length_a   5.05933300
_cell_length_b   6.51801586
_cell_length_c   9.77868516
_cell_angle_alpha   89.78476923
_cell_angle_beta   90.00000000
_cell_angle_gamma   90.00000000
_symmetry_Int_Tables_number   1
_chemical_formula_structural   Ho3Er5Tc3OsC8
_chemical_formula_sum   'Ho3 Er5 Tc3 Os1 C8'
_cell_volume   322.46759372
_cell_formula_units_Z   1
loop_
 _symmetry_equiv_pos_site_id
 _symmetry_equiv_pos_as_xyz
  1  'x, y, z'
loop_
 _atom_site_type_symbol
 _atom_site_label
 _atom_site_symmetry_multiplicity
 _atom_site_fract_x
 _atom_site_fract_y
 _atom_site_fract_z
 _atom_site_occupancy
  Ho  Ho0  1  0.750000  0.466790  0.784432  1
  Ho  Ho1  1  0.750000  0.968967  0.713452  1
  Ho  Ho2  1  0.250000  0.031297  0.284366  1
  Er  Er3  1  0.250000  0.676200  0.557164  1
  Er  Er4  1  0.750000  0.322537  0.442714  1
  Er  Er5  1  0.750000  0.823176  0.057571  1
  Er  Er6  1  0.250000  0.176031  0.942730  1
  Er  Er7  1  0.250000  0.531533  0.216240  1
  Tc  Tc8  1  0.250000  0.719238  0.866753  1
  Tc  Tc9  1  0.750000  0.281430  0.132634  1
  Tc  Tc10  1  0.750000  0.780141  0.367225  1
  Os  Os11  1  0.250000  0.219691  0.633429  1
  C  C12  1  0.250000  0.452459  0.758370  1
  C  C13  1  0.750000  0.547982  0.241221  1
  C  C14  1  0.750000  0.048139  0.259203  1
  C  C15  1  0.250000  0.953600  0.741450  1
  C  C16  1  0.250000  0.823518  0.051368  1
  C  C17  1  0.750000  0.176133  0.948151  1
  C  C18  1  0.750000  0.675865  0.552562  1
  C  C19  1  0.250000  0.325272  0.448963  1
