# generated using pymatgen
data_Mn8Tc3W
_symmetry_space_group_name_H-M   'P 1'
_cell_length_a   4.67520200
_cell_length_b   4.67520053
_cell_length_c   7.67047700
_cell_angle_alpha   90.00000000
_cell_angle_beta   90.00000000
_cell_angle_gamma   120.00001042
_symmetry_Int_Tables_number   1
_chemical_formula_structural   Mn8Tc3W
_chemical_formula_sum   'Mn8 Tc3 W1'
_cell_volume   145.19564204
_cell_formula_units_Z   1
loop_
 _symmetry_equiv_pos_site_id
 _symmetry_equiv_pos_as_xyz
  1  'x, y, z'
loop_
 _atom_site_type_symbol
 _atom_site_label
 _atom_site_symmetry_multiplicity
 _atom_site_fract_x
 _atom_site_fract_y
 _atom_site_fract_z
 _atom_site_occupancy
  Mn  Mn0  1  0.173293  0.346585  0.749403  1
  Mn  Mn1  1  0.826331  0.173669  0.251600  1
  Mn  Mn2  1  0.347338  0.173669  0.251600  1
  Mn  Mn3  1  0.653415  0.826707  0.749403  1
  Mn  Mn4  1  0.000000  0.000000  0.001817  1
  Mn  Mn5  1  0.000000  0.000000  0.500338  1
  Mn  Mn6  1  0.826331  0.652662  0.251600  1
  Mn  Mn7  1  0.173293  0.826707  0.749403  1
  Tc  Tc8  1  0.333333  0.666667  0.432703  1
  Tc  Tc9  1  0.666667  0.333333  0.930093  1
  Tc  Tc10  1  0.666667  0.333333  0.568126  1
  W  W11  1  0.333333  0.666667  0.063913  1
