# generated using pymatgen
data_Tm16CdHg3(IrRh)2
_symmetry_space_group_name_H-M   'P 1'
_cell_length_a   9.47762722
_cell_length_b   9.47061891
_cell_length_c   9.47001500
_cell_angle_alpha   60.00211286
_cell_angle_beta   60.02656884
_cell_angle_gamma   60.03900578
_symmetry_Int_Tables_number   1
_chemical_formula_structural   Tm16CdHg3(IrRh)2
_chemical_formula_sum   'Tm16 Cd1 Hg3 Ir2 Rh2'
_cell_volume   601.36151884
_cell_formula_units_Z   1
loop_
 _symmetry_equiv_pos_site_id
 _symmetry_equiv_pos_as_xyz
  1  'x, y, z'
loop_
 _atom_site_type_symbol
 _atom_site_label
 _atom_site_symmetry_multiplicity
 _atom_site_fract_x
 _atom_site_fract_y
 _atom_site_fract_z
 _atom_site_occupancy
  Tm  Tm0  1  0.601312  0.600341  0.599354  1
  Tm  Tm1  1  0.601312  0.600341  0.198995  1
  Tm  Tm2  1  0.602280  0.197640  0.600041  1
  Tm  Tm3  1  0.193641  0.602955  0.601703  1
  Tm  Tm4  1  0.059669  0.439381  0.439599  1
  Tm  Tm5  1  0.438261  0.060426  0.062213  1
  Tm  Tm6  1  0.438261  0.060426  0.439101  1
  Tm  Tm7  1  0.059669  0.439381  0.061350  1
  Tm  Tm8  1  0.438404  0.438992  0.061303  1
  Tm  Tm9  1  0.060423  0.060387  0.439595  1
  Tm  Tm10  1  0.186847  0.813402  0.812125  1
  Tm  Tm11  1  0.812748  0.187952  0.186921  1
  Tm  Tm12  1  0.812748  0.187952  0.812380  1
  Tm  Tm13  1  0.186847  0.813402  0.187626  1
  Tm  Tm14  1  0.811395  0.812212  0.188197  1
  Tm  Tm15  1  0.185633  0.187619  0.813374  1
  Cd  Cd16  1  0.509620  0.830104  0.830138  1
  Hg  Hg17  1  0.833759  0.835489  0.835298  1
  Hg  Hg18  1  0.833759  0.835489  0.495453  1
  Hg  Hg19  1  0.833958  0.494450  0.835796  1
  Ir  Ir20  1  0.392216  0.822257  0.392762  1
  Ir  Ir21  1  0.823001  0.392740  0.392129  1
  Rh  Rh22  1  0.392119  0.393330  0.392683  1
  Rh  Rh23  1  0.392119  0.393330  0.821866  1
