# generated using pymatgen
data_Ca3Mg(BrO3)8
_symmetry_space_group_name_H-M   'P 1'
_cell_length_a   5.78948231
_cell_length_b   11.23518887
_cell_length_c   11.30965889
_cell_angle_alpha   119.39637750
_cell_angle_beta   90.19470117
_cell_angle_gamma   90.25847864
_symmetry_Int_Tables_number   1
_chemical_formula_structural   Ca3Mg(BrO3)8
_chemical_formula_sum   'Ca3 Mg1 Br8 O24'
_cell_volume   640.90905260
_cell_formula_units_Z   1
loop_
 _symmetry_equiv_pos_site_id
 _symmetry_equiv_pos_as_xyz
  1  'x, y, z'
loop_
 _atom_site_type_symbol
 _atom_site_label
 _atom_site_symmetry_multiplicity
 _atom_site_fract_x
 _atom_site_fract_y
 _atom_site_fract_z
 _atom_site_occupancy
  Ca  Ca0  1  0.641249  0.238598  0.492596  1
  Ca  Ca1  1  0.141776  0.265652  0.007749  1
  Ca  Ca2  1  0.635703  0.733795  0.994316  1
  Mg  Mg3  1  0.147545  0.761305  0.508501  1
  Br  Br4  1  0.265218  0.430158  0.358760  1
  Br  Br5  1  0.780387  0.592908  0.647043  1
  Br  Br6  1  0.263445  0.912368  0.838245  1
  Br  Br7  1  0.764554  0.083133  0.146114  1
  Br  Br8  1  0.791803  0.066587  0.676533  1
  Br  Br9  1  0.273185  0.905207  0.317803  1
  Br  Br10  1  0.278887  0.413834  0.804147  1
  Br  Br11  1  0.789059  0.592822  0.208723  1
  O  O12  1  0.422526  0.876069  0.940763  1
  O  O13  1  0.921826  0.109530  0.036785  1
  O  O14  1  0.363045  0.806361  0.679995  1
  O  O15  1  0.867117  0.195980  0.301221  1
  O  O16  1  0.371585  0.324077  0.203182  1
  O  O17  1  0.878486  0.698747  0.805598  1
  O  O18  1  0.914944  0.201273  0.810821  1
  O  O19  1  0.410929  0.777649  0.185714  1
  O  O20  1  0.946811  0.929047  0.650933  1
  O  O21  1  0.413964  0.047974  0.345588  1
  O  O22  1  0.365293  0.067731  0.874632  1
  O  O23  1  0.859953  0.931504  0.122408  1
  O  O24  1  0.409690  0.278352  0.677381  1
  O  O25  1  0.936904  0.721439  0.337187  1
  O  O26  1  0.347423  0.404297  0.944140  1
  O  O27  1  0.854886  0.610431  0.072992  1
  O  O28  1  0.426505  0.551385  0.822871  1
  O  O29  1  0.921314  0.447194  0.177729  1
  O  O30  1  0.356171  0.586866  0.390862  1
  O  O31  1  0.873916  0.437768  0.615309  1
  O  O32  1  0.428843  0.398907  0.463326  1
  O  O33  1  0.944523  0.624756  0.542835  1
  O  O34  1  0.855710  0.092074  0.545386  1
  O  O35  1  0.344424  0.884226  0.451807  1
