# generated using pymatgen
data_Cs3Li2TaP3
_symmetry_space_group_name_H-M   'P 1'
_cell_length_a   9.61651517
_cell_length_b   9.61651572
_cell_length_c   22.56007700
_cell_angle_alpha   90.00000000
_cell_angle_beta   90.00000000
_cell_angle_gamma   142.46264685
_symmetry_Int_Tables_number   1
_chemical_formula_structural   Cs3Li2TaP3
_chemical_formula_sum   'Cs12 Li8 Ta4 P12'
_cell_volume   1271.13567719
_cell_formula_units_Z   4
loop_
 _symmetry_equiv_pos_site_id
 _symmetry_equiv_pos_as_xyz
  1  'x, y, z'
loop_
 _atom_site_type_symbol
 _atom_site_label
 _atom_site_symmetry_multiplicity
 _atom_site_fract_x
 _atom_site_fract_y
 _atom_site_fract_z
 _atom_site_occupancy
  Cs  Cs0  1  0.941649  0.600969  0.861270  1
  Cs  Cs1  1  0.558351  0.899031  0.361270  1
  Cs  Cs2  1  0.399031  0.058351  0.138730  1
  Cs  Cs3  1  0.058351  0.399031  0.138730  1
  Cs  Cs4  1  0.899031  0.558351  0.361270  1
  Cs  Cs5  1  0.441649  0.100969  0.638730  1
  Cs  Cs6  1  0.600969  0.941649  0.861270  1
  Cs  Cs7  1  0.262927  0.262927  0.351268  1
  Cs  Cs8  1  0.762927  0.762927  0.148732  1
  Cs  Cs9  1  0.237073  0.237073  0.851268  1
  Cs  Cs10  1  0.737073  0.737073  0.648732  1
  Cs  Cs11  1  0.100969  0.441649  0.638730  1
  Li  Li12  1  0.919523  0.080477  0.000000  1
  Li  Li13  1  0.580477  0.419523  0.500000  1
  Li  Li14  1  0.080477  0.919523  0.000000  1
  Li  Li15  1  0.419523  0.580477  0.500000  1
  Li  Li16  1  0.754306  0.245694  0.000000  1
  Li  Li17  1  0.745694  0.254306  0.500000  1
  Li  Li18  1  0.245694  0.754306  0.000000  1
  Li  Li19  1  0.254306  0.745694  0.500000  1
  Ta  Ta20  1  0.586545  0.413455  0.000000  1
  Ta  Ta21  1  0.913455  0.086545  0.500000  1
  Ta  Ta22  1  0.413455  0.586545  0.000000  1
  Ta  Ta23  1  0.086545  0.913455  0.500000  1
  P  P24  1  0.890145  0.568716  0.059078  1
  P  P25  1  0.431284  0.109855  0.940922  1
  P  P26  1  0.609855  0.931284  0.559078  1
  P  P27  1  0.931284  0.609855  0.559078  1
  P  P28  1  0.109855  0.431284  0.940922  1
  P  P29  1  0.568716  0.890145  0.059078  1
  P  P30  1  0.390145  0.068716  0.440922  1
  P  P31  1  0.219329  0.219329  0.558833  1
  P  P32  1  0.719329  0.719329  0.941167  1
  P  P33  1  0.280671  0.280671  0.058833  1
  P  P34  1  0.068716  0.390145  0.440922  1
  P  P35  1  0.780671  0.780671  0.441167  1
