# generated using pymatgen
data_Hf7IrPt20
_symmetry_space_group_name_H-M   'P 1'
_cell_length_a   5.69728700
_cell_length_b   5.70195400
_cell_length_c   16.30229500
_cell_angle_alpha   90.10594874
_cell_angle_beta   90.00000000
_cell_angle_gamma   119.97293404
_symmetry_Int_Tables_number   1
_chemical_formula_structural   Hf7IrPt20
_chemical_formula_sum   'Hf7 Ir1 Pt20'
_cell_volume   458.76320601
_cell_formula_units_Z   1
loop_
 _symmetry_equiv_pos_site_id
 _symmetry_equiv_pos_as_xyz
  1  'x, y, z'
loop_
 _atom_site_type_symbol
 _atom_site_label
 _atom_site_symmetry_multiplicity
 _atom_site_fract_x
 _atom_site_fract_y
 _atom_site_fract_z
 _atom_site_occupancy
  Hf  Hf0  1  0.998018  0.996036  0.715956  1
  Hf  Hf1  1  0.666592  0.333184  0.855950  1
  Hf  Hf2  1  0.333639  0.667278  0.144222  1
  Hf  Hf3  1  0.999973  0.999945  0.282388  1
  Hf  Hf4  1  0.669380  0.338760  0.432319  1
  Hf  Hf5  1  0.000205  0.000408  0.999658  1
  Hf  Hf6  1  0.333124  0.666250  0.570267  1
  Ir  Ir7  1  0.833066  0.666133  0.571070  1
  Pt  Pt8  1  0.331935  0.165566  0.571556  1
  Pt  Pt9  1  0.169442  0.338885  0.856748  1
  Pt  Pt10  1  0.166512  0.333022  0.428063  1
  Pt  Pt11  1  0.166130  0.834254  0.428750  1
  Pt  Pt12  1  0.499947  0.999893  0.713802  1
  Pt  Pt13  1  0.668124  0.834254  0.428750  1
  Pt  Pt14  1  0.169443  0.830220  0.857156  1
  Pt  Pt15  1  0.660777  0.830220  0.857156  1
  Pt  Pt16  1  0.830490  0.169627  0.142821  1
  Pt  Pt17  1  0.833631  0.165566  0.571556  1
  Pt  Pt18  1  0.501448  0.499662  0.713200  1
  Pt  Pt19  1  0.339137  0.169627  0.142821  1
  Pt  Pt20  1  0.830504  0.661009  0.142880  1
  Pt  Pt21  1  0.499507  0.500358  0.286548  1
  Pt  Pt22  1  0.500013  0.000029  0.286711  1
  Pt  Pt23  1  0.499985  0.999971  0.000007  1
  Pt  Pt24  1  0.000849  0.500358  0.286548  1
  Pt  Pt25  1  0.998214  0.499662  0.713200  1
  Pt  Pt26  1  0.499832  0.499913  0.999949  1
  Pt  Pt27  1  0.000081  0.499913  0.999949  1
