# generated using pymatgen
data_Cs8Na4ScIn3Sb8
_symmetry_space_group_name_H-M   'P 1'
_cell_length_a   11.53364543
_cell_length_b   11.53364551
_cell_length_c   7.39121191
_cell_angle_alpha   90.03881199
_cell_angle_beta   89.96118990
_cell_angle_gamma   101.63109101
_symmetry_Int_Tables_number   1
_chemical_formula_structural   Cs8Na4ScIn3Sb8
_chemical_formula_sum   'Cs8 Na4 Sc1 In3 Sb8'
_cell_volume   963.02607234
_cell_formula_units_Z   1
loop_
 _symmetry_equiv_pos_site_id
 _symmetry_equiv_pos_as_xyz
  1  'x, y, z'
loop_
 _atom_site_type_symbol
 _atom_site_label
 _atom_site_symmetry_multiplicity
 _atom_site_fract_x
 _atom_site_fract_y
 _atom_site_fract_z
 _atom_site_occupancy
  Cs  Cs0  1  0.076640  0.423524  0.249849  1
  Cs  Cs1  1  0.423524  0.076640  0.750151  1
  Cs  Cs2  1  0.926364  0.578919  0.754991  1
  Cs  Cs3  1  0.578919  0.926364  0.245009  1
  Cs  Cs4  1  0.673134  0.323393  0.212671  1
  Cs  Cs5  1  0.825548  0.172244  0.718609  1
  Cs  Cs6  1  0.323393  0.673134  0.787329  1
  Cs  Cs7  1  0.172244  0.825548  0.281391  1
  Na  Na8  1  0.381561  0.381561  0.000000  1
  Na  Na9  1  0.118536  0.118536  0.500000  1
  Na  Na10  1  0.618119  0.618119  0.000000  1
  Na  Na11  1  0.882517  0.882517  0.500000  1
  Sc  Sc12  1  0.627093  0.627093  0.500000  1
  In  In13  1  0.132960  0.132960  0.000000  1
  In  In14  1  0.370670  0.370670  0.500000  1
  In  In15  1  0.867485  0.867485  0.000000  1
  Sb  Sb16  1  0.836885  0.656805  0.254962  1
  Sb  Sb17  1  0.656805  0.836885  0.745038  1
  Sb  Sb18  1  0.157707  0.344490  0.748824  1
  Sb  Sb19  1  0.344490  0.157707  0.251176  1
  Sb  Sb20  1  0.906724  0.094906  0.201525  1
  Sb  Sb21  1  0.596862  0.406913  0.702150  1
  Sb  Sb22  1  0.094906  0.906724  0.798475  1
  Sb  Sb23  1  0.406913  0.596862  0.297850  1
