# generated using pymatgen
data_LiV6Si5Os12
_symmetry_space_group_name_H-M   'P 1'
_cell_length_a   4.22228300
_cell_length_b   5.96109900
_cell_length_c   12.67926800
_cell_angle_alpha   90.00000000
_cell_angle_beta   90.00284827
_cell_angle_gamma   90.00000000
_symmetry_Int_Tables_number   1
_chemical_formula_structural   LiV6Si5Os12
_chemical_formula_sum   'Li1 V6 Si5 Os12'
_cell_volume   319.13016333
_cell_formula_units_Z   1
loop_
 _symmetry_equiv_pos_site_id
 _symmetry_equiv_pos_as_xyz
  1  'x, y, z'
loop_
 _atom_site_type_symbol
 _atom_site_label
 _atom_site_symmetry_multiplicity
 _atom_site_fract_x
 _atom_site_fract_y
 _atom_site_fract_z
 _atom_site_occupancy
  Li  Li0  1  0.000000  0.000000  0.000000  1
  V  V1  1  0.000000  0.500001  0.000000  1
  V  V2  1  0.499747  0.000000  0.160159  1
  V  V3  1  0.999727  0.500001  0.330555  1
  V  V4  1  0.500000  0.000000  0.500000  1
  V  V5  1  0.000272  0.500001  0.669445  1
  V  V6  1  0.500252  0.000000  0.839841  1
  Si  Si7  1  0.499670  0.500001  0.165793  1
  Si  Si8  1  0.999705  0.000000  0.332966  1
  Si  Si9  1  0.500000  0.500001  0.500000  1
  Si  Si10  1  0.000296  0.000000  0.667034  1
  Si  Si11  1  0.500332  0.500001  0.834207  1
  Os  Os12  1  0.500000  0.250586  0.000000  1
  Os  Os13  1  0.500000  0.749414  0.000000  1
  Os  Os14  1  0.999755  0.249375  0.168386  1
  Os  Os15  1  0.999755  0.750625  0.168386  1
  Os  Os16  1  0.499773  0.249306  0.334122  1
  Os  Os17  1  0.499773  0.750694  0.334122  1
  Os  Os18  1  0.000000  0.249877  0.500000  1
  Os  Os19  1  0.000000  0.750123  0.500000  1
  Os  Os20  1  0.500229  0.249306  0.665878  1
  Os  Os21  1  0.500229  0.750694  0.665878  1
  Os  Os22  1  0.000244  0.249375  0.831614  1
  Os  Os23  1  0.000244  0.750625  0.831614  1
