# generated using pymatgen
data_CaAgPt4
_symmetry_space_group_name_H-M   'P 1'
_cell_length_a   5.38268393
_cell_length_b   5.38268364
_cell_length_c   5.38268400
_cell_angle_alpha   59.99999776
_cell_angle_beta   59.99999955
_cell_angle_gamma   60.00000856
_symmetry_Int_Tables_number   1
_chemical_formula_structural   CaAgPt4
_chemical_formula_sum   'Ca1 Ag1 Pt4'
_cell_volume   110.27616125
_cell_formula_units_Z   1
loop_
 _symmetry_equiv_pos_site_id
 _symmetry_equiv_pos_as_xyz
  1  'x, y, z'
loop_
 _atom_site_type_symbol
 _atom_site_label
 _atom_site_symmetry_multiplicity
 _atom_site_fract_x
 _atom_site_fract_y
 _atom_site_fract_z
 _atom_site_occupancy
  Ca  Ca0  1  0.250000  0.250000  0.250000  1
  Ag  Ag1  1  0.000000  0.000000  0.000000  1
  Pt  Pt2  1  0.124753  0.625083  0.625083  1
  Pt  Pt3  1  0.625083  0.625083  0.625083  1
  Pt  Pt4  1  0.625083  0.625083  0.124753  1
  Pt  Pt5  1  0.625083  0.124753  0.625083  1
