# generated using pymatgen
data_Li2La2Ce2AlGaIr4
_symmetry_space_group_name_H-M   'P 1'
_cell_length_a   7.08664800
_cell_length_b   4.08617400
_cell_length_c   8.53096600
_cell_angle_alpha   90.00000000
_cell_angle_beta   90.00000000
_cell_angle_gamma   90.00000000
_symmetry_Int_Tables_number   1
_chemical_formula_structural   Li2La2Ce2AlGaIr4
_chemical_formula_sum   'Li2 La2 Ce2 Al1 Ga1 Ir4'
_cell_volume   247.03354387
_cell_formula_units_Z   1
loop_
 _symmetry_equiv_pos_site_id
 _symmetry_equiv_pos_as_xyz
  1  'x, y, z'
loop_
 _atom_site_type_symbol
 _atom_site_label
 _atom_site_symmetry_multiplicity
 _atom_site_fract_x
 _atom_site_fract_y
 _atom_site_fract_z
 _atom_site_occupancy
  Li  Li0  1  0.129011  0.750000  0.451403  1
  Li  Li1  1  0.629972  0.750000  0.049222  1
  La  La2  1  0.953059  0.250000  0.188163  1
  La  La3  1  0.455866  0.250000  0.312716  1
  Ce  Ce4  1  0.038124  0.750000  0.815359  1
  Ce  Ce5  1  0.540527  0.750000  0.682905  1
  Al  Al6  1  0.375236  0.250000  0.939901  1
  Ga  Ga7  1  0.876414  0.250000  0.560393  1
  Ir  Ir8  1  0.745594  0.250000  0.856668  1
  Ir  Ir9  1  0.250505  0.250000  0.648744  1
  Ir  Ir10  1  0.254211  0.750000  0.096851  1
  Ir  Ir11  1  0.751483  0.750000  0.397675  1
