# generated using pymatgen
data_Mn(V3Si2)3
_symmetry_space_group_name_H-M   'P 1'
_cell_length_a   4.71258731
_cell_length_b   7.02085878
_cell_length_c   7.02085814
_cell_angle_alpha   96.46729894
_cell_angle_beta   109.60983217
_cell_angle_gamma   70.39016559
_symmetry_Int_Tables_number   1
_chemical_formula_structural   Mn(V3Si2)3
_chemical_formula_sum   'Mn1 V9 Si6'
_cell_volume   206.13015467
_cell_formula_units_Z   1
loop_
 _symmetry_equiv_pos_site_id
 _symmetry_equiv_pos_as_xyz
  1  'x, y, z'
loop_
 _atom_site_type_symbol
 _atom_site_label
 _atom_site_symmetry_multiplicity
 _atom_site_fract_x
 _atom_site_fract_y
 _atom_site_fract_z
 _atom_site_occupancy
  Mn  Mn0  1  0.750000  0.500000  0.500000  1
  V  V1  1  0.420452  0.851460  0.698422  1
  V  V2  1  0.573490  0.148540  0.301578  1
  V  V3  1  0.926510  0.301578  0.148540  1
  V  V4  1  0.079548  0.698422  0.851460  1
  V  V5  1  0.728089  0.698422  0.148540  1
  V  V6  1  0.277969  0.301578  0.851460  1
  V  V7  1  0.771911  0.148540  0.698422  1
  V  V8  1  0.222031  0.851460  0.301578  1
  V  V9  1  0.250000  0.500000  0.500000  1
  Si  Si10  1  0.250000  0.000000  0.000000  1
  Si  Si11  1  0.750000  0.000000  0.000000  1
  Si  Si12  1  0.344694  0.500000  0.173023  1
  Si  Si13  1  0.671671  0.500000  0.826977  1
  Si  Si14  1  0.828329  0.826977  0.500000  1
  Si  Si15  1  0.155306  0.173023  0.500000  1
