# generated using pymatgen
data_YErCo2(SnH)2
_symmetry_space_group_name_H-M   'P 1'
_cell_length_a   4.24869600
_cell_length_b   7.09965917
_cell_length_c   8.18068420
_cell_angle_alpha   89.97500113
_cell_angle_beta   90.00000000
_cell_angle_gamma   90.00000000
_symmetry_Int_Tables_number   1
_chemical_formula_structural   YErCo2(SnH)2
_chemical_formula_sum   'Y2 Er2 Co4 Sn4 H4'
_cell_volume   246.76453569
_cell_formula_units_Z   2
loop_
 _symmetry_equiv_pos_site_id
 _symmetry_equiv_pos_as_xyz
  1  'x, y, z'
loop_
 _atom_site_type_symbol
 _atom_site_label
 _atom_site_symmetry_multiplicity
 _atom_site_fract_x
 _atom_site_fract_y
 _atom_site_fract_z
 _atom_site_occupancy
  Y  Y0  1  0.750000  0.013983  0.686567  1
  Y  Y1  1  0.250000  0.986017  0.313433  1
  Er  Er2  1  0.250000  0.485866  0.184731  1
  Er  Er3  1  0.750000  0.514134  0.815269  1
  Co  Co4  1  0.750000  0.771705  0.103748  1
  Co  Co5  1  0.250000  0.228295  0.896252  1
  Co  Co6  1  0.250000  0.725524  0.605567  1
  Co  Co7  1  0.750000  0.274476  0.394433  1
  Sn  Sn8  1  0.750000  0.653249  0.426226  1
  Sn  Sn9  1  0.250000  0.346751  0.573774  1
  Sn  Sn10  1  0.250000  0.844765  0.927248  1
  Sn  Sn11  1  0.750000  0.155235  0.072752  1
  H  H12  1  0.250000  0.449164  0.920487  1
  H  H13  1  0.750000  0.550836  0.079513  1
  H  H14  1  0.750000  0.053440  0.419676  1
  H  H15  1  0.250000  0.946560  0.580324  1
