# generated using pymatgen
data_YbCe2Er(Al8Pt3)3
_symmetry_space_group_name_H-M   'P 1'
_cell_length_a   7.54744288
_cell_length_b   7.54203322
_cell_length_c   13.17512552
_cell_angle_alpha   84.55548255
_cell_angle_beta   100.99416513
_cell_angle_gamma   119.91798434
_symmetry_Int_Tables_number   1
_chemical_formula_structural   YbCe2Er(Al8Pt3)3
_chemical_formula_sum   'Yb1 Ce2 Er1 Al24 Pt9'
_cell_volume   638.09765785
_cell_formula_units_Z   1
loop_
 _symmetry_equiv_pos_site_id
 _symmetry_equiv_pos_as_xyz
  1  'x, y, z'
loop_
 _atom_site_type_symbol
 _atom_site_label
 _atom_site_symmetry_multiplicity
 _atom_site_fract_x
 _atom_site_fract_y
 _atom_site_fract_z
 _atom_site_occupancy
  Yb  Yb0  1  0.062249  0.668017  0.192956  1
  Ce  Ce1  1  0.732029  0.999032  0.192789  1
  Ce  Ce2  1  0.268085  0.000384  0.807667  1
  Er  Er3  1  0.937879  0.332617  0.808264  1
  Al  Al4  1  0.806489  0.869416  0.815171  1
  Al  Al5  1  0.192487  0.133264  0.184100  1
  Al  Al6  1  0.980969  0.665342  0.946135  1
  Al  Al7  1  0.018897  0.335545  0.054740  1
  Al  Al8  1  0.398589  0.660863  0.816764  1
  Al  Al9  1  0.600107  0.335546  0.182700  1
  Al  Al10  1  0.881434  0.664173  0.669268  1
  Al  Al11  1  0.118782  0.336736  0.330955  1
  Al  Al12  1  0.605580  0.460751  0.816327  1
  Al  Al13  1  0.398440  0.541157  0.183060  1
  Al  Al14  1  0.229287  0.340761  0.668297  1
  Al  Al15  1  0.770949  0.658544  0.332209  1
  Al  Al16  1  0.852931  0.334059  0.558597  1
  Al  Al17  1  0.185809  0.999086  0.558412  1
  Al  Al18  1  0.813901  0.000855  0.441684  1
  Al  Al19  1  0.350605  0.998784  0.055777  1
  Al  Al20  1  0.649406  0.000247  0.944402  1
  Al  Al21  1  0.557204  0.993857  0.668738  1
  Al  Al22  1  0.441461  0.005321  0.330848  1
  Al  Al23  1  0.519219  0.665864  0.560821  1
  Al  Al24  1  0.479885  0.333183  0.439032  1
  Al  Al25  1  0.683599  0.666874  0.046398  1
  Al  Al26  1  0.317621  0.333357  0.954228  1
  Al  Al27  1  0.147321  0.666326  0.441486  1
  Pt  Pt28  1  0.328163  0.671001  0.999029  1
  Pt  Pt29  1  0.546647  0.325899  0.637234  1
  Pt  Pt30  1  0.454271  0.674164  0.363008  1
  Pt  Pt31  1  0.886491  0.008199  0.638116  1
  Pt  Pt32  1  0.113343  0.993022  0.362090  1
  Pt  Pt33  1  0.671144  0.328114  0.999087  1
  Pt  Pt34  1  0.204405  0.665619  0.638793  1
  Pt  Pt35  1  0.794338  0.332949  0.361799  1
  Pt  Pt36  1  0.999984  0.001071  0.999019  1
