# generated using pymatgen
data_LiHo16Hg3Pd4
_symmetry_space_group_name_H-M   'P 1'
_cell_length_a   9.61204630
_cell_length_b   9.62118914
_cell_length_c   9.61336618
_cell_angle_alpha   59.97342148
_cell_angle_beta   59.96131296
_cell_angle_gamma   59.99760675
_symmetry_Int_Tables_number   1
_chemical_formula_structural   LiHo16Hg3Pd4
_chemical_formula_sum   'Li1 Ho16 Hg3 Pd4'
_cell_volume   628.32284028
_cell_formula_units_Z   1
loop_
 _symmetry_equiv_pos_site_id
 _symmetry_equiv_pos_as_xyz
  1  'x, y, z'
loop_
 _atom_site_type_symbol
 _atom_site_label
 _atom_site_symmetry_multiplicity
 _atom_site_fract_x
 _atom_site_fract_y
 _atom_site_fract_z
 _atom_site_occupancy
  Li  Li0  1  0.566394  0.566420  0.566692  1
  Ho  Ho1  1  0.355857  0.355810  0.355681  1
  Ho  Ho2  1  0.355417  0.355440  0.933902  1
  Ho  Ho3  1  0.355540  0.933606  0.355623  1
  Ho  Ho4  1  0.933558  0.355591  0.355561  1
  Ho  Ho5  1  0.810607  0.192206  0.192093  1
  Ho  Ho6  1  0.188467  0.813900  0.813924  1
  Ho  Ho7  1  0.192302  0.810526  0.192123  1
  Ho  Ho8  1  0.813867  0.188464  0.813902  1
  Ho  Ho9  1  0.192226  0.192198  0.810658  1
  Ho  Ho10  1  0.813905  0.813840  0.188484  1
  Ho  Ho11  1  0.935787  0.565385  0.565196  1
  Ho  Ho12  1  0.563983  0.935688  0.935504  1
  Ho  Ho13  1  0.565396  0.935800  0.565222  1
  Ho  Ho14  1  0.935659  0.564021  0.935490  1
  Ho  Ho15  1  0.565402  0.565457  0.935476  1
  Ho  Ho16  1  0.935644  0.935673  0.563739  1
  Hg  Hg17  1  0.588839  0.588925  0.239546  1
  Hg  Hg18  1  0.588788  0.239867  0.588808  1
  Hg  Hg19  1  0.239844  0.588822  0.588795  1
  Pd  Pd20  1  0.145899  0.145777  0.146595  1
  Pd  Pd21  1  0.146121  0.146284  0.564494  1
  Pd  Pd22  1  0.145968  0.564330  0.146299  1
  Pd  Pd23  1  0.564532  0.145972  0.146191  1
