# generated using pymatgen
data_Pr6Gd2Sc11Si16Au
_symmetry_space_group_name_H-M   'P 1'
_cell_length_a   7.15380928
_cell_length_b   7.53816073
_cell_length_c   14.25825500
_cell_angle_alpha   89.98161375
_cell_angle_beta   90.07589453
_cell_angle_gamma   90.26944939
_symmetry_Int_Tables_number   1
_chemical_formula_structural   Pr6Gd2Sc11Si16Au
_chemical_formula_sum   'Pr6 Gd2 Sc11 Si16 Au1'
_cell_volume   768.88948791
_cell_formula_units_Z   1
loop_
 _symmetry_equiv_pos_site_id
 _symmetry_equiv_pos_as_xyz
  1  'x, y, z'
loop_
 _atom_site_type_symbol
 _atom_site_label
 _atom_site_symmetry_multiplicity
 _atom_site_fract_x
 _atom_site_fract_y
 _atom_site_fract_z
 _atom_site_occupancy
  Pr  Pr0  1  0.493498  0.681894  0.897802  1
  Pr  Pr1  1  0.492107  0.682532  0.599561  1
  Pr  Pr2  1  0.978930  0.828415  0.600470  1
  Pr  Pr3  1  0.980226  0.827991  0.896901  1
  Pr  Pr4  1  0.510720  0.329985  0.098491  1
  Pr  Pr5  1  0.012566  0.173613  0.098374  1
  Gd  Gd6  1  0.010946  0.176310  0.401097  1
  Gd  Gd7  1  0.510516  0.326572  0.401077  1
  Sc  Sc8  1  0.334586  0.173147  0.622807  1
  Sc  Sc9  1  0.671205  0.821397  0.374254  1
  Sc  Sc10  1  0.171862  0.677039  0.376185  1
  Sc  Sc11  1  0.827523  0.313098  0.874805  1
  Sc  Sc12  1  0.827320  0.311804  0.623949  1
  Sc  Sc13  1  0.841512  0.500729  0.251732  1
  Sc  Sc14  1  0.340891  0.000251  0.251871  1
  Sc  Sc15  1  0.334272  0.171648  0.875307  1
  Sc  Sc16  1  0.172005  0.676739  0.126879  1
  Sc  Sc17  1  0.672441  0.821854  0.128797  1
  Sc  Sc18  1  0.159908  0.494114  0.749367  1
  Si  Si19  1  0.280439  0.882888  0.748651  1
  Si  Si20  1  0.468538  0.619225  0.252464  1
  Si  Si21  1  0.044281  0.123458  0.749018  1
  Si  Si22  1  0.531690  0.383436  0.748698  1
  Si  Si23  1  0.152888  0.462318  0.538291  1
  Si  Si24  1  0.968810  0.877822  0.252437  1
  Si  Si25  1  0.712181  0.121054  0.253204  1
  Si  Si26  1  0.850785  0.537553  0.038226  1
  Si  Si27  1  0.349399  0.961651  0.040140  1
  Si  Si28  1  0.153797  0.465967  0.960089  1
  Si  Si29  1  0.654346  0.045549  0.526721  1
  Si  Si30  1  0.345573  0.968926  0.458057  1
  Si  Si31  1  0.847358  0.530569  0.460199  1
  Si  Si32  1  0.793358  0.590190  0.748839  1
  Si  Si33  1  0.211540  0.380931  0.253685  1
  Si  Si34  1  0.654212  0.041236  0.971164  1
  Au  Au35  1  0.637771  0.018100  0.750391  1
