# generated using pymatgen
data_Dy3Ho5Re2(TcB12)2
_symmetry_space_group_name_H-M   'P 1'
_cell_length_a   3.67910000
_cell_length_b   9.16368566
_cell_length_c   11.54973700
_cell_angle_alpha   90.05692336
_cell_angle_beta   90.00000000
_cell_angle_gamma   90.00000000
_symmetry_Int_Tables_number   1
_chemical_formula_structural   Dy3Ho5Re2(TcB12)2
_chemical_formula_sum   'Dy3 Ho5 Re2 Tc2 B24'
_cell_volume   389.38897973
_cell_formula_units_Z   1
loop_
 _symmetry_equiv_pos_site_id
 _symmetry_equiv_pos_as_xyz
  1  'x, y, z'
loop_
 _atom_site_type_symbol
 _atom_site_label
 _atom_site_symmetry_multiplicity
 _atom_site_fract_x
 _atom_site_fract_y
 _atom_site_fract_z
 _atom_site_occupancy
  Dy  Dy0  1  0.000000  0.323943  0.414014  1
  Dy  Dy1  1  0.000000  0.676058  0.585973  1
  Dy  Dy2  1  0.000000  0.823574  0.085990  1
  Ho  Ho3  1  0.000000  0.176417  0.914060  1
  Ho  Ho4  1  0.000000  0.942255  0.369808  1
  Ho  Ho5  1  0.000000  0.057790  0.630171  1
  Ho  Ho6  1  0.000000  0.443683  0.130495  1
  Ho  Ho7  1  0.000000  0.556183  0.869504  1
  Re  Re8  1  0.000000  0.138786  0.179243  1
  Re  Re9  1  0.000000  0.861374  0.820653  1
  Tc  Tc10  1  0.000000  0.638877  0.320633  1
  Tc  Tc11  1  0.000000  0.361070  0.679451  1
  B  B12  1  0.500000  0.553551  0.432805  1
  B  B13  1  0.500000  0.446444  0.567204  1
  B  B14  1  0.500000  0.053508  0.066938  1
  B  B15  1  0.500000  0.946726  0.932972  1
  B  B16  1  0.500000  0.749008  0.418563  1
  B  B17  1  0.500000  0.250978  0.581458  1
  B  B18  1  0.500000  0.249442  0.081188  1
  B  B19  1  0.500000  0.750528  0.918639  1
  B  B20  1  0.500000  0.791998  0.265554  1
  B  B21  1  0.500000  0.207900  0.734598  1
  B  B22  1  0.500000  0.292318  0.234510  1
  B  B23  1  0.500000  0.707643  0.765444  1
  B  B24  1  0.500000  0.631046  0.185781  1
  B  B25  1  0.500000  0.368814  0.814340  1
  B  B26  1  0.500000  0.130776  0.314464  1
  B  B27  1  0.500000  0.869246  0.685517  1
  B  B28  1  0.500000  0.982347  0.211923  1
  B  B29  1  0.500000  0.017924  0.788142  1
  B  B30  1  0.500000  0.482679  0.288116  1
  B  B31  1  0.500000  0.517310  0.711896  1
  B  B32  1  0.500000  0.600153  0.027890  1
  B  B33  1  0.500000  0.399646  0.972070  1
  B  B34  1  0.500000  0.099920  0.471950  1
  B  B35  1  0.500000  0.900085  0.528045  1
