# generated using pymatgen
data_Dy2Sc3Ga4
_symmetry_space_group_name_H-M   'P 1'
_cell_length_a   7.30618500
_cell_length_b   7.56169800
_cell_length_c   14.54726100
_cell_angle_alpha   90.00000000
_cell_angle_beta   90.00000000
_cell_angle_gamma   90.00000000
_symmetry_Int_Tables_number   1
_chemical_formula_structural   Dy2Sc3Ga4
_chemical_formula_sum   'Dy8 Sc12 Ga16'
_cell_volume   803.69492152
_cell_formula_units_Z   4
loop_
 _symmetry_equiv_pos_site_id
 _symmetry_equiv_pos_as_xyz
  1  'x, y, z'
loop_
 _atom_site_type_symbol
 _atom_site_label
 _atom_site_symmetry_multiplicity
 _atom_site_fract_x
 _atom_site_fract_y
 _atom_site_fract_z
 _atom_site_occupancy
  Dy  Dy0  1  0.011764  0.176813  0.095972  1
  Dy  Dy1  1  0.988236  0.823187  0.904028  1
  Dy  Dy2  1  0.488236  0.676813  0.904028  1
  Dy  Dy3  1  0.988236  0.823187  0.595972  1
  Dy  Dy4  1  0.511764  0.323187  0.095972  1
  Dy  Dy5  1  0.011764  0.176813  0.404028  1
  Dy  Dy6  1  0.511764  0.323187  0.404028  1
  Dy  Dy7  1  0.488236  0.676813  0.595972  1
  Sc  Sc8  1  0.161664  0.502888  0.750000  1
  Sc  Sc9  1  0.838336  0.497112  0.250000  1
  Sc  Sc10  1  0.338336  0.002888  0.250000  1
  Sc  Sc11  1  0.661664  0.997112  0.750000  1
  Sc  Sc12  1  0.330086  0.175318  0.624319  1
  Sc  Sc13  1  0.669914  0.824682  0.375681  1
  Sc  Sc14  1  0.169914  0.675318  0.375681  1
  Sc  Sc15  1  0.669914  0.824682  0.124319  1
  Sc  Sc16  1  0.830086  0.324682  0.624319  1
  Sc  Sc17  1  0.330086  0.175318  0.875681  1
  Sc  Sc18  1  0.830086  0.324682  0.875681  1
  Sc  Sc19  1  0.169914  0.675318  0.124319  1
  Ga  Ga20  1  0.031962  0.118014  0.750000  1
  Ga  Ga21  1  0.968038  0.881986  0.250000  1
  Ga  Ga22  1  0.468038  0.618014  0.250000  1
  Ga  Ga23  1  0.531962  0.381986  0.750000  1
  Ga  Ga24  1  0.284844  0.873371  0.750000  1
  Ga  Ga25  1  0.715156  0.126629  0.250000  1
  Ga  Ga26  1  0.215156  0.373371  0.250000  1
  Ga  Ga27  1  0.784844  0.626629  0.750000  1
  Ga  Ga28  1  0.159394  0.464983  0.539894  1
  Ga  Ga29  1  0.840606  0.535017  0.460106  1
  Ga  Ga30  1  0.340606  0.964983  0.460106  1
  Ga  Ga31  1  0.840606  0.535017  0.039894  1
  Ga  Ga32  1  0.659394  0.035017  0.539894  1
  Ga  Ga33  1  0.159394  0.464983  0.960106  1
  Ga  Ga34  1  0.659394  0.035017  0.960106  1
  Ga  Ga35  1  0.340606  0.964983  0.039894  1
