# generated using pymatgen
data_Pr4YIn3Cl
_symmetry_space_group_name_H-M   'P 1'
_cell_length_a   9.54507901
_cell_length_b   9.54434487
_cell_length_c   6.75273801
_cell_angle_alpha   90.00589385
_cell_angle_beta   89.99704319
_cell_angle_gamma   119.99745028
_symmetry_Int_Tables_number   1
_chemical_formula_structural   Pr4YIn3Cl
_chemical_formula_sum   'Pr8 Y2 In6 Cl2'
_cell_volume   532.77929516
_cell_formula_units_Z   2
loop_
 _symmetry_equiv_pos_site_id
 _symmetry_equiv_pos_as_xyz
  1  'x, y, z'
loop_
 _atom_site_type_symbol
 _atom_site_label
 _atom_site_symmetry_multiplicity
 _atom_site_fract_x
 _atom_site_fract_y
 _atom_site_fract_z
 _atom_site_occupancy
  Pr  Pr0  1  0.741063  0.741067  0.252124  1
  Pr  Pr1  1  0.000000  0.741075  0.747873  1
  Pr  Pr2  1  0.741063  0.999997  0.747876  1
  Pr  Pr3  1  0.258937  0.258933  0.747876  1
  Pr  Pr4  1  0.000000  0.258925  0.252127  1
  Pr  Pr5  1  0.258937  0.000003  0.252124  1
  Pr  Pr6  1  0.333342  0.666672  0.000000  1
  Pr  Pr7  1  0.666658  0.333328  0.000000  1
  Y  Y8  1  0.333332  0.666666  0.500000  1
  Y  Y9  1  0.666668  0.333334  0.500000  1
  In  In10  1  0.395121  0.000017  0.743643  1
  In  In11  1  0.000000  0.604894  0.256310  1
  In  In12  1  0.604879  0.999983  0.256357  1
  In  In13  1  0.000000  0.395106  0.743690  1
  In  In14  1  0.395121  0.395103  0.256357  1
  In  In15  1  0.604879  0.604897  0.743643  1
  Cl  Cl16  1  0.000000  0.000000  0.500000  1
  Cl  Cl17  1  0.000000  0.000000  0.000000  1
