# generated using pymatgen
data_ScFe(TcO4)6
_symmetry_space_group_name_H-M   'P 1'
_cell_length_a   10.66820360
_cell_length_b   10.66820282
_cell_length_c   10.66820278
_cell_angle_alpha   49.08374971
_cell_angle_beta   49.08376079
_cell_angle_gamma   49.08376045
_symmetry_Int_Tables_number   1
_chemical_formula_structural   ScFe(TcO4)6
_chemical_formula_sum   'Sc1 Fe1 Tc6 O24'
_cell_volume   636.71783823
_cell_formula_units_Z   1
loop_
 _symmetry_equiv_pos_site_id
 _symmetry_equiv_pos_as_xyz
  1  'x, y, z'
loop_
 _atom_site_type_symbol
 _atom_site_label
 _atom_site_symmetry_multiplicity
 _atom_site_fract_x
 _atom_site_fract_y
 _atom_site_fract_z
 _atom_site_occupancy
  Sc  Sc0  1  0.000000  0.000000  0.000000  1
  Fe  Fe1  1  0.500000  0.500000  0.500000  1
  Tc  Tc2  1  0.594902  0.898989  0.253335  1
  Tc  Tc3  1  0.253335  0.594902  0.898989  1
  Tc  Tc4  1  0.898989  0.253335  0.594902  1
  Tc  Tc5  1  0.746665  0.405098  0.101011  1
  Tc  Tc6  1  0.101011  0.746665  0.405098  1
  Tc  Tc7  1  0.405098  0.101011  0.746665  1
  O  O8  1  0.810181  0.883233  0.174686  1
  O  O9  1  0.174686  0.810181  0.883233  1
  O  O10  1  0.883233  0.174686  0.810181  1
  O  O11  1  0.667075  0.393467  0.314693  1
  O  O12  1  0.314693  0.667075  0.393467  1
  O  O13  1  0.393467  0.314693  0.667075  1
  O  O14  1  0.189819  0.116767  0.825314  1
  O  O15  1  0.825314  0.189819  0.116767  1
  O  O16  1  0.116767  0.825314  0.189819  1
  O  O17  1  0.332925  0.606533  0.685307  1
  O  O18  1  0.685307  0.332925  0.606533  1
  O  O19  1  0.606533  0.685307  0.332925  1
  O  O20  1  0.443510  0.973698  0.423768  1
  O  O21  1  0.423768  0.443510  0.973698  1
  O  O22  1  0.973698  0.423768  0.443510  1
  O  O23  1  0.919560  0.476483  0.948351  1
  O  O24  1  0.948351  0.919560  0.476483  1
  O  O25  1  0.476483  0.948351  0.919560  1
  O  O26  1  0.556490  0.026302  0.576232  1
  O  O27  1  0.576232  0.556490  0.026302  1
  O  O28  1  0.026302  0.576232  0.556490  1
  O  O29  1  0.080440  0.523517  0.051649  1
  O  O30  1  0.051649  0.080440  0.523517  1
  O  O31  1  0.523517  0.051649  0.080440  1
