# generated using pymatgen
data_Lu5ZrMnBi2
_symmetry_space_group_name_H-M   'P 1'
_cell_length_a   4.13993300
_cell_length_b   8.08243968
_cell_length_c   8.09326841
_cell_angle_alpha   119.95574773
_cell_angle_beta   90.00000000
_cell_angle_gamma   90.00000000
_symmetry_Int_Tables_number   1
_chemical_formula_structural   Lu5ZrMnBi2
_chemical_formula_sum   'Lu5 Zr1 Mn1 Bi2'
_cell_volume   234.63016530
_cell_formula_units_Z   1
loop_
 _symmetry_equiv_pos_site_id
 _symmetry_equiv_pos_as_xyz
  1  'x, y, z'
loop_
 _atom_site_type_symbol
 _atom_site_label
 _atom_site_symmetry_multiplicity
 _atom_site_fract_x
 _atom_site_fract_y
 _atom_site_fract_z
 _atom_site_occupancy
  Lu  Lu0  1  0.500000  0.770100  0.768161  1
  Lu  Lu1  1  0.500000  0.001939  0.231839  1
  Lu  Lu2  1  0.000000  0.383971  0.378554  1
  Lu  Lu3  1  0.000000  0.005418  0.621446  1
  Lu  Lu4  1  0.000000  0.606517  0.000000  1
  Zr  Zr5  1  0.500000  0.223579  0.000000  1
  Mn  Mn6  1  0.000000  0.009772  0.000000  1
  Bi  Bi7  1  0.500000  0.665065  0.331426  1
  Bi  Bi8  1  0.500000  0.333639  0.668574  1
