# generated using pymatgen
data_Eu2Zn21Ir
_symmetry_space_group_name_H-M   'P 1'
_cell_length_a   8.38096341
_cell_length_b   8.37280864
_cell_length_c   8.37280879
_cell_angle_alpha   98.85044290
_cell_angle_beta   100.51969142
_cell_angle_gamma   131.50973548
_symmetry_Int_Tables_number   1
_chemical_formula_structural   Eu2Zn21Ir
_chemical_formula_sum   'Eu2 Zn21 Ir1'
_cell_volume   401.30562408
_cell_formula_units_Z   1
loop_
 _symmetry_equiv_pos_site_id
 _symmetry_equiv_pos_as_xyz
  1  'x, y, z'
loop_
 _atom_site_type_symbol
 _atom_site_label
 _atom_site_symmetry_multiplicity
 _atom_site_fract_x
 _atom_site_fract_y
 _atom_site_fract_z
 _atom_site_occupancy
  Eu  Eu0  1  0.242039  0.745929  0.496110  1
  Eu  Eu1  1  0.007961  0.004071  0.003890  1
  Zn  Zn2  1  0.899259  0.573291  0.084003  1
  Zn  Zn3  1  0.625000  0.875000  0.250000  1
  Zn  Zn4  1  0.429755  0.515042  0.330861  1
  Zn  Zn5  1  0.485105  0.573541  0.669993  1
  Zn  Zn6  1  0.429755  0.098895  0.914713  1
  Zn  Zn7  1  0.764895  0.176459  0.830007  1
  Zn  Zn8  1  0.485105  0.815113  0.911565  1
  Zn  Zn9  1  0.480765  0.490822  0.989944  1
  Zn  Zn10  1  0.764895  0.934887  0.588435  1
  Zn  Zn11  1  0.769235  0.259178  0.510056  1
  Zn  Zn12  1  0.067732  0.648055  0.826347  1
  Zn  Zn13  1  0.350741  0.176709  0.415997  1
  Zn  Zn14  1  0.820245  0.651105  0.585287  1
  Zn  Zn15  1  0.899259  0.815257  0.325967  1
  Zn  Zn16  1  0.182268  0.101945  0.673653  1
  Zn  Zn17  1  0.067732  0.241384  0.419677  1
  Zn  Zn18  1  0.350741  0.934743  0.174033  1
  Zn  Zn19  1  0.820245  0.234958  0.169139  1
  Zn  Zn20  1  0.182268  0.508616  0.080323  1
  Zn  Zn21  1  0.625000  0.375000  0.250000  1
  Zn  Zn22  1  0.625000  0.375000  0.750000  1
  Ir  Ir23  1  0.125000  0.375000  0.750000  1
