# generated using pymatgen
data_DyHo15In4Ir3Ru
_symmetry_space_group_name_H-M   'P 1'
_cell_length_a   9.61632324
_cell_length_b   9.63267436
_cell_length_c   9.64467300
_cell_angle_alpha   59.95879701
_cell_angle_beta   59.90244039
_cell_angle_gamma   59.86755149
_symmetry_Int_Tables_number   1
_chemical_formula_structural   DyHo15In4Ir3Ru
_chemical_formula_sum   'Dy1 Ho15 In4 Ir3 Ru1'
_cell_volume   630.42916455
_cell_formula_units_Z   1
loop_
 _symmetry_equiv_pos_site_id
 _symmetry_equiv_pos_as_xyz
  1  'x, y, z'
loop_
 _atom_site_type_symbol
 _atom_site_label
 _atom_site_symmetry_multiplicity
 _atom_site_fract_x
 _atom_site_fract_y
 _atom_site_fract_z
 _atom_site_occupancy
  Dy  Dy0  1  0.438945  0.440906  0.060075  1
  Ho  Ho1  1  0.650078  0.651483  0.045863  1
  Ho  Ho2  1  0.193167  0.809601  0.189060  1
  Ho  Ho3  1  0.059333  0.439737  0.060290  1
  Ho  Ho4  1  0.193167  0.809601  0.808172  1
  Ho  Ho5  1  0.059333  0.439737  0.440641  1
  Ho  Ho6  1  0.809464  0.192023  0.190924  1
  Ho  Ho7  1  0.650078  0.651483  0.652576  1
  Ho  Ho8  1  0.809464  0.192023  0.807590  1
  Ho  Ho9  1  0.192748  0.189901  0.808675  1
  Ho  Ho10  1  0.047644  0.650252  0.651053  1
  Ho  Ho11  1  0.439425  0.058938  0.059567  1
  Ho  Ho12  1  0.059661  0.060005  0.440167  1
  Ho  Ho13  1  0.649512  0.046726  0.651881  1
  Ho  Ho14  1  0.808953  0.808438  0.191305  1
  Ho  Ho15  1  0.439425  0.058938  0.442071  1
  In  In16  1  0.416940  0.416783  0.416912  1
  In  In17  1  0.416940  0.416783  0.749367  1
  In  In18  1  0.416751  0.749850  0.416700  1
  In  In19  1  0.748642  0.417163  0.417098  1
  Ir  Ir20  1  0.859462  0.858911  0.859244  1
  Ir  Ir21  1  0.859418  0.422659  0.858961  1
  Ir  Ir22  1  0.859462  0.858911  0.422384  1
  Ru  Ru23  1  0.421987  0.859151  0.859430  1
