# generated using pymatgen
data_K5Rb3Zr6MnI20
_symmetry_space_group_name_H-M   'P 1'
_cell_length_a   12.77919912
_cell_length_b   12.74975912
_cell_length_c   12.72147700
_cell_angle_alpha   60.07334936
_cell_angle_beta   60.14930249
_cell_angle_gamma   60.22505569
_symmetry_Int_Tables_number   1
_chemical_formula_structural   K5Rb3Zr6MnI20
_chemical_formula_sum   'K5 Rb3 Zr6 Mn1 I20'
_cell_volume   1470.59211664
_cell_formula_units_Z   1
loop_
 _symmetry_equiv_pos_site_id
 _symmetry_equiv_pos_as_xyz
  1  'x, y, z'
loop_
 _atom_site_type_symbol
 _atom_site_label
 _atom_site_symmetry_multiplicity
 _atom_site_fract_x
 _atom_site_fract_y
 _atom_site_fract_z
 _atom_site_occupancy
  K  K0  1  0.361918  0.362280  0.360811  1
  K  K1  1  0.637027  0.638532  0.638023  1
  K  K2  1  0.361918  0.362280  0.914991  1
  K  K3  1  0.362333  0.915256  0.361206  1
  K  K4  1  0.637027  0.638532  0.086418  1
  Rb  Rb5  1  0.640042  0.080020  0.639969  1
  Rb  Rb6  1  0.921163  0.360425  0.359206  1
  Rb  Rb7  1  0.079732  0.640849  0.639709  1
  Zr  Zr8  1  0.862912  0.137296  0.136838  1
  Zr  Zr9  1  0.137009  0.863232  0.862885  1
  Zr  Zr10  1  0.137009  0.863232  0.136875  1
  Zr  Zr11  1  0.862912  0.137296  0.862953  1
  Zr  Zr12  1  0.136893  0.137262  0.862923  1
  Zr  Zr13  1  0.862862  0.863221  0.136958  1
  Mn  Mn14  1  0.000056  0.999989  0.999977  1
  I  I15  1  0.324552  0.001107  0.000303  1
  I  I16  1  0.675492  0.999696  0.998856  1
  I  I17  1  0.000455  0.325437  0.673689  1
  I  I18  1  0.999773  0.674237  0.326247  1
  I  I19  1  0.000455  0.325437  0.000419  1
  I  I20  1  0.675492  0.999696  0.325956  1
  I  I21  1  0.999773  0.674237  0.999743  1
  I  I22  1  0.324552  0.001107  0.674038  1
  I  I23  1  0.999664  0.000405  0.326601  1
  I  I24  1  0.999664  0.000405  0.673329  1
  I  I25  1  0.675886  0.324767  0.999674  1
  I  I26  1  0.324114  0.674826  0.000530  1
  I  I27  1  0.681182  0.319201  0.311594  1
  I  I28  1  0.318471  0.685195  0.684310  1
  I  I29  1  0.318471  0.685195  0.312024  1
  I  I30  1  0.681182  0.319201  0.688024  1
  I  I31  1  0.314811  0.315466  0.684861  1
  I  I32  1  0.681150  0.688398  0.315226  1
  I  I33  1  0.263189  0.245446  0.245682  1
  I  I34  1  0.740858  0.740839  0.759152  1
