# generated using pymatgen
data_Tb4Dy3Ho(SiBr6)2
_symmetry_space_group_name_H-M   'P 1'
_cell_length_a   4.06222800
_cell_length_b   13.25003219
_cell_length_c   14.03879820
_cell_angle_alpha   90.01922403
_cell_angle_beta   90.00000000
_cell_angle_gamma   90.00000000
_symmetry_Int_Tables_number   1
_chemical_formula_structural   Tb4Dy3Ho(SiBr6)2
_chemical_formula_sum   'Tb4 Dy3 Ho1 Si2 Br12'
_cell_volume   755.63338142
_cell_formula_units_Z   1
loop_
 _symmetry_equiv_pos_site_id
 _symmetry_equiv_pos_as_xyz
  1  'x, y, z'
loop_
 _atom_site_type_symbol
 _atom_site_label
 _atom_site_symmetry_multiplicity
 _atom_site_fract_x
 _atom_site_fract_y
 _atom_site_fract_z
 _atom_site_occupancy
  Tb  Tb0  1  0.000000  0.118614  0.578844  1
  Tb  Tb1  1  0.000000  0.881380  0.421163  1
  Tb  Tb2  1  0.000000  0.618568  0.921209  1
  Tb  Tb3  1  0.000000  0.381433  0.078809  1
  Dy  Dy4  1  0.500000  0.117896  0.341382  1
  Dy  Dy5  1  0.500000  0.882102  0.658625  1
  Dy  Dy6  1  0.500000  0.617834  0.158540  1
  Ho  Ho7  1  0.500000  0.382233  0.841513  1
  Si  Si8  1  0.500000  0.000008  0.500009  1
  Si  Si9  1  0.500000  0.499785  0.999714  1
  Br  Br10  1  0.500000  0.242885  0.163816  1
  Br  Br11  1  0.500000  0.757098  0.836169  1
  Br  Br12  1  0.500000  0.742885  0.336150  1
  Br  Br13  1  0.500000  0.257330  0.664129  1
  Br  Br14  1  0.000000  0.255001  0.410042  1
  Br  Br15  1  0.000000  0.744994  0.589967  1
  Br  Br16  1  0.000000  0.754978  0.089995  1
  Br  Br17  1  0.000000  0.245445  0.909683  1
  Br  Br18  1  0.000000  0.003253  0.242861  1
  Br  Br19  1  0.000000  0.996743  0.757145  1
  Br  Br20  1  0.000000  0.503285  0.257132  1
  Br  Br21  1  0.000000  0.496252  0.743105  1
