# generated using pymatgen
data_TmThCo3Ni5B2
_symmetry_space_group_name_H-M   'P 1'
_cell_length_a   4.97497944
_cell_length_b   4.96223820
_cell_length_c   6.94983000
_cell_angle_alpha   90.00000000
_cell_angle_beta   90.00000000
_cell_angle_gamma   119.60580160
_symmetry_Int_Tables_number   1
_chemical_formula_structural   TmThCo3Ni5B2
_chemical_formula_sum   'Tm1 Th1 Co3 Ni5 B2'
_cell_volume   149.17125692
_cell_formula_units_Z   1
loop_
 _symmetry_equiv_pos_site_id
 _symmetry_equiv_pos_as_xyz
  1  'x, y, z'
loop_
 _atom_site_type_symbol
 _atom_site_label
 _atom_site_symmetry_multiplicity
 _atom_site_fract_x
 _atom_site_fract_y
 _atom_site_fract_z
 _atom_site_occupancy
  Tm  Tm0  1  0.000000  0.000000  0.500806  1
  Th  Th1  1  0.000000  0.000000  0.996112  1
  Co  Co2  1  0.000000  0.500000  0.298596  1
  Co  Co3  1  0.500000  0.000000  0.704958  1
  Co  Co4  1  0.000000  0.500000  0.702514  1
  Ni  Ni5  1  0.500000  0.500000  0.293164  1
  Ni  Ni6  1  0.500000  0.500000  0.707447  1
  Ni  Ni7  1  0.677250  0.334736  0.999813  1
  Ni  Ni8  1  0.322750  0.665264  0.999813  1
  Ni  Ni9  1  0.500000  0.000000  0.293662  1
  B  B10  1  0.670316  0.331358  0.501557  1
  B  B11  1  0.329684  0.668642  0.501557  1
