# generated using pymatgen
data_La2Ho2TmSi4
_symmetry_space_group_name_H-M   'P 1'
_cell_length_a   7.54572300
_cell_length_b   7.83579600
_cell_length_c   14.87734500
_cell_angle_alpha   90.00000000
_cell_angle_beta   90.00000000
_cell_angle_gamma   90.00000000
_symmetry_Int_Tables_number   1
_chemical_formula_structural   La2Ho2TmSi4
_chemical_formula_sum   'La8 Ho8 Tm4 Si16'
_cell_volume   879.64900046
_cell_formula_units_Z   4
loop_
 _symmetry_equiv_pos_site_id
 _symmetry_equiv_pos_as_xyz
  1  'x, y, z'
loop_
 _atom_site_type_symbol
 _atom_site_label
 _atom_site_symmetry_multiplicity
 _atom_site_fract_x
 _atom_site_fract_y
 _atom_site_fract_z
 _atom_site_occupancy
  La  La0  1  0.976881  0.821700  0.097982  1
  La  La1  1  0.476881  0.678300  0.402018  1
  La  La2  1  0.523119  0.321700  0.902018  1
  La  La3  1  0.023119  0.178300  0.597982  1
  La  La4  1  0.023119  0.178300  0.902018  1
  La  La5  1  0.523119  0.321700  0.597982  1
  La  La6  1  0.476881  0.678300  0.097982  1
  La  La7  1  0.976881  0.821700  0.402018  1
  Ho  Ho8  1  0.680973  0.822386  0.876366  1
  Ho  Ho9  1  0.180973  0.677614  0.623634  1
  Ho  Ho10  1  0.819027  0.322386  0.123634  1
  Ho  Ho11  1  0.319027  0.177614  0.376366  1
  Ho  Ho12  1  0.319027  0.177614  0.123634  1
  Ho  Ho13  1  0.819027  0.322386  0.376366  1
  Ho  Ho14  1  0.180973  0.677614  0.876366  1
  Ho  Ho15  1  0.680973  0.822386  0.623634  1
  Tm  Tm16  1  0.649800  0.990557  0.250000  1
  Tm  Tm17  1  0.149800  0.509443  0.250000  1
  Tm  Tm18  1  0.850200  0.490557  0.750000  1
  Tm  Tm19  1  0.350200  0.009443  0.750000  1
  Si  Si20  1  0.770317  0.619301  0.250000  1
  Si  Si21  1  0.270317  0.880699  0.250000  1
  Si  Si22  1  0.729683  0.119301  0.750000  1
  Si  Si23  1  0.229683  0.380699  0.750000  1
  Si  Si24  1  0.023651  0.114555  0.250000  1
  Si  Si25  1  0.523651  0.385445  0.250000  1
  Si  Si26  1  0.476349  0.614555  0.750000  1
  Si  Si27  1  0.976349  0.885445  0.750000  1
  Si  Si28  1  0.857174  0.530945  0.959985  1
  Si  Si29  1  0.357174  0.969055  0.540015  1
  Si  Si30  1  0.642826  0.030945  0.040015  1
  Si  Si31  1  0.142826  0.469055  0.459985  1
  Si  Si32  1  0.142826  0.469055  0.040015  1
  Si  Si33  1  0.642826  0.030945  0.459985  1
  Si  Si34  1  0.357174  0.969055  0.959985  1
  Si  Si35  1  0.857174  0.530945  0.540015  1
