# generated using pymatgen
data_Y2Ho18Cd6IrOs
_symmetry_space_group_name_H-M   'P 1'
_cell_length_a   9.57525202
_cell_length_b   9.57525083
_cell_length_c   9.86111900
_cell_angle_alpha   90.00000000
_cell_angle_beta   90.00000000
_cell_angle_gamma   119.98670228
_symmetry_Int_Tables_number   1
_chemical_formula_structural   Y2Ho18Cd6IrOs
_chemical_formula_sum   'Y2 Ho18 Cd6 Ir1 Os1'
_cell_volume   783.09667971
_cell_formula_units_Z   1
loop_
 _symmetry_equiv_pos_site_id
 _symmetry_equiv_pos_as_xyz
  1  'x, y, z'
loop_
 _atom_site_type_symbol
 _atom_site_label
 _atom_site_symmetry_multiplicity
 _atom_site_fract_x
 _atom_site_fract_y
 _atom_site_fract_z
 _atom_site_occupancy
  Y  Y0  1  0.541159  0.082437  0.250000  1
  Y  Y1  1  0.917563  0.458841  0.250000  1
  Ho  Ho2  1  0.000055  0.999945  0.499505  1
  Ho  Ho3  1  0.000055  0.999945  0.000495  1
  Ho  Ho4  1  0.209882  0.790118  0.441455  1
  Ho  Ho5  1  0.210189  0.419552  0.441290  1
  Ho  Ho6  1  0.580448  0.789811  0.441290  1
  Ho  Ho7  1  0.790599  0.209401  0.559800  1
  Ho  Ho8  1  0.790203  0.580961  0.559538  1
  Ho  Ho9  1  0.419039  0.209797  0.559538  1
  Ho  Ho10  1  0.790599  0.209401  0.940200  1
  Ho  Ho11  1  0.790203  0.580961  0.940462  1
  Ho  Ho12  1  0.419039  0.209797  0.940462  1
  Ho  Ho13  1  0.209882  0.790118  0.058545  1
  Ho  Ho14  1  0.210189  0.419552  0.058710  1
  Ho  Ho15  1  0.580448  0.789811  0.058710  1
  Ho  Ho16  1  0.540618  0.459382  0.250000  1
  Ho  Ho17  1  0.460102  0.539898  0.750000  1
  Ho  Ho18  1  0.460064  0.920342  0.750000  1
  Ho  Ho19  1  0.079658  0.539936  0.750000  1
  Cd  Cd20  1  0.886151  0.113849  0.250000  1
  Cd  Cd21  1  0.885238  0.771701  0.250000  1
  Cd  Cd22  1  0.228299  0.114762  0.250000  1
  Cd  Cd23  1  0.114167  0.885833  0.750000  1
  Cd  Cd24  1  0.114323  0.228395  0.750000  1
  Cd  Cd25  1  0.771605  0.885677  0.750000  1
  Ir  Ir26  1  0.333553  0.666447  0.250000  1
  Os  Os27  1  0.666674  0.333326  0.750000  1
