# generated using pymatgen
data_K4Ti2P6Se25
_symmetry_space_group_name_H-M   'P 1'
_cell_length_a   25.90654610
_cell_length_b   19.02388209
_cell_length_c   18.24162100
_cell_angle_alpha   88.05835439
_cell_angle_beta   47.21482062
_cell_angle_gamma   44.72682694
_symmetry_Int_Tables_number   1
_chemical_formula_structural   K4Ti2P6Se25
_chemical_formula_sum   'K8 Ti4 P12 Se50'
_cell_volume   2299.17745798
_cell_formula_units_Z   2
loop_
 _symmetry_equiv_pos_site_id
 _symmetry_equiv_pos_as_xyz
  1  'x, y, z'
loop_
 _atom_site_type_symbol
 _atom_site_label
 _atom_site_symmetry_multiplicity
 _atom_site_fract_x
 _atom_site_fract_y
 _atom_site_fract_z
 _atom_site_occupancy
  K  K0  1  0.211935  0.936607  0.938306  1
  K  K1  1  0.751363  0.965004  0.371326  1
  K  K2  1  0.313393  0.038065  0.336848  1
  K  K3  1  0.311694  0.336848  0.038065  1
  K  K4  1  0.878674  0.337695  0.498637  1
  K  K5  1  0.913152  0.938306  0.936607  1
  K  K6  1  0.912305  0.371326  0.965004  1
  K  K7  1  0.284996  0.498637  0.337695  1
  Ti  Ti8  1  0.344269  0.219848  0.407906  1
  Ti  Ti9  1  0.030152  0.905731  0.222023  1
  Ti  Ti10  1  0.842094  0.222023  0.905731  1
  Ti  Ti11  1  0.027977  0.407906  0.219848  1
  P  P12  1  0.240952  0.332916  0.327905  1
  P  P13  1  0.098227  0.327905  0.332916  1
  P  P14  1  0.731445  0.485451  0.933106  1
  P  P15  1  0.917084  0.009048  0.151773  1
  P  P16  1  0.764549  0.518555  0.400001  1
  P  P17  1  0.316894  0.400001  0.518555  1
  P  P18  1  0.849999  0.933106  0.485451  1
  P  P19  1  0.858737  0.062170  0.789486  1
  P  P20  1  0.922095  0.151773  0.009048  1
  P  P21  1  0.460514  0.960394  0.391263  1
  P  P22  1  0.289606  0.789486  0.062170  1
  P  P23  1  0.187830  0.391263  0.960394  1
  Se  Se24  1  0.577009  0.567294  0.165940  1
  Se  Se25  1  0.374962  0.125038  0.125038  1
  Se  Se26  1  0.736973  0.035175  0.710493  1
  Se  Se27  1  0.746988  0.424663  0.446440  1
  Se  Se28  1  0.106417  0.882789  0.619547  1
  Se  Se29  1  0.254652  0.123519  0.098805  1
  Se  Se30  1  0.934802  0.419104  0.565256  1
  Se  Se31  1  0.182205  0.287136  0.656203  1
  Se  Se32  1  0.126481  0.995348  0.726978  1
  Se  Se33  1  0.825337  0.503012  0.868093  1
  Se  Se34  1  0.151195  0.726978  0.995348  1
  Se  Se35  1  0.454853  0.592179  0.012405  1
  Se  Se36  1  0.237595  0.309438  0.795147  1
  Se  Se37  1  0.068698  0.275233  0.084808  1
  Se  Se38  1  0.124962  0.875038  0.875038  1
  Se  Se39  1  0.593797  0.375543  0.067795  1
  Se  Se40  1  0.214825  0.513027  0.732640  1
  Se  Se41  1  0.080836  0.565256  0.419104  1
  Se  Se42  1  0.682706  0.672991  0.560243  1
  Se  Se43  1  0.517360  0.710493  0.035175  1
  Se  Se44  1  0.671992  0.334204  0.181445  1
  Se  Se45  1  0.803560  0.868093  0.503012  1
  Se  Se46  1  0.439846  0.945425  0.599369  1
  Se  Se47  1  0.657821  0.795147  0.309438  1
  Se  Se48  1  0.689757  0.165940  0.567294  1
  Se  Se49  1  0.261512  0.431850  0.900044  1
  Se  Se50  1  0.349956  0.843405  0.988488  1
  Se  Se51  1  0.523022  0.098805  0.123519  1
  Se  Se52  1  0.304575  0.810154  0.234641  1
  Se  Se53  1  0.015359  0.599369  0.945425  1
  Se  Se54  1  0.684744  0.169164  0.315198  1
  Se  Se55  1  0.874457  0.656203  0.287136  1
  Se  Se56  1  0.084060  0.560243  0.672991  1
  Se  Se57  1  0.068555  0.437641  0.578008  1
  Se  Se58  1  0.650631  0.234641  0.810154  1
  Se  Se59  1  0.818150  0.988488  0.843405  1
  Se  Se60  1  0.940562  0.012405  0.592179  1
  Se  Se61  1  0.974767  0.181302  0.678739  1
  Se  Se62  1  0.367211  0.143583  0.858753  1
  Se  Se63  1  0.915796  0.578008  0.437641  1
  Se  Se64  1  0.812359  0.181445  0.334204  1
  Se  Se65  1  0.539507  0.732640  0.513027  1
  Se  Se66  1  0.630453  0.858753  0.143583  1
  Se  Se67  1  0.391247  0.619547  0.882789  1
  Se  Se68  1  0.571261  0.084808  0.275233  1
  Se  Se69  1  0.962864  0.067795  0.375543  1
  Se  Se70  1  0.381907  0.446440  0.424663  1
  Se  Se71  1  0.406595  0.900044  0.431850  1
  Se  Se72  1  0.165192  0.678739  0.181302  1
  Se  Se73  1  0.830896  0.315198  0.169164  1
