# generated using pymatgen
data_La7Pr3Al2(ZnRu3)2
_symmetry_space_group_name_H-M   'P 1'
_cell_length_a   8.65294864
_cell_length_b   8.65820478
_cell_length_c   8.56971736
_cell_angle_alpha   109.53931892
_cell_angle_beta   109.44666219
_cell_angle_gamma   109.78870011
_symmetry_Int_Tables_number   1
_chemical_formula_structural   La7Pr3Al2(ZnRu3)2
_chemical_formula_sum   'La7 Pr3 Al2 Zn2 Ru6'
_cell_volume   492.02062261
_cell_formula_units_Z   1
loop_
 _symmetry_equiv_pos_site_id
 _symmetry_equiv_pos_as_xyz
  1  'x, y, z'
loop_
 _atom_site_type_symbol
 _atom_site_label
 _atom_site_symmetry_multiplicity
 _atom_site_fract_x
 _atom_site_fract_y
 _atom_site_fract_z
 _atom_site_occupancy
  La  La0  1  0.252114  0.687670  0.442259  1
  La  La1  1  0.743645  0.808212  0.057081  1
  La  La2  1  0.438358  0.250843  0.688997  1
  La  La3  1  0.687967  0.437722  0.249950  1
  La  La4  1  0.060649  0.747521  0.809274  1
  La  La5  1  0.808726  0.059405  0.748308  1
  La  La6  1  0.215531  0.216818  0.214825  1
  Pr  Pr7  1  0.501161  0.000431  0.280213  1
  Pr  Pr8  1  0.281786  0.501006  0.000202  1
  Pr  Pr9  1  0.000290  0.281692  0.500822  1
  Al  Al10  1  0.913750  0.502313  0.003195  1
  Al  Al11  1  0.999419  0.911089  0.498049  1
  Zn  Zn12  1  0.588297  0.586182  0.586827  1
  Zn  Zn13  1  0.499812  0.001834  0.914295  1
  Ru  Ru14  1  0.243294  0.117466  0.866555  1
  Ru  Ru15  1  0.754452  0.380278  0.636879  1
  Ru  Ru16  1  0.879203  0.257053  0.119417  1
  Ru  Ru17  1  0.115974  0.867137  0.250225  1
  Ru  Ru18  1  0.638387  0.758245  0.381737  1
  Ru  Ru19  1  0.377186  0.627082  0.750888  1
