# generated using pymatgen
data_Sc6Al13Mo2Os7W
_symmetry_space_group_name_H-M   'P 1'
_cell_length_a   8.81420349
_cell_length_b   8.81420416
_cell_length_c   8.81795387
_cell_angle_alpha   59.72549506
_cell_angle_beta   59.72549479
_cell_angle_gamma   59.72726189
_symmetry_Int_Tables_number   1
_chemical_formula_structural   Sc6Al13Mo2Os7W
_chemical_formula_sum   'Sc6 Al13 Mo2 Os7 W1'
_cell_volume   481.40304060
_cell_formula_units_Z   1
loop_
 _symmetry_equiv_pos_site_id
 _symmetry_equiv_pos_as_xyz
  1  'x, y, z'
loop_
 _atom_site_type_symbol
 _atom_site_label
 _atom_site_symmetry_multiplicity
 _atom_site_fract_x
 _atom_site_fract_y
 _atom_site_fract_z
 _atom_site_occupancy
  Sc  Sc0  1  0.710877  0.710877  0.282572  1
  Sc  Sc1  1  0.290705  0.710100  0.289928  1
  Sc  Sc2  1  0.710100  0.290705  0.289928  1
  Sc  Sc3  1  0.290025  0.290025  0.710534  1
  Sc  Sc4  1  0.710898  0.282698  0.711250  1
  Sc  Sc5  1  0.282698  0.710898  0.711250  1
  Al  Al6  1  0.880420  0.880420  0.880533  1
  Al  Al7  1  0.120648  0.120648  0.637912  1
  Al  Al8  1  0.120636  0.637994  0.120558  1
  Al  Al9  1  0.637994  0.120636  0.120558  1
  Al  Al10  1  0.122604  0.122604  0.122468  1
  Al  Al11  1  0.665556  0.665556  0.008678  1
  Al  Al12  1  0.665180  0.008961  0.665921  1
  Al  Al13  1  0.008961  0.665180  0.665921  1
  Al  Al14  1  0.657204  0.657204  0.657782  1
  Al  Al15  1  0.335576  0.335576  0.996269  1
  Al  Al16  1  0.335652  0.996215  0.335519  1
  Al  Al17  1  0.996215  0.335652  0.335519  1
  Al  Al18  1  0.336046  0.336046  0.335959  1
  Mo  Mo19  1  0.877158  0.363635  0.877267  1
  Mo  Mo20  1  0.363635  0.877158  0.877267  1
  Os  Os21  1  0.004073  0.004073  0.005067  1
  Os  Os22  1  0.998259  0.998259  0.496982  1
  Os  Os23  1  0.505297  0.996261  0.503234  1
  Os  Os24  1  0.996261  0.505297  0.503234  1
  Os  Os25  1  0.503862  0.503862  0.996639  1
  Os  Os26  1  0.998854  0.497506  0.998675  1
  Os  Os27  1  0.497506  0.998854  0.998675  1
  W  W28  1  0.877102  0.877102  0.363900  1
