# generated using pymatgen
data_Nd6ZnSi5Rh12
_symmetry_space_group_name_H-M   'P 1'
_cell_length_a   5.66998500
_cell_length_b   5.66998521
_cell_length_c   15.27442000
_cell_angle_alpha   90.00000000
_cell_angle_beta   90.00000000
_cell_angle_gamma   120.00000462
_symmetry_Int_Tables_number   1
_chemical_formula_structural   Nd6ZnSi5Rh12
_chemical_formula_sum   'Nd6 Zn1 Si5 Rh12'
_cell_volume   425.26454412
_cell_formula_units_Z   1
loop_
 _symmetry_equiv_pos_site_id
 _symmetry_equiv_pos_as_xyz
  1  'x, y, z'
loop_
 _atom_site_type_symbol
 _atom_site_label
 _atom_site_symmetry_multiplicity
 _atom_site_fract_x
 _atom_site_fract_y
 _atom_site_fract_z
 _atom_site_occupancy
  Nd  Nd0  1  0.666667  0.333333  0.038253  1
  Nd  Nd1  1  0.666667  0.333333  0.250348  1
  Nd  Nd2  1  0.666667  0.333333  0.460945  1
  Nd  Nd3  1  0.333333  0.666667  0.539055  1
  Nd  Nd4  1  0.333333  0.666667  0.749652  1
  Nd  Nd5  1  0.333333  0.666667  0.961747  1
  Zn  Zn6  1  0.000000  0.000000  0.000000  1
  Si  Si7  1  0.000000  0.000000  0.251044  1
  Si  Si8  1  0.333333  0.666667  0.251979  1
  Si  Si9  1  0.000000  0.000000  0.500000  1
  Si  Si10  1  0.000000  0.000000  0.748956  1
  Si  Si11  1  0.666667  0.333333  0.748021  1
  Rh  Rh12  1  0.167254  0.334508  0.137020  1
  Rh  Rh13  1  0.167254  0.832746  0.137020  1
  Rh  Rh14  1  0.665492  0.832746  0.137020  1
  Rh  Rh15  1  0.165988  0.331977  0.367667  1
  Rh  Rh16  1  0.165988  0.834012  0.367667  1
  Rh  Rh17  1  0.668023  0.834012  0.367667  1
  Rh  Rh18  1  0.331977  0.165988  0.632333  1
  Rh  Rh19  1  0.834012  0.165988  0.632333  1
  Rh  Rh20  1  0.834012  0.668023  0.632333  1
  Rh  Rh21  1  0.334508  0.167254  0.862980  1
  Rh  Rh22  1  0.832746  0.167254  0.862980  1
  Rh  Rh23  1  0.832746  0.665492  0.862980  1
