# generated using pymatgen
data_Er11Lu5(C2Cl3)4
_symmetry_space_group_name_H-M   'P 1'
_cell_length_a   3.60014800
_cell_length_b   10.31577099
_cell_length_c   19.42574786
_cell_angle_alpha   90.05022514
_cell_angle_beta   90.00000000
_cell_angle_gamma   90.00000000
_symmetry_Int_Tables_number   1
_chemical_formula_structural   Er11Lu5(C2Cl3)4
_chemical_formula_sum   'Er11 Lu5 C8 Cl12'
_cell_volume   721.43901949
_cell_formula_units_Z   1
loop_
 _symmetry_equiv_pos_site_id
 _symmetry_equiv_pos_as_xyz
  1  'x, y, z'
loop_
 _atom_site_type_symbol
 _atom_site_label
 _atom_site_symmetry_multiplicity
 _atom_site_fract_x
 _atom_site_fract_y
 _atom_site_fract_z
 _atom_site_occupancy
  Er  Er0  1  0.250000  0.138384  0.574099  1
  Er  Er1  1  0.250000  0.637710  0.925940  1
  Er  Er2  1  0.750000  0.861440  0.426158  1
  Er  Er3  1  0.750000  0.361226  0.073779  1
  Er  Er4  1  0.250000  0.636443  0.755812  1
  Er  Er5  1  0.250000  0.136227  0.744617  1
  Er  Er6  1  0.750000  0.363703  0.244137  1
  Er  Er7  1  0.750000  0.863473  0.255776  1
  Er  Er8  1  0.250000  0.101517  0.331365  1
  Er  Er9  1  0.250000  0.601558  0.168564  1
  Er  Er10  1  0.750000  0.898485  0.668588  1
  Lu  Lu11  1  0.750000  0.399977  0.830125  1
  Lu  Lu12  1  0.250000  0.127494  0.165979  1
  Lu  Lu13  1  0.250000  0.627348  0.333977  1
  Lu  Lu14  1  0.750000  0.872901  0.834109  1
  Lu  Lu15  1  0.750000  0.372137  0.666439  1
  C  C16  1  0.250000  0.863927  0.347412  1
  C  C17  1  0.250000  0.363719  0.152403  1
  C  C18  1  0.750000  0.136478  0.652971  1
  C  C19  1  0.750000  0.634238  0.847254  1
  C  C20  1  0.250000  0.386800  0.750314  1
  C  C21  1  0.250000  0.886182  0.751042  1
  C  C22  1  0.750000  0.613752  0.250721  1
  C  C23  1  0.750000  0.113694  0.249243  1
  Cl  Cl24  1  0.250000  0.376038  0.951331  1
  Cl  Cl25  1  0.250000  0.875867  0.547354  1
  Cl  Cl26  1  0.750000  0.623389  0.046843  1
  Cl  Cl27  1  0.750000  0.123705  0.453060  1
  Cl  Cl28  1  0.250000  0.888819  0.942460  1
  Cl  Cl29  1  0.250000  0.389307  0.558018  1
  Cl  Cl30  1  0.750000  0.110565  0.057138  1
  Cl  Cl31  1  0.750000  0.611043  0.442819  1
  Cl  Cl32  1  0.250000  0.363850  0.355315  1
  Cl  Cl33  1  0.250000  0.863860  0.144667  1
  Cl  Cl34  1  0.750000  0.635722  0.645036  1
  Cl  Cl35  1  0.750000  0.139020  0.855136  1
