# generated using pymatgen
data_Nd8Hf11Si16W
_symmetry_space_group_name_H-M   'P 1'
_cell_length_a   7.36081772
_cell_length_b   7.36081721
_cell_length_c   13.51651055
_cell_angle_alpha   89.88436816
_cell_angle_beta   90.11563087
_cell_angle_gamma   90.09687569
_symmetry_Int_Tables_number   1
_chemical_formula_structural   Nd8Hf11Si16W
_chemical_formula_sum   'Nd8 Hf11 Si16 W1'
_cell_volume   732.34259953
_cell_formula_units_Z   1
loop_
 _symmetry_equiv_pos_site_id
 _symmetry_equiv_pos_as_xyz
  1  'x, y, z'
loop_
 _atom_site_type_symbol
 _atom_site_label
 _atom_site_symmetry_multiplicity
 _atom_site_fract_x
 _atom_site_fract_y
 _atom_site_fract_z
 _atom_site_occupancy
  Nd  Nd0  1  0.997527  0.342215  0.212521  1
  Nd  Nd1  1  0.005645  0.657265  0.716918  1
  Nd  Nd2  1  0.158175  0.493508  0.465527  1
  Nd  Nd3  1  0.503422  0.844022  0.033942  1
  Nd  Nd4  1  0.844022  0.503422  0.966058  1
  Nd  Nd5  1  0.493508  0.158175  0.534473  1
  Nd  Nd6  1  0.342215  0.997527  0.787479  1
  Nd  Nd7  1  0.657265  0.005645  0.283082  1
  Hf  Hf8  1  0.825746  0.825746  0.500000  1
  Hf  Hf9  1  0.323741  0.674778  0.248891  1
  Hf  Hf10  1  0.674778  0.323741  0.751109  1
  Hf  Hf11  1  0.149637  0.995518  0.373130  1
  Hf  Hf12  1  0.852268  0.006548  0.877340  1
  Hf  Hf13  1  0.506046  0.650152  0.624281  1
  Hf  Hf14  1  0.346850  0.490527  0.878632  1
  Hf  Hf15  1  0.490527  0.346850  0.121368  1
  Hf  Hf16  1  0.650152  0.506046  0.375719  1
  Hf  Hf17  1  0.995518  0.149637  0.626870  1
  Hf  Hf18  1  0.006548  0.852268  0.122660  1
  Si  Si19  1  0.365736  0.296776  0.313657  1
  Si  Si20  1  0.633680  0.703657  0.815653  1
  Si  Si21  1  0.203847  0.865349  0.564921  1
  Si  Si22  1  0.134692  0.798781  0.935110  1
  Si  Si23  1  0.798781  0.134692  0.064890  1
  Si  Si24  1  0.865349  0.203847  0.435079  1
  Si  Si25  1  0.296776  0.365736  0.686343  1
  Si  Si26  1  0.703657  0.633680  0.184347  1
  Si  Si27  1  0.290874  0.052077  0.182100  1
  Si  Si28  1  0.707492  0.950708  0.686356  1
  Si  Si29  1  0.449759  0.792346  0.434958  1
  Si  Si30  1  0.206856  0.547267  0.064235  1
  Si  Si31  1  0.547267  0.206856  0.935765  1
  Si  Si32  1  0.792346  0.449759  0.565042  1
  Si  Si33  1  0.052077  0.290874  0.817900  1
  Si  Si34  1  0.950708  0.707492  0.313644  1
  W  W35  1  0.176514  0.176514  0.000000  1
