# generated using pymatgen
data_Dy6Er3Lu11Sn16
_symmetry_space_group_name_H-M   'P 1'
_cell_length_a   7.94583504
_cell_length_b   8.07124751
_cell_length_c   15.25632500
_cell_angle_alpha   90.03141883
_cell_angle_beta   90.00012859
_cell_angle_gamma   90.06565018
_symmetry_Int_Tables_number   1
_chemical_formula_structural   Dy6Er3Lu11Sn16
_chemical_formula_sum   'Dy6 Er3 Lu11 Sn16'
_cell_volume   978.43007055
_cell_formula_units_Z   1
loop_
 _symmetry_equiv_pos_site_id
 _symmetry_equiv_pos_as_xyz
  1  'x, y, z'
loop_
 _atom_site_type_symbol
 _atom_site_label
 _atom_site_symmetry_multiplicity
 _atom_site_fract_x
 _atom_site_fract_y
 _atom_site_fract_z
 _atom_site_occupancy
  Dy  Dy0  1  0.479197  0.678425  0.403881  1
  Dy  Dy1  1  0.978762  0.822486  0.097416  1
  Dy  Dy2  1  0.480663  0.677879  0.096203  1
  Dy  Dy3  1  0.979436  0.821798  0.403473  1
  Dy  Dy4  1  0.519721  0.321153  0.595393  1
  Dy  Dy5  1  0.020403  0.178372  0.903728  1
  Er  Er6  1  0.866169  0.663474  0.877729  1
  Er  Er7  1  0.520487  0.321214  0.904147  1
  Er  Er8  1  0.020699  0.178679  0.595644  1
  Lu  Lu9  1  0.364580  0.837499  0.876208  1
  Lu  Lu10  1  0.865234  0.661933  0.623065  1
  Lu  Lu11  1  0.634940  0.161599  0.376687  1
  Lu  Lu12  1  0.135016  0.337911  0.123622  1
  Lu  Lu13  1  0.633797  0.161984  0.124568  1
  Lu  Lu14  1  0.134670  0.337440  0.376652  1
  Lu  Lu15  1  0.365959  0.838180  0.622749  1
  Lu  Lu16  1  0.196913  0.504726  0.749708  1
  Lu  Lu17  1  0.696254  0.995757  0.749279  1
  Lu  Lu18  1  0.803553  0.494996  0.250396  1
  Lu  Lu19  1  0.303158  0.004711  0.249994  1
  Sn  Sn20  1  0.296479  0.039438  0.041487  1
  Sn  Sn21  1  0.796930  0.460648  0.458165  1
  Sn  Sn22  1  0.704358  0.960368  0.541245  1
  Sn  Sn23  1  0.206798  0.538093  0.958946  1
  Sn  Sn24  1  0.700993  0.963621  0.958625  1
  Sn  Sn25  1  0.202484  0.539524  0.541456  1
  Sn  Sn26  1  0.296390  0.039166  0.458402  1
  Sn  Sn27  1  0.796527  0.458996  0.042958  1
  Sn  Sn28  1  0.561873  0.620001  0.749015  1
  Sn  Sn29  1  0.063030  0.880968  0.748989  1
  Sn  Sn30  1  0.437620  0.379859  0.250713  1
  Sn  Sn31  1  0.937548  0.120260  0.250059  1
  Sn  Sn32  1  0.330661  0.149513  0.749631  1
  Sn  Sn33  1  0.830186  0.350368  0.749340  1
  Sn  Sn34  1  0.669048  0.849905  0.250241  1
  Sn  Sn35  1  0.169463  0.649057  0.250187  1
