# generated using pymatgen
data_Hf6Ta3Ti3Sn10
_symmetry_space_group_name_H-M   'P 1'
_cell_length_a   9.62434750
_cell_length_b   9.59084374
_cell_length_c   5.78862124
_cell_angle_alpha   89.96180770
_cell_angle_beta   90.30197934
_cell_angle_gamma   120.37973944
_symmetry_Int_Tables_number   1
_chemical_formula_structural   Hf6Ta3Ti3Sn10
_chemical_formula_sum   'Hf6 Ta3 Ti3 Sn10'
_cell_volume   460.94817214
_cell_formula_units_Z   1
loop_
 _symmetry_equiv_pos_site_id
 _symmetry_equiv_pos_as_xyz
  1  'x, y, z'
loop_
 _atom_site_type_symbol
 _atom_site_label
 _atom_site_symmetry_multiplicity
 _atom_site_fract_x
 _atom_site_fract_y
 _atom_site_fract_z
 _atom_site_occupancy
  Hf  Hf0  1  0.843436  0.688814  0.753889  1
  Hf  Hf1  1  0.153322  0.842832  0.245874  1
  Hf  Hf2  1  0.689483  0.841634  0.249631  1
  Hf  Hf3  1  0.310517  0.158366  0.750369  1
  Hf  Hf4  1  0.846678  0.157168  0.754126  1
  Hf  Hf5  1  0.156564  0.311186  0.246111  1
  Ta  Ta6  1  0.500000  0.500000  0.000000  1
  Ta  Ta7  1  0.000000  0.500000  0.000000  1
  Ta  Ta8  1  0.500000  0.500000  0.500000  1
  Ti  Ti9  1  0.500000  0.000000  0.500000  1
  Ti  Ti10  1  0.000000  0.500000  0.500000  1
  Ti  Ti11  1  0.500000  0.000000  0.000000  1
  Sn  Sn12  1  0.207794  0.420806  0.745401  1
  Sn  Sn13  1  0.786508  0.208667  0.254101  1
  Sn  Sn14  1  0.420890  0.205652  0.250244  1
  Sn  Sn15  1  0.579110  0.794348  0.749756  1
  Sn  Sn16  1  0.213492  0.791333  0.745899  1
  Sn  Sn17  1  0.792206  0.579194  0.254599  1
  Sn  Sn18  1  0.666921  0.330751  0.751976  1
  Sn  Sn19  1  0.333079  0.669249  0.248024  1
  Sn  Sn20  1  0.000000  0.000000  0.500000  1
  Sn  Sn21  1  0.000000  0.000000  0.000000  1
