# generated using pymatgen
data_Hf9TaFeIr3
_symmetry_space_group_name_H-M   'P 1'
_cell_length_a   8.60835300
_cell_length_b   8.52027539
_cell_length_c   8.52027400
_cell_angle_alpha   119.99990499
_cell_angle_beta   90.00000000
_cell_angle_gamma   90.00000000
_symmetry_Int_Tables_number   1
_chemical_formula_structural   Hf9TaFeIr3
_chemical_formula_sum   'Hf18 Ta2 Fe2 Ir6'
_cell_volume   541.20064898
_cell_formula_units_Z   2
loop_
 _symmetry_equiv_pos_site_id
 _symmetry_equiv_pos_as_xyz
  1  'x, y, z'
loop_
 _atom_site_type_symbol
 _atom_site_label
 _atom_site_symmetry_multiplicity
 _atom_site_fract_x
 _atom_site_fract_y
 _atom_site_fract_z
 _atom_site_occupancy
  Hf  Hf0  1  0.559070  0.796908  0.593833  1
  Hf  Hf1  1  0.559066  0.796909  0.203091  1
  Hf  Hf2  1  0.559070  0.406167  0.203092  1
  Hf  Hf3  1  0.440930  0.203092  0.406167  1
  Hf  Hf4  1  0.440934  0.203091  0.796909  1
  Hf  Hf5  1  0.440930  0.593833  0.796908  1
  Hf  Hf6  1  0.059070  0.203092  0.406167  1
  Hf  Hf7  1  0.059066  0.203091  0.796909  1
  Hf  Hf8  1  0.059070  0.593833  0.796908  1
  Hf  Hf9  1  0.940930  0.796908  0.593833  1
  Hf  Hf10  1  0.940934  0.796909  0.203091  1
  Hf  Hf11  1  0.940930  0.406167  0.203092  1
  Hf  Hf12  1  0.750000  0.459601  0.919226  1
  Hf  Hf13  1  0.750000  0.459622  0.540378  1
  Hf  Hf14  1  0.750000  0.080774  0.540398  1
  Hf  Hf15  1  0.250000  0.540398  0.080774  1
  Hf  Hf16  1  0.250000  0.540378  0.459622  1
  Hf  Hf17  1  0.250000  0.919226  0.459601  1
  Ta  Ta18  1  0.500000  0.000000  0.000000  1
  Ta  Ta19  1  0.000000  0.000000  0.000000  1
  Fe  Fe20  1  0.750000  0.666745  0.333255  1
  Fe  Fe21  1  0.250000  0.333255  0.666745  1
  Ir  Ir22  1  0.750000  0.114449  0.228931  1
  Ir  Ir23  1  0.750000  0.114465  0.885535  1
  Ir  Ir24  1  0.750000  0.771069  0.885551  1
  Ir  Ir25  1  0.250000  0.885551  0.771069  1
  Ir  Ir26  1  0.250000  0.885535  0.114465  1
  Ir  Ir27  1  0.250000  0.228931  0.114449  1
