# generated using pymatgen
data_Er20Ru7Au5
_symmetry_space_group_name_H-M   'P 1'
_cell_length_a   10.97724084
_cell_length_b   10.97724130
_cell_length_c   6.38998030
_cell_angle_alpha   89.95976349
_cell_angle_beta   89.95976268
_cell_angle_gamma   89.06519750
_symmetry_Int_Tables_number   1
_chemical_formula_structural   Er20Ru7Au5
_chemical_formula_sum   'Er20 Ru7 Au5'
_cell_volume   769.88863149
_cell_formula_units_Z   1
loop_
 _symmetry_equiv_pos_site_id
 _symmetry_equiv_pos_as_xyz
  1  'x, y, z'
loop_
 _atom_site_type_symbol
 _atom_site_label
 _atom_site_symmetry_multiplicity
 _atom_site_fract_x
 _atom_site_fract_y
 _atom_site_fract_z
 _atom_site_occupancy
  Er  Er0  1  0.300532  0.089561  0.363598  1
  Er  Er1  1  0.301327  0.908582  0.862187  1
  Er  Er2  1  0.696015  0.079087  0.859983  1
  Er  Er3  1  0.697497  0.907636  0.361106  1
  Er  Er4  1  0.580426  0.786268  0.873646  1
  Er  Er5  1  0.574531  0.204738  0.362160  1
  Er  Er6  1  0.418878  0.791048  0.373423  1
  Er  Er7  1  0.411793  0.205820  0.877812  1
  Er  Er8  1  0.213732  0.419574  0.626354  1
  Er  Er9  1  0.208952  0.581122  0.126577  1
  Er  Er10  1  0.795262  0.425469  0.137840  1
  Er  Er11  1  0.794180  0.588207  0.622188  1
  Er  Er12  1  0.910439  0.699468  0.136402  1
  Er  Er13  1  0.920913  0.303985  0.640017  1
  Er  Er14  1  0.091418  0.698673  0.637813  1
  Er  Er15  1  0.092364  0.302503  0.138894  1
  Er  Er16  1  0.998634  0.000418  0.498984  1
  Er  Er17  1  0.999582  0.001366  0.001016  1
  Er  Er18  1  0.495549  0.502929  0.003036  1
  Er  Er19  1  0.497071  0.504451  0.496964  1
  Ru  Ru20  1  0.654132  0.651767  0.249299  1
  Ru  Ru21  1  0.348233  0.345868  0.250701  1
  Ru  Ru22  1  0.345205  0.654795  0.750000  1
  Ru  Ru23  1  0.499695  0.999396  0.115313  1
  Ru  Ru24  1  0.499585  0.998870  0.618094  1
  Ru  Ru25  1  0.001130  0.500415  0.881906  1
  Ru  Ru26  1  0.000604  0.500305  0.384687  1
  Au  Au27  1  0.842331  0.157669  0.250000  1
  Au  Au28  1  0.844503  0.846440  0.751442  1
  Au  Au29  1  0.153560  0.155497  0.748558  1
  Au  Au30  1  0.155718  0.844282  0.250000  1
  Au  Au31  1  0.656208  0.343792  0.750000  1
