# generated using pymatgen
data_DyY5(CI3)2
_symmetry_space_group_name_H-M   'P 1'
_cell_length_a   3.92348000
_cell_length_b   8.73090471
_cell_length_c   11.94207261
_cell_angle_alpha   92.21744767
_cell_angle_beta   90.00000000
_cell_angle_gamma   90.00000000
_symmetry_Int_Tables_number   1
_chemical_formula_structural   DyY5(CI3)2
_chemical_formula_sum   'Dy1 Y5 C2 I6'
_cell_volume   408.77569780
_cell_formula_units_Z   1
loop_
 _symmetry_equiv_pos_site_id
 _symmetry_equiv_pos_as_xyz
  1  'x, y, z'
loop_
 _atom_site_type_symbol
 _atom_site_label
 _atom_site_symmetry_multiplicity
 _atom_site_fract_x
 _atom_site_fract_y
 _atom_site_fract_z
 _atom_site_occupancy
  Dy  Dy0  1  0.250000  0.919246  0.598612  1
  Y  Y1  1  0.750000  0.081118  0.401065  1
  Y  Y2  1  0.250000  0.887089  0.187980  1
  Y  Y3  1  0.750000  0.112775  0.812099  1
  Y  Y4  1  0.250000  0.291849  0.615154  1
  Y  Y5  1  0.750000  0.708168  0.384857  1
  C  C6  1  0.250000  0.883044  0.387658  1
  C  C7  1  0.750000  0.116092  0.612644  1
  I  I8  1  0.250000  0.859452  0.872349  1
  I  I9  1  0.750000  0.140587  0.127588  1
  I  I10  1  0.250000  0.374925  0.870927  1
  I  I11  1  0.750000  0.625093  0.129055  1
  I  I12  1  0.250000  0.382920  0.367759  1
  I  I13  1  0.750000  0.617643  0.632251  1
