# generated using pymatgen
data_Pr4GeBr6
_symmetry_space_group_name_H-M   'P 1'
_cell_length_a   4.25423600
_cell_length_b   13.89880200
_cell_length_c   14.72072600
_cell_angle_alpha   90.00000000
_cell_angle_beta   90.00000000
_cell_angle_gamma   90.00000000
_symmetry_Int_Tables_number   1
_chemical_formula_structural   Pr4GeBr6
_chemical_formula_sum   'Pr8 Ge2 Br12'
_cell_volume   870.41862541
_cell_formula_units_Z   2
loop_
 _symmetry_equiv_pos_site_id
 _symmetry_equiv_pos_as_xyz
  1  'x, y, z'
loop_
 _atom_site_type_symbol
 _atom_site_label
 _atom_site_symmetry_multiplicity
 _atom_site_fract_x
 _atom_site_fract_y
 _atom_site_fract_z
 _atom_site_occupancy
  Pr  Pr0  1  0.500000  0.119579  0.339836  1
  Pr  Pr1  1  0.500000  0.880421  0.660164  1
  Pr  Pr2  1  0.500000  0.619579  0.160164  1
  Pr  Pr3  1  0.500000  0.380421  0.839836  1
  Pr  Pr4  1  0.000000  0.120398  0.579837  1
  Pr  Pr5  1  0.000000  0.879602  0.420163  1
  Pr  Pr6  1  0.000000  0.620398  0.920163  1
  Pr  Pr7  1  0.000000  0.379602  0.079837  1
  Ge  Ge8  1  0.500000  0.000000  0.500000  1
  Ge  Ge9  1  0.500000  0.500000  0.000000  1
  Br  Br10  1  0.500000  0.243742  0.162063  1
  Br  Br11  1  0.500000  0.756258  0.837937  1
  Br  Br12  1  0.500000  0.743742  0.337937  1
  Br  Br13  1  0.500000  0.256258  0.662063  1
  Br  Br14  1  0.000000  0.253493  0.410965  1
  Br  Br15  1  0.000000  0.746507  0.589035  1
  Br  Br16  1  0.000000  0.753493  0.089035  1
  Br  Br17  1  0.000000  0.246507  0.910965  1
  Br  Br18  1  0.000000  0.002187  0.244919  1
  Br  Br19  1  0.000000  0.997813  0.755081  1
  Br  Br20  1  0.000000  0.502187  0.255081  1
  Br  Br21  1  0.000000  0.497813  0.744919  1
