# generated using pymatgen
data_Tb6Ho10Cd4PdRu3
_symmetry_space_group_name_H-M   'P 1'
_cell_length_a   9.56158839
_cell_length_b   9.68573700
_cell_length_c   9.68573700
_cell_angle_alpha   60.00000341
_cell_angle_beta   59.56955537
_cell_angle_gamma   59.56955096
_symmetry_Int_Tables_number   1
_chemical_formula_structural   Tb6Ho10Cd4PdRu3
_chemical_formula_sum   'Tb6 Ho10 Cd4 Pd1 Ru3'
_cell_volume   630.12097977
_cell_formula_units_Z   1
loop_
 _symmetry_equiv_pos_site_id
 _symmetry_equiv_pos_as_xyz
  1  'x, y, z'
loop_
 _atom_site_type_symbol
 _atom_site_label
 _atom_site_symmetry_multiplicity
 _atom_site_fract_x
 _atom_site_fract_y
 _atom_site_fract_z
 _atom_site_occupancy
  Tb  Tb0  1  0.933944  0.563497  0.563497  1
  Tb  Tb1  1  0.556478  0.938887  0.938887  1
  Tb  Tb2  1  0.556478  0.938887  0.565750  1
  Tb  Tb3  1  0.933944  0.563497  0.939063  1
  Tb  Tb4  1  0.556478  0.565750  0.938887  1
  Tb  Tb5  1  0.933944  0.939063  0.563497  1
  Ho  Ho6  1  0.344628  0.351833  0.351833  1
  Ho  Ho7  1  0.344628  0.351833  0.951707  1
  Ho  Ho8  1  0.344628  0.951707  0.351833  1
  Ho  Ho9  1  0.967661  0.344114  0.344114  1
  Ho  Ho10  1  0.817002  0.188738  0.188738  1
  Ho  Ho11  1  0.186690  0.812000  0.812000  1
  Ho  Ho12  1  0.186690  0.812000  0.189310  1
  Ho  Ho13  1  0.817002  0.188738  0.805521  1
  Ho  Ho14  1  0.186690  0.189310  0.812000  1
  Ho  Ho15  1  0.817002  0.805521  0.188738  1
  Cd  Cd16  1  0.580935  0.578886  0.578886  1
  Cd  Cd17  1  0.580935  0.578886  0.261292  1
  Cd  Cd18  1  0.580935  0.261292  0.578886  1
  Cd  Cd19  1  0.256762  0.581079  0.581079  1
  Pd  Pd20  1  0.572650  0.142450  0.142450  1
  Ru  Ru21  1  0.147966  0.137629  0.137629  1
  Ru  Ru22  1  0.147966  0.137629  0.576776  1
  Ru  Ru23  1  0.147966  0.576776  0.137629  1
