# generated using pymatgen
data_Cs2PaCu2Te6Au
_symmetry_space_group_name_H-M   'P 1'
_cell_length_a   8.47409273
_cell_length_b   8.47409282
_cell_length_c   12.14921688
_cell_angle_alpha   91.34575037
_cell_angle_beta   88.65424929
_cell_angle_gamma   150.48368649
_symmetry_Int_Tables_number   1
_chemical_formula_structural   Cs2PaCu2Te6Au
_chemical_formula_sum   'Cs2 Pa1 Cu2 Te6 Au1'
_cell_volume   429.69856229
_cell_formula_units_Z   1
loop_
 _symmetry_equiv_pos_site_id
 _symmetry_equiv_pos_as_xyz
  1  'x, y, z'
loop_
 _atom_site_type_symbol
 _atom_site_label
 _atom_site_symmetry_multiplicity
 _atom_site_fract_x
 _atom_site_fract_y
 _atom_site_fract_z
 _atom_site_occupancy
  Cs  Cs0  1  0.745649  0.254353  0.261896  1
  Cs  Cs1  1  0.254353  0.745649  0.738104  1
  Pa  Pa2  1  0.000000  0.000000  0.000000  1
  Cu  Cu3  1  0.468601  0.531400  0.225273  1
  Cu  Cu4  1  0.531400  0.468601  0.774727  1
  Te  Te5  1  0.372742  0.627259  0.057173  1
  Te  Te6  1  0.062823  0.937178  0.223690  1
  Te  Te7  1  0.410684  0.589317  0.429719  1
  Te  Te8  1  0.589317  0.410684  0.570281  1
  Te  Te9  1  0.937178  0.062823  0.776310  1
  Te  Te10  1  0.627259  0.372742  0.942826  1
  Au  Au11  1  0.000000  0.000000  0.500000  1
