# generated using pymatgen
data_Ce6Cu16Si7
_symmetry_space_group_name_H-M   'P 1'
_cell_length_a   8.65103490
_cell_length_b   8.65102972
_cell_length_c   8.65111900
_cell_angle_alpha   59.99966242
_cell_angle_beta   59.99968223
_cell_angle_gamma   60.00019699
_symmetry_Int_Tables_number   1
_chemical_formula_structural   Ce6Cu16Si7
_chemical_formula_sum   'Ce6 Cu16 Si7'
_cell_volume   457.81672191
_cell_formula_units_Z   1
loop_
 _symmetry_equiv_pos_site_id
 _symmetry_equiv_pos_as_xyz
  1  'x, y, z'
loop_
 _atom_site_type_symbol
 _atom_site_label
 _atom_site_symmetry_multiplicity
 _atom_site_fract_x
 _atom_site_fract_y
 _atom_site_fract_z
 _atom_site_occupancy
  Ce  Ce0  1  0.290012  0.709988  0.290013  1
  Ce  Ce1  1  0.290012  0.709988  0.709988  1
  Ce  Ce2  1  0.709988  0.290012  0.290012  1
  Ce  Ce3  1  0.709985  0.709982  0.290017  1
  Ce  Ce4  1  0.290015  0.290018  0.709983  1
  Ce  Ce5  1  0.709988  0.290012  0.709987  1
  Cu  Cu6  1  0.119312  0.119312  0.119315  1
  Cu  Cu7  1  0.357939  0.880684  0.880688  1
  Cu  Cu8  1  0.880685  0.357939  0.880688  1
  Cu  Cu9  1  0.880688  0.880688  0.357939  1
  Cu  Cu10  1  0.119315  0.642061  0.119312  1
  Cu  Cu11  1  0.119312  0.119312  0.642061  1
  Cu  Cu12  1  0.642061  0.119316  0.119312  1
  Cu  Cu13  1  0.880688  0.880688  0.880685  1
  Cu  Cu14  1  0.325700  0.325700  0.325699  1
  Cu  Cu15  1  0.977099  0.674301  0.674300  1
  Cu  Cu16  1  0.674301  0.977100  0.674300  1
  Cu  Cu17  1  0.674300  0.674300  0.977100  1
  Cu  Cu18  1  0.325699  0.022900  0.325700  1
  Cu  Cu19  1  0.325700  0.325700  0.022900  1
  Cu  Cu20  1  0.022901  0.325699  0.325700  1
  Cu  Cu21  1  0.674300  0.674300  0.674301  1
  Si  Si22  1  0.000000  0.000000  0.000000  1
  Si  Si23  1  0.000000  0.500000  0.000000  1
  Si  Si24  1  0.500000  0.000000  0.000000  1
  Si  Si25  1  0.000000  0.500000  0.500000  1
  Si  Si26  1  0.500000  0.000000  0.500000  1
  Si  Si27  1  0.000000  0.000000  0.500000  1
  Si  Si28  1  0.500000  0.500000  0.000000  1
