# generated using pymatgen
data_Nd5Y(Ir7Rh2)2
_symmetry_space_group_name_H-M   'P 1'
_cell_length_a   5.36672000
_cell_length_b   5.36671183
_cell_length_c   17.60545500
_cell_angle_alpha   89.99995197
_cell_angle_beta   90.00004088
_cell_angle_gamma   120.00002735
_symmetry_Int_Tables_number   1
_chemical_formula_structural   Nd5Y(Ir7Rh2)2
_chemical_formula_sum   'Nd5 Y1 Ir14 Rh4'
_cell_volume   439.13189215
_cell_formula_units_Z   1
loop_
 _symmetry_equiv_pos_site_id
 _symmetry_equiv_pos_as_xyz
  1  'x, y, z'
loop_
 _atom_site_type_symbol
 _atom_site_label
 _atom_site_symmetry_multiplicity
 _atom_site_fract_x
 _atom_site_fract_y
 _atom_site_fract_z
 _atom_site_occupancy
  Nd  Nd0  1  0.333336  0.666670  0.958910  1
  Nd  Nd1  1  0.666665  0.333333  0.040476  1
  Nd  Nd2  1  0.666666  0.333333  0.460101  1
  Nd  Nd3  1  0.333331  0.666665  0.749426  1
  Nd  Nd4  1  0.666663  0.333331  0.250144  1
  Y  Y5  1  0.333338  0.666663  0.542030  1
  Ir  Ir6  1  0.167253  0.832748  0.373639  1
  Ir  Ir7  1  0.167253  0.334505  0.373639  1
  Ir  Ir8  1  0.665496  0.832749  0.373639  1
  Ir  Ir9  1  0.832864  0.167138  0.626033  1
  Ir  Ir10  1  0.832865  0.665728  0.626034  1
  Ir  Ir11  1  0.334274  0.167137  0.626034  1
  Ir  Ir12  1  0.832984  0.167018  0.872856  1
  Ir  Ir13  1  0.832984  0.665968  0.872855  1
  Ir  Ir14  1  0.334033  0.167017  0.872855  1
  Ir  Ir15  1  0.167037  0.832964  0.127129  1
  Ir  Ir16  1  0.167038  0.334074  0.127129  1
  Ir  Ir17  1  0.665926  0.832964  0.127129  1
  Ir  Ir18  1  0.000000  0.000001  0.500268  1
  Ir  Ir19  1  0.000000  0.000001  0.000081  1
  Rh  Rh20  1  0.333329  0.666667  0.250352  1
  Rh  Rh21  1  0.666671  0.333325  0.749389  1
  Rh  Rh22  1  0.000003  0.999989  0.250480  1
  Rh  Rh23  1  0.999989  0.000011  0.749374  1
