# generated using pymatgen
data_Tm3BC2N
_symmetry_space_group_name_H-M   'P 1'
_cell_length_a   3.51604726
_cell_length_b   3.51604729
_cell_length_c   15.68237700
_cell_angle_alpha   90.00000000
_cell_angle_beta   90.00000000
_cell_angle_gamma   90.07443829
_symmetry_Int_Tables_number   1
_chemical_formula_structural   Tm3BC2N
_chemical_formula_sum   'Tm6 B2 C4 N2'
_cell_volume   193.87460898
_cell_formula_units_Z   2
loop_
 _symmetry_equiv_pos_site_id
 _symmetry_equiv_pos_as_xyz
  1  'x, y, z'
loop_
 _atom_site_type_symbol
 _atom_site_label
 _atom_site_symmetry_multiplicity
 _atom_site_fract_x
 _atom_site_fract_y
 _atom_site_fract_z
 _atom_site_occupancy
  Tm  Tm0  1  0.533102  0.466898  0.393990  1
  Tm  Tm1  1  0.466898  0.533102  0.893990  1
  Tm  Tm2  1  0.466898  0.533102  0.606010  1
  Tm  Tm3  1  0.533102  0.466898  0.106010  1
  Tm  Tm4  1  0.964530  0.035470  0.750000  1
  Tm  Tm5  1  0.035470  0.964530  0.250000  1
  B  B6  1  0.000000  0.000000  0.500000  1
  B  B7  1  0.000000  0.000000  0.000000  1
  C  C8  1  0.030931  0.969069  0.405566  1
  C  C9  1  0.969069  0.030931  0.905566  1
  C  C10  1  0.969069  0.030931  0.594434  1
  C  C11  1  0.030931  0.969069  0.094434  1
  N  N12  1  0.538318  0.461682  0.250000  1
  N  N13  1  0.461682  0.538318  0.750000  1
