# generated using pymatgen
data_Li6CaUPaN6
_symmetry_space_group_name_H-M   'P 1'
_cell_length_a   6.10691400
_cell_length_b   6.10691652
_cell_length_c   5.46305900
_cell_angle_alpha   90.00000000
_cell_angle_beta   90.00000000
_cell_angle_gamma   119.99999716
_symmetry_Int_Tables_number   1
_chemical_formula_structural   Li6CaUPaN6
_chemical_formula_sum   'Li6 Ca1 U1 Pa1 N6'
_cell_volume   176.44539273
_cell_formula_units_Z   1
loop_
 _symmetry_equiv_pos_site_id
 _symmetry_equiv_pos_as_xyz
  1  'x, y, z'
loop_
 _atom_site_type_symbol
 _atom_site_label
 _atom_site_symmetry_multiplicity
 _atom_site_fract_x
 _atom_site_fract_y
 _atom_site_fract_z
 _atom_site_occupancy
  Li  Li0  1  0.978510  0.651466  0.604735  1
  Li  Li1  1  0.348534  0.327043  0.604735  1
  Li  Li2  1  0.672957  0.021490  0.604735  1
  Li  Li3  1  0.008785  0.335235  0.393547  1
  Li  Li4  1  0.664765  0.673551  0.393547  1
  Li  Li5  1  0.326449  0.991215  0.393547  1
  Ca  Ca6  1  0.000000  0.000000  0.997231  1
  U  U7  1  0.666667  0.333333  0.006955  1
  Pa  Pa8  1  0.333333  0.666667  0.994882  1
  N  N9  1  0.996776  0.639740  0.225499  1
  N  N10  1  0.360260  0.357035  0.225499  1
  N  N11  1  0.642965  0.003224  0.225499  1
  N  N12  1  0.991832  0.355606  0.776531  1
  N  N13  1  0.644394  0.636225  0.776531  1
  N  N14  1  0.363775  0.008168  0.776531  1
