# generated using pymatgen
data_La4AsBr6
_symmetry_space_group_name_H-M   'P 1'
_cell_length_a   4.32894700
_cell_length_b   13.93220300
_cell_length_c   14.77064700
_cell_angle_alpha   90.00000000
_cell_angle_beta   90.00000000
_cell_angle_gamma   90.00000000
_symmetry_Int_Tables_number   1
_chemical_formula_structural   La4AsBr6
_chemical_formula_sum   'La8 As2 Br12'
_cell_volume   890.84384069
_cell_formula_units_Z   2
loop_
 _symmetry_equiv_pos_site_id
 _symmetry_equiv_pos_as_xyz
  1  'x, y, z'
loop_
 _atom_site_type_symbol
 _atom_site_label
 _atom_site_symmetry_multiplicity
 _atom_site_fract_x
 _atom_site_fract_y
 _atom_site_fract_z
 _atom_site_occupancy
  La  La0  1  0.500000  0.119760  0.339232  1
  La  La1  1  0.500000  0.880240  0.660768  1
  La  La2  1  0.500000  0.619760  0.160768  1
  La  La3  1  0.500000  0.380240  0.839232  1
  La  La4  1  0.000000  0.118697  0.578776  1
  La  La5  1  0.000000  0.881303  0.421224  1
  La  La6  1  0.000000  0.618697  0.921224  1
  La  La7  1  0.000000  0.381303  0.078776  1
  As  As8  1  0.500000  0.000000  0.500000  1
  As  As9  1  0.500000  0.500000  0.000000  1
  Br  Br10  1  0.500000  0.243873  0.162681  1
  Br  Br11  1  0.500000  0.756127  0.837319  1
  Br  Br12  1  0.500000  0.743873  0.337319  1
  Br  Br13  1  0.500000  0.256127  0.662681  1
  Br  Br14  1  0.000000  0.254111  0.411657  1
  Br  Br15  1  0.000000  0.745889  0.588343  1
  Br  Br16  1  0.000000  0.754111  0.088343  1
  Br  Br17  1  0.000000  0.245889  0.911657  1
  Br  Br18  1  0.000000  0.001642  0.244541  1
  Br  Br19  1  0.000000  0.998358  0.755459  1
  Br  Br20  1  0.000000  0.501642  0.255459  1
  Br  Br21  1  0.000000  0.498358  0.744541  1
