# generated using pymatgen
data_Hf3Zr5(TiSn3)2
_symmetry_space_group_name_H-M   'P 1'
_cell_length_a   8.42735545
_cell_length_b   8.46622154
_cell_length_c   5.67512926
_cell_angle_alpha   89.96555112
_cell_angle_beta   90.01729998
_cell_angle_gamma   120.15266608
_symmetry_Int_Tables_number   1
_chemical_formula_structural   Hf3Zr5(TiSn3)2
_chemical_formula_sum   'Hf3 Zr5 Ti2 Sn6'
_cell_volume   350.12013758
_cell_formula_units_Z   1
loop_
 _symmetry_equiv_pos_site_id
 _symmetry_equiv_pos_as_xyz
  1  'x, y, z'
loop_
 _atom_site_type_symbol
 _atom_site_label
 _atom_site_symmetry_multiplicity
 _atom_site_fract_x
 _atom_site_fract_y
 _atom_site_fract_z
 _atom_site_occupancy
  Hf  Hf0  1  0.000000  0.755323  0.253969  1
  Hf  Hf1  1  0.333597  0.666680  0.499944  1
  Hf  Hf2  1  0.666403  0.333081  0.499944  1
  Zr  Zr3  1  0.758797  0.757980  0.745699  1
  Zr  Zr4  1  0.241203  0.999183  0.745699  1
  Zr  Zr5  1  0.000000  0.246037  0.746026  1
  Zr  Zr6  1  0.241345  0.241424  0.254198  1
  Zr  Zr7  1  0.758655  0.000078  0.254198  1
  Ti  Ti8  1  0.666567  0.333120  0.000079  1
  Ti  Ti9  1  0.333433  0.666555  0.000079  1
  Sn  Sn10  1  0.396630  0.396613  0.758721  1
  Sn  Sn11  1  0.603370  0.999982  0.758721  1
  Sn  Sn12  1  0.000000  0.603581  0.758775  1
  Sn  Sn13  1  0.604145  0.603435  0.241306  1
  Sn  Sn14  1  0.395855  0.999290  0.241306  1
  Sn  Sn15  1  0.000000  0.397636  0.241340  1
