# generated using pymatgen
data_Dy16Ho4IrRh11
_symmetry_space_group_name_H-M   'P 1'
_cell_length_a   10.90055503
_cell_length_b   10.90055464
_cell_length_c   6.35610500
_cell_angle_alpha   90.00081493
_cell_angle_beta   90.00081348
_cell_angle_gamma   90.07240973
_symmetry_Int_Tables_number   1
_chemical_formula_structural   Dy16Ho4IrRh11
_chemical_formula_sum   'Dy16 Ho4 Ir1 Rh11'
_cell_volume   755.24511341
_cell_formula_units_Z   1
loop_
 _symmetry_equiv_pos_site_id
 _symmetry_equiv_pos_as_xyz
  1  'x, y, z'
loop_
 _atom_site_type_symbol
 _atom_site_label
 _atom_site_symmetry_multiplicity
 _atom_site_fract_x
 _atom_site_fract_y
 _atom_site_fract_z
 _atom_site_occupancy
  Dy  Dy0  1  0.290606  0.088507  0.378357  1
  Dy  Dy1  1  0.290962  0.910022  0.878287  1
  Dy  Dy2  1  0.709279  0.088331  0.878268  1
  Dy  Dy3  1  0.709141  0.911368  0.378124  1
  Dy  Dy4  1  0.587065  0.790139  0.877939  1
  Dy  Dy5  1  0.588614  0.209295  0.378661  1
  Dy  Dy6  1  0.411029  0.790142  0.379266  1
  Dy  Dy7  1  0.411319  0.209073  0.878078  1
  Dy  Dy8  1  0.209861  0.412935  0.622061  1
  Dy  Dy9  1  0.209858  0.588971  0.120734  1
  Dy  Dy10  1  0.790705  0.411386  0.121339  1
  Dy  Dy11  1  0.790927  0.588681  0.621922  1
  Dy  Dy12  1  0.911493  0.709394  0.121643  1
  Dy  Dy13  1  0.911669  0.290721  0.621732  1
  Dy  Dy14  1  0.089978  0.709038  0.621713  1
  Dy  Dy15  1  0.088632  0.290859  0.121876  1
  Ho  Ho16  1  0.999788  0.999896  0.500099  1
  Ho  Ho17  1  0.000104  0.000212  0.999901  1
  Ho  Ho18  1  0.499742  0.499989  0.000103  1
  Ho  Ho19  1  0.500011  0.500258  0.499897  1
  Ir  Ir20  1  0.346293  0.653707  0.750000  1
  Rh  Rh21  1  0.846075  0.153925  0.250000  1
  Rh  Rh22  1  0.845902  0.846229  0.750209  1
  Rh  Rh23  1  0.153771  0.154098  0.749791  1
  Rh  Rh24  1  0.153260  0.846740  0.250000  1
  Rh  Rh25  1  0.653950  0.346050  0.750000  1
  Rh  Rh26  1  0.654662  0.654029  0.250111  1
  Rh  Rh27  1  0.345971  0.345338  0.249889  1
  Rh  Rh28  1  0.500205  0.000475  0.123247  1
  Rh  Rh29  1  0.500298  0.000690  0.622678  1
  Rh  Rh30  1  0.999310  0.499702  0.877322  1
  Rh  Rh31  1  0.999525  0.499795  0.376753  1
