# generated using pymatgen
data_TbDy3Sn3Sb3Rh7
_symmetry_space_group_name_H-M   'P 1'
_cell_length_a   7.61131464
_cell_length_b   7.61591144
_cell_length_c   7.61591079
_cell_angle_alpha   109.51274621
_cell_angle_beta   109.46949976
_cell_angle_gamma   109.46949731
_symmetry_Int_Tables_number   1
_chemical_formula_structural   TbDy3Sn3Sb3Rh7
_chemical_formula_sum   'Tb1 Dy3 Sn3 Sb3 Rh7'
_cell_volume   339.68563477
_cell_formula_units_Z   1
loop_
 _symmetry_equiv_pos_site_id
 _symmetry_equiv_pos_as_xyz
  1  'x, y, z'
loop_
 _atom_site_type_symbol
 _atom_site_label
 _atom_site_symmetry_multiplicity
 _atom_site_fract_x
 _atom_site_fract_y
 _atom_site_fract_z
 _atom_site_occupancy
  Tb  Tb0  1  0.494846  0.497047  0.497047  1
  Dy  Dy1  1  0.487168  0.000018  0.000018  1
  Dy  Dy2  1  0.997832  0.502982  0.999973  1
  Dy  Dy3  1  0.997832  0.999973  0.502982  1
  Sn  Sn4  1  0.993000  0.307133  0.307133  1
  Sn  Sn5  1  0.685976  0.000141  0.692872  1
  Sn  Sn6  1  0.685976  0.692872  0.000141  1
  Sb  Sb7  1  0.995215  0.674426  0.674426  1
  Sb  Sb8  1  0.320652  0.999845  0.325563  1
  Sb  Sb9  1  0.320652  0.325563  0.999845  1
  Rh  Rh10  1  0.016714  0.999978  0.999978  1
  Rh  Rh11  1  0.502972  0.753521  0.253337  1
  Rh  Rh12  1  0.749693  0.500021  0.246483  1
  Rh  Rh13  1  0.249403  0.746688  0.499969  1
  Rh  Rh14  1  0.249403  0.499969  0.746688  1
  Rh  Rh15  1  0.502972  0.253337  0.753521  1
  Rh  Rh16  1  0.749693  0.246483  0.500021  1
