# generated using pymatgen
data_SmAlFe4Re7
_symmetry_space_group_name_H-M   'P 1'
_cell_length_a   4.83009347
_cell_length_b   6.75065825
_cell_length_c   6.75065814
_cell_angle_alpha   81.73070863
_cell_angle_beta   69.03792025
_cell_angle_gamma   69.03791805
_symmetry_Int_Tables_number   1
_chemical_formula_structural   SmAlFe4Re7
_chemical_formula_sum   'Sm1 Al1 Fe4 Re7'
_cell_volume   191.91106871
_cell_formula_units_Z   1
loop_
 _symmetry_equiv_pos_site_id
 _symmetry_equiv_pos_as_xyz
  1  'x, y, z'
loop_
 _atom_site_type_symbol
 _atom_site_label
 _atom_site_symmetry_multiplicity
 _atom_site_fract_x
 _atom_site_fract_y
 _atom_site_fract_z
 _atom_site_occupancy
  Sm  Sm0  1  0.993121  0.006879  0.006879  1
  Al  Al1  1  0.276438  0.223562  0.223562  1
  Fe  Fe2  1  0.004031  0.999444  0.490569  1
  Fe  Fe3  1  0.505956  0.999444  0.490569  1
  Fe  Fe4  1  0.505956  0.490569  0.999444  1
  Fe  Fe5  1  0.004031  0.490569  0.999444  1
  Re  Re6  1  0.999785  0.357558  0.642872  1
  Re  Re7  1  0.999785  0.642872  0.357558  1
  Re  Re8  1  0.633916  0.366084  0.366084  1
  Re  Re9  1  0.353400  0.646600  0.646600  1
  Re  Re10  1  0.505330  0.776905  0.212435  1
  Re  Re11  1  0.505330  0.212435  0.776905  1
  Re  Re12  1  0.712920  0.787080  0.787080  1
