# generated using pymatgen
data_Ac3Sc(ZnSn)4
_symmetry_space_group_name_H-M   'P 1'
_cell_length_a   4.60399800
_cell_length_b   4.60399694
_cell_length_c   17.54988500
_cell_angle_alpha   90.00000000
_cell_angle_beta   90.00000000
_cell_angle_gamma   120.00000763
_symmetry_Int_Tables_number   1
_chemical_formula_structural   Ac3Sc(ZnSn)4
_chemical_formula_sum   'Ac3 Sc1 Zn4 Sn4'
_cell_volume   322.16252884
_cell_formula_units_Z   1
loop_
 _symmetry_equiv_pos_site_id
 _symmetry_equiv_pos_as_xyz
  1  'x, y, z'
loop_
 _atom_site_type_symbol
 _atom_site_label
 _atom_site_symmetry_multiplicity
 _atom_site_fract_x
 _atom_site_fract_y
 _atom_site_fract_z
 _atom_site_occupancy
  Ac  Ac0  1  0.000000  0.000000  0.250000  1
  Ac  Ac1  1  0.000000  0.000000  0.985788  1
  Ac  Ac2  1  0.000000  0.000000  0.514212  1
  Sc  Sc3  1  0.000000  0.000000  0.750000  1
  Zn  Zn4  1  0.333333  0.666667  0.145167  1
  Zn  Zn5  1  0.666667  0.333333  0.824388  1
  Zn  Zn6  1  0.666667  0.333333  0.675612  1
  Zn  Zn7  1  0.333333  0.666667  0.354833  1
  Sn  Sn8  1  0.333333  0.666667  0.634050  1
  Sn  Sn9  1  0.666667  0.333333  0.388900  1
  Sn  Sn10  1  0.666667  0.333333  0.111100  1
  Sn  Sn11  1  0.333333  0.666667  0.865950  1
