# generated using pymatgen
data_Ho4Er4Ga3Fe
_symmetry_space_group_name_H-M   'P 1'
_cell_length_a   9.90998600
_cell_length_b   9.90998546
_cell_length_c   6.92251200
_cell_angle_alpha   90.00000000
_cell_angle_beta   90.00000000
_cell_angle_gamma   120.00000181
_symmetry_Int_Tables_number   1
_chemical_formula_structural   Ho4Er4Ga3Fe
_chemical_formula_sum   'Ho8 Er8 Ga6 Fe2'
_cell_volume   588.76285029
_cell_formula_units_Z   2
loop_
 _symmetry_equiv_pos_site_id
 _symmetry_equiv_pos_as_xyz
  1  'x, y, z'
loop_
 _atom_site_type_symbol
 _atom_site_label
 _atom_site_symmetry_multiplicity
 _atom_site_fract_x
 _atom_site_fract_y
 _atom_site_fract_z
 _atom_site_occupancy
  Ho  Ho0  1  0.463467  0.536533  0.207341  1
  Ho  Ho1  1  0.073066  0.536533  0.207341  1
  Ho  Ho2  1  0.463467  0.926934  0.207341  1
  Ho  Ho3  1  0.536533  0.463467  0.707341  1
  Ho  Ho4  1  0.926934  0.463467  0.707341  1
  Ho  Ho5  1  0.536533  0.073066  0.707341  1
  Ho  Ho6  1  0.000000  0.000000  0.231590  1
  Ho  Ho7  1  0.000000  0.000000  0.731590  1
  Er  Er8  1  0.173214  0.826786  0.511025  1
  Er  Er9  1  0.653571  0.826786  0.511025  1
  Er  Er10  1  0.173214  0.346429  0.511025  1
  Er  Er11  1  0.826786  0.173214  0.011025  1
  Er  Er12  1  0.346429  0.173214  0.011025  1
  Er  Er13  1  0.826786  0.653571  0.011025  1
  Er  Er14  1  0.333333  0.666667  0.830061  1
  Er  Er15  1  0.666667  0.333333  0.330061  1
  Ga  Ga16  1  0.163848  0.836152  0.958124  1
  Ga  Ga17  1  0.672305  0.836152  0.958124  1
  Ga  Ga18  1  0.163848  0.327695  0.958124  1
  Ga  Ga19  1  0.836152  0.163848  0.458124  1
  Ga  Ga20  1  0.327695  0.163848  0.458124  1
  Ga  Ga21  1  0.836152  0.672305  0.458124  1
  Fe  Fe22  1  0.333333  0.666667  0.445903  1
  Fe  Fe23  1  0.666667  0.333333  0.945903  1
