# generated using pymatgen
data_V6GaNi2AsN2
_symmetry_space_group_name_H-M   'P 1'
_cell_length_a   6.49036588
_cell_length_b   6.49116300
_cell_length_c   6.49047466
_cell_angle_alpha   90.00000000
_cell_angle_beta   89.82213129
_cell_angle_gamma   90.00000000
_symmetry_Int_Tables_number   1
_chemical_formula_structural   V6GaNi2AsN2
_chemical_formula_sum   'V12 Ga2 Ni4 As2 N4'
_cell_volume   273.44252801
_cell_formula_units_Z   2
loop_
 _symmetry_equiv_pos_site_id
 _symmetry_equiv_pos_as_xyz
  1  'x, y, z'
loop_
 _atom_site_type_symbol
 _atom_site_label
 _atom_site_symmetry_multiplicity
 _atom_site_fract_x
 _atom_site_fract_y
 _atom_site_fract_z
 _atom_site_occupancy
  V  V0  1  0.789303  0.959633  0.375447  1
  V  V1  1  0.711933  0.040745  0.877344  1
  V  V2  1  0.210697  0.459633  0.124553  1
  V  V3  1  0.288067  0.540745  0.622656  1
  V  V4  1  0.960116  0.375683  0.789525  1
  V  V5  1  0.039884  0.875683  0.710475  1
  V  V6  1  0.458839  0.122811  0.212069  1
  V  V7  1  0.541161  0.622811  0.287931  1
  V  V8  1  0.375652  0.788655  0.959349  1
  V  V9  1  0.877146  0.711370  0.040609  1
  V  V10  1  0.122854  0.211370  0.459391  1
  V  V11  1  0.624348  0.288655  0.540651  1
  Ga  Ga12  1  0.925854  0.573968  0.426528  1
  Ga  Ga13  1  0.074146  0.073968  0.073472  1
  Ni  Ni14  1  0.181763  0.822636  0.323923  1
  Ni  Ni15  1  0.326024  0.178553  0.820334  1
  Ni  Ni16  1  0.818237  0.322636  0.176077  1
  Ni  Ni17  1  0.673976  0.678553  0.679666  1
  As  As18  1  0.574189  0.425950  0.925599  1
  As  As19  1  0.425811  0.925950  0.574401  1
  N  N20  1  0.876415  0.124176  0.623970  1
  N  N21  1  0.624712  0.875820  0.124305  1
  N  N22  1  0.123585  0.624176  0.876030  1
  N  N23  1  0.375288  0.375820  0.375695  1
