# generated using pymatgen
data_TbTi2BiF14
_symmetry_space_group_name_H-M   'P 1'
_cell_length_a   5.55890718
_cell_length_b   8.94462436
_cell_length_c   11.83863000
_cell_angle_alpha   62.51404428
_cell_angle_beta   89.92977824
_cell_angle_gamma   89.67126535
_symmetry_Int_Tables_number   1
_chemical_formula_structural   TbTi2BiF14
_chemical_formula_sum   'Tb2 Ti4 Bi2 F28'
_cell_volume   522.19125324
_cell_formula_units_Z   2
loop_
 _symmetry_equiv_pos_site_id
 _symmetry_equiv_pos_as_xyz
  1  'x, y, z'
loop_
 _atom_site_type_symbol
 _atom_site_label
 _atom_site_symmetry_multiplicity
 _atom_site_fract_x
 _atom_site_fract_y
 _atom_site_fract_z
 _atom_site_occupancy
  Tb  Tb0  1  0.758054  0.189863  0.236427  1
  Tb  Tb1  1  0.241946  0.810137  0.763573  1
  Ti  Ti2  1  0.756444  0.720721  0.042001  1
  Ti  Ti3  1  0.243556  0.279279  0.957999  1
  Ti  Ti4  1  0.255703  0.272826  0.455651  1
  Ti  Ti5  1  0.744297  0.727174  0.544349  1
  Bi  Bi6  1  0.262679  0.818435  0.262317  1
  Bi  Bi7  1  0.737321  0.181565  0.737683  1
  F  F8  1  0.934965  0.708255  0.421881  1
  F  F9  1  0.065035  0.291745  0.578119  1
  F  F10  1  0.440941  0.290962  0.082818  1
  F  F11  1  0.559059  0.709038  0.917182  1
  F  F12  1  0.478598  0.727612  0.129616  1
  F  F13  1  0.521402  0.272388  0.870384  1
  F  F14  1  0.980997  0.268574  0.362977  1
  F  F15  1  0.019003  0.731426  0.637023  1
  F  F16  1  0.942540  0.738957  0.168116  1
  F  F17  1  0.057460  0.261043  0.831884  1
  F  F18  1  0.450267  0.251967  0.330037  1
  F  F19  1  0.549733  0.748033  0.669963  1
  F  F20  1  0.770184  0.484266  0.136569  1
  F  F21  1  0.229816  0.515734  0.863431  1
  F  F22  1  0.272855  0.506278  0.361266  1
  F  F23  1  0.727145  0.493722  0.638734  1
  F  F24  1  0.958011  0.282333  0.046190  1
  F  F25  1  0.041989  0.717667  0.953810  1
  F  F26  1  0.453875  0.720946  0.460669  1
  F  F27  1  0.546125  0.279054  0.539331  1
  F  F28  1  0.739152  0.964795  0.448092  1
  F  F29  1  0.260848  0.035205  0.551908  1
  F  F30  1  0.238806  0.039989  0.049537  1
  F  F31  1  0.761194  0.960011  0.950463  1
  F  F32  1  0.601065  0.971357  0.225488  1
  F  F33  1  0.398935  0.028643  0.774512  1
  F  F34  1  0.095956  0.036592  0.274134  1
  F  F35  1  0.904044  0.963408  0.725866  1
