# generated using pymatgen
data_Zr6Ti4Al12Pd2Ru3Rh2
_symmetry_space_group_name_H-M   'P 1'
_cell_length_a   8.81203610
_cell_length_b   8.82002533
_cell_length_c   8.81250800
_cell_angle_alpha   59.97692907
_cell_angle_beta   60.05709619
_cell_angle_gamma   59.97497344
_symmetry_Int_Tables_number   1
_chemical_formula_structural   Zr6Ti4Al12Pd2Ru3Rh2
_chemical_formula_sum   'Zr6 Ti4 Al12 Pd2 Ru3 Rh2'
_cell_volume   484.35030658
_cell_formula_units_Z   1
loop_
 _symmetry_equiv_pos_site_id
 _symmetry_equiv_pos_as_xyz
  1  'x, y, z'
loop_
 _atom_site_type_symbol
 _atom_site_label
 _atom_site_symmetry_multiplicity
 _atom_site_fract_x
 _atom_site_fract_y
 _atom_site_fract_z
 _atom_site_occupancy
  Zr  Zr0  1  0.696936  0.695683  0.304687  1
  Zr  Zr1  1  0.313112  0.685253  0.316384  1
  Zr  Zr2  1  0.696931  0.302716  0.304683  1
  Zr  Zr3  1  0.303741  0.306033  0.694333  1
  Zr  Zr4  1  0.686755  0.314538  0.684181  1
  Zr  Zr5  1  0.303734  0.695907  0.694346  1
  Ti  Ti6  1  0.890876  0.875196  0.358770  1
  Ti  Ti7  1  0.879195  0.357459  0.873829  1
  Ti  Ti8  1  0.356243  0.877779  0.888115  1
  Ti  Ti9  1  0.879102  0.889616  0.873806  1
  Al  Al10  1  0.116100  0.121119  0.641684  1
  Al  Al11  1  0.119452  0.642436  0.122142  1
  Al  Al12  1  0.643341  0.120227  0.116223  1
  Al  Al13  1  0.119453  0.115973  0.122135  1
  Al  Al14  1  0.664379  0.662999  0.009612  1
  Al  Al15  1  0.663160  0.006873  0.664436  1
  Al  Al16  1  0.004532  0.664614  0.666265  1
  Al  Al17  1  0.663200  0.665507  0.664456  1
  Al  Al18  1  0.338382  0.334789  0.992035  1
  Al  Al19  1  0.333971  0.994177  0.334154  1
  Al  Al20  1  0.996486  0.333378  0.336756  1
  Al  Al21  1  0.333989  0.337693  0.334140  1
  Pd  Pd22  1  0.499672  0.000042  0.500267  1
  Pd  Pd23  1  0.000302  0.500073  0.999587  1
  Ru  Ru24  1  0.001075  0.999927  0.999065  1
  Ru  Ru25  1  0.997049  0.997562  0.503535  1
  Ru  Ru26  1  0.997061  0.501850  0.503538  1
  Rh  Rh27  1  0.500921  0.502248  0.998460  1
  Rh  Rh28  1  0.500850  0.998329  0.998372  1
