# generated using pymatgen
data_La20GaSi11
_symmetry_space_group_name_H-M   'P 1'
_cell_length_a   7.91857900
_cell_length_b   7.91857900
_cell_length_c   14.51966000
_cell_angle_alpha   90.00000000
_cell_angle_beta   90.00000000
_cell_angle_gamma   90.00000000
_symmetry_Int_Tables_number   1
_chemical_formula_structural   La20GaSi11
_chemical_formula_sum   'La20 Ga1 Si11'
_cell_volume   910.43921254
_cell_formula_units_Z   1
loop_
 _symmetry_equiv_pos_site_id
 _symmetry_equiv_pos_as_xyz
  1  'x, y, z'
loop_
 _atom_site_type_symbol
 _atom_site_label
 _atom_site_symmetry_multiplicity
 _atom_site_fract_x
 _atom_site_fract_y
 _atom_site_fract_z
 _atom_site_occupancy
  La  La0  1  0.500000  0.000000  0.777941  1
  La  La1  1  0.329722  0.314261  0.104818  1
  La  La2  1  0.829632  0.814512  0.895093  1
  La  La3  1  0.000000  0.500000  0.224063  1
  La  La4  1  0.827564  0.182241  0.393456  1
  La  La5  1  0.170368  0.185488  0.895093  1
  La  La6  1  0.670278  0.685739  0.104818  1
  La  La7  1  0.000000  0.500000  0.721239  1
  La  La8  1  0.811657  0.834469  0.606978  1
  La  La9  1  0.317759  0.327564  0.393456  1
  La  La10  1  0.185739  0.829722  0.104818  1
  La  La11  1  0.188343  0.165531  0.606978  1
  La  La12  1  0.814261  0.170278  0.104818  1
  La  La13  1  0.334469  0.688343  0.606978  1
  La  La14  1  0.500000  0.000000  0.276957  1
  La  La15  1  0.685488  0.329632  0.895093  1
  La  La16  1  0.665531  0.311657  0.606978  1
  La  La17  1  0.314512  0.670368  0.895093  1
  La  La18  1  0.172436  0.817759  0.393456  1
  La  La19  1  0.682241  0.672436  0.393456  1
  Ga  Ga20  1  0.000000  0.500000  0.502676  1
  Si  Si21  1  0.613353  0.387400  0.249080  1
  Si  Si22  1  0.887506  0.113787  0.751252  1
  Si  Si23  1  0.500000  0.000000  0.494375  1
  Si  Si24  1  0.887400  0.886647  0.249080  1
  Si  Si25  1  0.000000  0.500000  0.005163  1
  Si  Si26  1  0.112494  0.886213  0.751252  1
  Si  Si27  1  0.386213  0.387506  0.751252  1
  Si  Si28  1  0.112600  0.113353  0.249080  1
  Si  Si29  1  0.386647  0.612600  0.249080  1
  Si  Si30  1  0.613787  0.612494  0.751252  1
  Si  Si31  1  0.500000  0.000000  0.994873  1
