# generated using pymatgen
data_Er4Re3Os2Ru3
_symmetry_space_group_name_H-M   'P 1'
_cell_length_a   5.25139624
_cell_length_b   5.40858196
_cell_length_c   9.05580000
_cell_angle_alpha   90.00000000
_cell_angle_beta   90.00000000
_cell_angle_gamma   122.29471576
_symmetry_Int_Tables_number   1
_chemical_formula_structural   Er4Re3Os2Ru3
_chemical_formula_sum   'Er4 Re3 Os2 Ru3'
_cell_volume   217.42105785
_cell_formula_units_Z   1
loop_
 _symmetry_equiv_pos_site_id
 _symmetry_equiv_pos_as_xyz
  1  'x, y, z'
loop_
 _atom_site_type_symbol
 _atom_site_label
 _atom_site_symmetry_multiplicity
 _atom_site_fract_x
 _atom_site_fract_y
 _atom_site_fract_z
 _atom_site_occupancy
  Er  Er0  1  0.335390  0.664732  0.436737  1
  Er  Er1  1  0.660126  0.330687  0.565539  1
  Er  Er2  1  0.660126  0.330687  0.934461  1
  Er  Er3  1  0.335390  0.664732  0.063263  1
  Re  Re4  1  0.339428  0.177988  0.250000  1
  Re  Re5  1  0.829766  0.668909  0.250000  1
  Re  Re6  1  0.672736  0.837588  0.750000  1
  Os  Os7  1  0.176186  0.348461  0.750000  1
  Os  Os8  1  0.175754  0.829375  0.750000  1
  Ru  Ru9  1  0.995257  0.985015  0.999923  1
  Ru  Ru10  1  0.824585  0.176809  0.250000  1
  Ru  Ru11  1  0.995257  0.985015  0.500077  1
