# generated using pymatgen
data_TaCr2(SnRu2)3
_symmetry_space_group_name_H-M   'P 1'
_cell_length_a   4.46340600
_cell_length_b   6.28326200
_cell_length_c   13.35365900
_cell_angle_alpha   90.00000000
_cell_angle_beta   90.00056130
_cell_angle_gamma   90.00000000
_symmetry_Int_Tables_number   1
_chemical_formula_structural   TaCr2(SnRu2)3
_chemical_formula_sum   'Ta2 Cr4 Sn6 Ru12'
_cell_volume   374.50001902
_cell_formula_units_Z   2
loop_
 _symmetry_equiv_pos_site_id
 _symmetry_equiv_pos_as_xyz
  1  'x, y, z'
loop_
 _atom_site_type_symbol
 _atom_site_label
 _atom_site_symmetry_multiplicity
 _atom_site_fract_x
 _atom_site_fract_y
 _atom_site_fract_z
 _atom_site_occupancy
  Ta  Ta0  1  0.000018  0.000000  0.662990  1
  Ta  Ta1  1  0.500018  0.500001  0.837029  1
  Cr  Cr2  1  0.999973  0.000000  0.002913  1
  Cr  Cr3  1  0.499925  0.500001  0.168299  1
  Cr  Cr4  1  0.999908  0.000000  0.331721  1
  Cr  Cr5  1  0.499973  0.500001  0.497002  1
  Sn  Sn6  1  0.000012  0.500001  0.005339  1
  Sn  Sn7  1  0.500006  0.000000  0.168237  1
  Sn  Sn8  1  0.000004  0.500001  0.331769  1
  Sn  Sn9  1  0.500027  0.000000  0.494624  1
  Sn  Sn10  1  0.000011  0.500001  0.663220  1
  Sn  Sn11  1  0.500011  0.000000  0.836821  1
  Ru  Ru12  1  0.500011  0.248928  0.000486  1
  Ru  Ru13  1  0.500011  0.751072  0.000486  1
  Ru  Ru14  1  0.000005  0.247107  0.166987  1
  Ru  Ru15  1  0.000005  0.752894  0.166987  1
  Ru  Ru16  1  0.500001  0.252822  0.332967  1
  Ru  Ru17  1  0.500001  0.747178  0.332967  1
  Ru  Ru18  1  0.000012  0.250988  0.499543  1
  Ru  Ru19  1  0.000012  0.749013  0.499543  1
  Ru  Ru20  1  0.500015  0.248870  0.667019  1
  Ru  Ru21  1  0.500015  0.751130  0.667019  1
  Ru  Ru22  1  0.000014  0.251169  0.833017  1
  Ru  Ru23  1  0.000014  0.748832  0.833017  1
