# generated using pymatgen
data_Rb6V(RuBr6)3
_symmetry_space_group_name_H-M   'P 1'
_cell_length_a   7.66890500
_cell_length_b   7.66890527
_cell_length_c   18.62572300
_cell_angle_alpha   90.00000000
_cell_angle_beta   90.00000000
_cell_angle_gamma   120.00001176
_symmetry_Int_Tables_number   1
_chemical_formula_structural   Rb6V(RuBr6)3
_chemical_formula_sum   'Rb6 V1 Ru3 Br18'
_cell_volume   948.65969944
_cell_formula_units_Z   1
loop_
 _symmetry_equiv_pos_site_id
 _symmetry_equiv_pos_as_xyz
  1  'x, y, z'
loop_
 _atom_site_type_symbol
 _atom_site_label
 _atom_site_symmetry_multiplicity
 _atom_site_fract_x
 _atom_site_fract_y
 _atom_site_fract_z
 _atom_site_occupancy
  Rb  Rb0  1  0.000000  0.000000  0.249590  1
  Rb  Rb1  1  0.000000  0.000000  0.752560  1
  Rb  Rb2  1  0.333333  0.666667  0.061520  1
  Rb  Rb3  1  0.666667  0.333333  0.562300  1
  Rb  Rb4  1  0.333333  0.666667  0.435829  1
  Rb  Rb5  1  0.666667  0.333333  0.936214  1
  V  V6  1  0.333333  0.666667  0.674932  1
  Ru  Ru7  1  0.333333  0.666667  0.824576  1
  Ru  Ru8  1  0.666667  0.333333  0.324001  1
  Ru  Ru9  1  0.666667  0.333333  0.175988  1
  Br  Br10  1  0.821164  0.178836  0.403282  1
  Br  Br11  1  0.821164  0.642328  0.403282  1
  Br  Br12  1  0.357672  0.178836  0.403282  1
  Br  Br13  1  0.642867  0.821434  0.902995  1
  Br  Br14  1  0.177970  0.355940  0.596775  1
  Br  Br15  1  0.178566  0.821434  0.902995  1
  Br  Br16  1  0.178566  0.357133  0.902995  1
  Br  Br17  1  0.821145  0.178855  0.096793  1
  Br  Br18  1  0.357710  0.178855  0.096793  1
  Br  Br19  1  0.644060  0.822030  0.596775  1
  Br  Br20  1  0.506665  0.013330  0.250072  1
  Br  Br21  1  0.495190  0.504810  0.750916  1
  Br  Br22  1  0.009619  0.504810  0.750916  1
  Br  Br23  1  0.986670  0.493335  0.250072  1
  Br  Br24  1  0.506665  0.493335  0.250072  1
  Br  Br25  1  0.495190  0.990381  0.750916  1
  Br  Br26  1  0.821145  0.642290  0.096793  1
  Br  Br27  1  0.177970  0.822030  0.596775  1
