# generated using pymatgen
data_Hf4Ge(B7Ir6)2
_symmetry_space_group_name_H-M   'P 1'
_cell_length_a   3.46002550
_cell_length_b   7.77356923
_cell_length_c   13.46433631
_cell_angle_alpha   89.98618424
_cell_angle_beta   90.07111832
_cell_angle_gamma   90.07470669
_symmetry_Int_Tables_number   1
_chemical_formula_structural   Hf4Ge(B7Ir6)2
_chemical_formula_sum   'Hf4 Ge1 B14 Ir12'
_cell_volume   362.14625996
_cell_formula_units_Z   1
loop_
 _symmetry_equiv_pos_site_id
 _symmetry_equiv_pos_as_xyz
  1  'x, y, z'
loop_
 _atom_site_type_symbol
 _atom_site_label
 _atom_site_symmetry_multiplicity
 _atom_site_fract_x
 _atom_site_fract_y
 _atom_site_fract_z
 _atom_site_occupancy
  Hf  Hf0  1  0.251664  0.498435  0.835006  1
  Hf  Hf1  1  0.253684  0.001495  0.331573  1
  Hf  Hf2  1  0.746316  0.998505  0.668427  1
  Hf  Hf3  1  0.748336  0.501565  0.164994  1
  Ge  Ge4  1  0.500000  0.500000  0.500000  1
  B  B5  1  0.500000  0.000000  0.000000  1
  B  B6  1  0.000000  0.000000  0.000000  1
  B  B7  1  0.756481  0.325968  0.728172  1
  B  B8  1  0.754599  0.829010  0.220841  1
  B  B9  1  0.751404  0.752003  0.804645  1
  B  B10  1  0.754974  0.246658  0.298969  1
  B  B11  1  0.749416  0.424317  0.974278  1
  B  B12  1  0.763491  0.921381  0.473771  1
  B  B13  1  0.245401  0.170990  0.779159  1
  B  B14  1  0.243519  0.674032  0.271828  1
  B  B15  1  0.245026  0.753342  0.701031  1
  B  B16  1  0.248596  0.247997  0.195355  1
  B  B17  1  0.236509  0.078619  0.526229  1
  B  B18  1  0.250584  0.575683  0.025722  1
  Ir  Ir19  1  0.745731  0.592599  0.675079  1
  Ir  Ir20  1  0.749992  0.089175  0.164654  1
  Ir  Ir21  1  0.751144  0.703168  0.962267  1
  Ir  Ir22  1  0.740324  0.196988  0.459193  1
  Ir  Ir23  1  0.747813  0.204486  0.874217  1
  Ir  Ir24  1  0.745617  0.713047  0.365572  1
  Ir  Ir25  1  0.250008  0.910825  0.835346  1
  Ir  Ir26  1  0.254269  0.407401  0.324921  1
  Ir  Ir27  1  0.259676  0.803012  0.540807  1
  Ir  Ir28  1  0.248856  0.296832  0.037733  1
  Ir  Ir29  1  0.254383  0.286953  0.634428  1
  Ir  Ir30  1  0.252187  0.795514  0.125783  1
