# generated using pymatgen
data_Pr2Tm2Ir3RhO14
_symmetry_space_group_name_H-M   'P 1'
_cell_length_a   7.31301757
_cell_length_b   7.37053325
_cell_length_c   7.30365307
_cell_angle_alpha   59.69661427
_cell_angle_beta   59.50780237
_cell_angle_gamma   59.73948113
_symmetry_Int_Tables_number   1
_chemical_formula_structural   Pr2Tm2Ir3RhO14
_chemical_formula_sum   'Pr2 Tm2 Ir3 Rh1 O14'
_cell_volume   276.13962278
_cell_formula_units_Z   1
loop_
 _symmetry_equiv_pos_site_id
 _symmetry_equiv_pos_as_xyz
  1  'x, y, z'
loop_
 _atom_site_type_symbol
 _atom_site_label
 _atom_site_symmetry_multiplicity
 _atom_site_fract_x
 _atom_site_fract_y
 _atom_site_fract_z
 _atom_site_occupancy
  Pr  Pr0  1  0.125000  0.125000  0.125000  1
  Pr  Pr1  1  0.125000  0.625000  0.125000  1
  Tm  Tm2  1  0.125000  0.125000  0.625000  1
  Tm  Tm3  1  0.625000  0.125000  0.125000  1
  Ir  Ir4  1  0.625000  0.625000  0.625000  1
  Ir  Ir5  1  0.625000  0.125000  0.625000  1
  Ir  Ir6  1  0.625000  0.625000  0.125000  1
  Rh  Rh7  1  0.125000  0.625000  0.625000  1
  O  O8  1  0.958435  0.526475  0.550069  1
  O  O9  1  0.291565  0.284980  0.699931  1
  O  O10  1  0.958526  0.538586  0.964302  1
  O  O11  1  0.694203  0.290662  0.291885  1
  O  O12  1  0.555797  0.526749  0.958115  1
  O  O13  1  0.544593  0.958532  0.538343  1
  O  O14  1  0.555797  0.959338  0.958115  1
  O  O15  1  0.262166  0.238788  0.260257  1
  O  O16  1  0.291565  0.723525  0.699931  1
  O  O17  1  0.705407  0.291468  0.711657  1
  O  O18  1  0.987834  0.011212  0.989743  1
  O  O19  1  0.958435  0.965020  0.550069  1
  O  O20  1  0.291474  0.711414  0.285698  1
  O  O21  1  0.694203  0.723251  0.291885  1
