# generated using pymatgen
data_Y2Pa(InRh)3
_symmetry_space_group_name_H-M   'P 1'
_cell_length_a   7.59592748
_cell_length_b   7.90160554
_cell_length_c   3.79522600
_cell_angle_alpha   90.00000000
_cell_angle_beta   90.00000000
_cell_angle_gamma   121.34038753
_symmetry_Int_Tables_number   1
_chemical_formula_structural   Y2Pa(InRh)3
_chemical_formula_sum   'Y2 Pa1 In3 Rh3'
_cell_volume   194.55332648
_cell_formula_units_Z   1
loop_
 _symmetry_equiv_pos_site_id
 _symmetry_equiv_pos_as_xyz
  1  'x, y, z'
loop_
 _atom_site_type_symbol
 _atom_site_label
 _atom_site_symmetry_multiplicity
 _atom_site_fract_x
 _atom_site_fract_y
 _atom_site_fract_z
 _atom_site_occupancy
  Y  Y0  1  0.403111  0.404445  0.500000  1
  Y  Y1  1  0.596889  0.001334  0.500000  1
  Pa  Pa2  1  0.000000  0.581551  0.500000  1
  In  In3  1  0.000000  0.241430  0.000000  1
  In  In4  1  0.270089  0.011435  0.000000  1
  In  In5  1  0.729911  0.741346  0.000000  1
  Rh  Rh6  1  0.292866  0.661780  0.000000  1
  Rh  Rh7  1  0.000000  0.987768  0.500000  1
  Rh  Rh8  1  0.707134  0.368913  0.000000  1
