# generated using pymatgen
data_Er6AlAg5C2
_symmetry_space_group_name_H-M   'P 1'
_cell_length_a   9.36812439
_cell_length_b   9.32664089
_cell_length_c   9.32664100
_cell_angle_alpha   59.65082847
_cell_angle_beta   59.85275125
_cell_angle_gamma   59.85276331
_symmetry_Int_Tables_number   1
_chemical_formula_structural   Er6AlAg5C2
_chemical_formula_sum   'Er12 Al2 Ag10 C4'
_cell_volume   573.40826840
_cell_formula_units_Z   2
loop_
 _symmetry_equiv_pos_site_id
 _symmetry_equiv_pos_as_xyz
  1  'x, y, z'
loop_
 _atom_site_type_symbol
 _atom_site_label
 _atom_site_symmetry_multiplicity
 _atom_site_fract_x
 _atom_site_fract_y
 _atom_site_fract_z
 _atom_site_occupancy
  Er  Er0  1  0.441975  0.443415  0.057112  1
  Er  Er1  1  0.057499  0.443413  0.057112  1
  Er  Er2  1  0.442466  0.057534  0.057534  1
  Er  Er3  1  0.057499  0.057112  0.443415  1
  Er  Er4  1  0.441976  0.057112  0.443413  1
  Er  Er5  1  0.056513  0.443487  0.443487  1
  Er  Er6  1  0.808025  0.806585  0.192888  1
  Er  Er7  1  0.192501  0.806587  0.192888  1
  Er  Er8  1  0.807534  0.192466  0.192466  1
  Er  Er9  1  0.192501  0.192888  0.806585  1
  Er  Er10  1  0.808024  0.192888  0.806587  1
  Er  Er11  1  0.193487  0.806513  0.806513  1
  Al  Al12  1  0.625000  0.625000  0.125000  1
  Al  Al13  1  0.625000  0.125000  0.625000  1
  Ag  Ag14  1  0.829423  0.839235  0.501918  1
  Ag  Ag15  1  0.829423  0.501918  0.839235  1
  Ag  Ag16  1  0.503383  0.835603  0.835607  1
  Ag  Ag17  1  0.825406  0.835607  0.835603  1
  Ag  Ag18  1  0.420577  0.410765  0.748082  1
  Ag  Ag19  1  0.420577  0.748082  0.410765  1
  Ag  Ag20  1  0.746617  0.414397  0.414393  1
  Ag  Ag21  1  0.424594  0.414393  0.414397  1
  Ag  Ag22  1  0.125000  0.625000  0.625000  1
  Ag  Ag23  1  0.625000  0.625000  0.625000  1
  C  C24  1  0.125000  0.125000  0.625000  1
  C  C25  1  0.125000  0.625000  0.125000  1
  C  C26  1  0.625000  0.125000  0.125000  1
  C  C27  1  0.125000  0.125000  0.125000  1
