# generated using pymatgen
data_NdTh7IrS17
_symmetry_space_group_name_H-M   'P 1'
_cell_length_a   8.06889156
_cell_length_b   8.03079254
_cell_length_c   10.68339700
_cell_angle_alpha   80.54545426
_cell_angle_beta   80.57469621
_cell_angle_gamma   65.00635229
_symmetry_Int_Tables_number   1
_chemical_formula_structural   NdTh7IrS17
_chemical_formula_sum   'Nd1 Th7 Ir1 S17'
_cell_volume   615.47121160
_cell_formula_units_Z   1
loop_
 _symmetry_equiv_pos_site_id
 _symmetry_equiv_pos_as_xyz
  1  'x, y, z'
loop_
 _atom_site_type_symbol
 _atom_site_label
 _atom_site_symmetry_multiplicity
 _atom_site_fract_x
 _atom_site_fract_y
 _atom_site_fract_z
 _atom_site_occupancy
  Nd  Nd0  1  0.812569  0.303911  0.297769  1
  Th  Th1  1  0.299964  0.814465  0.293318  1
  Th  Th2  1  0.185426  0.698735  0.704413  1
  Th  Th3  1  0.699103  0.186964  0.704007  1
  Th  Th4  1  0.205978  0.205018  0.544503  1
  Th  Th5  1  0.793749  0.795529  0.451844  1
  Th  Th6  1  0.681065  0.676319  0.978740  1
  Th  Th7  1  0.319414  0.319882  0.024780  1
  Ir  Ir8  1  0.001744  0.999088  0.999054  1
  S  S9  1  0.825366  0.431344  0.534875  1
  S  S10  1  0.430699  0.820870  0.531078  1
  S  S11  1  0.176307  0.569303  0.468903  1
  S  S12  1  0.569594  0.174064  0.472892  1
  S  S13  1  0.949210  0.314889  0.023257  1
  S  S14  1  0.316046  0.948862  0.022762  1
  S  S15  1  0.051580  0.683387  0.974727  1
  S  S16  1  0.685061  0.052667  0.974650  1
  S  S17  1  0.214584  0.204764  0.279311  1
  S  S18  1  0.791922  0.790785  0.721757  1
  S  S19  1  0.055650  0.055931  0.775935  1
  S  S20  1  0.945787  0.943173  0.223441  1
  S  S21  1  0.304686  0.303781  0.756575  1
  S  S22  1  0.689609  0.703622  0.242112  1
  S  S23  1  0.518771  0.521760  0.832232  1
  S  S24  1  0.474693  0.484331  0.163634  1
  S  S25  1  0.001422  0.996560  0.503432  1
