# generated using pymatgen
data_Ti5NbAl4(IrN)2
_symmetry_space_group_name_H-M   'P 1'
_cell_length_a   8.18098831
_cell_length_b   8.17714206
_cell_length_c   8.18098777
_cell_angle_alpha   60.09631480
_cell_angle_beta   59.98742443
_cell_angle_gamma   60.09631156
_symmetry_Int_Tables_number   1
_chemical_formula_structural   Ti5NbAl4(IrN)2
_chemical_formula_sum   'Ti10 Nb2 Al8 Ir4 N4'
_cell_volume   387.51395877
_cell_formula_units_Z   2
loop_
 _symmetry_equiv_pos_site_id
 _symmetry_equiv_pos_as_xyz
  1  'x, y, z'
loop_
 _atom_site_type_symbol
 _atom_site_label
 _atom_site_symmetry_multiplicity
 _atom_site_fract_x
 _atom_site_fract_y
 _atom_site_fract_z
 _atom_site_occupancy
  Ti  Ti0  1  0.434863  0.064974  0.064459  1
  Ti  Ti1  1  0.064557  0.064959  0.434616  1
  Ti  Ti2  1  0.064569  0.434556  0.064350  1
  Ti  Ti3  1  0.435510  0.064995  0.435247  1
  Ti  Ti4  1  0.185650  0.815444  0.185431  1
  Ti  Ti5  1  0.185063  0.815870  0.813843  1
  Ti  Ti6  1  0.815384  0.185041  0.185443  1
  Ti  Ti7  1  0.814753  0.185005  0.814490  1
  Ti  Ti8  1  0.436157  0.434130  0.064937  1
  Ti  Ti9  1  0.185541  0.185026  0.815137  1
  Nb  Nb10  1  0.813743  0.815169  0.185449  1
  Nb  Nb11  1  0.064551  0.434831  0.436257  1
  Al  Al12  1  0.414317  0.755979  0.414899  1
  Al  Al13  1  0.835146  0.835724  0.496249  1
  Al  Al14  1  0.494516  0.835404  0.835528  1
  Al  Al15  1  0.834711  0.835505  0.833113  1
  Al  Al16  1  0.753751  0.414276  0.414854  1
  Al  Al17  1  0.416887  0.414495  0.415289  1
  Al  Al18  1  0.414472  0.414596  0.755484  1
  Al  Al19  1  0.835101  0.494021  0.835683  1
  Ir  Ir20  1  0.624418  0.125000  0.625582  1
  Ir  Ir21  1  0.624144  0.624568  0.124578  1
  Ir  Ir22  1  0.125422  0.625432  0.625856  1
  Ir  Ir23  1  0.622041  0.625000  0.627959  1
  N  N24  1  0.132086  0.625000  0.117914  1
  N  N25  1  0.126266  0.119094  0.629091  1
  N  N26  1  0.620909  0.130906  0.123734  1
  N  N27  1  0.125470  0.125000  0.124530  1
