# generated using pymatgen
data_La12Os3RhBr12
_symmetry_space_group_name_H-M   'P 1'
_cell_length_a   10.63721322
_cell_length_b   10.63721256
_cell_length_c   10.63043104
_cell_angle_alpha   109.22907693
_cell_angle_beta   109.22907497
_cell_angle_gamma   109.95690641
_symmetry_Int_Tables_number   1
_chemical_formula_structural   La12Os3RhBr12
_chemical_formula_sum   'La12 Os3 Rh1 Br12'
_cell_volume   925.89053742
_cell_formula_units_Z   1
loop_
 _symmetry_equiv_pos_site_id
 _symmetry_equiv_pos_as_xyz
  1  'x, y, z'
loop_
 _atom_site_type_symbol
 _atom_site_label
 _atom_site_symmetry_multiplicity
 _atom_site_fract_x
 _atom_site_fract_y
 _atom_site_fract_z
 _atom_site_occupancy
  La  La0  1  0.391548  0.608452  0.000000  1
  La  La1  1  0.609447  0.390553  0.000000  1
  La  La2  1  0.644232  0.136877  0.282512  1
  La  La3  1  0.863123  0.355768  0.717488  1
  La  La4  1  0.406458  0.395429  0.261621  1
  La  La5  1  0.127515  0.141573  0.733000  1
  La  La6  1  0.124385  0.358326  0.513744  1
  La  La7  1  0.840655  0.609410  0.484698  1
  La  La8  1  0.604571  0.593542  0.738379  1
  La  La9  1  0.858427  0.872485  0.267000  1
  La  La10  1  0.641674  0.875615  0.486256  1
  La  La11  1  0.390590  0.159345  0.515302  1
  Os  Os12  1  0.624053  0.623039  0.251521  1
  Os  Os13  1  0.376961  0.375947  0.748479  1
  Os  Os14  1  0.873727  0.126273  0.500000  1
  Rh  Rh15  1  0.624713  0.375287  0.500000  1
  Br  Br16  1  0.369195  0.630805  0.500000  1
  Br  Br17  1  0.130298  0.869702  0.500000  1
  Br  Br18  1  0.120041  0.119904  0.239315  1
  Br  Br19  1  0.880096  0.879959  0.760685  1
  Br  Br20  1  0.884467  0.630434  0.002812  1
  Br  Br21  1  0.629068  0.883727  0.997026  1
  Br  Br22  1  0.621537  0.119070  0.753148  1
  Br  Br23  1  0.365223  0.868773  0.247238  1
  Br  Br24  1  0.369566  0.115533  0.997188  1
  Br  Br25  1  0.116273  0.370932  0.002974  1
  Br  Br26  1  0.880930  0.378463  0.246852  1
  Br  Br27  1  0.131227  0.634777  0.752762  1
