# generated using pymatgen
data_As(S8Br)3
_symmetry_space_group_name_H-M   'P 1'
_cell_length_a   15.37872565
_cell_length_b   15.37872565
_cell_length_c   15.37872411
_cell_angle_alpha   118.77257114
_cell_angle_beta   118.77257114
_cell_angle_gamma   118.77256694
_symmetry_Int_Tables_number   1
_chemical_formula_structural   As(S8Br)3
_chemical_formula_sum   'As1 S24 Br3'
_cell_volume   1041.00692793
_cell_formula_units_Z   1
loop_
 _symmetry_equiv_pos_site_id
 _symmetry_equiv_pos_as_xyz
  1  'x, y, z'
loop_
 _atom_site_type_symbol
 _atom_site_label
 _atom_site_symmetry_multiplicity
 _atom_site_fract_x
 _atom_site_fract_y
 _atom_site_fract_z
 _atom_site_occupancy
  As  As0  1  0.774697  0.774697  0.774697  1
  S  S1  1  0.804988  0.519720  0.519720  1
  S  S2  1  0.519720  0.519720  0.804988  1
  S  S3  1  0.519720  0.804988  0.519720  1
  S  S4  1  0.244771  0.371753  0.634937  1
  S  S5  1  0.358430  0.954371  0.358430  1
  S  S6  1  0.358430  0.358430  0.954371  1
  S  S7  1  0.954371  0.358430  0.358430  1
  S  S8  1  0.131188  0.740798  0.258035  1
  S  S9  1  0.258035  0.131188  0.740798  1
  S  S10  1  0.740798  0.258035  0.131188  1
  S  S11  1  0.740798  0.131188  0.258035  1
  S  S12  1  0.258035  0.740798  0.131188  1
  S  S13  1  0.131188  0.258035  0.740798  1
  S  S14  1  0.349328  0.879530  0.528845  1
  S  S15  1  0.528845  0.349328  0.879530  1
  S  S16  1  0.879530  0.528845  0.349328  1
  S  S17  1  0.879530  0.349328  0.528845  1
  S  S18  1  0.528845  0.879530  0.349328  1
  S  S19  1  0.349328  0.528845  0.879530  1
  S  S20  1  0.244771  0.634937  0.371753  1
  S  S21  1  0.371753  0.244771  0.634937  1
  S  S22  1  0.634937  0.371753  0.244771  1
  S  S23  1  0.634937  0.244771  0.371753  1
  S  S24  1  0.371753  0.634937  0.244771  1
  Br  Br25  1  0.893293  0.031640  0.031640  1
  Br  Br26  1  0.031640  0.031640  0.893293  1
  Br  Br27  1  0.031640  0.893293  0.031640  1
