# generated using pymatgen
data_DyEr2(Ni3As2)3
_symmetry_space_group_name_H-M   'P 1'
_cell_length_a   3.88590200
_cell_length_b   10.85388100
_cell_length_c   12.70447700
_cell_angle_alpha   90.00000000
_cell_angle_beta   90.00000000
_cell_angle_gamma   90.00000000
_symmetry_Int_Tables_number   1
_chemical_formula_structural   DyEr2(Ni3As2)3
_chemical_formula_sum   'Dy2 Er4 Ni18 As12'
_cell_volume   535.83822410
_cell_formula_units_Z   2
loop_
 _symmetry_equiv_pos_site_id
 _symmetry_equiv_pos_as_xyz
  1  'x, y, z'
loop_
 _atom_site_type_symbol
 _atom_site_label
 _atom_site_symmetry_multiplicity
 _atom_site_fract_x
 _atom_site_fract_y
 _atom_site_fract_z
 _atom_site_occupancy
  Dy  Dy0  1  0.750000  0.250000  0.476756  1
  Dy  Dy1  1  0.250000  0.750000  0.523244  1
  Er  Er2  1  0.250000  0.933072  0.793366  1
  Er  Er3  1  0.250000  0.566928  0.793366  1
  Er  Er4  1  0.750000  0.066928  0.206634  1
  Er  Er5  1  0.750000  0.433072  0.206634  1
  Ni  Ni6  1  0.250000  0.250000  0.843756  1
  Ni  Ni7  1  0.750000  0.750000  0.156244  1
  Ni  Ni8  1  0.250000  0.250000  0.300678  1
  Ni  Ni9  1  0.750000  0.750000  0.699322  1
  Ni  Ni10  1  0.750000  0.250000  0.017550  1
  Ni  Ni11  1  0.250000  0.750000  0.982450  1
  Ni  Ni12  1  0.250000  0.417122  0.002731  1
  Ni  Ni13  1  0.250000  0.082878  0.002731  1
  Ni  Ni14  1  0.750000  0.582878  0.997269  1
  Ni  Ni15  1  0.750000  0.917122  0.997269  1
  Ni  Ni16  1  0.250000  0.446643  0.574117  1
  Ni  Ni17  1  0.250000  0.053357  0.574117  1
  Ni  Ni18  1  0.750000  0.553357  0.425883  1
  Ni  Ni19  1  0.750000  0.946643  0.425883  1
  Ni  Ni20  1  0.250000  0.871138  0.291928  1
  Ni  Ni21  1  0.250000  0.628862  0.291928  1
  Ni  Ni22  1  0.750000  0.128862  0.708072  1
  Ni  Ni23  1  0.750000  0.371138  0.708072  1
  As  As24  1  0.250000  0.250000  0.124045  1
  As  As25  1  0.750000  0.750000  0.875955  1
  As  As26  1  0.250000  0.250000  0.655376  1
  As  As27  1  0.750000  0.750000  0.344624  1
  As  As28  1  0.250000  0.435350  0.386356  1
  As  As29  1  0.250000  0.064650  0.386356  1
  As  As30  1  0.750000  0.564650  0.613644  1
  As  As31  1  0.750000  0.935350  0.613644  1
  As  As32  1  0.250000  0.903350  0.109735  1
  As  As33  1  0.250000  0.596650  0.109735  1
  As  As34  1  0.750000  0.096650  0.890265  1
  As  As35  1  0.750000  0.403350  0.890265  1
