# generated using pymatgen
data_Dy5YC2Br7
_symmetry_space_group_name_H-M   'P 1'
_cell_length_a   10.50481960
_cell_length_b   10.50482000
_cell_length_c   11.96322400
_cell_angle_alpha   57.67211511
_cell_angle_beta   57.67211373
_cell_angle_gamma   20.92350371
_symmetry_Int_Tables_number   1
_chemical_formula_structural   Dy5YC2Br7
_chemical_formula_sum   'Dy5 Y1 C2 Br7'
_cell_volume   395.65166818
_cell_formula_units_Z   1
loop_
 _symmetry_equiv_pos_site_id
 _symmetry_equiv_pos_as_xyz
  1  'x, y, z'
loop_
 _atom_site_type_symbol
 _atom_site_label
 _atom_site_symmetry_multiplicity
 _atom_site_fract_x
 _atom_site_fract_y
 _atom_site_fract_z
 _atom_site_occupancy
  Dy  Dy0  1  0.312723  0.312723  0.366594  1
  Dy  Dy1  1  0.131749  0.131749  0.441955  1
  Dy  Dy2  1  0.868163  0.868163  0.558162  1
  Dy  Dy3  1  0.687356  0.687356  0.633455  1
  Dy  Dy4  1  0.769178  0.769178  0.165722  1
  Y  Y5  1  0.230730  0.230730  0.834766  1
  C  C6  1  0.280218  0.280218  0.605105  1
  C  C7  1  0.719969  0.719969  0.393975  1
  Br  Br8  1  0.164088  0.164088  0.164675  1
  Br  Br9  1  0.836428  0.836428  0.835379  1
  Br  Br10  1  0.059023  0.059023  0.718352  1
  Br  Br11  1  0.941007  0.941007  0.281542  1
  Br  Br12  1  0.500038  0.500038  0.499963  1
  Br  Br13  1  0.388641  0.388641  0.069945  1
  Br  Br14  1  0.610691  0.610691  0.930412  1
