# generated using pymatgen
data_NaPr2(NdPb2)2
_symmetry_space_group_name_H-M   'P 1'
_cell_length_a   8.37346000
_cell_length_b   8.51277200
_cell_length_c   16.20348100
_cell_angle_alpha   90.00000000
_cell_angle_beta   90.00000000
_cell_angle_gamma   90.00000000
_symmetry_Int_Tables_number   1
_chemical_formula_structural   NaPr2(NdPb2)2
_chemical_formula_sum   'Na4 Pr8 Nd8 Pb16'
_cell_volume   1155.00609486
_cell_formula_units_Z   4
loop_
 _symmetry_equiv_pos_site_id
 _symmetry_equiv_pos_as_xyz
  1  'x, y, z'
loop_
 _atom_site_type_symbol
 _atom_site_label
 _atom_site_symmetry_multiplicity
 _atom_site_fract_x
 _atom_site_fract_y
 _atom_site_fract_z
 _atom_site_occupancy
  Na  Na0  1  0.820433  0.502544  0.750000  1
  Na  Na1  1  0.320433  0.997456  0.750000  1
  Na  Na2  1  0.179567  0.497456  0.250000  1
  Na  Na3  1  0.679567  0.002544  0.250000  1
  Pr  Pr4  1  0.499580  0.683761  0.596112  1
  Pr  Pr5  1  0.999580  0.816239  0.903888  1
  Pr  Pr6  1  0.500420  0.316239  0.096112  1
  Pr  Pr7  1  0.000420  0.183761  0.403888  1
  Pr  Pr8  1  0.500420  0.316239  0.403888  1
  Pr  Pr9  1  0.000420  0.183761  0.096112  1
  Pr  Pr10  1  0.499580  0.683761  0.903888  1
  Pr  Pr11  1  0.999580  0.816239  0.596112  1
  Nd  Nd12  1  0.649552  0.167704  0.625511  1
  Nd  Nd13  1  0.149552  0.332296  0.874489  1
  Nd  Nd14  1  0.350448  0.832296  0.125511  1
  Nd  Nd15  1  0.850448  0.667704  0.374489  1
  Nd  Nd16  1  0.350448  0.832296  0.374489  1
  Nd  Nd17  1  0.850448  0.667704  0.125511  1
  Nd  Nd18  1  0.649552  0.167704  0.874489  1
  Nd  Nd19  1  0.149552  0.332296  0.625511  1
  Pb  Pb20  1  0.687035  0.959491  0.461316  1
  Pb  Pb21  1  0.187035  0.540509  0.038684  1
  Pb  Pb22  1  0.312965  0.040509  0.961316  1
  Pb  Pb23  1  0.812965  0.459491  0.538684  1
  Pb  Pb24  1  0.312965  0.040509  0.538684  1
  Pb  Pb25  1  0.812965  0.459491  0.961316  1
  Pb  Pb26  1  0.687035  0.959491  0.038684  1
  Pb  Pb27  1  0.187035  0.540509  0.461316  1
  Pb  Pb28  1  0.457034  0.397753  0.750000  1
  Pb  Pb29  1  0.957034  0.102247  0.750000  1
  Pb  Pb30  1  0.542966  0.602247  0.250000  1
  Pb  Pb31  1  0.042966  0.897753  0.250000  1
  Pb  Pb32  1  0.690870  0.854545  0.750000  1
  Pb  Pb33  1  0.190870  0.645455  0.750000  1
  Pb  Pb34  1  0.309130  0.145455  0.250000  1
  Pb  Pb35  1  0.809130  0.354545  0.250000  1
