# generated using pymatgen
data_CaY(BIr)8
_symmetry_space_group_name_H-M   'P 1'
_cell_length_a   7.63476500
_cell_length_b   7.63476500
_cell_length_c   4.00435800
_cell_angle_alpha   90.00000000
_cell_angle_beta   90.00000000
_cell_angle_gamma   90.00000000
_symmetry_Int_Tables_number   1
_chemical_formula_structural   CaY(BIr)8
_chemical_formula_sum   'Ca1 Y1 B8 Ir8'
_cell_volume   233.41257266
_cell_formula_units_Z   1
loop_
 _symmetry_equiv_pos_site_id
 _symmetry_equiv_pos_as_xyz
  1  'x, y, z'
loop_
 _atom_site_type_symbol
 _atom_site_label
 _atom_site_symmetry_multiplicity
 _atom_site_fract_x
 _atom_site_fract_y
 _atom_site_fract_z
 _atom_site_occupancy
  Ca  Ca0  1  0.000000  0.000000  0.000000  1
  Y  Y1  1  0.500000  0.500000  0.500000  1
  B  B2  1  0.342573  0.779216  0.888954  1
  B  B3  1  0.657427  0.220784  0.888954  1
  B  B4  1  0.779216  0.657427  0.111046  1
  B  B5  1  0.220784  0.342573  0.111046  1
  B  B6  1  0.278830  0.157612  0.389366  1
  B  B7  1  0.721170  0.842388  0.389366  1
  B  B8  1  0.842388  0.278830  0.610634  1
  B  B9  1  0.157612  0.721170  0.610634  1
  Ir  Ir10  1  0.389007  0.159365  0.887126  1
  Ir  Ir11  1  0.610993  0.840635  0.887126  1
  Ir  Ir12  1  0.840635  0.389007  0.112874  1
  Ir  Ir13  1  0.159365  0.610993  0.112874  1
  Ir  Ir14  1  0.344959  0.889050  0.388733  1
  Ir  Ir15  1  0.655041  0.110950  0.388733  1
  Ir  Ir16  1  0.889050  0.655041  0.611267  1
  Ir  Ir17  1  0.110950  0.344959  0.611267  1
