# generated using pymatgen
data_RbNd2Cl7
_symmetry_space_group_name_H-M   'P 1'
_cell_length_a   7.19624303
_cell_length_b   8.40045626
_cell_length_c   7.55142602
_cell_angle_alpha   70.40801240
_cell_angle_beta   61.67879759
_cell_angle_gamma   89.16296485
_symmetry_Int_Tables_number   1
_chemical_formula_structural   RbNd2Cl7
_chemical_formula_sum   'Rb1 Nd2 Cl7'
_cell_volume   372.80062227
_cell_formula_units_Z   1
loop_
 _symmetry_equiv_pos_site_id
 _symmetry_equiv_pos_as_xyz
  1  'x, y, z'
loop_
 _atom_site_type_symbol
 _atom_site_label
 _atom_site_symmetry_multiplicity
 _atom_site_fract_x
 _atom_site_fract_y
 _atom_site_fract_z
 _atom_site_occupancy
  Rb  Rb0  1  0.780439  0.622505  0.786546  1
  Nd  Nd1  1  0.614044  0.039113  0.167276  1
  Nd  Nd2  1  0.311496  0.047263  0.767571  1
  Cl  Cl3  1  0.909408  0.822348  0.064861  1
  Cl  Cl4  1  0.432759  0.284882  0.350911  1
  Cl  Cl5  1  0.729190  0.000702  0.489092  1
  Cl  Cl6  1  0.264439  0.836823  0.564542  1
  Cl  Cl7  1  0.406394  0.821107  0.070126  1
  Cl  Cl8  1  0.013012  0.263634  0.895286  1
  Cl  Cl9  1  0.538821  0.261624  0.843788  1
