# generated using pymatgen
data_PrNd(Er4Bi3)2
_symmetry_space_group_name_H-M   'P 1'
_cell_length_a   8.32849300
_cell_length_b   9.49802200
_cell_length_c   12.15059700
_cell_angle_alpha   90.00000000
_cell_angle_beta   90.00000000
_cell_angle_gamma   90.00000000
_symmetry_Int_Tables_number   1
_chemical_formula_structural   PrNd(Er4Bi3)2
_chemical_formula_sum   'Pr2 Nd2 Er16 Bi12'
_cell_volume   961.16337356
_cell_formula_units_Z   2
loop_
 _symmetry_equiv_pos_site_id
 _symmetry_equiv_pos_as_xyz
  1  'x, y, z'
loop_
 _atom_site_type_symbol
 _atom_site_label
 _atom_site_symmetry_multiplicity
 _atom_site_fract_x
 _atom_site_fract_y
 _atom_site_fract_z
 _atom_site_occupancy
  Pr  Pr0  1  0.168258  0.750000  0.222962  1
  Pr  Pr1  1  0.331742  0.750000  0.722962  1
  Nd  Nd2  1  0.831818  0.250000  0.777093  1
  Nd  Nd3  1  0.668182  0.250000  0.277093  1
  Er  Er4  1  0.812813  0.564985  0.063144  1
  Er  Er5  1  0.687187  0.935015  0.563144  1
  Er  Er6  1  0.187151  0.064925  0.936869  1
  Er  Er7  1  0.312849  0.435075  0.436869  1
  Er  Er8  1  0.187151  0.435075  0.936869  1
  Er  Er9  1  0.312849  0.064925  0.436869  1
  Er  Er10  1  0.812813  0.935015  0.063144  1
  Er  Er11  1  0.687187  0.564985  0.563144  1
  Er  Er12  1  0.478677  0.750000  0.003397  1
  Er  Er13  1  0.021323  0.750000  0.503397  1
  Er  Er14  1  0.521462  0.250000  0.996589  1
  Er  Er15  1  0.978538  0.250000  0.496589  1
  Er  Er16  1  0.668950  0.750000  0.288490  1
  Er  Er17  1  0.831050  0.750000  0.788490  1
  Er  Er18  1  0.331092  0.250000  0.711524  1
  Er  Er19  1  0.168908  0.250000  0.211524  1
  Bi  Bi20  1  0.400738  0.750000  0.461778  1
  Bi  Bi21  1  0.099262  0.750000  0.961778  1
  Bi  Bi22  1  0.599456  0.250000  0.538051  1
  Bi  Bi23  1  0.900544  0.250000  0.038051  1
  Bi  Bi24  1  0.935757  0.505557  0.328626  1
  Bi  Bi25  1  0.564243  0.994443  0.828626  1
  Bi  Bi26  1  0.063861  0.005916  0.671420  1
  Bi  Bi27  1  0.436139  0.494084  0.171420  1
  Bi  Bi28  1  0.063861  0.494084  0.671420  1
  Bi  Bi29  1  0.436139  0.005916  0.171420  1
  Bi  Bi30  1  0.935757  0.994443  0.328626  1
  Bi  Bi31  1  0.564243  0.505557  0.828626  1
