# generated using pymatgen
data_Pr5Nd5Si5Ir
_symmetry_space_group_name_H-M   'P 1'
_cell_length_a   7.68754250
_cell_length_b   7.69311928
_cell_length_c   9.10956321
_cell_angle_alpha   114.99364747
_cell_angle_beta   114.97786513
_cell_angle_gamma   89.97861627
_symmetry_Int_Tables_number   1
_chemical_formula_structural   Pr5Nd5Si5Ir
_chemical_formula_sum   'Pr5 Nd5 Si5 Ir1'
_cell_volume   432.11048506
_cell_formula_units_Z   1
loop_
 _symmetry_equiv_pos_site_id
 _symmetry_equiv_pos_as_xyz
  1  'x, y, z'
loop_
 _atom_site_type_symbol
 _atom_site_label
 _atom_site_symmetry_multiplicity
 _atom_site_fract_x
 _atom_site_fract_y
 _atom_site_fract_z
 _atom_site_occupancy
  Pr  Pr0  1  0.479490  0.951425  0.287808  1
  Pr  Pr1  1  0.020920  0.164365  0.712761  1
  Pr  Pr2  1  0.691680  0.548279  0.712497  1
  Pr  Pr3  1  0.163895  0.691892  0.712137  1
  Pr  Pr4  1  0.548153  0.020701  0.712646  1
  Nd  Nd5  1  0.470025  0.469926  0.940129  1
  Nd  Nd6  1  0.030660  0.030531  0.061332  1
  Nd  Nd7  1  0.950187  0.806470  0.285920  1
  Nd  Nd8  1  0.336071  0.479071  0.285935  1
  Nd  Nd9  1  0.806888  0.336422  0.285837  1
  Si  Si10  1  0.248787  0.249773  0.498707  1
  Si  Si11  1  0.616706  0.885602  0.001466  1
  Si  Si12  1  0.385547  0.116839  0.001558  1
  Si  Si13  1  0.885462  0.385505  0.002121  1
  Si  Si14  1  0.115818  0.615724  0.001611  1
  Ir  Ir15  1  0.749711  0.747475  0.497535  1
