# generated using pymatgen
data_Tb3Mn4P6Ir5
_symmetry_space_group_name_H-M   'P 1'
_cell_length_a   3.86195300
_cell_length_b   10.95640000
_cell_length_c   12.88395100
_cell_angle_alpha   90.00000000
_cell_angle_beta   90.00000000
_cell_angle_gamma   90.00000000
_symmetry_Int_Tables_number   1
_chemical_formula_structural   Tb3Mn4P6Ir5
_chemical_formula_sum   'Tb6 Mn8 P12 Ir10'
_cell_volume   545.15993088
_cell_formula_units_Z   2
loop_
 _symmetry_equiv_pos_site_id
 _symmetry_equiv_pos_as_xyz
  1  'x, y, z'
loop_
 _atom_site_type_symbol
 _atom_site_label
 _atom_site_symmetry_multiplicity
 _atom_site_fract_x
 _atom_site_fract_y
 _atom_site_fract_z
 _atom_site_occupancy
  Tb  Tb0  1  0.000000  0.500000  0.517829  1
  Tb  Tb1  1  0.500000  0.000000  0.482171  1
  Tb  Tb2  1  0.500000  0.820031  0.201776  1
  Tb  Tb3  1  0.500000  0.179969  0.201776  1
  Tb  Tb4  1  0.000000  0.679969  0.798224  1
  Tb  Tb5  1  0.000000  0.320031  0.798224  1
  Mn  Mn6  1  0.500000  0.500000  0.167840  1
  Mn  Mn7  1  0.000000  0.000000  0.832160  1
  Mn  Mn8  1  0.000000  0.500000  0.988113  1
  Mn  Mn9  1  0.500000  0.000000  0.011887  1
  Mn  Mn10  1  0.500000  0.335237  0.999141  1
  Mn  Mn11  1  0.500000  0.664763  0.999141  1
  Mn  Mn12  1  0.000000  0.164763  0.000859  1
  Mn  Mn13  1  0.000000  0.835237  0.000859  1
  P  P14  1  0.500000  0.500000  0.886626  1
  P  P15  1  0.000000  0.000000  0.113374  1
  P  P16  1  0.500000  0.500000  0.345376  1
  P  P17  1  0.000000  0.000000  0.654624  1
  P  P18  1  0.500000  0.314349  0.619910  1
  P  P19  1  0.500000  0.685651  0.619910  1
  P  P20  1  0.000000  0.185651  0.380090  1
  P  P21  1  0.000000  0.814349  0.380090  1
  P  P22  1  0.500000  0.844136  0.896014  1
  P  P23  1  0.500000  0.155864  0.896014  1
  P  P24  1  0.000000  0.655864  0.103986  1
  P  P25  1  0.000000  0.344136  0.103986  1
  Ir  Ir26  1  0.500000  0.500000  0.703100  1
  Ir  Ir27  1  0.000000  0.000000  0.296900  1
  Ir  Ir28  1  0.500000  0.293743  0.430031  1
  Ir  Ir29  1  0.500000  0.706257  0.430031  1
  Ir  Ir30  1  0.000000  0.206257  0.569969  1
  Ir  Ir31  1  0.000000  0.793743  0.569969  1
  Ir  Ir32  1  0.500000  0.873855  0.716079  1
  Ir  Ir33  1  0.500000  0.126145  0.716079  1
  Ir  Ir34  1  0.000000  0.626145  0.283921  1
  Ir  Ir35  1  0.000000  0.373855  0.283921  1
