# generated using pymatgen
data_Sm2B(PdPt)3
_symmetry_space_group_name_H-M   'P 1'
_cell_length_a   6.18327182
_cell_length_b   6.18327117
_cell_length_c   5.88239343
_cell_angle_alpha   58.29307924
_cell_angle_beta   58.29308424
_cell_angle_gamma   60.00000302
_symmetry_Int_Tables_number   1
_chemical_formula_structural   Sm2B(PdPt)3
_chemical_formula_sum   'Sm2 B1 Pd3 Pt3'
_cell_volume   154.80151538
_cell_formula_units_Z   1
loop_
 _symmetry_equiv_pos_site_id
 _symmetry_equiv_pos_as_xyz
  1  'x, y, z'
loop_
 _atom_site_type_symbol
 _atom_site_label
 _atom_site_symmetry_multiplicity
 _atom_site_fract_x
 _atom_site_fract_y
 _atom_site_fract_z
 _atom_site_occupancy
  Sm  Sm0  1  0.248971  0.248971  0.253086  1
  Sm  Sm1  1  0.741678  0.741678  0.774965  1
  B  B2  1  0.516339  0.516339  0.450983  1
  Pd  Pd3  1  0.247940  0.247940  0.752739  1
  Pd  Pd4  1  0.751381  0.247940  0.752739  1
  Pd  Pd5  1  0.247940  0.751381  0.752739  1
  Pt  Pt6  1  0.759981  0.225788  0.254249  1
  Pt  Pt7  1  0.225788  0.759981  0.254249  1
  Pt  Pt8  1  0.759981  0.759981  0.254249  1
