# generated using pymatgen
data_TbHo3Al18NiRh5
_symmetry_space_group_name_H-M   'P 1'
_cell_length_a   7.54405557
_cell_length_b   7.54235805
_cell_length_c   9.42473872
_cell_angle_alpha   90.15198343
_cell_angle_beta   90.13701506
_cell_angle_gamma   119.60170751
_symmetry_Int_Tables_number   1
_chemical_formula_structural   TbHo3Al18NiRh5
_chemical_formula_sum   'Tb1 Ho3 Al18 Ni1 Rh5'
_cell_volume   466.26796788
_cell_formula_units_Z   1
loop_
 _symmetry_equiv_pos_site_id
 _symmetry_equiv_pos_as_xyz
  1  'x, y, z'
loop_
 _atom_site_type_symbol
 _atom_site_label
 _atom_site_symmetry_multiplicity
 _atom_site_fract_x
 _atom_site_fract_y
 _atom_site_fract_z
 _atom_site_occupancy
  Tb  Tb0  1  0.329941  0.005485  0.750677  1
  Ho  Ho1  1  0.994488  0.670108  0.249428  1
  Ho  Ho2  1  0.005353  0.329928  0.750636  1
  Ho  Ho3  1  0.670178  0.994555  0.249393  1
  Al  Al4  1  0.125072  0.125162  0.247230  1
  Al  Al5  1  0.874304  0.874749  0.752777  1
  Al  Al6  1  0.999720  0.332738  0.074865  1
  Al  Al7  1  0.999722  0.666661  0.925315  1
  Al  Al8  1  0.999210  0.664831  0.575018  1
  Al  Al9  1  0.334556  0.000247  0.424237  1
  Al  Al10  1  0.000202  0.334536  0.424762  1
  Al  Al11  1  0.665980  0.999781  0.574986  1
  Al  Al12  1  0.667791  0.000274  0.925377  1
  Al  Al13  1  0.332786  0.999769  0.075428  1
  Al  Al14  1  0.332808  0.333266  0.550289  1
  Al  Al15  1  0.667176  0.667201  0.449313  1
  Al  Al16  1  0.669382  0.669398  0.049611  1
  Al  Al17  1  0.330630  0.331130  0.950822  1
  Al  Al18  1  0.339437  0.549385  0.249554  1
  Al  Al19  1  0.661079  0.451259  0.750454  1
  Al  Al20  1  0.549464  0.339503  0.249573  1
  Al  Al21  1  0.450666  0.660062  0.750427  1
  Ni  Ni22  1  0.999876  0.999963  0.000131  1
  Rh  Rh23  1  0.672520  0.327978  0.000312  1
  Rh  Rh24  1  0.327754  0.672084  0.000284  1
  Rh  Rh25  1  0.327631  0.672212  0.499724  1
  Rh  Rh26  1  0.672616  0.327834  0.499720  1
  Rh  Rh27  1  0.999657  0.999902  0.499657  1
