# generated using pymatgen
data_Dy3Y3ErCoI12
_symmetry_space_group_name_H-M   'P 1'
_cell_length_a   9.74274067
_cell_length_b   9.74282139
_cell_length_c   9.73509024
_cell_angle_alpha   106.82016894
_cell_angle_beta   106.80190834
_cell_angle_gamma   106.85889281
_symmetry_Int_Tables_number   1
_chemical_formula_structural   Dy3Y3ErCoI12
_chemical_formula_sum   'Dy3 Y3 Er1 Co1 I12'
_cell_volume   773.17922247
_cell_formula_units_Z   1
loop_
 _symmetry_equiv_pos_site_id
 _symmetry_equiv_pos_as_xyz
  1  'x, y, z'
loop_
 _atom_site_type_symbol
 _atom_site_label
 _atom_site_symmetry_multiplicity
 _atom_site_fract_x
 _atom_site_fract_y
 _atom_site_fract_z
 _atom_site_occupancy
  Dy  Dy0  1  0.091477  0.021274  0.287162  1
  Dy  Dy1  1  0.712725  0.907828  0.978535  1
  Dy  Dy2  1  0.978381  0.712774  0.907608  1
  Y  Y3  1  0.499970  0.500021  0.499927  1
  Y  Y4  1  0.288475  0.092055  0.021106  1
  Y  Y5  1  0.021356  0.288368  0.091744  1
  Er  Er6  1  0.909061  0.978627  0.715822  1
  Co  Co7  1  0.999735  0.999586  0.000157  1
  I  I8  1  0.462472  0.160289  0.385688  1
  I  I9  1  0.385656  0.462847  0.159894  1
  I  I10  1  0.160177  0.385434  0.462582  1
  I  I11  1  0.538970  0.840102  0.614169  1
  I  I12  1  0.614266  0.537194  0.839380  1
  I  I13  1  0.839485  0.615615  0.537267  1
  I  I14  1  0.323279  0.775856  0.929494  1
  I  I15  1  0.929246  0.321705  0.774753  1
  I  I16  1  0.776483  0.929923  0.324216  1
  I  I17  1  0.676274  0.224010  0.070439  1
  I  I18  1  0.070481  0.676603  0.223904  1
  I  I19  1  0.222033  0.069892  0.676154  1
