# generated using pymatgen
data_Dy3Ag(Ir2O7)2
_symmetry_space_group_name_H-M   'P 1'
_cell_length_a   7.33636449
_cell_length_b   7.33636287
_cell_length_c   7.17404391
_cell_angle_alpha   59.24867444
_cell_angle_beta   59.24868176
_cell_angle_gamma   60.00000640
_symmetry_Int_Tables_number   1
_chemical_formula_structural   Dy3Ag(Ir2O7)2
_chemical_formula_sum   'Dy3 Ag1 Ir4 O14'
_cell_volume   269.88845723
_cell_formula_units_Z   1
loop_
 _symmetry_equiv_pos_site_id
 _symmetry_equiv_pos_as_xyz
  1  'x, y, z'
loop_
 _atom_site_type_symbol
 _atom_site_label
 _atom_site_symmetry_multiplicity
 _atom_site_fract_x
 _atom_site_fract_y
 _atom_site_fract_z
 _atom_site_occupancy
  Dy  Dy0  1  0.125000  0.625000  0.125000  1
  Dy  Dy1  1  0.625000  0.125000  0.125000  1
  Dy  Dy2  1  0.125000  0.125000  0.125000  1
  Ag  Ag3  1  0.125000  0.125000  0.625000  1
  Ir  Ir4  1  0.625000  0.625000  0.625000  1
  Ir  Ir5  1  0.125000  0.625000  0.625000  1
  Ir  Ir6  1  0.625000  0.125000  0.625000  1
  Ir  Ir7  1  0.625000  0.625000  0.125000  1
  O  O8  1  0.298892  0.692054  0.710162  1
  O  O9  1  0.538122  0.959037  0.964719  1
  O  O10  1  0.692054  0.298892  0.710162  1
  O  O11  1  0.298892  0.298892  0.710162  1
  O  O12  1  0.711878  0.711878  0.285281  1
  O  O13  1  0.998180  0.998180  0.005461  1
  O  O14  1  0.290963  0.711878  0.285281  1
  O  O15  1  0.959037  0.538122  0.964719  1
  O  O16  1  0.951108  0.951108  0.539838  1
  O  O17  1  0.538122  0.538122  0.964719  1
  O  O18  1  0.251820  0.251820  0.244539  1
  O  O19  1  0.557946  0.951108  0.539838  1
  O  O20  1  0.711878  0.290963  0.285281  1
  O  O21  1  0.951108  0.557946  0.539838  1
