# generated using pymatgen
data_Lu5ZnP11Ir19
_symmetry_space_group_name_H-M   'P 1'
_cell_length_a   12.70381678
_cell_length_b   12.74591290
_cell_length_c   3.95189300
_cell_angle_alpha   90.00000000
_cell_angle_beta   90.00000000
_cell_angle_gamma   120.10967654
_symmetry_Int_Tables_number   1
_chemical_formula_structural   Lu5ZnP11Ir19
_chemical_formula_sum   'Lu5 Zn1 P11 Ir19'
_cell_volume   553.55393749
_cell_formula_units_Z   1
loop_
 _symmetry_equiv_pos_site_id
 _symmetry_equiv_pos_as_xyz
  1  'x, y, z'
loop_
 _atom_site_type_symbol
 _atom_site_label
 _atom_site_symmetry_multiplicity
 _atom_site_fract_x
 _atom_site_fract_y
 _atom_site_fract_z
 _atom_site_occupancy
  Lu  Lu0  1  0.329315  0.664234  0.500000  1
  Lu  Lu1  1  0.670685  0.334919  0.500000  1
  Lu  Lu2  1  0.000000  0.819592  0.000000  1
  Lu  Lu3  1  0.184872  0.181998  0.000000  1
  Lu  Lu4  1  0.815128  0.997126  0.000000  1
  Zn  Zn5  1  0.000000  0.648250  0.500000  1
  P  P6  1  0.355745  0.355401  0.500000  1
  P  P7  1  0.644255  0.999656  0.500000  1
  P  P8  1  0.513121  0.689007  0.000000  1
  P  P9  1  0.309326  0.823810  0.000000  1
  P  P10  1  0.163937  0.480261  0.000000  1
  P  P11  1  0.486879  0.175885  0.000000  1
  P  P12  1  0.690674  0.514484  0.000000  1
  P  P13  1  0.836063  0.316325  0.000000  1
  P  P14  1  0.000000  0.172080  0.500000  1
  P  P15  1  0.818713  0.819275  0.500000  1
  P  P16  1  0.181287  0.000562  0.500000  1
  Ir  Ir17  1  0.505846  0.870504  0.000000  1
  Ir  Ir18  1  0.131594  0.637588  0.000000  1
  Ir  Ir19  1  0.353934  0.495375  0.000000  1
  Ir  Ir20  1  0.494154  0.364657  0.000000  1
  Ir  Ir21  1  0.868406  0.505993  0.000000  1
  Ir  Ir22  1  0.646066  0.141440  0.000000  1
  Ir  Ir23  1  0.000000  0.446772  0.500000  1
  Ir  Ir24  1  0.529210  0.540258  0.500000  1
  Ir  Ir25  1  0.470790  0.011048  0.500000  1
  Ir  Ir26  1  0.000000  0.278920  0.000000  1
  Ir  Ir27  1  0.712787  0.718814  0.000000  1
  Ir  Ir28  1  0.287213  0.006027  0.000000  1
  Ir  Ir29  1  0.622093  0.806817  0.500000  1
  Ir  Ir30  1  0.215473  0.831481  0.500000  1
  Ir  Ir31  1  0.178926  0.367304  0.500000  1
  Ir  Ir32  1  0.377907  0.184724  0.500000  1
  Ir  Ir33  1  0.784527  0.616008  0.500000  1
  Ir  Ir34  1  0.821074  0.188378  0.500000  1
  Ir  Ir35  1  0.000000  0.995027  0.500000  1
