# generated using pymatgen
data_Nd4YIn3
_symmetry_space_group_name_H-M   'P 1'
_cell_length_a   6.20358263
_cell_length_b   9.41610412
_cell_length_c   9.41610364
_cell_angle_alpha   83.90432856
_cell_angle_beta   70.70120927
_cell_angle_gamma   70.70121751
_symmetry_Int_Tables_number   1
_chemical_formula_structural   Nd4YIn3
_chemical_formula_sum   'Nd8 Y2 In6'
_cell_volume   489.94777647
_cell_formula_units_Z   2
loop_
 _symmetry_equiv_pos_site_id
 _symmetry_equiv_pos_as_xyz
  1  'x, y, z'
loop_
 _atom_site_type_symbol
 _atom_site_label
 _atom_site_symmetry_multiplicity
 _atom_site_fract_x
 _atom_site_fract_y
 _atom_site_fract_z
 _atom_site_occupancy
  Nd  Nd0  1  0.720651  0.865214  0.693125  1
  Nd  Nd1  1  0.279349  0.134786  0.306875  1
  Nd  Nd2  1  0.779349  0.306875  0.134786  1
  Nd  Nd3  1  0.220651  0.693125  0.865214  1
  Nd  Nd4  1  0.585899  0.693392  0.134827  1
  Nd  Nd5  1  0.414101  0.306608  0.865173  1
  Nd  Nd6  1  0.085899  0.134827  0.693392  1
  Nd  Nd7  1  0.914101  0.865173  0.306608  1
  Y  Y8  1  0.750000  0.499973  0.500027  1
  Y  Y9  1  0.250000  0.500027  0.499973  1
  In  In10  1  0.158030  0.500273  0.185091  1
  In  In11  1  0.841970  0.499727  0.814909  1
  In  In12  1  0.341970  0.814909  0.499727  1
  In  In13  1  0.658030  0.185091  0.500273  1
  In  In14  1  0.250000  0.000132  0.999868  1
  In  In15  1  0.750000  0.999868  0.000132  1
