# generated using pymatgen
data_Sm7Lu(Si4Mo3)4
_symmetry_space_group_name_H-M   'P 1'
_cell_length_a   6.85156455
_cell_length_b   7.01951871
_cell_length_c   13.03107298
_cell_angle_alpha   89.89126864
_cell_angle_beta   89.98577006
_cell_angle_gamma   89.90214014
_symmetry_Int_Tables_number   1
_chemical_formula_structural   Sm7Lu(Si4Mo3)4
_chemical_formula_sum   'Sm7 Lu1 Si16 Mo12'
_cell_volume   626.72329603
_cell_formula_units_Z   1
loop_
 _symmetry_equiv_pos_site_id
 _symmetry_equiv_pos_as_xyz
  1  'x, y, z'
loop_
 _atom_site_type_symbol
 _atom_site_label
 _atom_site_symmetry_multiplicity
 _atom_site_fract_x
 _atom_site_fract_y
 _atom_site_fract_z
 _atom_site_occupancy
  Sm  Sm0  1  0.497589  0.334223  0.094080  1
  Sm  Sm1  1  0.997463  0.165361  0.406073  1
  Sm  Sm2  1  0.502621  0.665341  0.594026  1
  Sm  Sm3  1  0.001845  0.834090  0.906834  1
  Sm  Sm4  1  0.502153  0.666059  0.906710  1
  Sm  Sm5  1  0.002461  0.834646  0.594050  1
  Sm  Sm6  1  0.497268  0.334309  0.404913  1
  Lu  Lu7  1  0.995981  0.167149  0.095432  1
  Si  Si8  1  0.655929  0.045148  0.548634  1
  Si  Si9  1  0.155654  0.453319  0.952636  1
  Si  Si10  1  0.339375  0.957981  0.049221  1
  Si  Si11  1  0.843637  0.544970  0.451058  1
  Si  Si12  1  0.344305  0.954834  0.450674  1
  Si  Si13  1  0.845418  0.540513  0.049179  1
  Si  Si14  1  0.657569  0.045064  0.952693  1
  Si  Si15  1  0.156187  0.455424  0.548603  1
  Si  Si16  1  0.535799  0.361583  0.750641  1
  Si  Si17  1  0.036013  0.138104  0.750234  1
  Si  Si18  1  0.464882  0.639183  0.249398  1
  Si  Si19  1  0.964966  0.864585  0.248520  1
  Si  Si20  1  0.804861  0.622719  0.750564  1
  Si  Si21  1  0.304331  0.876203  0.750286  1
  Si  Si22  1  0.193184  0.373609  0.248249  1
  Si  Si23  1  0.698517  0.124551  0.248484  1
  Mo  Mo24  1  0.831676  0.334375  0.626570  1
  Mo  Mo25  1  0.330467  0.164447  0.874668  1
  Mo  Mo26  1  0.168189  0.665644  0.125993  1
  Mo  Mo27  1  0.669522  0.835625  0.372875  1
  Mo  Mo28  1  0.168012  0.665310  0.372753  1
  Mo  Mo29  1  0.670548  0.836772  0.125186  1
  Mo  Mo30  1  0.832707  0.333151  0.875118  1
  Mo  Mo31  1  0.331410  0.164957  0.626324  1
  Mo  Mo32  1  0.664746  0.002833  0.750560  1
  Mo  Mo33  1  0.164904  0.496912  0.750428  1
  Mo  Mo34  1  0.334156  0.999155  0.248989  1
  Mo  Mo35  1  0.835655  0.501850  0.249347  1
