# generated using pymatgen
data_HfZr7In4Cu7Ir
_symmetry_space_group_name_H-M   'P 1'
_cell_length_a   7.30124480
_cell_length_b   7.30124574
_cell_length_c   6.89335228
_cell_angle_alpha   90.11004796
_cell_angle_beta   90.11004945
_cell_angle_gamma   90.27837923
_symmetry_Int_Tables_number   1
_chemical_formula_structural   HfZr7In4Cu7Ir
_chemical_formula_sum   'Hf1 Zr7 In4 Cu7 Ir1'
_cell_volume   367.46638189
_cell_formula_units_Z   1
loop_
 _symmetry_equiv_pos_site_id
 _symmetry_equiv_pos_as_xyz
  1  'x, y, z'
loop_
 _atom_site_type_symbol
 _atom_site_label
 _atom_site_symmetry_multiplicity
 _atom_site_fract_x
 _atom_site_fract_y
 _atom_site_fract_z
 _atom_site_occupancy
  Hf  Hf0  1  0.193430  0.193430  0.497265  1
  Zr  Zr1  1  0.154844  0.154844  0.004700  1
  Zr  Zr2  1  0.850181  0.850181  0.995740  1
  Zr  Zr3  1  0.649274  0.343992  0.494977  1
  Zr  Zr4  1  0.343992  0.649274  0.494977  1
  Zr  Zr5  1  0.686511  0.307365  0.002884  1
  Zr  Zr6  1  0.307365  0.686511  0.002884  1
  Zr  Zr7  1  0.809747  0.809747  0.500311  1
  In  In8  1  0.502783  0.993848  0.248827  1
  In  In9  1  0.499896  0.996537  0.748390  1
  In  In10  1  0.993848  0.502783  0.248827  1
  In  In11  1  0.996537  0.499896  0.748390  1
  Cu  Cu12  1  0.621791  0.621791  0.791642  1
  Cu  Cu13  1  0.630352  0.630352  0.202663  1
  Cu  Cu14  1  0.879788  0.125162  0.704745  1
  Cu  Cu15  1  0.879803  0.123409  0.295683  1
  Cu  Cu16  1  0.375812  0.375812  0.792927  1
  Cu  Cu17  1  0.123409  0.879803  0.295683  1
  Cu  Cu18  1  0.125162  0.879788  0.704745  1
  Ir  Ir19  1  0.375474  0.375474  0.223740  1
