# generated using pymatgen
data_SrTi4PbO10
_symmetry_space_group_name_H-M   'P 1'
_cell_length_a   3.73870800
_cell_length_b   5.26672700
_cell_length_c   11.69362000
_cell_angle_alpha   90.00000000
_cell_angle_beta   90.00000000
_cell_angle_gamma   90.00000000
_symmetry_Int_Tables_number   1
_chemical_formula_structural   SrTi4PbO10
_chemical_formula_sum   'Sr1 Ti4 Pb1 O10'
_cell_volume   230.25619910
_cell_formula_units_Z   1
loop_
 _symmetry_equiv_pos_site_id
 _symmetry_equiv_pos_as_xyz
  1  'x, y, z'
loop_
 _atom_site_type_symbol
 _atom_site_label
 _atom_site_symmetry_multiplicity
 _atom_site_fract_x
 _atom_site_fract_y
 _atom_site_fract_z
 _atom_site_occupancy
  Sr  Sr0  1  0.500000  0.118951  0.000000  1
  Ti  Ti1  1  0.000000  0.597338  0.848613  1
  Ti  Ti2  1  0.500000  0.404104  0.653519  1
  Ti  Ti3  1  0.500000  0.404104  0.346481  1
  Ti  Ti4  1  0.000000  0.597338  0.151387  1
  Pb  Pb5  1  0.000000  0.884951  0.500000  1
  O  O6  1  0.500000  0.540658  0.500000  1
  O  O7  1  0.000000  0.454559  0.000000  1
  O  O8  1  0.500000  0.478852  0.825336  1
  O  O9  1  0.000000  0.520645  0.676648  1
  O  O10  1  0.500000  0.478852  0.174664  1
  O  O11  1  0.000000  0.520645  0.323352  1
  O  O12  1  0.000000  0.919000  0.125796  1
  O  O13  1  0.500000  0.080502  0.369496  1
  O  O14  1  0.500000  0.080502  0.630504  1
  O  O15  1  0.000000  0.919000  0.874204  1
