# generated using pymatgen
data_Y4Tm6BiSb5
_symmetry_space_group_name_H-M   'P 1'
_cell_length_a   8.07116900
_cell_length_b   9.27291256
_cell_length_c   11.85424427
_cell_angle_alpha   90.08513794
_cell_angle_beta   90.00000000
_cell_angle_gamma   90.00000000
_symmetry_Int_Tables_number   1
_chemical_formula_structural   Y4Tm6BiSb5
_chemical_formula_sum   'Y8 Tm12 Bi2 Sb10'
_cell_volume   887.20912159
_cell_formula_units_Z   2
loop_
 _symmetry_equiv_pos_site_id
 _symmetry_equiv_pos_as_xyz
  1  'x, y, z'
loop_
 _atom_site_type_symbol
 _atom_site_label
 _atom_site_symmetry_multiplicity
 _atom_site_fract_x
 _atom_site_fract_y
 _atom_site_fract_z
 _atom_site_occupancy
  Y  Y0  1  0.184245  0.751157  0.719027  1
  Y  Y1  1  0.684245  0.748843  0.780973  1
  Y  Y2  1  0.814679  0.250105  0.280701  1
  Y  Y3  1  0.314679  0.249895  0.219299  1
  Y  Y4  1  0.353300  0.749920  0.214523  1
  Y  Y5  1  0.853300  0.750080  0.285477  1
  Y  Y6  1  0.646953  0.249562  0.786031  1
  Y  Y7  1  0.146953  0.250438  0.713969  1
  Tm  Tm8  1  0.027944  0.747769  0.990856  1
  Tm  Tm9  1  0.527944  0.752231  0.509144  1
  Tm  Tm10  1  0.973123  0.252090  0.012594  1
  Tm  Tm11  1  0.473123  0.247910  0.487406  1
  Tm  Tm12  1  0.307043  0.437625  0.942836  1
  Tm  Tm13  1  0.807043  0.062375  0.557164  1
  Tm  Tm14  1  0.691137  0.937471  0.061306  1
  Tm  Tm15  1  0.191137  0.562529  0.438694  1
  Tm  Tm16  1  0.691937  0.561950  0.059577  1
  Tm  Tm17  1  0.191937  0.938050  0.440423  1
  Tm  Tm18  1  0.309939  0.062549  0.941390  1
  Tm  Tm19  1  0.809939  0.437451  0.558610  1
  Bi  Bi20  1  0.433620  0.496341  0.672322  1
  Bi  Bi21  1  0.933620  0.003659  0.827678  1
  Sb  Sb22  1  0.434346  0.004229  0.671317  1
  Sb  Sb23  1  0.934346  0.495771  0.828683  1
  Sb  Sb24  1  0.565625  0.504034  0.328965  1
  Sb  Sb25  1  0.065625  0.995966  0.171035  1
  Sb  Sb26  1  0.565854  0.995854  0.328227  1
  Sb  Sb27  1  0.065854  0.504146  0.171773  1
  Sb  Sb28  1  0.408515  0.749933  0.958936  1
  Sb  Sb29  1  0.908515  0.750067  0.541064  1
  Sb  Sb30  1  0.591741  0.249954  0.041243  1
  Sb  Sb31  1  0.091741  0.250046  0.458757  1
