# generated using pymatgen
data_TlCr2F6
_symmetry_space_group_name_H-M   'P 1'
_cell_length_a   7.19437300
_cell_length_b   7.54718000
_cell_length_c   10.40575200
_cell_angle_alpha   90.00000000
_cell_angle_beta   90.00000000
_cell_angle_gamma   90.00000000
_symmetry_Int_Tables_number   1
_chemical_formula_structural   TlCr2F6
_chemical_formula_sum   'Tl4 Cr8 F24'
_cell_volume   565.00348904
_cell_formula_units_Z   4
loop_
 _symmetry_equiv_pos_site_id
 _symmetry_equiv_pos_as_xyz
  1  'x, y, z'
loop_
 _atom_site_type_symbol
 _atom_site_label
 _atom_site_symmetry_multiplicity
 _atom_site_fract_x
 _atom_site_fract_y
 _atom_site_fract_z
 _atom_site_occupancy
  Tl  Tl0  1  0.493857  0.250000  0.117892  1
  Tl  Tl1  1  0.993857  0.250000  0.382108  1
  Tl  Tl2  1  0.506143  0.750000  0.882108  1
  Tl  Tl3  1  0.006143  0.750000  0.617892  1
  Cr  Cr4  1  0.307432  0.250000  0.761070  1
  Cr  Cr5  1  0.807432  0.250000  0.738930  1
  Cr  Cr6  1  0.692568  0.750000  0.238930  1
  Cr  Cr7  1  0.192568  0.750000  0.261070  1
  Cr  Cr8  1  0.000000  0.000000  0.000000  1
  Cr  Cr9  1  0.500000  0.500000  0.500000  1
  Cr  Cr10  1  0.000000  0.500000  0.000000  1
  Cr  Cr11  1  0.500000  0.000000  0.500000  1
  F  F12  1  0.234859  0.061541  0.919432  1
  F  F13  1  0.734859  0.438459  0.580568  1
  F  F14  1  0.765141  0.561541  0.080568  1
  F  F15  1  0.265141  0.938459  0.419432  1
  F  F16  1  0.765141  0.938459  0.080568  1
  F  F17  1  0.265141  0.561541  0.419432  1
  F  F18  1  0.234859  0.438459  0.919432  1
  F  F19  1  0.734859  0.061541  0.580568  1
  F  F20  1  0.876824  0.000721  0.833662  1
  F  F21  1  0.376824  0.499279  0.666338  1
  F  F22  1  0.123176  0.500721  0.166338  1
  F  F23  1  0.623176  0.999279  0.333662  1
  F  F24  1  0.123176  0.999279  0.166338  1
  F  F25  1  0.623176  0.500721  0.333662  1
  F  F26  1  0.876824  0.499279  0.833662  1
  F  F27  1  0.376824  0.000721  0.666338  1
  F  F28  1  0.929228  0.250000  0.024371  1
  F  F29  1  0.429228  0.250000  0.475629  1
  F  F30  1  0.070772  0.750000  0.975629  1
  F  F31  1  0.570772  0.750000  0.524371  1
  F  F32  1  0.064993  0.250000  0.665664  1
  F  F33  1  0.564993  0.250000  0.834336  1
  F  F34  1  0.935007  0.750000  0.334336  1
  F  F35  1  0.435007  0.750000  0.165664  1
