# generated using pymatgen
data_Eu4PdAu3
_symmetry_space_group_name_H-M   'P 1'
_cell_length_a   4.61836600
_cell_length_b   5.99584458
_cell_length_c   7.77016050
_cell_angle_alpha   89.79482020
_cell_angle_beta   90.00000000
_cell_angle_gamma   90.00000000
_symmetry_Int_Tables_number   1
_chemical_formula_structural   Eu4PdAu3
_chemical_formula_sum   'Eu4 Pd1 Au3'
_cell_volume   215.16217158
_cell_formula_units_Z   1
loop_
 _symmetry_equiv_pos_site_id
 _symmetry_equiv_pos_as_xyz
  1  'x, y, z'
loop_
 _atom_site_type_symbol
 _atom_site_label
 _atom_site_symmetry_multiplicity
 _atom_site_fract_x
 _atom_site_fract_y
 _atom_site_fract_z
 _atom_site_occupancy
  Eu  Eu0  1  0.250000  0.364603  0.678729  1
  Eu  Eu1  1  0.250000  0.135730  0.184026  1
  Eu  Eu2  1  0.750000  0.639639  0.323217  1
  Eu  Eu3  1  0.750000  0.861972  0.813234  1
  Pd  Pd4  1  0.250000  0.858459  0.538771  1
  Au  Au5  1  0.250000  0.644711  0.041600  1
  Au  Au6  1  0.750000  0.139669  0.461261  1
  Au  Au7  1  0.750000  0.355216  0.959162  1
