# generated using pymatgen
data_Hf10GaSn6Ge
_symmetry_space_group_name_H-M   'P 1'
_cell_length_a   8.64745300
_cell_length_b   8.64745464
_cell_length_c   5.84253300
_cell_angle_alpha   90.00000000
_cell_angle_beta   90.00000000
_cell_angle_gamma   120.00000521
_symmetry_Int_Tables_number   1
_chemical_formula_structural   Hf10GaSn6Ge
_chemical_formula_sum   'Hf10 Ga1 Sn6 Ge1'
_cell_volume   378.36267361
_cell_formula_units_Z   1
loop_
 _symmetry_equiv_pos_site_id
 _symmetry_equiv_pos_as_xyz
  1  'x, y, z'
loop_
 _atom_site_type_symbol
 _atom_site_label
 _atom_site_symmetry_multiplicity
 _atom_site_fract_x
 _atom_site_fract_y
 _atom_site_fract_z
 _atom_site_occupancy
  Hf  Hf0  1  0.734041  0.734041  0.750483  1
  Hf  Hf1  1  0.265959  0.000000  0.750483  1
  Hf  Hf2  1  0.000000  0.265959  0.750483  1
  Hf  Hf3  1  0.265959  0.265959  0.249517  1
  Hf  Hf4  1  0.734041  0.000000  0.249517  1
  Hf  Hf5  1  0.000000  0.734041  0.249517  1
  Hf  Hf6  1  0.666667  0.333333  0.000000  1
  Hf  Hf7  1  0.333333  0.666667  0.000000  1
  Hf  Hf8  1  0.333333  0.666667  0.500000  1
  Hf  Hf9  1  0.666667  0.333333  0.500000  1
  Ga  Ga10  1  0.000000  0.000000  0.500000  1
  Sn  Sn11  1  0.391091  0.391091  0.748630  1
  Sn  Sn12  1  0.608909  0.000000  0.748630  1
  Sn  Sn13  1  0.000000  0.608909  0.748630  1
  Sn  Sn14  1  0.608909  0.608909  0.251370  1
  Sn  Sn15  1  0.391091  0.000000  0.251370  1
  Sn  Sn16  1  0.000000  0.391091  0.251370  1
  Ge  Ge17  1  0.000000  0.000000  0.000000  1
