# generated using pymatgen
data_Tb2Sc2ReB12Ir
_symmetry_space_group_name_H-M   'P 1'
_cell_length_a   3.58971300
_cell_length_b   8.99372124
_cell_length_c   11.40586600
_cell_angle_alpha   90.11722447
_cell_angle_beta   90.00000000
_cell_angle_gamma   90.00000000
_symmetry_Int_Tables_number   1
_chemical_formula_structural   Tb2Sc2ReB12Ir
_chemical_formula_sum   'Tb4 Sc4 Re2 B24 Ir2'
_cell_volume   368.23622211
_cell_formula_units_Z   2
loop_
 _symmetry_equiv_pos_site_id
 _symmetry_equiv_pos_as_xyz
  1  'x, y, z'
loop_
 _atom_site_type_symbol
 _atom_site_label
 _atom_site_symmetry_multiplicity
 _atom_site_fract_x
 _atom_site_fract_y
 _atom_site_fract_z
 _atom_site_occupancy
  Tb  Tb0  1  0.500000  0.317109  0.411914  1
  Tb  Tb1  1  0.500000  0.682891  0.588086  1
  Tb  Tb2  1  0.500000  0.176771  0.916880  1
  Tb  Tb3  1  0.500000  0.823229  0.083120  1
  Sc  Sc4  1  0.500000  0.442116  0.124482  1
  Sc  Sc5  1  0.500000  0.557884  0.875518  1
  Sc  Sc6  1  0.500000  0.051486  0.626696  1
  Sc  Sc7  1  0.500000  0.948514  0.373304  1
  Re  Re8  1  0.500000  0.141015  0.182815  1
  Re  Re9  1  0.500000  0.858985  0.817185  1
  B  B10  1  0.000000  0.099629  0.473795  1
  B  B11  1  0.000000  0.900371  0.526205  1
  B  B12  1  0.000000  0.400873  0.972881  1
  B  B13  1  0.000000  0.599127  0.027119  1
  B  B14  1  0.000000  0.129218  0.317371  1
  B  B15  1  0.000000  0.870782  0.682629  1
  B  B16  1  0.000000  0.371223  0.818582  1
  B  B17  1  0.000000  0.628777  0.181418  1
  B  B18  1  0.000000  0.054516  0.067907  1
  B  B19  1  0.000000  0.945484  0.932093  1
  B  B20  1  0.000000  0.444378  0.566869  1
  B  B21  1  0.000000  0.555622  0.433131  1
  B  B22  1  0.000000  0.481971  0.285517  1
  B  B23  1  0.000000  0.518029  0.714483  1
  B  B24  1  0.000000  0.018453  0.784919  1
  B  B25  1  0.000000  0.981547  0.215081  1
  B  B26  1  0.000000  0.252719  0.081586  1
  B  B27  1  0.000000  0.747281  0.918414  1
  B  B28  1  0.000000  0.245794  0.580486  1
  B  B29  1  0.000000  0.754206  0.419514  1
  B  B30  1  0.000000  0.294947  0.234863  1
  B  B31  1  0.000000  0.705053  0.765137  1
  B  B32  1  0.000000  0.206671  0.734844  1
  B  B33  1  0.000000  0.793329  0.265156  1
  Ir  Ir34  1  0.500000  0.360058  0.681009  1
  Ir  Ir35  1  0.500000  0.639942  0.318991  1
