# generated using pymatgen
data_Sm3Ni7(As3Rh)2
_symmetry_space_group_name_H-M   'P 1'
_cell_length_a   8.10723413
_cell_length_b   8.10723466
_cell_length_c   9.68386462
_cell_angle_alpha   73.98900782
_cell_angle_beta   73.98900714
_cell_angle_gamma   27.82069269
_symmetry_Int_Tables_number   1
_chemical_formula_structural   Sm3Ni7(As3Rh)2
_chemical_formula_sum   'Sm3 Ni7 As6 Rh2'
_cell_volume   284.81038890
_cell_formula_units_Z   1
loop_
 _symmetry_equiv_pos_site_id
 _symmetry_equiv_pos_as_xyz
  1  'x, y, z'
loop_
 _atom_site_type_symbol
 _atom_site_label
 _atom_site_symmetry_multiplicity
 _atom_site_fract_x
 _atom_site_fract_y
 _atom_site_fract_z
 _atom_site_occupancy
  Sm  Sm0  1  0.846847  0.846847  0.696286  1
  Sm  Sm1  1  0.153153  0.153153  0.303714  1
  Sm  Sm2  1  0.000000  0.000000  0.000000  1
  Ni  Ni3  1  0.953341  0.953341  0.342588  1
  Ni  Ni4  1  0.046659  0.046659  0.657412  1
  Ni  Ni5  1  0.784400  0.784400  0.392098  1
  Ni  Ni6  1  0.215600  0.215600  0.607902  1
  Ni  Ni7  1  0.376031  0.376031  0.209635  1
  Ni  Ni8  1  0.623969  0.623969  0.790365  1
  Ni  Ni9  1  0.500000  0.500000  0.500000  1
  As  As10  1  0.801132  0.801132  0.141319  1
  As  As11  1  0.198868  0.198868  0.858681  1
  As  As12  1  0.530443  0.530443  0.224525  1
  As  As13  1  0.469557  0.469557  0.775475  1
  As  As14  1  0.641110  0.641110  0.543111  1
  As  As15  1  0.358890  0.358890  0.456889  1
  Rh  Rh16  1  0.675235  0.675235  0.031662  1
  Rh  Rh17  1  0.324765  0.324765  0.968338  1
