# generated using pymatgen
data_BaTmSiGe3N7
_symmetry_space_group_name_H-M   'P 1'
_cell_length_a   6.27745300
_cell_length_b   6.27745245
_cell_length_c   10.12518200
_cell_angle_alpha   90.00000000
_cell_angle_beta   90.00000000
_cell_angle_gamma   119.99998709
_symmetry_Int_Tables_number   1
_chemical_formula_structural   BaTmSiGe3N7
_chemical_formula_sum   'Ba2 Tm2 Si2 Ge6 N14'
_cell_volume   345.54167020
_cell_formula_units_Z   2
loop_
 _symmetry_equiv_pos_site_id
 _symmetry_equiv_pos_as_xyz
  1  'x, y, z'
loop_
 _atom_site_type_symbol
 _atom_site_label
 _atom_site_symmetry_multiplicity
 _atom_site_fract_x
 _atom_site_fract_y
 _atom_site_fract_z
 _atom_site_occupancy
  Ba  Ba0  1  0.666667  0.333333  0.575996  1
  Ba  Ba1  1  0.333333  0.666667  0.075996  1
  Tm  Tm2  1  0.666667  0.333333  0.951822  1
  Tm  Tm3  1  0.333333  0.666667  0.451822  1
  Si  Si4  1  0.000000  0.000000  0.027611  1
  Si  Si5  1  0.000000  0.000000  0.527611  1
  Ge  Ge6  1  0.171889  0.343777  0.760813  1
  Ge  Ge7  1  0.828111  0.171889  0.260813  1
  Ge  Ge8  1  0.343777  0.171889  0.260813  1
  Ge  Ge9  1  0.656223  0.828111  0.760813  1
  Ge  Ge10  1  0.171889  0.828111  0.760813  1
  Ge  Ge11  1  0.828111  0.656223  0.260813  1
  N  N12  1  0.000000  0.000000  0.842551  1
  N  N13  1  0.000000  0.000000  0.342551  1
  N  N14  1  0.848019  0.696038  0.079139  1
  N  N15  1  0.151981  0.848019  0.579139  1
  N  N16  1  0.696038  0.848019  0.579139  1
  N  N17  1  0.303962  0.151981  0.079139  1
  N  N18  1  0.848019  0.151981  0.079139  1
  N  N19  1  0.151981  0.303962  0.579139  1
  N  N20  1  0.495505  0.504495  0.818330  1
  N  N21  1  0.991011  0.495505  0.318330  1
  N  N22  1  0.504495  0.008989  0.318330  1
  N  N23  1  0.495505  0.991011  0.818330  1
  N  N24  1  0.504495  0.495505  0.318330  1
  N  N25  1  0.008989  0.504495  0.818330  1
