# generated using pymatgen
data_Er4Lu8Co5Bi
_symmetry_space_group_name_H-M   'P 1'
_cell_length_a   8.16255003
_cell_length_b   8.16254951
_cell_length_c   8.16254932
_cell_angle_alpha   110.83012345
_cell_angle_beta   111.17007120
_cell_angle_gamma   106.45510685
_symmetry_Int_Tables_number   1
_chemical_formula_structural   Er4Lu8Co5Bi
_chemical_formula_sum   'Er4 Lu8 Co5 Bi1'
_cell_volume   417.78621974
_cell_formula_units_Z   1
loop_
 _symmetry_equiv_pos_site_id
 _symmetry_equiv_pos_as_xyz
  1  'x, y, z'
loop_
 _atom_site_type_symbol
 _atom_site_label
 _atom_site_symmetry_multiplicity
 _atom_site_fract_x
 _atom_site_fract_y
 _atom_site_fract_z
 _atom_site_occupancy
  Er  Er0  1  0.211401  0.407552  0.196151  1
  Er  Er1  1  0.788599  0.592448  0.803849  1
  Er  Er2  1  0.211401  0.015250  0.803849  1
  Er  Er3  1  0.788599  0.984750  0.196151  1
  Lu  Lu4  1  0.286077  0.181826  0.467903  1
  Lu  Lu5  1  0.713923  0.818174  0.532097  1
  Lu  Lu6  1  0.286077  0.818174  0.104251  1
  Lu  Lu7  1  0.713923  0.181826  0.895749  1
  Lu  Lu8  1  0.622762  0.313073  0.309689  1
  Lu  Lu9  1  0.377238  0.686927  0.690311  1
  Lu  Lu10  1  0.003385  0.313073  0.690311  1
  Lu  Lu11  1  0.996615  0.686927  0.309689  1
  Co  Co12  1  0.000000  0.374258  0.374258  1
  Co  Co13  1  0.000000  0.625742  0.625742  1
  Co  Co14  1  0.388110  0.888110  0.500000  1
  Co  Co15  1  0.611890  0.111890  0.500000  1
  Co  Co16  1  0.000000  0.000000  0.000000  1
  Bi  Bi17  1  0.500000  0.500000  0.000000  1
