# generated using pymatgen
data_Mg17(URu2)2
_symmetry_space_group_name_H-M   'P 1'
_cell_length_a   8.58124540
_cell_length_b   8.58040611
_cell_length_c   8.57995023
_cell_angle_alpha   109.18972951
_cell_angle_beta   109.60872059
_cell_angle_gamma   109.61029974
_symmetry_Int_Tables_number   1
_chemical_formula_structural   Mg17(URu2)2
_chemical_formula_sum   'Mg17 U2 Ru4'
_cell_volume   486.34174215
_cell_formula_units_Z   1
loop_
 _symmetry_equiv_pos_site_id
 _symmetry_equiv_pos_as_xyz
  1  'x, y, z'
loop_
 _atom_site_type_symbol
 _atom_site_label
 _atom_site_symmetry_multiplicity
 _atom_site_fract_x
 _atom_site_fract_y
 _atom_site_fract_z
 _atom_site_occupancy
  Mg  Mg0  1  0.999999  0.000003  0.000007  1
  Mg  Mg1  1  0.344165  0.862357  0.098255  1
  Mg  Mg2  1  0.235881  0.481755  0.137622  1
  Mg  Mg3  1  0.000000  0.709979  0.145991  1
  Mg  Mg4  1  0.668637  0.500033  0.168598  1
  Mg  Mg5  1  0.764117  0.901736  0.245874  1
  Mg  Mg6  1  0.436005  0.289952  0.289959  1
  Mg  Mg7  1  0.235883  0.137621  0.481757  1
  Mg  Mg8  1  0.668639  0.168594  0.500038  1
  Mg  Mg9  1  0.331366  0.831396  0.499964  1
  Mg  Mg10  1  0.655837  0.754080  0.518200  1
  Mg  Mg11  1  0.000001  0.145996  0.709991  1
  Mg  Mg12  1  0.655835  0.518194  0.754088  1
  Mg  Mg13  1  0.331365  0.499957  0.831400  1
  Mg  Mg14  1  0.563994  0.853941  0.853949  1
  Mg  Mg15  1  0.344164  0.098247  0.862364  1
  Mg  Mg16  1  0.764120  0.245875  0.901741  1
  U  U17  1  0.000004  0.369019  0.369029  1
  U  U18  1  0.000004  0.631324  0.631221  1
  Ru  Ru19  1  0.672494  0.176351  0.176356  1
  Ru  Ru20  1  0.000006  0.823659  0.496091  1
  Ru  Ru21  1  0.327481  0.503847  0.503851  1
  Ru  Ru22  1  0.000005  0.496082  0.823652  1
