# generated using pymatgen
data_Dy8GaGeI12
_symmetry_space_group_name_H-M   'P 1'
_cell_length_a   4.21027700
_cell_length_b   14.01007306
_cell_length_c   14.78804100
_cell_angle_alpha   90.00550053
_cell_angle_beta   90.00000000
_cell_angle_gamma   90.00000000
_symmetry_Int_Tables_number   1
_chemical_formula_structural   Dy8GaGeI12
_chemical_formula_sum   'Dy8 Ga1 Ge1 I12'
_cell_volume   872.29164716
_cell_formula_units_Z   1
loop_
 _symmetry_equiv_pos_site_id
 _symmetry_equiv_pos_as_xyz
  1  'x, y, z'
loop_
 _atom_site_type_symbol
 _atom_site_label
 _atom_site_symmetry_multiplicity
 _atom_site_fract_x
 _atom_site_fract_y
 _atom_site_fract_z
 _atom_site_occupancy
  Dy  Dy0  1  0.500000  0.115136  0.345647  1
  Dy  Dy1  1  0.500000  0.884864  0.654353  1
  Dy  Dy2  1  0.500000  0.615075  0.154021  1
  Dy  Dy3  1  0.500000  0.384925  0.845979  1
  Dy  Dy4  1  0.000000  0.112170  0.575232  1
  Dy  Dy5  1  0.000000  0.887830  0.424768  1
  Dy  Dy6  1  0.000000  0.612505  0.924388  1
  Dy  Dy7  1  0.000000  0.387495  0.075612  1
  Ga  Ga8  1  0.500000  0.500000  0.000000  1
  Ge  Ge9  1  0.500000  0.000000  0.500000  1
  I  I10  1  0.500000  0.245602  0.164598  1
  I  I11  1  0.500000  0.754398  0.835402  1
  I  I12  1  0.500000  0.747095  0.337205  1
  I  I13  1  0.500000  0.252905  0.662795  1
  I  I14  1  0.000000  0.258592  0.415162  1
  I  I15  1  0.000000  0.741408  0.584838  1
  I  I16  1  0.000000  0.760696  0.084993  1
  I  I17  1  0.000000  0.239304  0.915007  1
  I  I18  1  0.000000  0.998681  0.240433  1
  I  I19  1  0.000000  0.001319  0.759567  1
  I  I20  1  0.000000  0.498623  0.261753  1
  I  I21  1  0.000000  0.501377  0.738247  1
