# generated using pymatgen
data_Tb4Al6Cu5Si4Ni
_symmetry_space_group_name_H-M   'P 1'
_cell_length_a   8.18900907
_cell_length_b   8.18900935
_cell_length_c   8.18900973
_cell_angle_alpha   139.27676469
_cell_angle_beta   100.49498586
_cell_angle_gamma   93.43870547
_symmetry_Int_Tables_number   1
_chemical_formula_structural   Tb4Al6Cu5Si4Ni
_chemical_formula_sum   'Tb4 Al6 Cu5 Si4 Ni1'
_cell_volume   335.07259674
_cell_formula_units_Z   1
loop_
 _symmetry_equiv_pos_site_id
 _symmetry_equiv_pos_as_xyz
  1  'x, y, z'
loop_
 _atom_site_type_symbol
 _atom_site_label
 _atom_site_symmetry_multiplicity
 _atom_site_fract_x
 _atom_site_fract_y
 _atom_site_fract_z
 _atom_site_occupancy
  Tb  Tb0  1  0.620080  0.872062  0.744298  1
  Tb  Tb1  1  0.379920  0.124218  0.251982  1
  Tb  Tb2  1  0.872235  0.627938  0.248018  1
  Tb  Tb3  1  0.127765  0.375782  0.755702  1
  Al  Al4  1  0.000000  0.250000  0.250000  1
  Al  Al5  1  0.000000  0.750000  0.750000  1
  Al  Al6  1  0.250137  0.500137  0.250000  1
  Al  Al7  1  0.749863  0.999863  0.250000  1
  Al  Al8  1  0.748025  0.498025  0.750000  1
  Al  Al9  1  0.251975  0.001975  0.750000  1
  Cu  Cu10  1  0.985722  0.125812  0.859291  1
  Cu  Cu11  1  0.500000  0.750000  0.250000  1
  Cu  Cu12  1  0.266521  0.626431  0.640709  1
  Cu  Cu13  1  0.733479  0.374188  0.359910  1
  Cu  Cu14  1  0.014278  0.873569  0.140090  1
  Si  Si15  1  0.476221  0.610136  0.856510  1
  Si  Si16  1  0.753626  0.119711  0.643490  1
  Si  Si17  1  0.246374  0.889864  0.366085  1
  Si  Si18  1  0.523779  0.380289  0.133915  1
  Ni  Ni19  1  0.500000  0.250000  0.750000  1
