# generated using pymatgen
data_Ta2ReSi2W
_symmetry_space_group_name_H-M   'P 1'
_cell_length_a   7.66462338
_cell_length_b   7.67481030
_cell_length_c   7.66431479
_cell_angle_alpha   126.24295070
_cell_angle_beta   128.59896786
_cell_angle_gamma   77.56741007
_symmetry_Int_Tables_number   1
_chemical_formula_structural   Ta2ReSi2W
_chemical_formula_sum   'Ta6 Re3 Si6 W3'
_cell_volume   275.61849950
_cell_formula_units_Z   3
loop_
 _symmetry_equiv_pos_site_id
 _symmetry_equiv_pos_as_xyz
  1  'x, y, z'
loop_
 _atom_site_type_symbol
 _atom_site_label
 _atom_site_symmetry_multiplicity
 _atom_site_fract_x
 _atom_site_fract_y
 _atom_site_fract_z
 _atom_site_occupancy
  Ta  Ta0  1  0.551939  0.090225  0.036845  1
  Ta  Ta1  1  0.445539  0.492753  0.546391  1
  Ta  Ta2  1  0.945819  0.490214  0.044818  1
  Ta  Ta3  1  0.052647  0.091008  0.540074  1
  Ta  Ta4  1  0.753645  0.906047  0.653775  1
  Ta  Ta5  1  0.251491  0.904941  0.151847  1
  Re  Re6  1  0.868777  0.497208  0.627079  1
  Re  Re7  1  0.629161  0.754349  0.125898  1
  Re  Re8  1  0.370903  0.497715  0.128140  1
  Si  Si9  1  0.747565  0.500502  0.251881  1
  Si  Si10  1  0.248323  0.500769  0.753697  1
  Si  Si11  1  0.333165  0.824901  0.490580  1
  Si  Si12  1  0.668178  0.163744  0.493187  1
  Si  Si13  1  0.833022  0.824628  0.992507  1
  Si  Si14  1  0.170503  0.165707  0.997405  1
  W  W15  1  0.500196  0.241340  0.740492  1
  W  W16  1  0.999652  0.240261  0.241060  1
  W  W17  1  0.129476  0.755887  0.626521  1
