# generated using pymatgen
data_Ti10V9Si16Ir
_symmetry_space_group_name_H-M   'P 1'
_cell_length_a   6.51332316
_cell_length_b   6.51332261
_cell_length_c   11.98576589
_cell_angle_alpha   89.82689297
_cell_angle_beta   90.17310942
_cell_angle_gamma   89.74045127
_symmetry_Int_Tables_number   1
_chemical_formula_structural   Ti10V9Si16Ir
_chemical_formula_sum   'Ti10 V9 Si16 Ir1'
_cell_volume   508.46676169
_cell_formula_units_Z   1
loop_
 _symmetry_equiv_pos_site_id
 _symmetry_equiv_pos_as_xyz
  1  'x, y, z'
loop_
 _atom_site_type_symbol
 _atom_site_label
 _atom_site_symmetry_multiplicity
 _atom_site_fract_x
 _atom_site_fract_y
 _atom_site_fract_z
 _atom_site_occupancy
  Ti  Ti0  1  0.000614  0.342065  0.221231  1
  Ti  Ti1  1  0.160330  0.503120  0.469181  1
  Ti  Ti2  1  0.835489  0.498253  0.969511  1
  Ti  Ti3  1  0.503120  0.160330  0.530819  1
  Ti  Ti4  1  0.498253  0.835489  0.030489  1
  Ti  Ti5  1  0.998250  0.659775  0.720592  1
  Ti  Ti6  1  0.342065  0.000614  0.778769  1
  Ti  Ti7  1  0.659775  0.998250  0.279408  1
  Ti  Ti8  1  0.332101  0.668022  0.249250  1
  Ti  Ti9  1  0.668022  0.332101  0.750750  1
  V  V10  1  0.994911  0.153909  0.622284  1
  V  V11  1  0.346601  0.502010  0.869154  1
  V  V12  1  0.653659  0.505317  0.372076  1
  V  V13  1  0.502010  0.346601  0.130846  1
  V  V14  1  0.505317  0.653659  0.627924  1
  V  V15  1  0.004015  0.835825  0.122380  1
  V  V16  1  0.153909  0.994911  0.377716  1
  V  V17  1  0.835825  0.004015  0.877620  1
  V  V18  1  0.834583  0.834583  0.500000  1
  Si  Si19  1  0.044391  0.295448  0.816195  1
  Si  Si20  1  0.207407  0.538926  0.060035  1
  Si  Si21  1  0.799199  0.461848  0.562373  1
  Si  Si22  1  0.538926  0.207407  0.939965  1
  Si  Si23  1  0.461848  0.799199  0.437627  1
  Si  Si24  1  0.956363  0.703576  0.315441  1
  Si  Si25  1  0.295448  0.044391  0.183805  1
  Si  Si26  1  0.703576  0.956363  0.684559  1
  Si  Si27  1  0.289969  0.365827  0.673338  1
  Si  Si28  1  0.128267  0.793493  0.923604  1
  Si  Si29  1  0.865538  0.206817  0.423837  1
  Si  Si30  1  0.793493  0.128267  0.076396  1
  Si  Si31  1  0.206817  0.865538  0.576163  1
  Si  Si32  1  0.709294  0.633971  0.174117  1
  Si  Si33  1  0.365827  0.289969  0.326662  1
  Si  Si34  1  0.633971  0.709294  0.825883  1
  Ir  Ir35  1  0.170821  0.170821  0.000000  1
