# generated using pymatgen
data_Ta5Nb11Cu4(NiN)4
_symmetry_space_group_name_H-M   'P 1'
_cell_length_a   8.26829219
_cell_length_b   8.28154624
_cell_length_c   8.28154605
_cell_angle_alpha   60.08658860
_cell_angle_beta   60.05292273
_cell_angle_gamma   60.05293292
_symmetry_Int_Tables_number   1
_chemical_formula_structural   Ta5Nb11Cu4(NiN)4
_chemical_formula_sum   'Ta5 Nb11 Cu4 Ni4 N4'
_cell_volume   401.56374205
_cell_formula_units_Z   1
loop_
 _symmetry_equiv_pos_site_id
 _symmetry_equiv_pos_as_xyz
  1  'x, y, z'
loop_
 _atom_site_type_symbol
 _atom_site_label
 _atom_site_symmetry_multiplicity
 _atom_site_fract_x
 _atom_site_fract_y
 _atom_site_fract_z
 _atom_site_occupancy
  Ta  Ta0  1  0.117912  0.627777  0.627777  1
  Ta  Ta1  1  0.627304  0.118054  0.627337  1
  Ta  Ta2  1  0.627304  0.627337  0.118054  1
  Ta  Ta3  1  0.626534  0.627777  0.627777  1
  Ta  Ta4  1  0.434782  0.065218  0.065218  1
  Nb  Nb5  1  0.816545  0.816001  0.183715  1
  Nb  Nb6  1  0.183739  0.183715  0.816001  1
  Nb  Nb7  1  0.816545  0.183715  0.816001  1
  Nb  Nb8  1  0.183739  0.816001  0.183715  1
  Nb  Nb9  1  0.183032  0.816968  0.816968  1
  Nb  Nb10  1  0.817758  0.182242  0.182242  1
  Nb  Nb11  1  0.434175  0.434677  0.065606  1
  Nb  Nb12  1  0.065542  0.065606  0.434677  1
  Nb  Nb13  1  0.434175  0.065606  0.434677  1
  Nb  Nb14  1  0.065542  0.434677  0.065606  1
  Nb  Nb15  1  0.065447  0.434553  0.434553  1
  Cu  Cu16  1  0.745606  0.418262  0.418262  1
  Cu  Cu17  1  0.417984  0.747534  0.416497  1
  Cu  Cu18  1  0.417984  0.416497  0.747534  1
  Cu  Cu19  1  0.417871  0.418262  0.418262  1
  Ni  Ni20  1  0.512035  0.829736  0.829736  1
  Ni  Ni21  1  0.829391  0.512059  0.829160  1
  Ni  Ni22  1  0.829391  0.829160  0.512059  1
  Ni  Ni23  1  0.828493  0.829736  0.829736  1
  N  N24  1  0.621562  0.125034  0.125034  1
  N  N25  1  0.125619  0.623043  0.125719  1
  N  N26  1  0.125619  0.125719  0.623043  1
  N  N27  1  0.128368  0.125034  0.125034  1
