# generated using pymatgen
data_CsMgInSb2
_symmetry_space_group_name_H-M   'P 1'
_cell_length_a   8.72881527
_cell_length_b   8.72881444
_cell_length_c   8.72881518
_cell_angle_alpha   148.54013193
_cell_angle_beta   148.54012788
_cell_angle_gamma   45.08864896
_symmetry_Int_Tables_number   1
_chemical_formula_structural   CsMgInSb2
_chemical_formula_sum   'Cs1 Mg1 In1 Sb2'
_cell_volume   180.58087490
_cell_formula_units_Z   1
loop_
 _symmetry_equiv_pos_site_id
 _symmetry_equiv_pos_as_xyz
  1  'x, y, z'
loop_
 _atom_site_type_symbol
 _atom_site_label
 _atom_site_symmetry_multiplicity
 _atom_site_fract_x
 _atom_site_fract_y
 _atom_site_fract_z
 _atom_site_occupancy
  Cs  Cs0  1  0.000000  0.000000  0.000000  1
  Mg  Mg1  1  0.750000  0.250000  0.500000  1
  In  In2  1  0.250000  0.750000  0.500000  1
  Sb  Sb3  1  0.359812  0.359812  0.000000  1
  Sb  Sb4  1  0.640188  0.640188  0.000000  1
