# generated using pymatgen
data_HoEr7Tc3B24Os
_symmetry_space_group_name_H-M   'P 1'
_cell_length_a   3.65262900
_cell_length_b   9.11669281
_cell_length_c   11.49287300
_cell_angle_alpha   89.94688756
_cell_angle_beta   90.00000000
_cell_angle_gamma   90.00000000
_symmetry_Int_Tables_number   1
_chemical_formula_structural   HoEr7Tc3B24Os
_chemical_formula_sum   'Ho1 Er7 Tc3 B24 Os1'
_cell_volume   382.71131766
_cell_formula_units_Z   1
loop_
 _symmetry_equiv_pos_site_id
 _symmetry_equiv_pos_as_xyz
  1  'x, y, z'
loop_
 _atom_site_type_symbol
 _atom_site_label
 _atom_site_symmetry_multiplicity
 _atom_site_fract_x
 _atom_site_fract_y
 _atom_site_fract_z
 _atom_site_occupancy
  Ho  Ho0  1  0.000000  0.323291  0.413955  1
  Er  Er1  1  0.000000  0.675758  0.584316  1
  Er  Er2  1  0.000000  0.822669  0.087203  1
  Er  Er3  1  0.000000  0.178344  0.914450  1
  Er  Er4  1  0.000000  0.942269  0.370132  1
  Er  Er5  1  0.000000  0.058372  0.629957  1
  Er  Er6  1  0.000000  0.442946  0.130030  1
  Er  Er7  1  0.000000  0.557065  0.869619  1
  Tc  Tc8  1  0.000000  0.638515  0.320349  1
  Tc  Tc9  1  0.000000  0.361726  0.680430  1
  Tc  Tc10  1  0.000000  0.137553  0.178152  1
  B  B11  1  0.500000  0.553114  0.433111  1
  B  B12  1  0.500000  0.447161  0.566858  1
  B  B13  1  0.500000  0.052708  0.066498  1
  B  B14  1  0.500000  0.946506  0.933170  1
  B  B15  1  0.500000  0.748841  0.418987  1
  B  B16  1  0.500000  0.250852  0.581331  1
  B  B17  1  0.500000  0.249387  0.080910  1
  B  B18  1  0.500000  0.751046  0.918694  1
  B  B19  1  0.500000  0.791846  0.265219  1
  B  B20  1  0.500000  0.208227  0.735391  1
  B  B21  1  0.500000  0.291697  0.234759  1
  B  B22  1  0.500000  0.708883  0.765049  1
  B  B23  1  0.500000  0.630750  0.185174  1
  B  B24  1  0.500000  0.369325  0.815437  1
  B  B25  1  0.500000  0.130015  0.314310  1
  B  B26  1  0.500000  0.869357  0.685370  1
  B  B27  1  0.500000  0.981092  0.211690  1
  B  B28  1  0.500000  0.017609  0.788269  1
  B  B29  1  0.500000  0.481659  0.287942  1
  B  B30  1  0.500000  0.518485  0.711857  1
  B  B31  1  0.500000  0.601563  0.027989  1
  B  B32  1  0.500000  0.399554  0.971832  1
  B  B33  1  0.500000  0.101040  0.471986  1
  B  B34  1  0.500000  0.898782  0.528601  1
  Os  Os35  1  0.000000  0.861996  0.820973  1
