# generated using pymatgen
data_TbH5Ru
_symmetry_space_group_name_H-M   'P 1'
_cell_length_a   4.39971600
_cell_length_b   4.72749800
_cell_length_c   11.65040100
_cell_angle_alpha   90.00000000
_cell_angle_beta   90.00000000
_cell_angle_gamma   90.00000000
_symmetry_Int_Tables_number   1
_chemical_formula_structural   TbH5Ru
_chemical_formula_sum   'Tb4 H20 Ru4'
_cell_volume   242.32424674
_cell_formula_units_Z   4
loop_
 _symmetry_equiv_pos_site_id
 _symmetry_equiv_pos_as_xyz
  1  'x, y, z'
loop_
 _atom_site_type_symbol
 _atom_site_label
 _atom_site_symmetry_multiplicity
 _atom_site_fract_x
 _atom_site_fract_y
 _atom_site_fract_z
 _atom_site_occupancy
  Tb  Tb0  1  0.274430  0.161976  0.649623  1
  Tb  Tb1  1  0.774430  0.338024  0.350377  1
  Tb  Tb2  1  0.225570  0.838024  0.149623  1
  Tb  Tb3  1  0.725570  0.661976  0.850377  1
  H  H4  1  0.532552  0.391411  0.514888  1
  H  H5  1  0.032552  0.108589  0.485112  1
  H  H6  1  0.967448  0.608589  0.014888  1
  H  H7  1  0.467448  0.891411  0.985112  1
  H  H8  1  0.155794  0.927716  0.819224  1
  H  H9  1  0.655794  0.572284  0.180776  1
  H  H10  1  0.344206  0.072284  0.319224  1
  H  H11  1  0.844206  0.427716  0.680776  1
  H  H12  1  0.201745  0.442959  0.828139  1
  H  H13  1  0.701745  0.057041  0.171861  1
  H  H14  1  0.298255  0.557041  0.328139  1
  H  H15  1  0.798255  0.942959  0.671861  1
  H  H16  1  0.623194  0.156886  0.824588  1
  H  H17  1  0.123194  0.343114  0.175412  1
  H  H18  1  0.876806  0.843114  0.324588  1
  H  H19  1  0.376806  0.656886  0.675412  1
  H  H20  1  0.986545  0.084374  0.997134  1
  H  H21  1  0.486545  0.415626  0.002866  1
  H  H22  1  0.513455  0.915626  0.497134  1
  H  H23  1  0.013455  0.584374  0.502866  1
  Ru  Ru24  1  0.319865  0.159107  0.909690  1
  Ru  Ru25  1  0.819865  0.340893  0.090310  1
  Ru  Ru26  1  0.180135  0.840893  0.409690  1
  Ru  Ru27  1  0.680135  0.659107  0.590310  1
