# generated using pymatgen
data_Er3Hf6ZrSn6
_symmetry_space_group_name_H-M   'P 1'
_cell_length_a   8.55022485
_cell_length_b   8.65848434
_cell_length_c   5.90294900
_cell_angle_alpha   90.00000000
_cell_angle_beta   90.00000000
_cell_angle_gamma   120.01600342
_symmetry_Int_Tables_number   1
_chemical_formula_structural   Er3Hf6ZrSn6
_chemical_formula_sum   'Er3 Hf6 Zr1 Sn6'
_cell_volume   378.39816051
_cell_formula_units_Z   1
loop_
 _symmetry_equiv_pos_site_id
 _symmetry_equiv_pos_as_xyz
  1  'x, y, z'
loop_
 _atom_site_type_symbol
 _atom_site_label
 _atom_site_symmetry_multiplicity
 _atom_site_fract_x
 _atom_site_fract_y
 _atom_site_fract_z
 _atom_site_occupancy
  Er  Er0  1  0.763816  0.999343  0.750000  1
  Er  Er1  1  0.241166  0.241006  0.750000  1
  Er  Er2  1  0.233436  0.999036  0.250000  1
  Hf  Hf3  1  0.998610  0.747356  0.750000  1
  Hf  Hf4  1  0.998498  0.254131  0.250000  1
  Hf  Hf5  1  0.335139  0.667852  0.499566  1
  Hf  Hf6  1  0.667870  0.333918  0.000339  1
  Hf  Hf7  1  0.667870  0.333918  0.499661  1
  Hf  Hf8  1  0.335139  0.667852  0.000434  1
  Zr  Zr9  1  0.754366  0.753681  0.250000  1
  Sn  Sn10  1  0.393212  0.995761  0.750000  1
  Sn  Sn11  1  0.394106  0.397290  0.250000  1
  Sn  Sn12  1  0.998647  0.604627  0.250000  1
  Sn  Sn13  1  0.000952  0.399882  0.750000  1
  Sn  Sn14  1  0.607912  0.604044  0.750000  1
  Sn  Sn15  1  0.609262  0.000300  0.250000  1
