# generated using pymatgen
data_Sr4Y3Ho(BO4)4
_symmetry_space_group_name_H-M   'P 1'
_cell_length_a   3.68001900
_cell_length_b   9.75489377
_cell_length_c   10.98311887
_cell_angle_alpha   89.95449778
_cell_angle_beta   90.00000000
_cell_angle_gamma   90.00000000
_symmetry_Int_Tables_number   1
_chemical_formula_structural   Sr4Y3Ho(BO4)4
_chemical_formula_sum   'Sr4 Y3 Ho1 B4 O16'
_cell_volume   394.27401198
_cell_formula_units_Z   1
loop_
 _symmetry_equiv_pos_site_id
 _symmetry_equiv_pos_as_xyz
  1  'x, y, z'
loop_
 _atom_site_type_symbol
 _atom_site_label
 _atom_site_symmetry_multiplicity
 _atom_site_fract_x
 _atom_site_fract_y
 _atom_site_fract_z
 _atom_site_occupancy
  Sr  Sr0  1  0.250000  0.658630  0.083690  1
  Sr  Sr1  1  0.750000  0.341428  0.915858  1
  Sr  Sr2  1  0.750000  0.158947  0.416461  1
  Sr  Sr3  1  0.250000  0.841113  0.583814  1
  Y  Y4  1  0.250000  0.080914  0.110548  1
  Y  Y5  1  0.750000  0.919132  0.889360  1
  Y  Y6  1  0.750000  0.580693  0.389816  1
  Ho  Ho7  1  0.250000  0.419112  0.610328  1
  B  B8  1  0.250000  0.363146  0.204369  1
  B  B9  1  0.750000  0.636566  0.795300  1
  B  B10  1  0.750000  0.863111  0.295618  1
  B  B11  1  0.250000  0.137305  0.704146  1
  O  O12  1  0.250000  0.489123  0.263529  1
  O  O13  1  0.750000  0.510754  0.735920  1
  O  O14  1  0.750000  0.989172  0.236615  1
  O  O15  1  0.250000  0.011247  0.763341  1
  O  O16  1  0.250000  0.240229  0.269624  1
  O  O17  1  0.750000  0.759795  0.730350  1
  O  O18  1  0.750000  0.740154  0.230500  1
  O  O19  1  0.250000  0.260557  0.768844  1
  O  O20  1  0.250000  0.358315  0.076926  1
  O  O21  1  0.750000  0.641461  0.922834  1
  O  O22  1  0.750000  0.858044  0.423078  1
  O  O23  1  0.250000  0.142058  0.576715  1
  O  O24  1  0.250000  0.612478  0.501258  1
  O  O25  1  0.750000  0.386475  0.501201  1
  O  O26  1  0.750000  0.113762  0.999510  1
  O  O27  1  0.250000  0.886276  0.000445  1
