# generated using pymatgen
data_Tm5Lu5(TlSb)3
_symmetry_space_group_name_H-M   'P 1'
_cell_length_a   6.38000200
_cell_length_b   8.81297589
_cell_length_c   8.81833900
_cell_angle_alpha   120.03360767
_cell_angle_beta   89.99806919
_cell_angle_gamma   90.00053080
_symmetry_Int_Tables_number   1
_chemical_formula_structural   Tm5Lu5(TlSb)3
_chemical_formula_sum   'Tm5 Lu5 Tl3 Sb3'
_cell_volume   429.25330125
_cell_formula_units_Z   1
loop_
 _symmetry_equiv_pos_site_id
 _symmetry_equiv_pos_as_xyz
  1  'x, y, z'
loop_
 _atom_site_type_symbol
 _atom_site_label
 _atom_site_symmetry_multiplicity
 _atom_site_fract_x
 _atom_site_fract_y
 _atom_site_fract_z
 _atom_site_occupancy
  Tm  Tm0  1  0.750076  0.237224  0.999906  1
  Tm  Tm1  1  0.750017  0.763096  0.762831  1
  Tm  Tm2  1  0.750099  0.000193  0.237917  1
  Tm  Tm3  1  0.250027  0.762363  0.999777  1
  Tm  Tm4  1  0.250006  0.237229  0.237284  1
  Lu  Lu5  1  0.497362  0.333472  0.666902  1
  Lu  Lu6  1  0.497382  0.666593  0.333365  1
  Lu  Lu7  1  0.002579  0.666757  0.333390  1
  Lu  Lu8  1  0.002595  0.333262  0.666778  1
  Lu  Lu9  1  0.250062  0.999812  0.762480  1
  Tl  Tl10  1  0.249922  0.393133  0.999357  1
  Tl  Tl11  1  0.249811  0.606591  0.605837  1
  Tl  Tl12  1  0.250142  0.999989  0.394262  1
  Sb  Sb13  1  0.750028  0.603559  0.999837  1
  Sb  Sb14  1  0.749972  0.396717  0.396532  1
  Sb  Sb15  1  0.749922  0.000011  0.603546  1
