# generated using pymatgen
data_TbEr2Al3PdAu2
_symmetry_space_group_name_H-M   'P 1'
_cell_length_a   7.26094100
_cell_length_b   7.27180570
_cell_length_c   4.06703600
_cell_angle_alpha   90.00000000
_cell_angle_beta   90.00000000
_cell_angle_gamma   119.95058380
_symmetry_Int_Tables_number   1
_chemical_formula_structural   TbEr2Al3PdAu2
_chemical_formula_sum   'Tb1 Er2 Al3 Pd1 Au2'
_cell_volume   186.06293359
_cell_formula_units_Z   1
loop_
 _symmetry_equiv_pos_site_id
 _symmetry_equiv_pos_as_xyz
  1  'x, y, z'
loop_
 _atom_site_type_symbol
 _atom_site_label
 _atom_site_symmetry_multiplicity
 _atom_site_fract_x
 _atom_site_fract_y
 _atom_site_fract_z
 _atom_site_occupancy
  Tb  Tb0  1  0.411798  0.000000  0.500000  1
  Er  Er1  1  0.000187  0.410526  0.500000  1
  Er  Er2  1  0.589661  0.589474  0.500000  1
  Al  Al3  1  0.764696  0.000000  0.000000  1
  Al  Al4  1  0.999338  0.764183  0.000000  1
  Al  Al5  1  0.235155  0.235817  0.000000  1
  Pd  Pd6  1  0.997913  0.000000  0.500000  1
  Au  Au7  1  0.332058  0.662865  0.000000  1
  Au  Au8  1  0.669194  0.337135  0.000000  1
