# generated using pymatgen
data_EuBi3(Pt2O7)2
_symmetry_space_group_name_H-M   'P 1'
_cell_length_a   7.46062236
_cell_length_b   7.46062278
_cell_length_c   7.46062200
_cell_angle_alpha   60.01268364
_cell_angle_beta   60.01268179
_cell_angle_gamma   60.01268145
_symmetry_Int_Tables_number   1
_chemical_formula_structural   EuBi3(Pt2O7)2
_chemical_formula_sum   'Eu1 Bi3 Pt4 O14'
_cell_volume   293.72101970
_cell_formula_units_Z   1
loop_
 _symmetry_equiv_pos_site_id
 _symmetry_equiv_pos_as_xyz
  1  'x, y, z'
loop_
 _atom_site_type_symbol
 _atom_site_label
 _atom_site_symmetry_multiplicity
 _atom_site_fract_x
 _atom_site_fract_y
 _atom_site_fract_z
 _atom_site_occupancy
  Eu  Eu0  1  0.125000  0.125000  0.125000  1
  Bi  Bi1  1  0.625000  0.125000  0.125000  1
  Bi  Bi2  1  0.125000  0.625000  0.125000  1
  Bi  Bi3  1  0.125000  0.125000  0.625000  1
  Pt  Pt4  1  0.625000  0.625000  0.125000  1
  Pt  Pt5  1  0.625000  0.625000  0.625000  1
  Pt  Pt6  1  0.625000  0.125000  0.625000  1
  Pt  Pt7  1  0.125000  0.625000  0.625000  1
  O  O8  1  0.708824  0.291244  0.291244  1
  O  O9  1  0.707108  0.707108  0.293068  1
  O  O10  1  0.291244  0.708824  0.291244  1
  O  O11  1  0.000994  0.000994  0.000994  1
  O  O12  1  0.707108  0.293068  0.707108  1
  O  O13  1  0.956932  0.542892  0.542892  1
  O  O14  1  0.293068  0.707108  0.707108  1
  O  O15  1  0.542892  0.956932  0.542892  1
  O  O16  1  0.249006  0.249006  0.249006  1
  O  O17  1  0.958756  0.541176  0.958756  1
  O  O18  1  0.542892  0.542892  0.956932  1
  O  O19  1  0.958756  0.958756  0.541176  1
  O  O20  1  0.541176  0.958756  0.958756  1
  O  O21  1  0.291244  0.291244  0.708824  1
