# generated using pymatgen
data_La2YCoSn6
_symmetry_space_group_name_H-M   'P 1'
_cell_length_a   8.59749150
_cell_length_b   8.59749246
_cell_length_c   13.52534400
_cell_angle_alpha   90.00000000
_cell_angle_beta   90.00000000
_cell_angle_gamma   148.54636256
_symmetry_Int_Tables_number   1
_chemical_formula_structural   La2YCoSn6
_chemical_formula_sum   'La4 Y2 Co2 Sn12'
_cell_volume   521.67856236
_cell_formula_units_Z   2
loop_
 _symmetry_equiv_pos_site_id
 _symmetry_equiv_pos_as_xyz
  1  'x, y, z'
loop_
 _atom_site_type_symbol
 _atom_site_label
 _atom_site_symmetry_multiplicity
 _atom_site_fract_x
 _atom_site_fract_y
 _atom_site_fract_z
 _atom_site_occupancy
  La  La0  1  0.900378  0.099622  0.092563  1
  La  La1  1  0.099622  0.900378  0.592563  1
  La  La2  1  0.099622  0.900378  0.907437  1
  La  La3  1  0.900378  0.099622  0.407437  1
  Y  Y4  1  0.898055  0.101944  0.750000  1
  Y  Y5  1  0.101945  0.898056  0.250000  1
  Co  Co6  1  0.297075  0.702925  0.250000  1
  Co  Co7  1  0.702925  0.297075  0.750000  1
  Sn  Sn8  1  0.754686  0.245313  0.572423  1
  Sn  Sn9  1  0.427399  0.572600  0.581031  1
  Sn  Sn10  1  0.572601  0.427400  0.418969  1
  Sn  Sn11  1  0.732833  0.267166  0.250000  1
  Sn  Sn12  1  0.267167  0.732834  0.750000  1
  Sn  Sn13  1  0.245314  0.754687  0.072423  1
  Sn  Sn14  1  0.245314  0.754687  0.427577  1
  Sn  Sn15  1  0.572601  0.427400  0.081031  1
  Sn  Sn16  1  0.454349  0.545652  0.250000  1
  Sn  Sn17  1  0.545651  0.454348  0.750000  1
  Sn  Sn18  1  0.754686  0.245313  0.927577  1
  Sn  Sn19  1  0.427399  0.572600  0.918969  1
