# generated using pymatgen
data_Sr3(DyPb2)2
_symmetry_space_group_name_H-M   'P 1'
_cell_length_a   8.23536700
_cell_length_b   8.87306700
_cell_length_c   16.75317200
_cell_angle_alpha   90.00000000
_cell_angle_beta   90.00000000
_cell_angle_gamma   90.00000000
_symmetry_Int_Tables_number   1
_chemical_formula_structural   Sr3(DyPb2)2
_chemical_formula_sum   'Sr12 Dy8 Pb16'
_cell_volume   1224.20392038
_cell_formula_units_Z   4
loop_
 _symmetry_equiv_pos_site_id
 _symmetry_equiv_pos_as_xyz
  1  'x, y, z'
loop_
 _atom_site_type_symbol
 _atom_site_label
 _atom_site_symmetry_multiplicity
 _atom_site_fract_x
 _atom_site_fract_y
 _atom_site_fract_z
 _atom_site_occupancy
  Sr  Sr0  1  0.499535  0.683144  0.591458  1
  Sr  Sr1  1  0.999535  0.816856  0.908542  1
  Sr  Sr2  1  0.500465  0.316856  0.091458  1
  Sr  Sr3  1  0.000465  0.183144  0.408542  1
  Sr  Sr4  1  0.500465  0.316856  0.408542  1
  Sr  Sr5  1  0.000465  0.183144  0.091458  1
  Sr  Sr6  1  0.499535  0.683144  0.908542  1
  Sr  Sr7  1  0.999535  0.816856  0.591458  1
  Sr  Sr8  1  0.824792  0.514442  0.750000  1
  Sr  Sr9  1  0.324792  0.985558  0.750000  1
  Sr  Sr10  1  0.175208  0.485558  0.250000  1
  Sr  Sr11  1  0.675208  0.014442  0.250000  1
  Dy  Dy12  1  0.670921  0.164957  0.621411  1
  Dy  Dy13  1  0.170921  0.335043  0.878589  1
  Dy  Dy14  1  0.329079  0.835043  0.121411  1
  Dy  Dy15  1  0.829079  0.664957  0.378589  1
  Dy  Dy16  1  0.329079  0.835043  0.378589  1
  Dy  Dy17  1  0.829079  0.664957  0.121411  1
  Dy  Dy18  1  0.670921  0.164957  0.878589  1
  Dy  Dy19  1  0.170921  0.335043  0.621411  1
  Pb  Pb20  1  0.671538  0.957535  0.460470  1
  Pb  Pb21  1  0.171538  0.542465  0.039530  1
  Pb  Pb22  1  0.328462  0.042465  0.960470  1
  Pb  Pb23  1  0.828462  0.457535  0.539530  1
  Pb  Pb24  1  0.328462  0.042465  0.539530  1
  Pb  Pb25  1  0.828462  0.457535  0.960470  1
  Pb  Pb26  1  0.671538  0.957535  0.039530  1
  Pb  Pb27  1  0.171538  0.542465  0.460470  1
  Pb  Pb28  1  0.464206  0.356630  0.750000  1
  Pb  Pb29  1  0.964206  0.143370  0.750000  1
  Pb  Pb30  1  0.535794  0.643370  0.250000  1
  Pb  Pb31  1  0.035794  0.856630  0.250000  1
  Pb  Pb32  1  0.713816  0.884327  0.750000  1
  Pb  Pb33  1  0.213816  0.615673  0.750000  1
  Pb  Pb34  1  0.286184  0.115673  0.250000  1
  Pb  Pb35  1  0.786184  0.384327  0.250000  1
