# generated using pymatgen
data_Zr9Pa(NiSb3)2
_symmetry_space_group_name_H-M   'P 1'
_cell_length_a   8.72024274
_cell_length_b   8.72024295
_cell_length_c   5.87184000
_cell_angle_alpha   90.00000000
_cell_angle_beta   90.00000000
_cell_angle_gamma   120.55896322
_symmetry_Int_Tables_number   1
_chemical_formula_structural   Zr9Pa(NiSb3)2
_chemical_formula_sum   'Zr9 Pa1 Ni2 Sb6'
_cell_volume   384.49277830
_cell_formula_units_Z   1
loop_
 _symmetry_equiv_pos_site_id
 _symmetry_equiv_pos_as_xyz
  1  'x, y, z'
loop_
 _atom_site_type_symbol
 _atom_site_label
 _atom_site_symmetry_multiplicity
 _atom_site_fract_x
 _atom_site_fract_y
 _atom_site_fract_z
 _atom_site_occupancy
  Zr  Zr0  1  0.255057  0.997312  0.750000  1
  Zr  Zr1  1  0.997312  0.255057  0.750000  1
  Zr  Zr2  1  0.257762  0.257762  0.250000  1
  Zr  Zr3  1  0.737863  0.001663  0.250000  1
  Zr  Zr4  1  0.001663  0.737863  0.250000  1
  Zr  Zr5  1  0.666484  0.336401  0.999914  1
  Zr  Zr6  1  0.336401  0.666484  0.999914  1
  Zr  Zr7  1  0.336401  0.666484  0.500086  1
  Zr  Zr8  1  0.666484  0.336401  0.500086  1
  Pa  Pa9  1  0.756219  0.756219  0.750000  1
  Ni  Ni10  1  0.996223  0.996223  0.006370  1
  Ni  Ni11  1  0.996223  0.996223  0.493630  1
  Sb  Sb12  1  0.383094  0.383094  0.750000  1
  Sb  Sb13  1  0.606919  0.005920  0.750000  1
  Sb  Sb14  1  0.005920  0.606919  0.750000  1
  Sb  Sb15  1  0.611986  0.611986  0.250000  1
  Sb  Sb16  1  0.387507  0.000483  0.250000  1
  Sb  Sb17  1  0.000483  0.387507  0.250000  1
