# generated using pymatgen
data_LuCo(TcO4)6
_symmetry_space_group_name_H-M   'P 1'
_cell_length_a   10.53013680
_cell_length_b   10.53013593
_cell_length_c   10.53013600
_cell_angle_alpha   48.97700293
_cell_angle_beta   48.97701426
_cell_angle_gamma   48.97701006
_symmetry_Int_Tables_number   1
_chemical_formula_structural   LuCo(TcO4)6
_chemical_formula_sum   'Lu1 Co1 Tc6 O24'
_cell_volume   610.19023744
_cell_formula_units_Z   1
loop_
 _symmetry_equiv_pos_site_id
 _symmetry_equiv_pos_as_xyz
  1  'x, y, z'
loop_
 _atom_site_type_symbol
 _atom_site_label
 _atom_site_symmetry_multiplicity
 _atom_site_fract_x
 _atom_site_fract_y
 _atom_site_fract_z
 _atom_site_occupancy
  Lu  Lu0  1  0.000000  0.000000  0.000000  1
  Co  Co1  1  0.500000  0.500000  0.500000  1
  Tc  Tc2  1  0.582344  0.892312  0.265070  1
  Tc  Tc3  1  0.265070  0.582344  0.892312  1
  Tc  Tc4  1  0.892312  0.265070  0.582344  1
  Tc  Tc5  1  0.734930  0.417656  0.107688  1
  Tc  Tc6  1  0.107688  0.734930  0.417656  1
  Tc  Tc7  1  0.417656  0.107688  0.734930  1
  O  O8  1  0.799011  0.879898  0.183348  1
  O  O9  1  0.183348  0.799011  0.879898  1
  O  O10  1  0.879898  0.183348  0.799011  1
  O  O11  1  0.663513  0.391743  0.327881  1
  O  O12  1  0.327881  0.663513  0.391743  1
  O  O13  1  0.391743  0.327881  0.663513  1
  O  O14  1  0.200989  0.120102  0.816652  1
  O  O15  1  0.816652  0.200989  0.120102  1
  O  O16  1  0.120102  0.816652  0.200989  1
  O  O17  1  0.336487  0.608257  0.672119  1
  O  O18  1  0.672119  0.336487  0.608257  1
  O  O19  1  0.608257  0.672119  0.336487  1
  O  O20  1  0.429749  0.962852  0.441650  1
  O  O21  1  0.441650  0.429749  0.962852  1
  O  O22  1  0.962852  0.441650  0.429749  1
  O  O23  1  0.907615  0.493998  0.950445  1
  O  O24  1  0.950445  0.907615  0.493998  1
  O  O25  1  0.493998  0.950445  0.907615  1
  O  O26  1  0.570251  0.037148  0.558350  1
  O  O27  1  0.558350  0.570251  0.037148  1
  O  O28  1  0.037148  0.558350  0.570251  1
  O  O29  1  0.092385  0.506002  0.049555  1
  O  O30  1  0.049555  0.092385  0.506002  1
  O  O31  1  0.506002  0.049555  0.092385  1
