# generated using pymatgen
data_Nd3Dy4Sn23Ru6
_symmetry_space_group_name_H-M   'P 1'
_cell_length_a   9.90100601
_cell_length_b   9.90100683
_cell_length_c   10.13987552
_cell_angle_alpha   89.87138366
_cell_angle_beta   90.12861907
_cell_angle_gamma   119.75432342
_symmetry_Int_Tables_number   1
_chemical_formula_structural   Nd3Dy4Sn23Ru6
_chemical_formula_sum   'Nd3 Dy4 Sn23 Ru6'
_cell_volume   862.95927710
_cell_formula_units_Z   1
loop_
 _symmetry_equiv_pos_site_id
 _symmetry_equiv_pos_as_xyz
  1  'x, y, z'
loop_
 _atom_site_type_symbol
 _atom_site_label
 _atom_site_symmetry_multiplicity
 _atom_site_fract_x
 _atom_site_fract_y
 _atom_site_fract_z
 _atom_site_occupancy
  Nd  Nd0  1  0.000000  0.000000  0.000000  1
  Nd  Nd1  1  0.482892  0.517108  0.303490  1
  Nd  Nd2  1  0.517108  0.482892  0.696510  1
  Dy  Dy3  1  0.484502  0.969112  0.302389  1
  Dy  Dy4  1  0.515498  0.030888  0.697611  1
  Dy  Dy5  1  0.030888  0.515498  0.302389  1
  Dy  Dy6  1  0.969112  0.484502  0.697611  1
  Sn  Sn7  1  0.349289  0.999392  0.999671  1
  Sn  Sn8  1  0.650711  0.000608  0.000329  1
  Sn  Sn9  1  0.999392  0.349289  0.000329  1
  Sn  Sn10  1  0.000608  0.650711  0.999671  1
  Sn  Sn11  1  0.651518  0.651518  0.000000  1
  Sn  Sn12  1  0.348482  0.348482  0.000000  1
  Sn  Sn13  1  0.333017  0.666983  0.821949  1
  Sn  Sn14  1  0.666983  0.333017  0.178051  1
  Sn  Sn15  1  0.000000  0.000000  0.500000  1
  Sn  Sn16  1  0.780407  0.219593  0.461881  1
  Sn  Sn17  1  0.219593  0.780407  0.538119  1
  Sn  Sn18  1  0.783781  0.561789  0.461745  1
  Sn  Sn19  1  0.216219  0.438211  0.538255  1
  Sn  Sn20  1  0.438211  0.216219  0.461745  1
  Sn  Sn21  1  0.561789  0.783781  0.538255  1
  Sn  Sn22  1  0.331334  0.668666  0.125129  1
  Sn  Sn23  1  0.668666  0.331334  0.874871  1
  Sn  Sn24  1  0.118795  0.881205  0.273980  1
  Sn  Sn25  1  0.881205  0.118795  0.726020  1
  Sn  Sn26  1  0.116824  0.235147  0.273982  1
  Sn  Sn27  1  0.883176  0.764853  0.726018  1
  Sn  Sn28  1  0.764853  0.883176  0.273982  1
  Sn  Sn29  1  0.235147  0.116824  0.726018  1
  Ru  Ru30  1  0.829607  0.170393  0.202575  1
  Ru  Ru31  1  0.170393  0.829607  0.797425  1
  Ru  Ru32  1  0.832316  0.660630  0.201978  1
  Ru  Ru33  1  0.167684  0.339370  0.798022  1
  Ru  Ru34  1  0.339370  0.167684  0.201978  1
  Ru  Ru35  1  0.660630  0.832316  0.798022  1
