# generated using pymatgen
data_Na11Zn2Bi5
_symmetry_space_group_name_H-M   'P 1'
_cell_length_a   9.19020176
_cell_length_b   11.04588271
_cell_length_c   11.81387875
_cell_angle_alpha   103.50379467
_cell_angle_beta   96.99359426
_cell_angle_gamma   107.60424455
_symmetry_Int_Tables_number   1
_chemical_formula_structural   Na11Zn2Bi5
_chemical_formula_sum   'Na22 Zn4 Bi10'
_cell_volume   1087.29804214
_cell_formula_units_Z   2
loop_
 _symmetry_equiv_pos_site_id
 _symmetry_equiv_pos_as_xyz
  1  'x, y, z'
loop_
 _atom_site_type_symbol
 _atom_site_label
 _atom_site_symmetry_multiplicity
 _atom_site_fract_x
 _atom_site_fract_y
 _atom_site_fract_z
 _atom_site_occupancy
  Na  Na0  1  0.849710  0.572716  0.954976  1
  Na  Na1  1  0.150290  0.427284  0.045024  1
  Na  Na2  1  0.295593  0.891969  0.775913  1
  Na  Na3  1  0.704407  0.108031  0.224087  1
  Na  Na4  1  0.633331  0.165332  0.533780  1
  Na  Na5  1  0.366669  0.834668  0.466220  1
  Na  Na6  1  0.633998  0.673451  0.558798  1
  Na  Na7  1  0.366002  0.326549  0.441202  1
  Na  Na8  1  0.214509  0.563193  0.577090  1
  Na  Na9  1  0.785491  0.436807  0.422910  1
  Na  Na10  1  0.057058  0.703134  0.246447  1
  Na  Na11  1  0.942942  0.296866  0.753553  1
  Na  Na12  1  0.213916  0.083236  0.577058  1
  Na  Na13  1  0.786084  0.916764  0.422942  1
  Na  Na14  1  0.866272  0.088397  0.974852  1
  Na  Na15  1  0.133728  0.911603  0.025148  1
  Na  Na16  1  0.573766  0.224468  0.856238  1
  Na  Na17  1  0.426234  0.775532  0.143762  1
  Na  Na18  1  0.410604  0.255852  0.150566  1
  Na  Na19  1  0.589396  0.744148  0.849434  1
  Na  Na20  1  0.335182  0.409230  0.791063  1
  Na  Na21  1  0.664818  0.590770  0.208937  1
  Zn  Zn22  1  0.944750  0.955355  0.711192  1
  Zn  Zn23  1  0.055250  0.044645  0.288808  1
  Zn  Zn24  1  0.944080  0.622587  0.708729  1
  Zn  Zn25  1  0.055920  0.377413  0.291271  1
  Bi  Bi26  1  0.002008  0.760019  0.534315  1
  Bi  Bi27  1  0.997992  0.239981  0.465685  1
  Bi  Bi28  1  0.643161  0.449038  0.689532  1
  Bi  Bi29  1  0.356839  0.550962  0.310468  1
  Bi  Bi30  1  0.646888  0.969759  0.698836  1
  Bi  Bi31  1  0.353112  0.030241  0.301164  1
  Bi  Bi32  1  0.197178  0.151010  0.876064  1
  Bi  Bi33  1  0.802822  0.848990  0.123936  1
  Bi  Bi34  1  0.194838  0.635709  0.875541  1
  Bi  Bi35  1  0.805162  0.364291  0.124459  1
