# generated using pymatgen
data_Ba6La2Co4O15
_symmetry_space_group_name_H-M   'P 1'
_cell_length_a   11.90804529
_cell_length_b   11.90804518
_cell_length_c   7.13669666
_cell_angle_alpha   89.71989677
_cell_angle_beta   89.71989368
_cell_angle_gamma   119.34720090
_symmetry_Int_Tables_number   1
_chemical_formula_structural   Ba6La2Co4O15
_chemical_formula_sum   'Ba12 La4 Co8 O30'
_cell_volume   882.07974165
_cell_formula_units_Z   2
loop_
 _symmetry_equiv_pos_site_id
 _symmetry_equiv_pos_as_xyz
  1  'x, y, z'
loop_
 _atom_site_type_symbol
 _atom_site_label
 _atom_site_symmetry_multiplicity
 _atom_site_fract_x
 _atom_site_fract_y
 _atom_site_fract_z
 _atom_site_occupancy
  Ba  Ba0  1  0.664668  0.335598  0.968686  1
  Ba  Ba1  1  0.335598  0.664668  0.468686  1
  Ba  Ba2  1  0.349785  0.176937  0.666136  1
  Ba  Ba3  1  0.816853  0.642184  0.653367  1
  Ba  Ba4  1  0.822798  0.183802  0.661404  1
  Ba  Ba5  1  0.642184  0.816853  0.153367  1
  Ba  Ba6  1  0.176937  0.349785  0.166136  1
  Ba  Ba7  1  0.183802  0.822798  0.161404  1
  Ba  Ba8  1  0.000594  0.998927  0.491388  1
  Ba  Ba9  1  0.998927  0.000594  0.991388  1
  Ba  Ba10  1  0.950422  0.474713  0.320850  1
  Ba  Ba11  1  0.474713  0.950422  0.820850  1
  La  La12  1  0.522262  0.048326  0.328897  1
  La  La13  1  0.522446  0.477030  0.327876  1
  La  La14  1  0.048326  0.522262  0.828897  1
  La  La15  1  0.477030  0.522446  0.827876  1
  Co  Co16  1  0.353963  0.178900  0.167696  1
  Co  Co17  1  0.823959  0.646641  0.149620  1
  Co  Co18  1  0.822900  0.177189  0.159418  1
  Co  Co19  1  0.646641  0.823959  0.649620  1
  Co  Co20  1  0.178900  0.353963  0.667696  1
  Co  Co21  1  0.177189  0.822900  0.659418  1
  Co  Co22  1  0.664049  0.334680  0.506033  1
  Co  Co23  1  0.334680  0.664049  0.006033  1
  O  O24  1  0.598371  0.664975  0.521185  1
  O  O25  1  0.071231  0.399472  0.553049  1
  O  O26  1  0.325348  0.931149  0.502295  1
  O  O27  1  0.334707  0.399604  0.533056  1
  O  O28  1  0.607919  0.925829  0.502111  1
  O  O29  1  0.067394  0.678414  0.535762  1
  O  O30  1  0.399604  0.334707  0.033056  1
  O  O31  1  0.925829  0.607919  0.002111  1
  O  O32  1  0.678414  0.067394  0.035762  1
  O  O33  1  0.664975  0.598371  0.021185  1
  O  O34  1  0.399472  0.071231  0.053049  1
  O  O35  1  0.931149  0.325348  0.002295  1
  O  O36  1  0.819121  0.410573  0.660793  1
  O  O37  1  0.587536  0.179128  0.650140  1
  O  O38  1  0.585117  0.413958  0.657215  1
  O  O39  1  0.179128  0.587536  0.150140  1
  O  O40  1  0.410573  0.819121  0.160793  1
  O  O41  1  0.413958  0.585117  0.157215  1
  O  O42  1  0.497612  0.252247  0.344584  1
  O  O43  1  0.738082  0.500339  0.331130  1
  O  O44  1  0.738066  0.241181  0.335398  1
  O  O45  1  0.500339  0.738082  0.831130  1
  O  O46  1  0.252247  0.497612  0.844584  1
  O  O47  1  0.241181  0.738066  0.835398  1
  O  O48  1  0.803535  0.892013  0.755537  1
  O  O49  1  0.109620  0.189512  0.750817  1
  O  O50  1  0.122477  0.924667  0.767346  1
  O  O51  1  0.189512  0.109620  0.250817  1
  O  O52  1  0.892013  0.803535  0.255537  1
  O  O53  1  0.924667  0.122477  0.267346  1
