# generated using pymatgen
data_HoTm7(AgRh)2
_symmetry_space_group_name_H-M   'P 1'
_cell_length_a   9.38389732
_cell_length_b   9.40419120
_cell_length_c   9.41526528
_cell_angle_alpha   60.18278424
_cell_angle_beta   60.11018372
_cell_angle_gamma   60.07149268
_symmetry_Int_Tables_number   1
_chemical_formula_structural   HoTm7(AgRh)2
_chemical_formula_sum   'Ho2 Tm14 Ag4 Rh4'
_cell_volume   589.13535079
_cell_formula_units_Z   2
loop_
 _symmetry_equiv_pos_site_id
 _symmetry_equiv_pos_as_xyz
  1  'x, y, z'
loop_
 _atom_site_type_symbol
 _atom_site_label
 _atom_site_symmetry_multiplicity
 _atom_site_fract_x
 _atom_site_fract_y
 _atom_site_fract_z
 _atom_site_occupancy
  Ho  Ho0  1  0.064312  0.065250  0.434968  1
  Ho  Ho1  1  0.435470  0.065251  0.434968  1
  Tm  Tm2  1  0.064727  0.435436  0.064836  1
  Tm  Tm3  1  0.061369  0.645751  0.646513  1
  Tm  Tm4  1  0.435002  0.435437  0.064835  1
  Tm  Tm5  1  0.646584  0.059589  0.647247  1
  Tm  Tm6  1  0.187004  0.813203  0.187342  1
  Tm  Tm7  1  0.186713  0.187551  0.813783  1
  Tm  Tm8  1  0.812453  0.813203  0.187342  1
  Tm  Tm9  1  0.435382  0.064830  0.064407  1
  Tm  Tm10  1  0.812456  0.187910  0.187179  1
  Tm  Tm11  1  0.064408  0.436282  0.434903  1
  Tm  Tm12  1  0.811955  0.187551  0.813783  1
  Tm  Tm13  1  0.186334  0.813045  0.814286  1
  Tm  Tm14  1  0.646765  0.646676  0.059796  1
  Tm  Tm15  1  0.646369  0.645750  0.646512  1
  Ag  Ag16  1  0.417716  0.418043  0.416723  1
  Ag  Ag17  1  0.747516  0.418044  0.416726  1
  Ag  Ag18  1  0.418645  0.746194  0.416496  1
  Ag  Ag19  1  0.417812  0.417097  0.747280  1
  Rh  Rh20  1  0.856609  0.854545  0.432238  1
  Rh  Rh21  1  0.856848  0.855425  0.856292  1
  Rh  Rh22  1  0.431433  0.855431  0.856290  1
  Rh  Rh23  1  0.856118  0.432510  0.855257  1
