# generated using pymatgen
data_Th8Si12NiOs3
_symmetry_space_group_name_H-M   'P 1'
_cell_length_a   8.26861004
_cell_length_b   8.26880901
_cell_length_c   8.40291700
_cell_angle_alpha   90.00406741
_cell_angle_beta   89.99420710
_cell_angle_gamma   120.00675742
_symmetry_Int_Tables_number   1
_chemical_formula_structural   Th8Si12NiOs3
_chemical_formula_sum   'Th8 Si12 Ni1 Os3'
_cell_volume   497.51548022
_cell_formula_units_Z   1
loop_
 _symmetry_equiv_pos_site_id
 _symmetry_equiv_pos_as_xyz
  1  'x, y, z'
loop_
 _atom_site_type_symbol
 _atom_site_label
 _atom_site_symmetry_multiplicity
 _atom_site_fract_x
 _atom_site_fract_y
 _atom_site_fract_z
 _atom_site_occupancy
  Th  Th0  1  0.999997  0.999998  0.248601  1
  Th  Th1  1  0.999994  0.999994  0.750615  1
  Th  Th2  1  0.502400  0.497598  0.252665  1
  Th  Th3  1  0.502369  0.004779  0.252681  1
  Th  Th4  1  0.995230  0.497634  0.252685  1
  Th  Th5  1  0.501804  0.498174  0.748032  1
  Th  Th6  1  0.501794  0.003620  0.748019  1
  Th  Th7  1  0.996363  0.498184  0.748009  1
  Si  Si8  1  0.166398  0.833603  0.493566  1
  Si  Si9  1  0.166419  0.332814  0.493567  1
  Si  Si10  1  0.667174  0.833575  0.493572  1
  Si  Si11  1  0.834327  0.165660  0.504328  1
  Si  Si12  1  0.834311  0.668646  0.504338  1
  Si  Si13  1  0.331356  0.165685  0.504342  1
  Si  Si14  1  0.834152  0.165845  0.006817  1
  Si  Si15  1  0.834121  0.668254  0.006810  1
  Si  Si16  1  0.331747  0.165879  0.006813  1
  Si  Si17  1  0.171292  0.828711  0.997224  1
  Si  Si18  1  0.171323  0.342604  0.997228  1
  Si  Si19  1  0.657404  0.828682  0.997230  1
  Ni  Ni20  1  0.333333  0.666766  0.002370  1
  Os  Os21  1  0.333285  0.666688  0.511356  1
  Os  Os22  1  0.666704  0.333310  0.493302  1
  Os  Os23  1  0.666706  0.333302  0.985832  1
