# generated using pymatgen
data_Li12Nd12TeW7O48
_symmetry_space_group_name_H-M   'P 1'
_cell_length_a   10.94748327
_cell_length_b   10.94747928
_cell_length_c   10.95658000
_cell_angle_alpha   109.48804545
_cell_angle_beta   109.48810606
_cell_angle_gamma   109.45450988
_symmetry_Int_Tables_number   1
_chemical_formula_structural   Li12Nd12TeW7O48
_chemical_formula_sum   'Li12 Nd12 Te1 W7 O48'
_cell_volume   1010.62575414
_cell_formula_units_Z   1
loop_
 _symmetry_equiv_pos_site_id
 _symmetry_equiv_pos_as_xyz
  1  'x, y, z'
loop_
 _atom_site_type_symbol
 _atom_site_label
 _atom_site_symmetry_multiplicity
 _atom_site_fract_x
 _atom_site_fract_y
 _atom_site_fract_z
 _atom_site_occupancy
  Li  Li0  1  0.750037  0.374998  0.124947  1
  Li  Li1  1  0.875037  0.750035  0.125088  1
  Li  Li2  1  0.125263  0.375213  0.250716  1
  Li  Li3  1  0.625003  0.875039  0.249949  1
  Li  Li4  1  0.250050  0.125264  0.374547  1
  Li  Li5  1  0.624785  0.250049  0.375502  1
  Li  Li6  1  0.375215  0.749952  0.624498  1
  Li  Li7  1  0.749950  0.874736  0.625452  1
  Li  Li8  1  0.374996  0.124960  0.750051  1
  Li  Li9  1  0.874738  0.624787  0.749284  1
  Li  Li10  1  0.124963  0.249965  0.874911  1
  Li  Li11  1  0.249963  0.625001  0.875053  1
  Nd  Nd12  1  0.249967  0.875080  0.125025  1
  Nd  Nd13  1  0.374394  0.249020  0.123772  1
  Nd  Nd14  1  0.875080  0.125113  0.250055  1
  Nd  Nd15  1  0.374625  0.625605  0.249378  1
  Nd  Nd16  1  0.750981  0.625374  0.374753  1
  Nd  Nd17  1  0.125113  0.750032  0.375057  1
  Nd  Nd18  1  0.874887  0.249967  0.624942  1
  Nd  Nd19  1  0.249019  0.374625  0.625247  1
  Nd  Nd20  1  0.625375  0.374394  0.750622  1
  Nd  Nd21  1  0.124920  0.874888  0.749945  1
  Nd  Nd22  1  0.750032  0.124920  0.874975  1
  Nd  Nd23  1  0.625606  0.750980  0.876228  1
  Te  Te24  1  0.500000  0.500000  0.500000  1
  W  W25  1  0.000000  0.000000  0.000000  1
  W  W26  1  0.499999  0.000000  0.000000  1
  W  W27  1  0.000000  0.499999  0.999999  1
  W  W28  1  0.500000  0.500000  0.000000  1
  W  W29  1  0.999999  0.000000  0.499999  1
  W  W30  1  0.500000  0.000000  0.500000  1
  W  W31  1  0.000000  0.500000  0.500000  1
  O  O32  1  0.328128  0.407246  0.023073  1
  O  O33  1  0.194683  0.615828  0.022908  1
  O  O34  1  0.694912  0.171755  0.079000  1
  O  O35  1  0.884228  0.907268  0.079067  1
  O  O36  1  0.976947  0.171895  0.092811  1
  O  O37  1  0.615829  0.921145  0.092920  1
  O  O38  1  0.592753  0.420882  0.115827  1
  O  O39  1  0.023158  0.694912  0.115912  1
  O  O40  1  0.477030  0.092943  0.171775  1
  O  O41  1  0.194688  0.078690  0.171481  1
  O  O42  1  0.115911  0.522969  0.194743  1
  O  O43  1  0.579117  0.671870  0.194945  1
  O  O44  1  0.328834  0.421280  0.305058  1
  O  O45  1  0.476959  0.884227  0.305161  1
  O  O46  1  0.907267  0.523039  0.328201  1
  O  O47  1  0.921145  0.805317  0.328225  1
  O  O48  1  0.578720  0.407553  0.383778  1
  O  O49  1  0.305052  0.976946  0.384136  1
  O  O50  1  0.828244  0.023157  0.407245  1
  O  O51  1  0.078690  0.384002  0.407209  1
  O  O52  1  0.092942  0.115911  0.421167  1
  O  O53  1  0.828107  0.305053  0.420917  1
  O  O54  1  0.592447  0.671167  0.476225  1
  O  O55  1  0.384002  0.805312  0.476793  1
  O  O56  1  0.407552  0.328832  0.523774  1
  O  O57  1  0.615999  0.194688  0.523207  1
  O  O58  1  0.907058  0.884088  0.578832  1
  O  O59  1  0.171893  0.694947  0.579083  1
  O  O60  1  0.171755  0.976842  0.592755  1
  O  O61  1  0.921311  0.615999  0.592791  1
  O  O62  1  0.694947  0.023053  0.615864  1
  O  O63  1  0.421280  0.592446  0.616221  1
  O  O64  1  0.078855  0.194683  0.671774  1
  O  O65  1  0.092733  0.476960  0.671799  1
  O  O66  1  0.523040  0.115772  0.694838  1
  O  O67  1  0.671166  0.578719  0.694941  1
  O  O68  1  0.420883  0.328130  0.805055  1
  O  O69  1  0.884088  0.477030  0.805256  1
  O  O70  1  0.522968  0.907057  0.828225  1
  O  O71  1  0.805312  0.921310  0.828520  1
  O  O72  1  0.976842  0.305087  0.884087  1
  O  O73  1  0.407247  0.579117  0.884172  1
  O  O74  1  0.384172  0.078855  0.907079  1
  O  O75  1  0.023053  0.828105  0.907189  1
  O  O76  1  0.115773  0.092732  0.920934  1
  O  O77  1  0.305087  0.828245  0.921000  1
  O  O78  1  0.805316  0.384171  0.977091  1
  O  O79  1  0.671871  0.592754  0.976926  1
