# generated using pymatgen
data_Rb2HfGe2O7
_symmetry_space_group_name_H-M   'P 1'
_cell_length_a   5.80824685
_cell_length_b   5.80824749
_cell_length_c   13.47651149
_cell_angle_alpha   76.85858753
_cell_angle_beta   76.85858372
_cell_angle_gamma   59.06708934
_symmetry_Int_Tables_number   1
_chemical_formula_structural   Rb2HfGe2O7
_chemical_formula_sum   'Rb4 Hf2 Ge4 O14'
_cell_volume   376.42696109
_cell_formula_units_Z   2
loop_
 _symmetry_equiv_pos_site_id
 _symmetry_equiv_pos_as_xyz
  1  'x, y, z'
loop_
 _atom_site_type_symbol
 _atom_site_label
 _atom_site_symmetry_multiplicity
 _atom_site_fract_x
 _atom_site_fract_y
 _atom_site_fract_z
 _atom_site_occupancy
  Rb  Rb0  1  0.635913  0.064400  0.178811  1
  Rb  Rb1  1  0.935600  0.364087  0.321189  1
  Rb  Rb2  1  0.364087  0.935600  0.821189  1
  Rb  Rb3  1  0.064400  0.635913  0.678811  1
  Hf  Hf4  1  0.500000  0.000000  0.500000  1
  Hf  Hf5  1  0.000000  0.500000  0.000000  1
  Ge  Ge6  1  0.761745  0.314990  0.620452  1
  Ge  Ge7  1  0.314990  0.761745  0.120452  1
  Ge  Ge8  1  0.238255  0.685010  0.379548  1
  Ge  Ge9  1  0.685010  0.238255  0.879548  1
  O  O10  1  0.817019  0.911521  0.948519  1
  O  O11  1  0.330252  0.422014  0.881312  1
  O  O12  1  0.422014  0.330252  0.381312  1
  O  O13  1  0.669748  0.577986  0.118688  1
  O  O14  1  0.839779  0.160221  0.750000  1
  O  O15  1  0.160221  0.839779  0.250000  1
  O  O16  1  0.194863  0.557077  0.097234  1
  O  O17  1  0.442923  0.805137  0.402766  1
  O  O18  1  0.088479  0.182981  0.551481  1
  O  O19  1  0.557077  0.194863  0.597234  1
  O  O20  1  0.182981  0.088479  0.051481  1
  O  O21  1  0.911521  0.817019  0.448519  1
  O  O22  1  0.805137  0.442923  0.902766  1
  O  O23  1  0.577986  0.669748  0.618688  1
