# generated using pymatgen
data_Pr3TlI3
_symmetry_space_group_name_H-M   'P 1'
_cell_length_a   11.19390082
_cell_length_b   11.19390119
_cell_length_c   11.19390100
_cell_angle_alpha   109.47121847
_cell_angle_beta   109.47121915
_cell_angle_gamma   109.47122400
_symmetry_Int_Tables_number   1
_chemical_formula_structural   Pr3TlI3
_chemical_formula_sum   'Pr12 Tl4 I12'
_cell_volume   1079.74821860
_cell_formula_units_Z   4
loop_
 _symmetry_equiv_pos_site_id
 _symmetry_equiv_pos_as_xyz
  1  'x, y, z'
loop_
 _atom_site_type_symbol
 _atom_site_label
 _atom_site_symmetry_multiplicity
 _atom_site_fract_x
 _atom_site_fract_y
 _atom_site_fract_z
 _atom_site_occupancy
  Pr  Pr0  1  0.017586  0.258794  0.008794  1
  Pr  Pr1  1  0.750000  0.008794  0.491206  1
  Pr  Pr2  1  0.258794  0.750000  0.241206  1
  Pr  Pr3  1  0.491206  0.750000  0.008794  1
  Pr  Pr4  1  0.750000  0.241206  0.258794  1
  Pr  Pr5  1  0.008794  0.491206  0.750000  1
  Pr  Pr6  1  0.241206  0.258794  0.750000  1
  Pr  Pr7  1  0.491206  0.241206  0.482414  1
  Pr  Pr8  1  0.482414  0.491206  0.241206  1
  Pr  Pr9  1  0.258794  0.008794  0.017586  1
  Pr  Pr10  1  0.008794  0.017586  0.258794  1
  Pr  Pr11  1  0.241206  0.482414  0.491206  1
  Tl  Tl12  1  0.500000  0.000000  0.250000  1
  Tl  Tl13  1  0.250000  0.500000  0.000000  1
  Tl  Tl14  1  0.250000  0.250000  0.250000  1
  Tl  Tl15  1  0.000000  0.250000  0.500000  1
  I  I16  1  0.755144  0.744856  0.250000  1
  I  I17  1  0.994856  0.505144  0.250000  1
  I  I18  1  0.250000  0.755144  0.744856  1
  I  I19  1  0.755144  0.510290  0.505144  1
  I  I20  1  0.505144  0.250000  0.994856  1
  I  I21  1  0.744856  0.994856  0.989710  1
  I  I22  1  0.994856  0.989710  0.744856  1
  I  I23  1  0.510290  0.505144  0.755144  1
  I  I24  1  0.250000  0.994856  0.505144  1
  I  I25  1  0.744856  0.250000  0.755144  1
  I  I26  1  0.505144  0.755144  0.510290  1
  I  I27  1  0.989710  0.744856  0.994856  1
