# generated using pymatgen
data_Tm4Pd3PtF28
_symmetry_space_group_name_H-M   'P 1'
_cell_length_a   5.46219812
_cell_length_b   8.77265613
_cell_length_c   11.83896329
_cell_angle_alpha   62.46023944
_cell_angle_beta   89.98569955
_cell_angle_gamma   90.02643425
_symmetry_Int_Tables_number   1
_chemical_formula_structural   Tm4Pd3PtF28
_chemical_formula_sum   'Tm4 Pd3 Pt1 F28'
_cell_volume   503.01857888
_cell_formula_units_Z   1
loop_
 _symmetry_equiv_pos_site_id
 _symmetry_equiv_pos_as_xyz
  1  'x, y, z'
loop_
 _atom_site_type_symbol
 _atom_site_label
 _atom_site_symmetry_multiplicity
 _atom_site_fract_x
 _atom_site_fract_y
 _atom_site_fract_z
 _atom_site_occupancy
  Tm  Tm0  1  0.261707  0.815652  0.262846  1
  Tm  Tm1  1  0.737553  0.183566  0.736833  1
  Tm  Tm2  1  0.762589  0.184848  0.236442  1
  Tm  Tm3  1  0.237370  0.815570  0.764588  1
  Pd  Pd4  1  0.758652  0.727134  0.042439  1
  Pd  Pd5  1  0.241029  0.272615  0.957686  1
  Pd  Pd6  1  0.259302  0.272870  0.457404  1
  Pt  Pt7  1  0.741357  0.727167  0.542493  1
  F  F8  1  0.938763  0.704270  0.412455  1
  F  F9  1  0.062751  0.295445  0.586083  1
  F  F10  1  0.437341  0.295621  0.086069  1
  F  F11  1  0.562569  0.704287  0.913939  1
  F  F12  1  0.462946  0.726955  0.134477  1
  F  F13  1  0.536567  0.273026  0.865217  1
  F  F14  1  0.964206  0.274277  0.364459  1
  F  F15  1  0.039329  0.727332  0.635620  1
  F  F16  1  0.950528  0.742508  0.176080  1
  F  F17  1  0.048815  0.257168  0.823898  1
  F  F18  1  0.450935  0.257865  0.323305  1
  F  F19  1  0.548128  0.743272  0.677178  1
  F  F20  1  0.769886  0.477221  0.141779  1
  F  F21  1  0.229622  0.522602  0.858521  1
  F  F22  1  0.271796  0.522791  0.357392  1
  F  F23  1  0.731161  0.475044  0.642436  1
  F  F24  1  0.938798  0.281303  0.042963  1
  F  F25  1  0.061228  0.718466  0.957456  1
  F  F26  1  0.436664  0.718998  0.456297  1
  F  F27  1  0.561259  0.280898  0.543254  1
  F  F28  1  0.740841  0.979065  0.448499  1
  F  F29  1  0.258512  0.023235  0.550937  1
  F  F30  1  0.241334  0.023100  0.050409  1
  F  F31  1  0.758790  0.976632  0.949497  1
  F  F32  1  0.588456  0.969259  0.231769  1
  F  F33  1  0.410470  0.030850  0.769185  1
  F  F34  1  0.088309  0.030584  0.268456  1
  F  F35  1  0.910436  0.968504  0.731637  1
