# generated using pymatgen
data_Ba3LiAg10Pb
_symmetry_space_group_name_H-M   'P 1'
_cell_length_a   9.99674000
_cell_length_b   9.99674018
_cell_length_c   8.63919200
_cell_angle_alpha   90.00000000
_cell_angle_beta   90.00000000
_cell_angle_gamma   119.99999941
_symmetry_Int_Tables_number   1
_chemical_formula_structural   Ba3LiAg10Pb
_chemical_formula_sum   'Ba6 Li2 Ag20 Pb2'
_cell_volume   747.68826050
_cell_formula_units_Z   2
loop_
 _symmetry_equiv_pos_site_id
 _symmetry_equiv_pos_as_xyz
  1  'x, y, z'
loop_
 _atom_site_type_symbol
 _atom_site_label
 _atom_site_symmetry_multiplicity
 _atom_site_fract_x
 _atom_site_fract_y
 _atom_site_fract_z
 _atom_site_occupancy
  Ba  Ba0  1  0.523381  0.046762  0.242410  1
  Ba  Ba1  1  0.476619  0.953238  0.757590  1
  Ba  Ba2  1  0.953238  0.476619  0.242410  1
  Ba  Ba3  1  0.046762  0.523381  0.757590  1
  Ba  Ba4  1  0.523381  0.476619  0.242410  1
  Ba  Ba5  1  0.476619  0.523381  0.757590  1
  Li  Li6  1  0.000000  0.000000  0.000000  1
  Li  Li7  1  0.000000  0.000000  0.500000  1
  Ag  Ag8  1  0.163676  0.327353  0.062708  1
  Ag  Ag9  1  0.836324  0.672647  0.937292  1
  Ag  Ag10  1  0.672647  0.836324  0.062708  1
  Ag  Ag11  1  0.837909  0.675817  0.563733  1
  Ag  Ag12  1  0.327353  0.163676  0.937292  1
  Ag  Ag13  1  0.162091  0.324183  0.436267  1
  Ag  Ag14  1  0.163676  0.836324  0.062708  1
  Ag  Ag15  1  0.324183  0.162091  0.563733  1
  Ag  Ag16  1  0.836324  0.163676  0.937292  1
  Ag  Ag17  1  0.675817  0.837909  0.436267  1
  Ag  Ag18  1  0.837909  0.162091  0.563733  1
  Ag  Ag19  1  0.162091  0.837909  0.436267  1
  Ag  Ag20  1  0.900415  0.800830  0.251629  1
  Ag  Ag21  1  0.099585  0.199170  0.748371  1
  Ag  Ag22  1  0.199170  0.099585  0.251629  1
  Ag  Ag23  1  0.800830  0.900415  0.748371  1
  Ag  Ag24  1  0.900415  0.099585  0.251629  1
  Ag  Ag25  1  0.099585  0.900415  0.748371  1
  Ag  Ag26  1  0.333333  0.666667  0.069822  1
  Ag  Ag27  1  0.666667  0.333333  0.930178  1
  Pb  Pb28  1  0.666667  0.333333  0.569741  1
  Pb  Pb29  1  0.333333  0.666667  0.430259  1
