# generated using pymatgen
data_Yb3Pr4Er3Si8
_symmetry_space_group_name_H-M   'P 1'
_cell_length_a   7.89538464
_cell_length_b   7.89733789
_cell_length_c   14.56317700
_cell_angle_alpha   90.11783701
_cell_angle_beta   89.79478254
_cell_angle_gamma   89.98802321
_symmetry_Int_Tables_number   1
_chemical_formula_structural   Yb3Pr4Er3Si8
_chemical_formula_sum   'Yb6 Pr8 Er6 Si16'
_cell_volume   908.04302299
_cell_formula_units_Z   2
loop_
 _symmetry_equiv_pos_site_id
 _symmetry_equiv_pos_as_xyz
  1  'x, y, z'
loop_
 _atom_site_type_symbol
 _atom_site_label
 _atom_site_symmetry_multiplicity
 _atom_site_fract_x
 _atom_site_fract_y
 _atom_site_fract_z
 _atom_site_occupancy
  Yb  Yb0  1  0.510092  0.633199  0.124320  1
  Yb  Yb1  1  0.132754  0.990775  0.871705  1
  Yb  Yb2  1  0.687106  0.687995  0.500516  1
  Yb  Yb3  1  0.815224  0.185284  0.750767  1
  Yb  Yb4  1  0.192446  0.810644  0.249688  1
  Yb  Yb5  1  0.312622  0.311555  0.999957  1
  Pr  Pr6  1  0.990618  0.632627  0.044989  1
  Pr  Pr7  1  0.009175  0.365379  0.543254  1
  Pr  Pr8  1  0.630630  0.990505  0.955524  1
  Pr  Pr9  1  0.132730  0.510423  0.793433  1
  Pr  Pr10  1  0.866014  0.492219  0.295269  1
  Pr  Pr11  1  0.509423  0.133197  0.206339  1
  Pr  Pr12  1  0.490293  0.867260  0.705599  1
  Pr  Pr13  1  0.365340  0.011059  0.456669  1
  Er  Er14  1  0.367134  0.492170  0.377709  1
  Er  Er15  1  0.868606  0.006826  0.375200  1
  Er  Er16  1  0.991760  0.132418  0.127276  1
  Er  Er17  1  0.006324  0.867876  0.625574  1
  Er  Er18  1  0.631537  0.506599  0.874965  1
  Er  Er19  1  0.493071  0.368501  0.622360  1
  Si  Si20  1  0.076315  0.713269  0.442070  1
  Si  Si21  1  0.921939  0.289501  0.942523  1
  Si  Si22  1  0.712803  0.076701  0.558668  1
  Si  Si23  1  0.208965  0.420125  0.193994  1
  Si  Si24  1  0.785188  0.574945  0.690886  1
  Si  Si25  1  0.427593  0.216878  0.805343  1
  Si  Si26  1  0.578098  0.791252  0.311398  1
  Si  Si27  1  0.286900  0.926413  0.058423  1
  Si  Si28  1  0.836611  0.790733  0.807371  1
  Si  Si29  1  0.153951  0.207631  0.312127  1
  Si  Si30  1  0.798552  0.845836  0.193546  1
  Si  Si31  1  0.292092  0.657047  0.560584  1
  Si  Si32  1  0.708031  0.339133  0.058607  1
  Si  Si33  1  0.655351  0.292542  0.439165  1
  Si  Si34  1  0.343649  0.704560  0.939479  1
  Si  Si35  1  0.211063  0.156922  0.684705  1
