# generated using pymatgen
data_Tm2(LuSb)3
_symmetry_space_group_name_H-M   'P 1'
_cell_length_a   8.02707700
_cell_length_b   9.12397300
_cell_length_c   11.66290700
_cell_angle_alpha   90.00000000
_cell_angle_beta   90.00000000
_cell_angle_gamma   90.00000000
_symmetry_Int_Tables_number   1
_chemical_formula_structural   Tm2(LuSb)3
_chemical_formula_sum   'Tm8 Lu12 Sb12'
_cell_volume   854.17770760
_cell_formula_units_Z   4
loop_
 _symmetry_equiv_pos_site_id
 _symmetry_equiv_pos_as_xyz
  1  'x, y, z'
loop_
 _atom_site_type_symbol
 _atom_site_label
 _atom_site_symmetry_multiplicity
 _atom_site_fract_x
 _atom_site_fract_y
 _atom_site_fract_z
 _atom_site_occupancy
  Tm  Tm0  1  0.175234  0.750000  0.228888  1
  Tm  Tm1  1  0.675234  0.250000  0.271112  1
  Tm  Tm2  1  0.824766  0.250000  0.771112  1
  Tm  Tm3  1  0.324766  0.750000  0.728888  1
  Tm  Tm4  1  0.657524  0.750000  0.290812  1
  Tm  Tm5  1  0.157524  0.250000  0.209188  1
  Tm  Tm6  1  0.342476  0.250000  0.709188  1
  Tm  Tm7  1  0.842476  0.750000  0.790812  1
  Lu  Lu8  1  0.808730  0.939915  0.066194  1
  Lu  Lu9  1  0.308730  0.060085  0.433806  1
  Lu  Lu10  1  0.191270  0.439915  0.933806  1
  Lu  Lu11  1  0.691270  0.560085  0.566194  1
  Lu  Lu12  1  0.191270  0.060085  0.933806  1
  Lu  Lu13  1  0.691270  0.939915  0.566194  1
  Lu  Lu14  1  0.808730  0.560085  0.066194  1
  Lu  Lu15  1  0.308730  0.439915  0.433806  1
  Lu  Lu16  1  0.524581  0.250000  0.995111  1
  Lu  Lu17  1  0.024581  0.750000  0.504889  1
  Lu  Lu18  1  0.475419  0.750000  0.004889  1
  Lu  Lu19  1  0.975419  0.250000  0.495111  1
  Sb  Sb20  1  0.936371  0.990779  0.325752  1
  Sb  Sb21  1  0.436371  0.009221  0.174248  1
  Sb  Sb22  1  0.063629  0.490779  0.674248  1
  Sb  Sb23  1  0.563629  0.509221  0.825752  1
  Sb  Sb24  1  0.063629  0.009221  0.674248  1
  Sb  Sb25  1  0.563629  0.990779  0.825752  1
  Sb  Sb26  1  0.936371  0.509221  0.325752  1
  Sb  Sb27  1  0.436371  0.490779  0.174248  1
  Sb  Sb28  1  0.903413  0.250000  0.023915  1
  Sb  Sb29  1  0.403413  0.750000  0.476085  1
  Sb  Sb30  1  0.096587  0.750000  0.976085  1
  Sb  Sb31  1  0.596587  0.250000  0.523915  1
