# generated using pymatgen
data_Tb3PrSm2(RuBr3)2
_symmetry_space_group_name_H-M   'P 1'
_cell_length_a   4.17963500
_cell_length_b   8.66074567
_cell_length_c   12.05762047
_cell_angle_alpha   85.80191256
_cell_angle_beta   90.00000000
_cell_angle_gamma   90.00000000
_symmetry_Int_Tables_number   1
_chemical_formula_structural   Tb3PrSm2(RuBr3)2
_chemical_formula_sum   'Tb3 Pr1 Sm2 Ru2 Br6'
_cell_volume   435.29977253
_cell_formula_units_Z   1
loop_
 _symmetry_equiv_pos_site_id
 _symmetry_equiv_pos_as_xyz
  1  'x, y, z'
loop_
 _atom_site_type_symbol
 _atom_site_label
 _atom_site_symmetry_multiplicity
 _atom_site_fract_x
 _atom_site_fract_y
 _atom_site_fract_z
 _atom_site_occupancy
  Tb  Tb0  1  0.250000  0.873250  0.369555  1
  Tb  Tb1  1  0.750000  0.123807  0.629703  1
  Tb  Tb2  1  0.250000  0.884600  0.824913  1
  Pr  Pr3  1  0.750000  0.117703  0.167910  1
  Sm  Sm4  1  0.250000  0.285735  0.397752  1
  Sm  Sm5  1  0.750000  0.712271  0.605771  1
  Ru  Ru6  1  0.250000  0.932043  0.597346  1
  Ru  Ru7  1  0.750000  0.065419  0.402540  1
  Br  Br8  1  0.250000  0.416536  0.633870  1
  Br  Br9  1  0.750000  0.580868  0.372138  1
  Br  Br10  1  0.250000  0.875104  0.105924  1
  Br  Br11  1  0.750000  0.113435  0.886662  1
  Br  Br12  1  0.250000  0.367723  0.144253  1
  Br  Br13  1  0.750000  0.651505  0.861664  1
