# generated using pymatgen
data_Hf2U2Tc7As6
_symmetry_space_group_name_H-M   'P 1'
_cell_length_a   7.17156239
_cell_length_b   7.17401863
_cell_length_c   7.17401775
_cell_angle_alpha   109.45528918
_cell_angle_beta   109.48613312
_cell_angle_gamma   109.48613161
_symmetry_Int_Tables_number   1
_chemical_formula_structural   Hf2U2Tc7As6
_chemical_formula_sum   'Hf2 U2 Tc7 As6'
_cell_volume   284.08108964
_cell_formula_units_Z   1
loop_
 _symmetry_equiv_pos_site_id
 _symmetry_equiv_pos_as_xyz
  1  'x, y, z'
loop_
 _atom_site_type_symbol
 _atom_site_label
 _atom_site_symmetry_multiplicity
 _atom_site_fract_x
 _atom_site_fract_y
 _atom_site_fract_z
 _atom_site_occupancy
  Hf  Hf0  1  0.000000  0.000000  0.500000  1
  Hf  Hf1  1  0.000000  0.500000  0.000000  1
  U  U2  1  0.500000  0.500000  0.500000  1
  U  U3  1  0.500000  0.000000  0.000000  1
  Tc  Tc4  1  0.752493  0.250335  0.502157  1
  Tc  Tc5  1  0.500000  0.250000  0.750000  1
  Tc  Tc6  1  0.500000  0.750000  0.250000  1
  Tc  Tc7  1  0.247507  0.497843  0.749665  1
  Tc  Tc8  1  0.752493  0.502157  0.250335  1
  Tc  Tc9  1  0.247507  0.749665  0.497843  1
  Tc  Tc10  1  0.000000  0.000000  0.000000  1
  As  As11  1  0.301483  0.307500  0.993983  1
  As  As12  1  0.000000  0.307953  0.307953  1
  As  As13  1  0.000000  0.692047  0.692047  1
  As  As14  1  0.698517  0.006017  0.692500  1
  As  As15  1  0.301483  0.993983  0.307500  1
  As  As16  1  0.698517  0.692500  0.006017  1
