# generated using pymatgen
data_Pr2Sm3(SnBi)2
_symmetry_space_group_name_H-M   'P 1'
_cell_length_a   8.39081700
_cell_length_b   8.42810200
_cell_length_c   16.09420000
_cell_angle_alpha   90.00000000
_cell_angle_beta   90.00000000
_cell_angle_gamma   90.00000000
_symmetry_Int_Tables_number   1
_chemical_formula_structural   Pr2Sm3(SnBi)2
_chemical_formula_sum   'Pr8 Sm12 Sn8 Bi8'
_cell_volume   1138.16028255
_cell_formula_units_Z   4
loop_
 _symmetry_equiv_pos_site_id
 _symmetry_equiv_pos_as_xyz
  1  'x, y, z'
loop_
 _atom_site_type_symbol
 _atom_site_label
 _atom_site_symmetry_multiplicity
 _atom_site_fract_x
 _atom_site_fract_y
 _atom_site_fract_z
 _atom_site_occupancy
  Pr  Pr0  1  0.547781  0.325193  0.891495  1
  Pr  Pr1  1  0.047781  0.174807  0.608505  1
  Pr  Pr2  1  0.452219  0.674807  0.391495  1
  Pr  Pr3  1  0.952219  0.825193  0.108505  1
  Pr  Pr4  1  0.452219  0.674807  0.108505  1
  Pr  Pr5  1  0.952219  0.825193  0.391495  1
  Pr  Pr6  1  0.547781  0.325193  0.608505  1
  Pr  Pr7  1  0.047781  0.174807  0.891495  1
  Sm  Sm8  1  0.387787  0.836587  0.877928  1
  Sm  Sm9  1  0.887787  0.663413  0.622072  1
  Sm  Sm10  1  0.612213  0.163413  0.377928  1
  Sm  Sm11  1  0.112213  0.336587  0.122072  1
  Sm  Sm12  1  0.612213  0.163413  0.122072  1
  Sm  Sm13  1  0.112213  0.336587  0.377928  1
  Sm  Sm14  1  0.387787  0.836587  0.622072  1
  Sm  Sm15  1  0.887787  0.663413  0.877928  1
  Sm  Sm16  1  0.216977  0.496154  0.750000  1
  Sm  Sm17  1  0.716977  0.003846  0.750000  1
  Sm  Sm18  1  0.783023  0.503846  0.250000  1
  Sm  Sm19  1  0.283023  0.996154  0.250000  1
  Sn  Sn20  1  0.588555  0.627079  0.750000  1
  Sn  Sn21  1  0.088555  0.872921  0.750000  1
  Sn  Sn22  1  0.411445  0.372921  0.250000  1
  Sn  Sn23  1  0.911445  0.127079  0.250000  1
  Sn  Sn24  1  0.351784  0.136569  0.750000  1
  Sn  Sn25  1  0.851784  0.363431  0.750000  1
  Sn  Sn26  1  0.648216  0.863431  0.250000  1
  Sn  Sn27  1  0.148216  0.636569  0.250000  1
  Bi  Bi28  1  0.273646  0.024660  0.045062  1
  Bi  Bi29  1  0.773646  0.475340  0.454938  1
  Bi  Bi30  1  0.726354  0.975340  0.545062  1
  Bi  Bi31  1  0.226354  0.524660  0.954938  1
  Bi  Bi32  1  0.726354  0.975340  0.954938  1
  Bi  Bi33  1  0.226354  0.524660  0.545062  1
  Bi  Bi34  1  0.273646  0.024660  0.454938  1
  Bi  Bi35  1  0.773646  0.475340  0.045062  1
