# generated using pymatgen
data_Ca20SiBi8Sb3
_symmetry_space_group_name_H-M   'P 1'
_cell_length_a   8.33070364
_cell_length_b   9.71245200
_cell_length_c   12.84591801
_cell_angle_alpha   90.00000000
_cell_angle_beta   90.30093092
_cell_angle_gamma   90.00000000
_symmetry_Int_Tables_number   1
_chemical_formula_structural   Ca20SiBi8Sb3
_chemical_formula_sum   'Ca20 Si1 Bi8 Sb3'
_cell_volume   1039.36891922
_cell_formula_units_Z   1
loop_
 _symmetry_equiv_pos_site_id
 _symmetry_equiv_pos_as_xyz
  1  'x, y, z'
loop_
 _atom_site_type_symbol
 _atom_site_label
 _atom_site_symmetry_multiplicity
 _atom_site_fract_x
 _atom_site_fract_y
 _atom_site_fract_z
 _atom_site_occupancy
  Ca  Ca0  1  0.312115  0.958816  0.081516  1
  Ca  Ca1  1  0.819785  0.023390  0.423493  1
  Ca  Ca2  1  0.686378  0.460425  0.920084  1
  Ca  Ca3  1  0.180361  0.547719  0.574666  1
  Ca  Ca4  1  0.686378  0.039575  0.920084  1
  Ca  Ca5  1  0.180361  0.952281  0.574666  1
  Ca  Ca6  1  0.312115  0.541184  0.081516  1
  Ca  Ca7  1  0.819785  0.476610  0.423493  1
  Ca  Ca8  1  0.679695  0.750000  0.227052  1
  Ca  Ca9  1  0.177142  0.250000  0.274880  1
  Ca  Ca10  1  0.321014  0.250000  0.773520  1
  Ca  Ca11  1  0.833124  0.750000  0.713029  1
  Ca  Ca12  1  0.140052  0.750000  0.304471  1
  Ca  Ca13  1  0.651776  0.250000  0.205812  1
  Ca  Ca14  1  0.848405  0.250000  0.706204  1
  Ca  Ca15  1  0.351112  0.750000  0.794508  1
  Ca  Ca16  1  0.547920  0.750000  0.503975  1
  Ca  Ca17  1  0.036174  0.250000  0.994170  1
  Ca  Ca18  1  0.461187  0.250000  0.497241  1
  Ca  Ca19  1  0.962056  0.750000  0.002985  1
  Si  Si20  1  0.926552  0.750000  0.485534  1
  Bi  Bi21  1  0.936354  0.011928  0.169698  1
  Bi  Bi22  1  0.440128  0.989859  0.329878  1
  Bi  Bi23  1  0.063818  0.512038  0.829174  1
  Bi  Bi24  1  0.558927  0.489804  0.670790  1
  Bi  Bi25  1  0.063818  0.987962  0.829174  1
  Bi  Bi26  1  0.558927  0.010196  0.670790  1
  Bi  Bi27  1  0.936354  0.488072  0.169698  1
  Bi  Bi28  1  0.440128  0.510141  0.329878  1
  Sb  Sb29  1  0.573848  0.750000  0.987443  1
  Sb  Sb30  1  0.071530  0.250000  0.514597  1
  Sb  Sb31  1  0.422680  0.250000  0.015983  1
