# generated using pymatgen
data_Gd7Ir3
_symmetry_space_group_name_H-M   'P 1'
_cell_length_a   9.99192800
_cell_length_b   9.99192808
_cell_length_c   6.25589600
_cell_angle_alpha   90.00000000
_cell_angle_beta   90.00000000
_cell_angle_gamma   120.00000634
_symmetry_Int_Tables_number   1
_chemical_formula_structural   Gd7Ir3
_chemical_formula_sum   'Gd14 Ir6'
_cell_volume   540.90216494
_cell_formula_units_Z   2
loop_
 _symmetry_equiv_pos_site_id
 _symmetry_equiv_pos_as_xyz
  1  'x, y, z'
loop_
 _atom_site_type_symbol
 _atom_site_label
 _atom_site_symmetry_multiplicity
 _atom_site_fract_x
 _atom_site_fract_y
 _atom_site_fract_z
 _atom_site_occupancy
  Gd  Gd0  1  0.333333  0.666667  0.468641  1
  Gd  Gd1  1  0.666667  0.333333  0.968641  1
  Gd  Gd2  1  0.125253  0.874747  0.253759  1
  Gd  Gd3  1  0.749494  0.874747  0.253759  1
  Gd  Gd4  1  0.125253  0.250506  0.253759  1
  Gd  Gd5  1  0.874747  0.125253  0.753759  1
  Gd  Gd6  1  0.250506  0.125253  0.753759  1
  Gd  Gd7  1  0.874747  0.749494  0.753759  1
  Gd  Gd8  1  0.540699  0.459301  0.441927  1
  Gd  Gd9  1  0.918601  0.459301  0.441927  1
  Gd  Gd10  1  0.540699  0.081399  0.441927  1
  Gd  Gd11  1  0.459301  0.540699  0.941927  1
  Gd  Gd12  1  0.081399  0.540699  0.941927  1
  Gd  Gd13  1  0.459301  0.918601  0.941927  1
  Ir  Ir14  1  0.811362  0.188638  0.181781  1
  Ir  Ir15  1  0.377276  0.188638  0.181781  1
  Ir  Ir16  1  0.811362  0.622724  0.181781  1
  Ir  Ir17  1  0.188638  0.811362  0.681781  1
  Ir  Ir18  1  0.622724  0.811362  0.681781  1
  Ir  Ir19  1  0.188638  0.377276  0.681781  1
