# generated using pymatgen
data_Er3Zn2(SiAu)2
_symmetry_space_group_name_H-M   'P 1'
_cell_length_a   4.22672300
_cell_length_b   7.01519615
_cell_length_c   6.90102591
_cell_angle_alpha   120.54880045
_cell_angle_beta   90.00000000
_cell_angle_gamma   90.00000000
_symmetry_Int_Tables_number   1
_chemical_formula_structural   Er3Zn2(SiAu)2
_chemical_formula_sum   'Er3 Zn2 Si2 Au2'
_cell_volume   176.22176687
_cell_formula_units_Z   1
loop_
 _symmetry_equiv_pos_site_id
 _symmetry_equiv_pos_as_xyz
  1  'x, y, z'
loop_
 _atom_site_type_symbol
 _atom_site_label
 _atom_site_symmetry_multiplicity
 _atom_site_fract_x
 _atom_site_fract_y
 _atom_site_fract_z
 _atom_site_occupancy
  Er  Er0  1  0.000000  0.422181  0.000000  1
  Er  Er1  1  0.000000  0.583174  0.585234  1
  Er  Er2  1  0.000000  0.997941  0.414766  1
  Zn  Zn3  1  0.500000  0.250829  0.250959  1
  Zn  Zn4  1  0.500000  0.999870  0.749041  1
  Si  Si5  1  0.500000  0.668642  0.342084  1
  Si  Si6  1  0.500000  0.326556  0.657916  1
  Au  Au7  1  0.000000  0.018435  0.000000  1
  Au  Au8  1  0.500000  0.732471  0.000000  1
