# generated using pymatgen
data_Dy3YScFe(AuO7)2
_symmetry_space_group_name_H-M   'P 1'
_cell_length_a   7.29537676
_cell_length_b   7.34230691
_cell_length_c   7.29140400
_cell_angle_alpha   59.76860875
_cell_angle_beta   59.50520976
_cell_angle_gamma   59.78694240
_symmetry_Int_Tables_number   1
_chemical_formula_structural   Dy3YScFe(AuO7)2
_chemical_formula_sum   'Dy3 Y1 Sc1 Fe1 Au2 O14'
_cell_volume   274.20160762
_cell_formula_units_Z   1
loop_
 _symmetry_equiv_pos_site_id
 _symmetry_equiv_pos_as_xyz
  1  'x, y, z'
loop_
 _atom_site_type_symbol
 _atom_site_label
 _atom_site_symmetry_multiplicity
 _atom_site_fract_x
 _atom_site_fract_y
 _atom_site_fract_z
 _atom_site_occupancy
  Dy  Dy0  1  0.499993  0.000007  0.499990  1
  Dy  Dy1  1  0.000001  0.500004  0.499993  1
  Dy  Dy2  1  0.499996  0.500007  0.499993  1
  Y  Y3  1  0.499988  0.500016  0.000003  1
  Sc  Sc4  1  0.000052  0.499918  0.000070  1
  Fe  Fe5  1  0.000005  0.000019  0.999997  1
  Au  Au6  1  0.500026  0.999897  0.000033  1
  Au  Au7  1  0.000023  0.999972  0.500012  1
  O  O8  1  0.621619  0.629628  0.621066  1
  O  O9  1  0.378374  0.370383  0.378929  1
  O  O10  1  0.339106  0.919620  0.903861  1
  O  O11  1  0.096958  0.662877  0.647759  1
  O  O12  1  0.910557  0.334202  0.909489  1
  O  O13  1  0.903958  0.919012  0.339412  1
  O  O14  1  0.351833  0.336968  0.902797  1
  O  O15  1  0.338998  0.915595  0.339176  1
  O  O16  1  0.903016  0.337162  0.352234  1
  O  O17  1  0.648134  0.663116  0.097165  1
  O  O18  1  0.096036  0.080990  0.660590  1
  O  O19  1  0.660904  0.080399  0.096130  1
  O  O20  1  0.660979  0.084418  0.660801  1
  O  O21  1  0.089445  0.665795  0.090502  1
