# generated using pymatgen
data_TmLuCoSi2Ru
_symmetry_space_group_name_H-M   'P 1'
_cell_length_a   4.21200700
_cell_length_b   6.78877600
_cell_length_c   7.02433600
_cell_angle_alpha   90.00000000
_cell_angle_beta   90.00000000
_cell_angle_gamma   90.00000000
_symmetry_Int_Tables_number   1
_chemical_formula_structural   TmLuCoSi2Ru
_chemical_formula_sum   'Tm2 Lu2 Co2 Si4 Ru2'
_cell_volume   200.85647687
_cell_formula_units_Z   2
loop_
 _symmetry_equiv_pos_site_id
 _symmetry_equiv_pos_as_xyz
  1  'x, y, z'
loop_
 _atom_site_type_symbol
 _atom_site_label
 _atom_site_symmetry_multiplicity
 _atom_site_fract_x
 _atom_site_fract_y
 _atom_site_fract_z
 _atom_site_occupancy
  Tm  Tm0  1  0.250000  0.493998  0.187043  1
  Tm  Tm1  1  0.250000  0.993998  0.312957  1
  Lu  Lu2  1  0.750000  0.517971  0.806902  1
  Lu  Lu3  1  0.750000  0.017971  0.693098  1
  Co  Co4  1  0.250000  0.646715  0.569035  1
  Co  Co5  1  0.250000  0.146715  0.930965  1
  Si  Si6  1  0.750000  0.200363  0.097347  1
  Si  Si7  1  0.750000  0.700363  0.402653  1
  Si  Si8  1  0.250000  0.802004  0.884382  1
  Si  Si9  1  0.250000  0.302004  0.615618  1
  Ru  Ru10  1  0.750000  0.338949  0.437011  1
  Ru  Ru11  1  0.750000  0.838949  0.062989  1
