# generated using pymatgen
data_Tb2Er5Sn23Ru6
_symmetry_space_group_name_H-M   'P 1'
_cell_length_a   9.84094753
_cell_length_b   9.84094808
_cell_length_c   10.05955823
_cell_angle_alpha   90.02126700
_cell_angle_beta   89.97873516
_cell_angle_gamma   119.96922016
_symmetry_Int_Tables_number   1
_chemical_formula_structural   Tb2Er5Sn23Ru6
_chemical_formula_sum   'Tb2 Er5 Sn23 Ru6'
_cell_volume   843.95244065
_cell_formula_units_Z   1
loop_
 _symmetry_equiv_pos_site_id
 _symmetry_equiv_pos_as_xyz
  1  'x, y, z'
loop_
 _atom_site_type_symbol
 _atom_site_label
 _atom_site_symmetry_multiplicity
 _atom_site_fract_x
 _atom_site_fract_y
 _atom_site_fract_z
 _atom_site_occupancy
  Tb  Tb0  1  0.484513  0.515487  0.303288  1
  Tb  Tb1  1  0.000329  0.999671  0.999765  1
  Er  Er2  1  0.514132  0.485868  0.697629  1
  Er  Er3  1  0.486199  0.972178  0.302167  1
  Er  Er4  1  0.513903  0.027695  0.697887  1
  Er  Er5  1  0.027822  0.513801  0.302167  1
  Er  Er6  1  0.972305  0.486097  0.697887  1
  Sn  Sn7  1  0.119241  0.880759  0.274062  1
  Sn  Sn8  1  0.881079  0.118921  0.726155  1
  Sn  Sn9  1  0.118504  0.236611  0.274236  1
  Sn  Sn10  1  0.880584  0.762079  0.725528  1
  Sn  Sn11  1  0.763389  0.881496  0.274236  1
  Sn  Sn12  1  0.237921  0.119416  0.725528  1
  Sn  Sn13  1  0.779495  0.220505  0.463871  1
  Sn  Sn14  1  0.220681  0.779319  0.536124  1
  Sn  Sn15  1  0.779685  0.559503  0.464106  1
  Sn  Sn16  1  0.220078  0.440149  0.536670  1
  Sn  Sn17  1  0.440497  0.220315  0.464106  1
  Sn  Sn18  1  0.559851  0.779922  0.536670  1
  Sn  Sn19  1  0.349157  0.999633  0.999488  1
  Sn  Sn20  1  0.651103  0.000225  0.000329  1
  Sn  Sn21  1  0.999775  0.348897  0.000329  1
  Sn  Sn22  1  0.000367  0.650843  0.999488  1
  Sn  Sn23  1  0.651137  0.651023  0.000087  1
  Sn  Sn24  1  0.348977  0.348863  0.000087  1
  Sn  Sn25  1  0.332129  0.667871  0.129973  1
  Sn  Sn26  1  0.666660  0.333340  0.868571  1
  Sn  Sn27  1  0.333473  0.666527  0.823741  1
  Sn  Sn28  1  0.666514  0.333486  0.175987  1
  Sn  Sn29  1  0.000123  0.999877  0.500181  1
  Ru  Ru30  1  0.829517  0.170483  0.203146  1
  Ru  Ru31  1  0.170181  0.829819  0.796608  1
  Ru  Ru32  1  0.830889  0.659232  0.202541  1
  Ru  Ru33  1  0.170114  0.341091  0.797409  1
  Ru  Ru34  1  0.340768  0.169111  0.202541  1
  Ru  Ru35  1  0.658909  0.829886  0.797409  1
