# generated using pymatgen
data_Sr6TiRh4O15
_symmetry_space_group_name_H-M   'P 1'
_cell_length_a   7.13132753
_cell_length_b   7.13132756
_cell_length_c   7.13132753
_cell_angle_alpha   86.49484756
_cell_angle_beta   86.49485071
_cell_angle_gamma   86.49485835
_symmetry_Int_Tables_number   1
_chemical_formula_structural   Sr6TiRh4O15
_chemical_formula_sum   'Sr6 Ti1 Rh4 O15'
_cell_volume   360.71378114
_cell_formula_units_Z   1
loop_
 _symmetry_equiv_pos_site_id
 _symmetry_equiv_pos_as_xyz
  1  'x, y, z'
loop_
 _atom_site_type_symbol
 _atom_site_label
 _atom_site_symmetry_multiplicity
 _atom_site_fract_x
 _atom_site_fract_y
 _atom_site_fract_z
 _atom_site_occupancy
  Sr  Sr0  1  0.322210  0.677790  0.000000  1
  Sr  Sr1  1  0.677790  0.000000  0.322210  1
  Sr  Sr2  1  0.000000  0.322210  0.677790  1
  Sr  Sr3  1  0.141086  0.858914  0.500000  1
  Sr  Sr4  1  0.858914  0.500000  0.141086  1
  Sr  Sr5  1  0.500000  0.141086  0.858914  1
  Ti  Ti6  1  0.500000  0.500000  0.500000  1
  Rh  Rh7  1  0.903310  0.903310  0.903310  1
  Rh  Rh8  1  0.096690  0.096690  0.096690  1
  Rh  Rh9  1  0.705035  0.705035  0.705035  1
  Rh  Rh10  1  0.294965  0.294965  0.294965  1
  O  O11  1  0.259918  0.563639  0.372219  1
  O  O12  1  0.372219  0.259918  0.563639  1
  O  O13  1  0.563639  0.372219  0.259918  1
  O  O14  1  0.740082  0.627781  0.436361  1
  O  O15  1  0.436361  0.740082  0.627781  1
  O  O16  1  0.627781  0.436361  0.740082  1
  O  O17  1  0.000000  0.834493  0.165507  1
  O  O18  1  0.165507  0.000000  0.834493  1
  O  O19  1  0.834493  0.165507  0.000000  1
  O  O20  1  0.351461  0.020008  0.206284  1
  O  O21  1  0.206284  0.351461  0.020008  1
  O  O22  1  0.793716  0.979992  0.648539  1
  O  O23  1  0.979992  0.648539  0.793716  1
  O  O24  1  0.648539  0.793716  0.979992  1
  O  O25  1  0.020008  0.206284  0.351461  1
