# generated using pymatgen
data_GdScB6Os
_symmetry_space_group_name_H-M   'P 1'
_cell_length_a   3.58032700
_cell_length_b   9.00113900
_cell_length_c   11.39921300
_cell_angle_alpha   90.00000000
_cell_angle_beta   90.00000000
_cell_angle_gamma   90.00000000
_symmetry_Int_Tables_number   1
_chemical_formula_structural   GdScB6Os
_chemical_formula_sum   'Gd4 Sc4 B24 Os4'
_cell_volume   367.36267665
_cell_formula_units_Z   4
loop_
 _symmetry_equiv_pos_site_id
 _symmetry_equiv_pos_as_xyz
  1  'x, y, z'
loop_
 _atom_site_type_symbol
 _atom_site_label
 _atom_site_symmetry_multiplicity
 _atom_site_fract_x
 _atom_site_fract_y
 _atom_site_fract_z
 _atom_site_occupancy
  Gd  Gd0  1  0.000000  0.820151  0.085316  1
  Gd  Gd1  1  0.000000  0.179849  0.914684  1
  Gd  Gd2  1  0.000000  0.320151  0.414684  1
  Gd  Gd3  1  0.000000  0.679849  0.585316  1
  Sc  Sc4  1  0.000000  0.445469  0.125769  1
  Sc  Sc5  1  0.000000  0.554531  0.874231  1
  Sc  Sc6  1  0.000000  0.945469  0.374231  1
  Sc  Sc7  1  0.000000  0.054531  0.625769  1
  B  B8  1  0.500000  0.055486  0.067945  1
  B  B9  1  0.500000  0.944514  0.932055  1
  B  B10  1  0.500000  0.555486  0.432055  1
  B  B11  1  0.500000  0.444514  0.567945  1
  B  B12  1  0.500000  0.253429  0.081892  1
  B  B13  1  0.500000  0.746571  0.918108  1
  B  B14  1  0.500000  0.753429  0.418108  1
  B  B15  1  0.500000  0.246571  0.581892  1
  B  B16  1  0.500000  0.293785  0.234630  1
  B  B17  1  0.500000  0.706215  0.765370  1
  B  B18  1  0.500000  0.793785  0.265370  1
  B  B19  1  0.500000  0.206215  0.734630  1
  B  B20  1  0.500000  0.129241  0.317470  1
  B  B21  1  0.500000  0.870759  0.682530  1
  B  B22  1  0.500000  0.629241  0.182530  1
  B  B23  1  0.500000  0.370759  0.817470  1
  B  B24  1  0.500000  0.482572  0.285212  1
  B  B25  1  0.500000  0.517428  0.714788  1
  B  B26  1  0.500000  0.982572  0.214788  1
  B  B27  1  0.500000  0.017428  0.785212  1
  B  B28  1  0.500000  0.099514  0.473288  1
  B  B29  1  0.500000  0.900486  0.526712  1
  B  B30  1  0.500000  0.599514  0.026712  1
  B  B31  1  0.500000  0.400486  0.973288  1
  Os  Os32  1  0.000000  0.140497  0.181854  1
  Os  Os33  1  0.000000  0.859503  0.818146  1
  Os  Os34  1  0.000000  0.640497  0.318146  1
  Os  Os35  1  0.000000  0.359503  0.681854  1
