# generated using pymatgen
data_YbHoCo2(BN)2
_symmetry_space_group_name_H-M   'P 1'
_cell_length_a   3.47076200
_cell_length_b   3.47076200
_cell_length_c   7.48209100
_cell_angle_alpha   90.00000000
_cell_angle_beta   90.00000000
_cell_angle_gamma   90.00000000
_symmetry_Int_Tables_number   1
_chemical_formula_structural   YbHoCo2(BN)2
_chemical_formula_sum   'Yb1 Ho1 Co2 B2 N2'
_cell_volume   90.13068126
_cell_formula_units_Z   1
loop_
 _symmetry_equiv_pos_site_id
 _symmetry_equiv_pos_as_xyz
  1  'x, y, z'
loop_
 _atom_site_type_symbol
 _atom_site_label
 _atom_site_symmetry_multiplicity
 _atom_site_fract_x
 _atom_site_fract_y
 _atom_site_fract_z
 _atom_site_occupancy
  Yb  Yb0  1  0.499999  0.000000  0.168192  1
  Ho  Ho1  1  0.000000  0.499999  0.838970  1
  Co  Co2  1  0.000000  0.000000  0.500155  1
  Co  Co3  1  0.499999  0.499999  0.500155  1
  B  B4  1  0.000000  0.499999  0.339809  1
  B  B5  1  0.499999  0.000000  0.653043  1
  N  N6  1  0.000000  0.499999  0.149728  1
  N  N7  1  0.499999  0.000000  0.849946  1
