# generated using pymatgen
data_Zr4Ta4GaAs3
_symmetry_space_group_name_H-M   'P 1'
_cell_length_a   3.63838700
_cell_length_b   7.09457988
_cell_length_c   8.63408271
_cell_angle_alpha   89.77994018
_cell_angle_beta   90.00000000
_cell_angle_gamma   90.00000000
_symmetry_Int_Tables_number   1
_chemical_formula_structural   Zr4Ta4GaAs3
_chemical_formula_sum   'Zr4 Ta4 Ga1 As3'
_cell_volume   222.86844151
_cell_formula_units_Z   1
loop_
 _symmetry_equiv_pos_site_id
 _symmetry_equiv_pos_as_xyz
  1  'x, y, z'
loop_
 _atom_site_type_symbol
 _atom_site_label
 _atom_site_symmetry_multiplicity
 _atom_site_fract_x
 _atom_site_fract_y
 _atom_site_fract_z
 _atom_site_occupancy
  Zr  Zr0  1  0.250000  0.541677  0.835183  1
  Zr  Zr1  1  0.750000  0.955989  0.332570  1
  Zr  Zr2  1  0.250000  0.043109  0.667189  1
  Zr  Zr3  1  0.750000  0.459227  0.169182  1
  Ta  Ta4  1  0.250000  0.137528  0.059696  1
  Ta  Ta5  1  0.750000  0.869232  0.942232  1
  Ta  Ta6  1  0.250000  0.629451  0.437926  1
  Ta  Ta7  1  0.750000  0.366120  0.558328  1
  Ga  Ga8  1  0.750000  0.744919  0.642912  1
  As  As9  1  0.250000  0.757282  0.142029  1
  As  As10  1  0.750000  0.244128  0.854701  1
  As  As11  1  0.250000  0.251338  0.358051  1
