# generated using pymatgen
data_Tb2P7(RuRh)6
_symmetry_space_group_name_H-M   'P 1'
_cell_length_a   3.87536630
_cell_length_b   9.53779244
_cell_length_c   9.54239959
_cell_angle_alpha   119.95446331
_cell_angle_beta   89.97892673
_cell_angle_gamma   90.01736169
_symmetry_Int_Tables_number   1
_chemical_formula_structural   Tb2P7(RuRh)6
_chemical_formula_sum   'Tb2 P7 Ru6 Rh6'
_cell_volume   305.59617846
_cell_formula_units_Z   1
loop_
 _symmetry_equiv_pos_site_id
 _symmetry_equiv_pos_as_xyz
  1  'x, y, z'
loop_
 _atom_site_type_symbol
 _atom_site_label
 _atom_site_symmetry_multiplicity
 _atom_site_fract_x
 _atom_site_fract_y
 _atom_site_fract_z
 _atom_site_occupancy
  Tb  Tb0  1  0.252849  0.666855  0.333511  1
  Tb  Tb1  1  0.747151  0.333145  0.666489  1
  P  P2  1  0.500000  0.000000  0.000000  1
  P  P3  1  0.753589  0.882963  0.597798  1
  P  P4  1  0.753766  0.402560  0.285274  1
  P  P5  1  0.753959  0.714833  0.117160  1
  P  P6  1  0.246411  0.117037  0.402202  1
  P  P7  1  0.246234  0.597440  0.714726  1
  P  P8  1  0.246041  0.285167  0.882840  1
  Ru  Ru9  1  0.742797  0.114837  0.851682  1
  Ru  Ru10  1  0.743245  0.148321  0.262663  1
  Ru  Ru11  1  0.742897  0.737339  0.885419  1
  Ru  Ru12  1  0.257203  0.885163  0.148318  1
  Ru  Ru13  1  0.256755  0.851679  0.737337  1
  Ru  Ru14  1  0.257103  0.262661  0.114581  1
  Rh  Rh15  1  0.753053  0.616833  0.553482  1
  Rh  Rh16  1  0.753027  0.446960  0.063875  1
  Rh  Rh17  1  0.752969  0.936814  0.383315  1
  Rh  Rh18  1  0.246947  0.383167  0.446518  1
  Rh  Rh19  1  0.246973  0.553040  0.936125  1
  Rh  Rh20  1  0.247031  0.063186  0.616685  1
