# generated using pymatgen
data_DyLu9Cd3Ru
_symmetry_space_group_name_H-M   'P 1'
_cell_length_a   9.40224609
_cell_length_b   9.40224659
_cell_length_c   9.69652500
_cell_angle_alpha   90.00000000
_cell_angle_beta   90.00000000
_cell_angle_gamma   119.99199380
_symmetry_Int_Tables_number   1
_chemical_formula_structural   DyLu9Cd3Ru
_chemical_formula_sum   'Dy2 Lu18 Cd6 Ru2'
_cell_volume   742.41208982
_cell_formula_units_Z   2
loop_
 _symmetry_equiv_pos_site_id
 _symmetry_equiv_pos_as_xyz
  1  'x, y, z'
loop_
 _atom_site_type_symbol
 _atom_site_label
 _atom_site_symmetry_multiplicity
 _atom_site_fract_x
 _atom_site_fract_y
 _atom_site_fract_z
 _atom_site_occupancy
  Dy  Dy0  1  0.460366  0.919374  0.750000  1
  Dy  Dy1  1  0.080626  0.539634  0.750000  1
  Lu  Lu2  1  0.999756  0.000244  0.499836  1
  Lu  Lu3  1  0.999756  0.000244  0.000164  1
  Lu  Lu4  1  0.209637  0.790363  0.440969  1
  Lu  Lu5  1  0.210772  0.419943  0.441219  1
  Lu  Lu6  1  0.580057  0.789228  0.441219  1
  Lu  Lu7  1  0.789361  0.210639  0.557175  1
  Lu  Lu8  1  0.788928  0.579678  0.557232  1
  Lu  Lu9  1  0.420322  0.211072  0.557232  1
  Lu  Lu10  1  0.789361  0.210639  0.942825  1
  Lu  Lu11  1  0.788928  0.579678  0.942768  1
  Lu  Lu12  1  0.420322  0.211072  0.942768  1
  Lu  Lu13  1  0.209637  0.790363  0.059031  1
  Lu  Lu14  1  0.210772  0.419943  0.058781  1
  Lu  Lu15  1  0.580057  0.789228  0.058781  1
  Lu  Lu16  1  0.541323  0.458677  0.250000  1
  Lu  Lu17  1  0.540511  0.080663  0.250000  1
  Lu  Lu18  1  0.919337  0.459489  0.250000  1
  Lu  Lu19  1  0.460879  0.539121  0.750000  1
  Cd  Cd20  1  0.886734  0.113266  0.250000  1
  Cd  Cd21  1  0.885767  0.772552  0.250000  1
  Cd  Cd22  1  0.227448  0.114233  0.250000  1
  Cd  Cd23  1  0.113033  0.886967  0.750000  1
  Cd  Cd24  1  0.115087  0.227239  0.750000  1
  Cd  Cd25  1  0.772761  0.884913  0.750000  1
  Ru  Ru26  1  0.332637  0.667363  0.250000  1
  Ru  Ru27  1  0.665822  0.334178  0.750000  1
