# generated using pymatgen
data_Tb9Pr(CoTe)4
_symmetry_space_group_name_H-M   'P 1'
_cell_length_a   7.88084041
_cell_length_b   7.88084000
_cell_length_c   15.20371500
_cell_angle_alpha   90.00000000
_cell_angle_beta   90.00000000
_cell_angle_gamma   150.37769256
_symmetry_Int_Tables_number   1
_chemical_formula_structural   Tb9Pr(CoTe)4
_chemical_formula_sum   'Tb9 Pr1 Co4 Te4'
_cell_volume   466.73257659
_cell_formula_units_Z   1
loop_
 _symmetry_equiv_pos_site_id
 _symmetry_equiv_pos_as_xyz
  1  'x, y, z'
loop_
 _atom_site_type_symbol
 _atom_site_label
 _atom_site_symmetry_multiplicity
 _atom_site_fract_x
 _atom_site_fract_y
 _atom_site_fract_z
 _atom_site_occupancy
  Tb  Tb0  1  0.960187  0.039813  0.126819  1
  Tb  Tb1  1  0.040970  0.959030  0.874380  1
  Tb  Tb2  1  0.040970  0.959030  0.625620  1
  Tb  Tb3  1  0.960187  0.039813  0.373181  1
  Tb  Tb4  1  0.740643  0.259357  0.630224  1
  Tb  Tb5  1  0.258307  0.741693  0.368569  1
  Tb  Tb6  1  0.258307  0.741693  0.131431  1
  Tb  Tb7  1  0.740643  0.259357  0.869776  1
  Tb  Tb8  1  0.605083  0.394917  0.250000  1
  Pr  Pr9  1  0.394538  0.605462  0.750000  1
  Co  Co10  1  0.410997  0.589003  0.250000  1
  Co  Co11  1  0.590273  0.409727  0.750000  1
  Co  Co12  1  0.820534  0.179466  0.250000  1
  Co  Co13  1  0.178792  0.821208  0.750000  1
  Te  Te14  1  0.617612  0.382388  0.038747  1
  Te  Te15  1  0.382172  0.617828  0.963854  1
  Te  Te16  1  0.382172  0.617828  0.536146  1
  Te  Te17  1  0.617612  0.382388  0.461253  1
