# generated using pymatgen
data_Pr4Hf3PtF28
_symmetry_space_group_name_H-M   'P 1'
_cell_length_a   5.81500709
_cell_length_b   9.33227490
_cell_length_c   12.52127870
_cell_angle_alpha   62.01471389
_cell_angle_beta   89.96965705
_cell_angle_gamma   89.92951969
_symmetry_Int_Tables_number   1
_chemical_formula_structural   Pr4Hf3PtF28
_chemical_formula_sum   'Pr4 Hf3 Pt1 F28'
_cell_volume   600.04018210
_cell_formula_units_Z   1
loop_
 _symmetry_equiv_pos_site_id
 _symmetry_equiv_pos_as_xyz
  1  'x, y, z'
loop_
 _atom_site_type_symbol
 _atom_site_label
 _atom_site_symmetry_multiplicity
 _atom_site_fract_x
 _atom_site_fract_y
 _atom_site_fract_z
 _atom_site_occupancy
  Pr  Pr0  1  0.757957  0.813327  0.764393  1
  Pr  Pr1  1  0.257431  0.187859  0.732893  1
  Pr  Pr2  1  0.240644  0.187458  0.238610  1
  Pr  Pr3  1  0.742921  0.810003  0.266173  1
  Hf  Hf4  1  0.754622  0.273482  0.957732  1
  Hf  Hf5  1  0.255201  0.725403  0.543148  1
  Hf  Hf6  1  0.245245  0.725649  0.043014  1
  Pt  Pt7  1  0.741971  0.273214  0.456969  1
  F  F8  1  0.451618  0.711064  0.920115  1
  F  F9  1  0.931661  0.292087  0.580489  1
  F  F10  1  0.545832  0.287520  0.080126  1
  F  F11  1  0.050475  0.712260  0.419684  1
  F  F12  1  0.456941  0.282115  0.539778  1
  F  F13  1  0.958421  0.719559  0.954289  1
  F  F14  1  0.542437  0.717366  0.455787  1
  F  F15  1  0.039366  0.279666  0.047810  1
  F  F16  1  0.770024  0.516501  0.862626  1
  F  F17  1  0.267266  0.482228  0.637197  1
  F  F18  1  0.228636  0.482894  0.138628  1
  F  F19  1  0.734196  0.512056  0.361788  1
  F  F20  1  0.760765  0.030972  0.055791  1
  F  F21  1  0.262018  0.967803  0.446290  1
  F  F22  1  0.238823  0.968087  0.943237  1
  F  F23  1  0.741613  0.034265  0.548494  1
  F  F24  1  0.980316  0.731581  0.638051  1
  F  F25  1  0.483201  0.267767  0.860576  1
  F  F26  1  0.022268  0.271196  0.369071  1
  F  F27  1  0.519078  0.731616  0.138187  1
  F  F28  1  0.048492  0.745729  0.167872  1
  F  F29  1  0.555935  0.259532  0.330193  1
  F  F30  1  0.956334  0.255251  0.833030  1
  F  F31  1  0.453892  0.743703  0.668325  1
  F  F32  1  0.413267  0.968592  0.232853  1
  F  F33  1  0.912955  0.031345  0.269479  1
  F  F34  1  0.588224  0.033634  0.767889  1
  F  F35  1  0.089953  0.967216  0.729416  1
