# generated using pymatgen
data_YEr(Al3Rh)3
_symmetry_space_group_name_H-M   'P 1'
_cell_length_a   7.54538100
_cell_length_b   7.55299450
_cell_length_c   9.46735501
_cell_angle_alpha   89.99835902
_cell_angle_beta   90.00385960
_cell_angle_gamma   119.30304456
_symmetry_Int_Tables_number   1
_chemical_formula_structural   YEr(Al3Rh)3
_chemical_formula_sum   'Y2 Er2 Al18 Rh6'
_cell_volume   470.50802716
_cell_formula_units_Z   2
loop_
 _symmetry_equiv_pos_site_id
 _symmetry_equiv_pos_as_xyz
  1  'x, y, z'
loop_
 _atom_site_type_symbol
 _atom_site_label
 _atom_site_symmetry_multiplicity
 _atom_site_fract_x
 _atom_site_fract_y
 _atom_site_fract_z
 _atom_site_occupancy
  Y  Y0  1  0.994466  0.671569  0.750034  1
  Y  Y1  1  0.005534  0.328431  0.249966  1
  Er  Er2  1  0.671761  0.994505  0.750079  1
  Er  Er3  1  0.328239  0.005495  0.249921  1
  Al  Al4  1  0.127980  0.128353  0.749997  1
  Al  Al5  1  0.872020  0.871647  0.250003  1
  Al  Al6  1  0.000638  0.334887  0.575192  1
  Al  Al7  1  0.999362  0.665113  0.424808  1
  Al  Al8  1  0.999337  0.665095  0.075168  1
  Al  Al9  1  0.336181  0.001196  0.925708  1
  Al  Al10  1  0.000663  0.334905  0.924832  1
  Al  Al11  1  0.663819  0.998804  0.074292  1
  Al  Al12  1  0.663805  0.998819  0.425705  1
  Al  Al13  1  0.336195  0.001181  0.574295  1
  Al  Al14  1  0.333363  0.332761  0.049606  1
  Al  Al15  1  0.666637  0.667239  0.950394  1
  Al  Al16  1  0.666608  0.667214  0.549583  1
  Al  Al17  1  0.333392  0.332786  0.450417  1
  Al  Al18  1  0.340577  0.550651  0.750015  1
  Al  Al19  1  0.659423  0.449349  0.249985  1
  Al  Al20  1  0.549484  0.338214  0.750017  1
  Al  Al21  1  0.450516  0.661786  0.249983  1
  Rh  Rh22  1  0.671871  0.327862  0.499984  1
  Rh  Rh23  1  0.328129  0.672138  0.500016  1
  Rh  Rh24  1  0.328105  0.672175  0.999970  1
  Rh  Rh25  1  0.671895  0.327825  0.000030  1
  Rh  Rh26  1  0.000000  0.000000  0.500000  1
  Rh  Rh27  1  0.000000  0.000000  0.000000  1
