# generated using pymatgen
data_Li3Nb2Ni9As7
_symmetry_space_group_name_H-M   'P 1'
_cell_length_a   9.48545862
_cell_length_b   9.50687964
_cell_length_c   3.76878700
_cell_angle_alpha   90.00000000
_cell_angle_beta   90.00000000
_cell_angle_gamma   119.63636136
_symmetry_Int_Tables_number   1
_chemical_formula_structural   Li3Nb2Ni9As7
_chemical_formula_sum   'Li3 Nb2 Ni9 As7'
_cell_volume   295.39850289
_cell_formula_units_Z   1
loop_
 _symmetry_equiv_pos_site_id
 _symmetry_equiv_pos_as_xyz
  1  'x, y, z'
loop_
 _atom_site_type_symbol
 _atom_site_label
 _atom_site_symmetry_multiplicity
 _atom_site_fract_x
 _atom_site_fract_y
 _atom_site_fract_z
 _atom_site_occupancy
  Li  Li0  1  0.793434  0.229299  0.500000  1
  Li  Li1  1  0.328421  0.664221  0.000000  1
  Li  Li2  1  0.998377  0.999389  0.500000  1
  Nb  Nb3  1  0.760523  0.555673  0.500000  1
  Nb  Nb4  1  0.445445  0.210576  0.500000  1
  Ni  Ni5  1  0.278117  0.382899  0.500000  1
  Ni  Ni6  1  0.626368  0.904487  0.500000  1
  Ni  Ni7  1  0.101423  0.719809  0.500000  1
  Ni  Ni8  1  0.502181  0.456906  0.000000  1
  Ni  Ni9  1  0.548758  0.045088  0.000000  1
  Ni  Ni10  1  0.952269  0.495402  0.000000  1
  Ni  Ni11  1  0.720719  0.762441  0.000000  1
  Ni  Ni12  1  0.239827  0.962017  0.000000  1
  Ni  Ni13  1  0.039203  0.278554  0.000000  1
  As  As14  1  0.968232  0.759793  0.000000  1
  As  As15  1  0.240824  0.209894  0.000000  1
  As  As16  1  0.794589  0.034290  0.000000  1
  As  As17  1  0.669662  0.330327  0.000000  1
  As  As18  1  0.530363  0.626160  0.500000  1
  As  As19  1  0.375432  0.908726  0.500000  1
  As  As20  1  0.085832  0.464050  0.500000  1
