# generated using pymatgen
data_Li2Ni5P7Ir3Ru4
_symmetry_space_group_name_H-M   'P 1'
_cell_length_a   9.31024192
_cell_length_b   9.28369325
_cell_length_c   3.71470800
_cell_angle_alpha   90.00000000
_cell_angle_beta   90.00000000
_cell_angle_gamma   120.50116308
_symmetry_Int_Tables_number   1
_chemical_formula_structural   Li2Ni5P7Ir3Ru4
_chemical_formula_sum   'Li2 Ni5 P7 Ir3 Ru4'
_cell_volume   276.64423526
_cell_formula_units_Z   1
loop_
 _symmetry_equiv_pos_site_id
 _symmetry_equiv_pos_as_xyz
  1  'x, y, z'
loop_
 _atom_site_type_symbol
 _atom_site_label
 _atom_site_symmetry_multiplicity
 _atom_site_fract_x
 _atom_site_fract_y
 _atom_site_fract_z
 _atom_site_occupancy
  Li  Li0  1  0.000134  0.000070  0.000000  1
  Li  Li1  1  0.336017  0.669303  0.500000  1
  Ni  Ni2  1  0.300726  0.896285  0.000000  1
  Ni  Ni3  1  0.602034  0.699355  0.000000  1
  Ni  Ni4  1  0.828402  0.615738  0.000000  1
  Ni  Ni5  1  0.778837  0.166623  0.000000  1
  Ni  Ni6  1  0.386206  0.210970  0.000000  1
  P  P7  1  0.665986  0.331844  0.000000  1
  P  P8  1  0.081847  0.634812  0.000000  1
  P  P9  1  0.541814  0.912151  0.000000  1
  P  P10  1  0.376294  0.450600  0.000000  1
  P  P11  1  0.787518  0.740764  0.500000  1
  P  P12  1  0.952092  0.213327  0.500000  1
  P  P13  1  0.261515  0.051186  0.500000  1
  Ir  Ir14  1  0.102521  0.403786  0.000000  1
  Ir  Ir15  1  0.057557  0.776634  0.500000  1
  Ir  Ir16  1  0.710743  0.939586  0.500000  1
  Ru  Ru17  1  0.229711  0.282120  0.500000  1
  Ru  Ru18  1  0.874465  0.420386  0.500000  1
  Ru  Ru19  1  0.541478  0.125613  0.500000  1
  Ru  Ru20  1  0.584106  0.458845  0.500000  1
