# generated using pymatgen
data_Nb5Zn(B2Ru5)2
_symmetry_space_group_name_H-M   'P 1'
_cell_length_a   9.39840300
_cell_length_b   9.39840300
_cell_length_c   3.01849500
_cell_angle_alpha   90.00000000
_cell_angle_beta   90.00000000
_cell_angle_gamma   90.00000000
_symmetry_Int_Tables_number   1
_chemical_formula_structural   Nb5Zn(B2Ru5)2
_chemical_formula_sum   'Nb5 Zn1 B4 Ru10'
_cell_volume   266.62359981
_cell_formula_units_Z   1
loop_
 _symmetry_equiv_pos_site_id
 _symmetry_equiv_pos_as_xyz
  1  'x, y, z'
loop_
 _atom_site_type_symbol
 _atom_site_label
 _atom_site_symmetry_multiplicity
 _atom_site_fract_x
 _atom_site_fract_y
 _atom_site_fract_z
 _atom_site_occupancy
  Nb  Nb0  1  0.820624  0.675145  0.000000  1
  Nb  Nb1  1  0.179376  0.324855  0.000000  1
  Nb  Nb2  1  0.324855  0.820624  0.000000  1
  Nb  Nb3  1  0.675145  0.179376  0.000000  1
  Nb  Nb4  1  0.000000  0.000000  0.000000  1
  Zn  Zn5  1  0.500000  0.500000  0.000000  1
  B  B6  1  0.616242  0.870185  0.000000  1
  B  B7  1  0.383758  0.129815  0.000000  1
  B  B8  1  0.129815  0.616242  0.000000  1
  B  B9  1  0.870185  0.383758  0.000000  1
  Ru  Ru10  1  0.569121  0.715436  0.500000  1
  Ru  Ru11  1  0.430879  0.284564  0.500000  1
  Ru  Ru12  1  0.071065  0.780164  0.500000  1
  Ru  Ru13  1  0.928935  0.219836  0.500000  1
  Ru  Ru14  1  0.284564  0.569121  0.500000  1
  Ru  Ru15  1  0.715436  0.430879  0.500000  1
  Ru  Ru16  1  0.219836  0.071065  0.500000  1
  Ru  Ru17  1  0.780164  0.928935  0.500000  1
  Ru  Ru18  1  0.500000  0.000000  0.500000  1
  Ru  Ru19  1  0.000000  0.500000  0.500000  1
