# generated using pymatgen
data_Tb3YAl4OsPd3
_symmetry_space_group_name_H-M   'P 1'
_cell_length_a   4.38434800
_cell_length_b   6.92460216
_cell_length_c   7.88659460
_cell_angle_alpha   90.10931071
_cell_angle_beta   90.00000000
_cell_angle_gamma   90.00000000
_symmetry_Int_Tables_number   1
_chemical_formula_structural   Tb3YAl4OsPd3
_chemical_formula_sum   'Tb3 Y1 Al4 Os1 Pd3'
_cell_volume   239.43551652
_cell_formula_units_Z   1
loop_
 _symmetry_equiv_pos_site_id
 _symmetry_equiv_pos_as_xyz
  1  'x, y, z'
loop_
 _atom_site_type_symbol
 _atom_site_label
 _atom_site_symmetry_multiplicity
 _atom_site_fract_x
 _atom_site_fract_y
 _atom_site_fract_z
 _atom_site_occupancy
  Tb  Tb0  1  0.250000  0.034378  0.321816  1
  Tb  Tb1  1  0.750000  0.980441  0.679062  1
  Tb  Tb2  1  0.750000  0.464755  0.814862  1
  Y  Y3  1  0.250000  0.530459  0.181491  1
  Al  Al4  1  0.250000  0.145877  0.935202  1
  Al  Al5  1  0.250000  0.638461  0.562122  1
  Al  Al6  1  0.750000  0.855625  0.060995  1
  Al  Al7  1  0.750000  0.353873  0.441622  1
  Os  Os8  1  0.250000  0.268798  0.620904  1
  Pd  Pd9  1  0.250000  0.775104  0.882424  1
  Pd  Pd10  1  0.750000  0.726401  0.379307  1
  Pd  Pd11  1  0.750000  0.225827  0.120192  1
