# generated using pymatgen
data_Ti2Ga2TcRh3
_symmetry_space_group_name_H-M   'P 1'
_cell_length_a   4.34101300
_cell_length_b   6.17598700
_cell_length_c   12.96403301
_cell_angle_alpha   89.99549559
_cell_angle_beta   89.99943991
_cell_angle_gamma   89.99980163
_symmetry_Int_Tables_number   1
_chemical_formula_structural   Ti2Ga2TcRh3
_chemical_formula_sum   'Ti6 Ga6 Tc3 Rh9'
_cell_volume   347.56624086
_cell_formula_units_Z   3
loop_
 _symmetry_equiv_pos_site_id
 _symmetry_equiv_pos_as_xyz
  1  'x, y, z'
loop_
 _atom_site_type_symbol
 _atom_site_label
 _atom_site_symmetry_multiplicity
 _atom_site_fract_x
 _atom_site_fract_y
 _atom_site_fract_z
 _atom_site_occupancy
  Ti  Ti0  1  0.000004  0.003475  0.002264  1
  Ti  Ti1  1  0.500060  0.493644  0.162121  1
  Ti  Ti2  1  0.000047  0.003909  0.328366  1
  Ti  Ti3  1  0.500000  0.500945  0.499384  1
  Ti  Ti4  1  0.999952  0.999388  0.668627  1
  Ti  Ti5  1  0.499943  0.501247  0.839780  1
  Ga  Ga6  1  0.999998  0.498514  0.001416  1
  Ga  Ga7  1  0.500074  0.000967  0.163949  1
  Ga  Ga8  1  0.000091  0.500400  0.332617  1
  Ga  Ga9  1  0.500007  0.999550  0.500434  1
  Ga  Ga10  1  0.999886  0.500630  0.666435  1
  Ga  Ga11  1  0.499932  0.999549  0.835083  1
  Tc  Tc12  1  0.500009  0.251338  0.998098  1
  Tc  Tc13  1  0.500001  0.746857  0.997615  1
  Tc  Tc14  1  0.000085  0.248706  0.170837  1
  Rh  Rh15  1  0.000071  0.751120  0.169110  1
  Rh  Rh16  1  0.500088  0.247786  0.338005  1
  Rh  Rh17  1  0.500075  0.752378  0.337187  1
  Rh  Rh18  1  0.000001  0.250377  0.501437  1
  Rh  Rh19  1  0.000007  0.749052  0.501136  1
  Rh  Rh20  1  0.499905  0.248232  0.663784  1
  Rh  Rh21  1  0.499896  0.751151  0.664406  1
  Rh  Rh22  1  0.999933  0.251086  0.828607  1
  Rh  Rh23  1  0.999926  0.749698  0.829301  1
