# generated using pymatgen
data_Re2PdO8
_symmetry_space_group_name_H-M   'P 1'
_cell_length_a   5.96037401
_cell_length_b   5.96037404
_cell_length_c   6.52420400
_cell_angle_alpha   90.00000000
_cell_angle_beta   90.00000000
_cell_angle_gamma   120.00000631
_symmetry_Int_Tables_number   1
_chemical_formula_structural   Re2PdO8
_chemical_formula_sum   'Re2 Pd1 O8'
_cell_volume   200.72670836
_cell_formula_units_Z   1
loop_
 _symmetry_equiv_pos_site_id
 _symmetry_equiv_pos_as_xyz
  1  'x, y, z'
loop_
 _atom_site_type_symbol
 _atom_site_label
 _atom_site_symmetry_multiplicity
 _atom_site_fract_x
 _atom_site_fract_y
 _atom_site_fract_z
 _atom_site_occupancy
  Re  Re0  1  0.666667  0.333333  0.724685  1
  Re  Re1  1  0.333333  0.666667  0.275315  1
  Pd  Pd2  1  0.000000  0.000000  0.000000  1
  O  O3  1  0.345569  0.200303  0.812040  1
  O  O4  1  0.200303  0.854734  0.187960  1
  O  O5  1  0.145266  0.345569  0.187960  1
  O  O6  1  0.666667  0.333333  0.458450  1
  O  O7  1  0.333333  0.666667  0.541550  1
  O  O8  1  0.854734  0.654431  0.812040  1
  O  O9  1  0.799697  0.145266  0.812040  1
  O  O10  1  0.654431  0.799697  0.187960  1
