# generated using pymatgen
data_Pr10AlSi4Ir
_symmetry_space_group_name_H-M   'P 1'
_cell_length_a   7.74019300
_cell_length_b   9.26202861
_cell_length_c   7.74019300
_cell_angle_alpha   114.69863960
_cell_angle_beta   90.00000000
_cell_angle_gamma   114.69863960
_symmetry_Int_Tables_number   1
_chemical_formula_structural   Pr10AlSi4Ir
_chemical_formula_sum   'Pr10 Al1 Si4 Ir1'
_cell_volume   447.64825658
_cell_formula_units_Z   1
loop_
 _symmetry_equiv_pos_site_id
 _symmetry_equiv_pos_as_xyz
  1  'x, y, z'
loop_
 _atom_site_type_symbol
 _atom_site_label
 _atom_site_symmetry_multiplicity
 _atom_site_fract_x
 _atom_site_fract_y
 _atom_site_fract_z
 _atom_site_occupancy
  Pr  Pr0  1  0.969656  0.939312  0.969656  1
  Pr  Pr1  1  0.530344  0.060688  0.530344  1
  Pr  Pr2  1  0.517368  0.716781  0.662234  1
  Pr  Pr3  1  0.199415  0.716781  0.054549  1
  Pr  Pr4  1  0.662234  0.716781  0.199415  1
  Pr  Pr5  1  0.054549  0.716781  0.517368  1
  Pr  Pr6  1  0.445451  0.283219  0.300585  1
  Pr  Pr7  1  0.837766  0.283219  0.982632  1
  Pr  Pr8  1  0.300585  0.283219  0.837766  1
  Pr  Pr9  1  0.982632  0.283219  0.445451  1
  Al  Al10  1  0.750000  0.500000  0.750000  1
  Si  Si11  1  0.885755  0.000000  0.614245  1
  Si  Si12  1  0.114245  0.000000  0.385755  1
  Si  Si13  1  0.614245  0.000000  0.114245  1
  Si  Si14  1  0.385755  0.000000  0.885755  1
  Ir  Ir15  1  0.250000  0.500000  0.250000  1
