# generated using pymatgen
data_Dy3Cd5Rh
_symmetry_space_group_name_H-M   'P 1'
_cell_length_a   8.13082400
_cell_length_b   8.13082338
_cell_length_c   3.75819300
_cell_angle_alpha   90.00000000
_cell_angle_beta   90.00000000
_cell_angle_gamma   119.99999438
_symmetry_Int_Tables_number   1
_chemical_formula_structural   Dy3Cd5Rh
_chemical_formula_sum   'Dy3 Cd5 Rh1'
_cell_volume   215.16856493
_cell_formula_units_Z   1
loop_
 _symmetry_equiv_pos_site_id
 _symmetry_equiv_pos_as_xyz
  1  'x, y, z'
loop_
 _atom_site_type_symbol
 _atom_site_label
 _atom_site_symmetry_multiplicity
 _atom_site_fract_x
 _atom_site_fract_y
 _atom_site_fract_z
 _atom_site_occupancy
  Dy  Dy0  1  0.573169  0.957234  0.000000  1
  Dy  Dy1  1  0.042766  0.615934  0.000000  1
  Dy  Dy2  1  0.384066  0.426831  0.000000  1
  Cd  Cd3  1  0.279272  0.006185  0.500000  1
  Cd  Cd4  1  0.993815  0.273087  0.500000  1
  Cd  Cd5  1  0.726913  0.720728  0.500000  1
  Cd  Cd6  1  0.666667  0.333333  0.500000  1
  Cd  Cd7  1  0.000000  0.000000  0.000000  1
  Rh  Rh8  1  0.333333  0.666667  0.500000  1
