# generated using pymatgen
data_Pr12Nd2IrPt5
_symmetry_space_group_name_H-M   'P 1'
_cell_length_a   6.50780120
_cell_length_b   10.25559068
_cell_length_c   10.25558903
_cell_angle_alpha   120.01713827
_cell_angle_beta   89.86392415
_cell_angle_gamma   90.13606662
_symmetry_Int_Tables_number   1
_chemical_formula_structural   Pr12Nd2IrPt5
_chemical_formula_sum   'Pr12 Nd2 Ir1 Pt5'
_cell_volume   592.66535085
_cell_formula_units_Z   1
loop_
 _symmetry_equiv_pos_site_id
 _symmetry_equiv_pos_as_xyz
  1  'x, y, z'
loop_
 _atom_site_type_symbol
 _atom_site_label
 _atom_site_symmetry_multiplicity
 _atom_site_fract_x
 _atom_site_fract_y
 _atom_site_fract_z
 _atom_site_occupancy
  Pr  Pr0  1  0.242052  0.128264  0.871736  1
  Pr  Pr1  1  0.241805  0.746581  0.877619  1
  Pr  Pr2  1  0.241805  0.122381  0.253419  1
  Pr  Pr3  1  0.747798  0.871926  0.128074  1
  Pr  Pr4  1  0.742810  0.255757  0.127401  1
  Pr  Pr5  1  0.742810  0.872599  0.744243  1
  Pr  Pr6  1  0.443842  0.537091  0.462909  1
  Pr  Pr7  1  0.441237  0.921775  0.458003  1
  Pr  Pr8  1  0.441237  0.541997  0.078225  1
  Pr  Pr9  1  0.943640  0.463114  0.536886  1
  Pr  Pr10  1  0.942606  0.074941  0.536351  1
  Pr  Pr11  1  0.942606  0.463649  0.925059  1
  Nd  Nd12  1  0.459373  0.333239  0.666761  1
  Nd  Nd13  1  0.965370  0.668335  0.331665  1
  Ir  Ir14  1  0.190013  0.810708  0.189292  1
  Pt  Pt15  1  0.191362  0.376578  0.189477  1
  Pt  Pt16  1  0.191362  0.810523  0.623422  1
  Pt  Pt17  1  0.691812  0.188977  0.811023  1
  Pt  Pt18  1  0.691229  0.622040  0.810475  1
  Pt  Pt19  1  0.691229  0.189525  0.377960  1
