# generated using pymatgen
data_Li3La2NdInSi2
_symmetry_space_group_name_H-M   'P 1'
_cell_length_a   7.56935100
_cell_length_b   7.55112420
_cell_length_c   4.42022800
_cell_angle_alpha   90.00000000
_cell_angle_beta   90.00000000
_cell_angle_gamma   120.07988395
_symmetry_Int_Tables_number   1
_chemical_formula_structural   Li3La2NdInSi2
_chemical_formula_sum   'Li3 La2 Nd1 In1 Si2'
_cell_volume   218.62277711
_cell_formula_units_Z   1
loop_
 _symmetry_equiv_pos_site_id
 _symmetry_equiv_pos_as_xyz
  1  'x, y, z'
loop_
 _atom_site_type_symbol
 _atom_site_label
 _atom_site_symmetry_multiplicity
 _atom_site_fract_x
 _atom_site_fract_y
 _atom_site_fract_z
 _atom_site_occupancy
  Li  Li0  1  0.747771  0.751223  0.500000  1
  Li  Li1  1  0.253440  0.000000  0.500000  1
  Li  Li2  1  0.996548  0.248777  0.500000  1
  La  La3  1  0.000327  0.561948  0.000000  1
  La  La4  1  0.438380  0.438052  0.000000  1
  Nd  Nd5  1  0.561967  0.000000  0.000000  1
  In  In6  1  0.998109  0.000000  0.000000  1
  Si  Si7  1  0.337721  0.671984  0.500000  1
  Si  Si8  1  0.665737  0.328016  0.500000  1
