# generated using pymatgen
data_Pr4Mn5Fe(PtO10)2
_symmetry_space_group_name_H-M   'P 1'
_cell_length_a   5.93805723
_cell_length_b   7.64013871
_cell_length_c   8.84396827
_cell_angle_alpha   90.19005725
_cell_angle_beta   89.97962626
_cell_angle_gamma   90.02419914
_symmetry_Int_Tables_number   1
_chemical_formula_structural   Pr4Mn5Fe(PtO10)2
_chemical_formula_sum   'Pr4 Mn5 Fe1 Pt2 O20'
_cell_volume   401.22717720
_cell_formula_units_Z   1
loop_
 _symmetry_equiv_pos_site_id
 _symmetry_equiv_pos_as_xyz
  1  'x, y, z'
loop_
 _atom_site_type_symbol
 _atom_site_label
 _atom_site_symmetry_multiplicity
 _atom_site_fract_x
 _atom_site_fract_y
 _atom_site_fract_z
 _atom_site_occupancy
  Pr  Pr0  1  0.002617  0.358338  0.670093  1
  Pr  Pr1  1  0.003030  0.640066  0.329784  1
  Pr  Pr2  1  0.997049  0.863138  0.828237  1
  Pr  Pr3  1  0.996651  0.136400  0.171838  1
  Mn  Mn4  1  0.495539  0.911991  0.147923  1
  Mn  Mn5  1  0.504293  0.587883  0.648455  1
  Mn  Mn6  1  0.504249  0.413172  0.350836  1
  Mn  Mn7  1  0.743519  0.500617  0.000136  1
  Mn  Mn8  1  0.259179  0.999799  0.499897  1
  Fe  Fe9  1  0.495335  0.105472  0.855719  1
  Pt  Pt10  1  0.253449  0.499278  0.999655  1
  Pt  Pt11  1  0.745865  0.999901  0.499842  1
  O  O12  1  0.247703  0.900493  0.292953  1
  O  O13  1  0.247806  0.097992  0.707257  1
  O  O14  1  0.751885  0.401735  0.206143  1
  O  O15  1  0.752241  0.596587  0.793216  1
  O  O16  1  0.753808  0.099822  0.714010  1
  O  O17  1  0.752614  0.897913  0.286237  1
  O  O18  1  0.246686  0.599603  0.786032  1
  O  O19  1  0.246756  0.399199  0.213348  1
  O  O20  1  0.509904  0.342792  0.934031  1
  O  O21  1  0.511353  0.654926  0.064113  1
  O  O22  1  0.489066  0.843477  0.563821  1
  O  O23  1  0.489268  0.156574  0.435747  1
  O  O24  1  0.272588  0.998256  0.001343  1
  O  O25  1  0.725610  0.500035  0.499693  1
  O  O26  1  0.717380  0.998192  0.001220  1
  O  O27  1  0.283958  0.500038  0.499689  1
  O  O28  1  0.012943  0.161140  0.445308  1
  O  O29  1  0.012687  0.838467  0.554100  1
  O  O30  1  0.987860  0.659304  0.053753  1
  O  O31  1  0.987110  0.337403  0.945570  1
