# generated using pymatgen
data_AsP(Pd3Pb2)2
_symmetry_space_group_name_H-M   'P 1'
_cell_length_a   6.97741392
_cell_length_b   6.97741311
_cell_length_c   5.87542955
_cell_angle_alpha   89.92942698
_cell_angle_beta   89.92942926
_cell_angle_gamma   121.33578089
_symmetry_Int_Tables_number   1
_chemical_formula_structural   AsP(Pd3Pb2)2
_chemical_formula_sum   'As1 P1 Pd6 Pb4'
_cell_volume   244.31678199
_cell_formula_units_Z   1
loop_
 _symmetry_equiv_pos_site_id
 _symmetry_equiv_pos_as_xyz
  1  'x, y, z'
loop_
 _atom_site_type_symbol
 _atom_site_label
 _atom_site_symmetry_multiplicity
 _atom_site_fract_x
 _atom_site_fract_y
 _atom_site_fract_z
 _atom_site_occupancy
  As  As0  1  0.291258  0.291258  0.795141  1
  P  P1  1  0.701317  0.701317  0.289899  1
  Pd  Pd2  1  0.667198  0.432089  0.006866  1
  Pd  Pd3  1  0.344749  0.579608  0.496117  1
  Pd  Pd4  1  0.938270  0.938270  0.988524  1
  Pd  Pd5  1  0.044888  0.044888  0.476682  1
  Pd  Pd6  1  0.432089  0.667198  0.006866  1
  Pd  Pd7  1  0.579608  0.344749  0.496117  1
  Pb  Pb8  1  0.019107  0.659348  0.689752  1
  Pb  Pb9  1  0.981333  0.340836  0.192142  1
  Pb  Pb10  1  0.340836  0.981333  0.192142  1
  Pb  Pb11  1  0.659348  0.019107  0.689752  1
