# generated using pymatgen
data_Nd3Er13(CdIr)4
_symmetry_space_group_name_H-M   'P 1'
_cell_length_a   9.62696274
_cell_length_b   9.63870003
_cell_length_c   9.63122996
_cell_angle_alpha   59.94504786
_cell_angle_beta   59.80562510
_cell_angle_gamma   59.98896854
_symmetry_Int_Tables_number   1
_chemical_formula_structural   Nd3Er13(CdIr)4
_chemical_formula_sum   'Nd3 Er13 Cd4 Ir4'
_cell_volume   630.69041276
_cell_formula_units_Z   1
loop_
 _symmetry_equiv_pos_site_id
 _symmetry_equiv_pos_as_xyz
  1  'x, y, z'
loop_
 _atom_site_type_symbol
 _atom_site_label
 _atom_site_symmetry_multiplicity
 _atom_site_fract_x
 _atom_site_fract_y
 _atom_site_fract_z
 _atom_site_occupancy
  Nd  Nd0  1  0.939013  0.560987  0.939013  1
  Nd  Nd1  1  0.564119  0.567756  0.933360  1
  Nd  Nd2  1  0.933360  0.934764  0.564119  1
  Er  Er3  1  0.351345  0.347603  0.347222  1
  Er  Er4  1  0.350871  0.350109  0.956087  1
  Er  Er5  1  0.347222  0.953830  0.351345  1
  Er  Er6  1  0.956087  0.342934  0.350871  1
  Er  Er7  1  0.812476  0.186772  0.187190  1
  Er  Er8  1  0.187190  0.813562  0.812476  1
  Er  Er9  1  0.188314  0.811686  0.188314  1
  Er  Er10  1  0.812095  0.187905  0.812095  1
  Er  Er11  1  0.189498  0.190230  0.809415  1
  Er  Er12  1  0.809415  0.810857  0.189498  1
  Er  Er13  1  0.942998  0.558007  0.551939  1
  Er  Er14  1  0.551939  0.947057  0.942998  1
  Er  Er15  1  0.557860  0.942140  0.557860  1
  Cd  Cd16  1  0.582232  0.581488  0.577882  1
  Cd  Cd17  1  0.578747  0.582597  0.259442  1
  Cd  Cd18  1  0.577882  0.258397  0.582232  1
  Cd  Cd19  1  0.259442  0.579213  0.578747  1
  Ir  Ir20  1  0.148634  0.138877  0.137963  1
  Ir  Ir21  1  0.145658  0.142621  0.575639  1
  Ir  Ir22  1  0.137963  0.574524  0.148634  1
  Ir  Ir23  1  0.575639  0.136081  0.145658  1
