# generated using pymatgen
data_Sc2Ti(GaPt)3
_symmetry_space_group_name_H-M   'P 1'
_cell_length_a   7.21910322
_cell_length_b   7.22608818
_cell_length_c   6.82072800
_cell_angle_alpha   90.00000000
_cell_angle_beta   90.00000000
_cell_angle_gamma   120.27151813
_symmetry_Int_Tables_number   1
_chemical_formula_structural   Sc2Ti(GaPt)3
_chemical_formula_sum   'Sc4 Ti2 Ga6 Pt6'
_cell_volume   307.29332625
_cell_formula_units_Z   2
loop_
 _symmetry_equiv_pos_site_id
 _symmetry_equiv_pos_as_xyz
  1  'x, y, z'
loop_
 _atom_site_type_symbol
 _atom_site_label
 _atom_site_symmetry_multiplicity
 _atom_site_fract_x
 _atom_site_fract_y
 _atom_site_fract_z
 _atom_site_occupancy
  Sc  Sc0  1  0.393967  0.390974  0.250000  1
  Sc  Sc1  1  0.599352  0.997852  0.750000  1
  Sc  Sc2  1  0.399513  0.402598  0.750000  1
  Sc  Sc3  1  0.004220  0.602499  0.750000  1
  Ti  Ti4  1  0.995567  0.605642  0.250000  1
  Ti  Ti5  1  0.608856  0.002138  0.250000  1
  Ga  Ga6  1  0.271746  0.999895  0.007266  1
  Ga  Ga7  1  0.271746  0.999895  0.492734  1
  Ga  Ga8  1  0.000492  0.271970  0.492774  1
  Ga  Ga9  1  0.000492  0.271970  0.007226  1
  Ga  Ga10  1  0.726220  0.726323  0.998696  1
  Ga  Ga11  1  0.726220  0.726323  0.501304  1
  Pt  Pt12  1  0.672175  0.333065  0.488553  1
  Pt  Pt13  1  0.002091  0.001984  0.750000  1
  Pt  Pt14  1  0.672175  0.333065  0.011447  1
  Pt  Pt15  1  0.332475  0.671717  0.019103  1
  Pt  Pt16  1  0.332475  0.671717  0.480897  1
  Pt  Pt17  1  0.990218  0.990372  0.250000  1
