# generated using pymatgen
data_NdNi3B
_symmetry_space_group_name_H-M   'P 1'
_cell_length_a   5.98496974
_cell_length_b   5.98497083
_cell_length_c   5.98496984
_cell_angle_alpha   131.23253505
_cell_angle_beta   106.89930273
_cell_angle_gamma   92.87705361
_symmetry_Int_Tables_number   1
_chemical_formula_structural   NdNi3B
_chemical_formula_sum   'Nd2 Ni6 B2'
_cell_volume   145.29124570
_cell_formula_units_Z   2
loop_
 _symmetry_equiv_pos_site_id
 _symmetry_equiv_pos_as_xyz
  1  'x, y, z'
loop_
 _atom_site_type_symbol
 _atom_site_label
 _atom_site_symmetry_multiplicity
 _atom_site_fract_x
 _atom_site_fract_y
 _atom_site_fract_z
 _atom_site_occupancy
  Nd  Nd0  1  0.817783  0.567783  0.250000  1
  Nd  Nd1  1  0.182217  0.432217  0.750000  1
  Ni  Ni2  1  0.323538  0.500000  0.323538  1
  Ni  Ni3  1  0.676462  0.500000  0.676462  1
  Ni  Ni4  1  0.676462  0.000000  0.176462  1
  Ni  Ni5  1  0.323538  0.000000  0.823538  1
  Ni  Ni6  1  0.000000  0.000000  0.000000  1
  Ni  Ni7  1  0.500000  0.000000  0.500000  1
  B  B8  1  0.380836  0.130836  0.250000  1
  B  B9  1  0.619164  0.869164  0.750000  1
