# generated using pymatgen
data_SrP7
_symmetry_space_group_name_H-M   'P 1'
_cell_length_a   5.77256400
_cell_length_b   10.94165740
_cell_length_c   13.73806066
_cell_angle_alpha   55.50225140
_cell_angle_beta   90.00000000
_cell_angle_gamma   90.00000000
_symmetry_Int_Tables_number   1
_chemical_formula_structural   SrP7
_chemical_formula_sum   'Sr4 P28'
_cell_volume   715.12628615
_cell_formula_units_Z   4
loop_
 _symmetry_equiv_pos_site_id
 _symmetry_equiv_pos_as_xyz
  1  'x, y, z'
loop_
 _atom_site_type_symbol
 _atom_site_label
 _atom_site_symmetry_multiplicity
 _atom_site_fract_x
 _atom_site_fract_y
 _atom_site_fract_z
 _atom_site_occupancy
  Sr  Sr0  1  0.106574  0.752813  0.785769  1
  Sr  Sr1  1  0.393426  0.752813  0.285769  1
  Sr  Sr2  1  0.893426  0.247187  0.214231  1
  Sr  Sr3  1  0.606574  0.247187  0.714231  1
  P  P4  1  0.462141  0.999093  0.580716  1
  P  P5  1  0.037859  0.999093  0.080716  1
  P  P6  1  0.537859  0.000907  0.419284  1
  P  P7  1  0.962141  0.000907  0.919284  1
  P  P8  1  0.283559  0.585595  0.069955  1
  P  P9  1  0.216441  0.585595  0.569955  1
  P  P10  1  0.716441  0.414405  0.930045  1
  P  P11  1  0.783559  0.414405  0.430045  1
  P  P12  1  0.293383  0.213885  0.526348  1
  P  P13  1  0.206617  0.213885  0.026348  1
  P  P14  1  0.706617  0.786115  0.473652  1
  P  P15  1  0.793383  0.786115  0.973652  1
  P  P16  1  0.294821  0.955708  0.869041  1
  P  P17  1  0.205179  0.955708  0.369041  1
  P  P18  1  0.705179  0.044292  0.130959  1
  P  P19  1  0.794821  0.044292  0.630959  1
  P  P20  1  0.433795  0.412123  0.362732  1
  P  P21  1  0.066205  0.412123  0.862732  1
  P  P22  1  0.566205  0.587877  0.637268  1
  P  P23  1  0.933795  0.587877  0.137268  1
  P  P24  1  0.403910  0.371653  0.223532  1
  P  P25  1  0.096090  0.371653  0.723532  1
  P  P26  1  0.596090  0.628347  0.776468  1
  P  P27  1  0.903910  0.628347  0.276468  1
  P  P28  1  0.446439  0.788435  0.043552  1
  P  P29  1  0.053561  0.788435  0.543552  1
  P  P30  1  0.553561  0.211565  0.956448  1
  P  P31  1  0.946439  0.211565  0.456448  1
