# generated using pymatgen
data_Dy10Hg7Pd4Pb
_symmetry_space_group_name_H-M   'P 1'
_cell_length_a   3.64425200
_cell_length_b   7.99948494
_cell_length_c   18.33481400
_cell_angle_alpha   90.21806082
_cell_angle_beta   90.00000000
_cell_angle_gamma   90.00000000
_symmetry_Int_Tables_number   1
_chemical_formula_structural   Dy10Hg7Pd4Pb
_chemical_formula_sum   'Dy10 Hg7 Pd4 Pb1'
_cell_volume   534.49517475
_cell_formula_units_Z   1
loop_
 _symmetry_equiv_pos_site_id
 _symmetry_equiv_pos_as_xyz
  1  'x, y, z'
loop_
 _atom_site_type_symbol
 _atom_site_label
 _atom_site_symmetry_multiplicity
 _atom_site_fract_x
 _atom_site_fract_y
 _atom_site_fract_z
 _atom_site_occupancy
  Dy  Dy0  1  0.000000  0.109631  0.416724  1
  Dy  Dy1  1  0.000000  0.884357  0.585734  1
  Dy  Dy2  1  0.000000  0.385728  0.914944  1
  Dy  Dy3  1  0.000000  0.614720  0.083766  1
  Dy  Dy4  1  0.000000  0.233491  0.212764  1
  Dy  Dy5  1  0.000000  0.763439  0.784916  1
  Dy  Dy6  1  0.000000  0.261377  0.716643  1
  Dy  Dy7  1  0.000000  0.746553  0.280842  1
  Dy  Dy8  1  0.000000  0.002429  0.000667  1
  Dy  Dy9  1  0.000000  0.498490  0.502471  1
  Hg  Hg10  1  0.500000  0.578753  0.648164  1
  Hg  Hg11  1  0.500000  0.078893  0.852972  1
  Hg  Hg12  1  0.500000  0.918876  0.146788  1
  Hg  Hg13  1  0.500000  0.291475  0.064437  1
  Hg  Hg14  1  0.500000  0.710585  0.935294  1
  Hg  Hg15  1  0.500000  0.207234  0.565496  1
  Hg  Hg16  1  0.500000  0.791444  0.435767  1
  Pd  Pd17  1  0.500000  0.026940  0.303085  1
  Pd  Pd18  1  0.500000  0.973682  0.697385  1
  Pd  Pd19  1  0.500000  0.474968  0.803306  1
  Pd  Pd20  1  0.500000  0.525597  0.195833  1
  Pb  Pb21  1  0.500000  0.421339  0.352001  1
