# generated using pymatgen
data_La2DyY17Si15Os
_symmetry_space_group_name_H-M   'P 1'
_cell_length_a   7.43891320
_cell_length_b   7.79654116
_cell_length_c   14.68690233
_cell_angle_alpha   89.67941003
_cell_angle_beta   89.97774949
_cell_angle_gamma   89.94260701
_symmetry_Int_Tables_number   1
_chemical_formula_structural   La2DyY17Si15Os
_chemical_formula_sum   'La2 Dy1 Y17 Si15 Os1'
_cell_volume   851.79409695
_cell_formula_units_Z   1
loop_
 _symmetry_equiv_pos_site_id
 _symmetry_equiv_pos_as_xyz
  1  'x, y, z'
loop_
 _atom_site_type_symbol
 _atom_site_label
 _atom_site_symmetry_multiplicity
 _atom_site_fract_x
 _atom_site_fract_y
 _atom_site_fract_z
 _atom_site_occupancy
  La  La0  1  0.522650  0.569155  0.342499  1
  La  La1  1  0.024242  0.428469  0.657841  1
  Dy  Dy2  1  0.805537  0.577049  0.877901  1
  Y  Y3  1  0.324240  0.431701  0.123351  1
  Y  Y4  1  0.183466  0.928213  0.372794  1
  Y  Y5  1  0.682846  0.069287  0.626972  1
  Y  Y6  1  0.183454  0.927482  0.628729  1
  Y  Y7  1  0.682216  0.070230  0.371740  1
  Y  Y8  1  0.809704  0.574064  0.123356  1
  Y  Y9  1  0.327021  0.436494  0.875390  1
  Y  Y10  1  0.643927  0.238974  0.999524  1
  Y  Y11  1  0.158827  0.761395  0.000305  1
  Y  Y12  1  0.350415  0.263797  0.499764  1
  Y  Y13  1  0.849409  0.734327  0.499982  1
  Y  Y14  1  0.477504  0.924867  0.849086  1
  Y  Y15  1  0.973137  0.065885  0.151210  1
  Y  Y16  1  0.475926  0.925165  0.150314  1
  Y  Y17  1  0.971778  0.066683  0.849659  1
  Y  Y18  1  0.528595  0.564929  0.652110  1
  Y  Y19  1  0.027296  0.433585  0.347366  1
  Si  Si20  1  0.018718  0.350141  0.999467  1
  Si  Si21  1  0.476030  0.858493  0.501064  1
  Si  Si22  1  0.978711  0.140073  0.499106  1
  Si  Si23  1  0.652424  0.275775  0.789626  1
  Si  Si24  1  0.146701  0.721331  0.210041  1
  Si  Si25  1  0.352360  0.216018  0.286835  1
  Si  Si26  1  0.850418  0.783623  0.713279  1
  Si  Si27  1  0.362366  0.219542  0.711731  1
  Si  Si28  1  0.859194  0.780442  0.288303  1
  Si  Si29  1  0.648582  0.268175  0.207331  1
  Si  Si30  1  0.141018  0.728466  0.792772  1
  Si  Si31  1  0.767146  0.882885  0.000316  1
  Si  Si32  1  0.257798  0.126447  0.999553  1
  Si  Si33  1  0.232965  0.626292  0.502003  1
  Si  Si34  1  0.734158  0.373751  0.498745  1
  Os  Os35  1  0.519219  0.656795  0.999932  1
