# generated using pymatgen
data_Cs8HfSnSe8
_symmetry_space_group_name_H-M   'P 1'
_cell_length_a   9.24924148
_cell_length_b   11.02518600
_cell_length_c   16.23517766
_cell_angle_alpha   90.00000000
_cell_angle_beta   90.19562913
_cell_angle_gamma   90.00000000
_symmetry_Int_Tables_number   1
_chemical_formula_structural   Cs8HfSnSe8
_chemical_formula_sum   'Cs16 Hf2 Sn2 Se16'
_cell_volume   1655.56622170
_cell_formula_units_Z   2
loop_
 _symmetry_equiv_pos_site_id
 _symmetry_equiv_pos_as_xyz
  1  'x, y, z'
loop_
 _atom_site_type_symbol
 _atom_site_label
 _atom_site_symmetry_multiplicity
 _atom_site_fract_x
 _atom_site_fract_y
 _atom_site_fract_z
 _atom_site_occupancy
  Cs  Cs0  1  0.000000  0.000000  0.000000  1
  Cs  Cs1  1  0.500000  0.000000  0.500000  1
  Cs  Cs2  1  0.000000  0.500000  0.000000  1
  Cs  Cs3  1  0.500000  0.500000  0.500000  1
  Cs  Cs4  1  0.990924  0.750000  0.425067  1
  Cs  Cs5  1  0.486141  0.250000  0.077790  1
  Cs  Cs6  1  0.009076  0.250000  0.574933  1
  Cs  Cs7  1  0.513859  0.750000  0.922210  1
  Cs  Cs8  1  0.836390  0.051744  0.276849  1
  Cs  Cs9  1  0.337952  0.943688  0.222556  1
  Cs  Cs10  1  0.163610  0.551744  0.723151  1
  Cs  Cs11  1  0.662048  0.443688  0.777444  1
  Cs  Cs12  1  0.163610  0.948256  0.723151  1
  Cs  Cs13  1  0.662048  0.056312  0.777444  1
  Cs  Cs14  1  0.836390  0.448256  0.276849  1
  Cs  Cs15  1  0.337952  0.556312  0.222556  1
  Hf  Hf16  1  0.760185  0.750000  0.665476  1
  Hf  Hf17  1  0.239815  0.250000  0.334524  1
  Sn  Sn18  1  0.736613  0.750000  0.163667  1
  Sn  Sn19  1  0.263387  0.250000  0.836333  1
  Se  Se20  1  0.984595  0.250000  0.826803  1
  Se  Se21  1  0.514048  0.250000  0.326521  1
  Se  Se22  1  0.485952  0.750000  0.673479  1
  Se  Se23  1  0.015405  0.750000  0.173197  1
  Se  Se24  1  0.649651  0.559667  0.088127  1
  Se  Se25  1  0.155246  0.437452  0.408655  1
  Se  Se26  1  0.350349  0.059667  0.911873  1
  Se  Se27  1  0.844754  0.937452  0.591345  1
  Se  Se28  1  0.350349  0.440333  0.911873  1
  Se  Se29  1  0.844754  0.562548  0.591345  1
  Se  Se30  1  0.649651  0.940333  0.088127  1
  Se  Se31  1  0.155246  0.062548  0.408655  1
  Se  Se32  1  0.634166  0.750000  0.312354  1
  Se  Se33  1  0.133232  0.250000  0.190002  1
  Se  Se34  1  0.365834  0.250000  0.687646  1
  Se  Se35  1  0.866768  0.750000  0.809998  1
