# generated using pymatgen
data_Rb5BaVAs4
_symmetry_space_group_name_H-M   'P 1'
_cell_length_a   10.74735025
_cell_length_b   10.74735124
_cell_length_c   8.33678990
_cell_angle_alpha   88.61201090
_cell_angle_beta   88.61201760
_cell_angle_gamma   120.96496382
_symmetry_Int_Tables_number   1
_chemical_formula_structural   Rb5BaVAs4
_chemical_formula_sum   'Rb10 Ba2 V2 As8'
_cell_volume   824.70999277
_cell_formula_units_Z   2
loop_
 _symmetry_equiv_pos_site_id
 _symmetry_equiv_pos_as_xyz
  1  'x, y, z'
loop_
 _atom_site_type_symbol
 _atom_site_label
 _atom_site_symmetry_multiplicity
 _atom_site_fract_x
 _atom_site_fract_y
 _atom_site_fract_z
 _atom_site_occupancy
  Rb  Rb0  1  0.467269  0.525603  0.606045  1
  Rb  Rb1  1  0.060211  0.528085  0.607700  1
  Rb  Rb2  1  0.525603  0.467269  0.106045  1
  Rb  Rb3  1  0.528085  0.060211  0.107700  1
  Rb  Rb4  1  0.865995  0.143545  0.788353  1
  Rb  Rb5  1  0.291327  0.151902  0.820739  1
  Rb  Rb6  1  0.855317  0.713303  0.769458  1
  Rb  Rb7  1  0.143545  0.865995  0.288353  1
  Rb  Rb8  1  0.713303  0.855317  0.269458  1
  Rb  Rb9  1  0.151902  0.291327  0.320739  1
  Ba  Ba10  1  0.467709  0.940675  0.606713  1
  Ba  Ba11  1  0.940675  0.467709  0.106713  1
  V  V12  1  0.669207  0.330288  0.500921  1
  V  V13  1  0.330288  0.669207  0.000921  1
  As  As14  1  0.680314  0.332578  0.789324  1
  As  As15  1  0.332578  0.680314  0.289324  1
  As  As16  1  0.204267  0.788258  0.901578  1
  As  As17  1  0.573953  0.793736  0.887259  1
  As  As18  1  0.198994  0.417464  0.929110  1
  As  As19  1  0.788258  0.204267  0.401578  1
  As  As20  1  0.417464  0.198994  0.429110  1
  As  As21  1  0.793736  0.573953  0.387259  1
