# generated using pymatgen
data_KHo(PS3)2
_symmetry_space_group_name_H-M   'P 1'
_cell_length_a   7.37337800
_cell_length_b   6.55372214
_cell_length_c   10.25695345
_cell_angle_alpha   86.35979796
_cell_angle_beta   90.00000000
_cell_angle_gamma   90.00000000
_symmetry_Int_Tables_number   1
_chemical_formula_structural   KHo(PS3)2
_chemical_formula_sum   'K2 Ho2 P4 S12'
_cell_volume   494.64748011
_cell_formula_units_Z   2
loop_
 _symmetry_equiv_pos_site_id
 _symmetry_equiv_pos_as_xyz
  1  'x, y, z'
loop_
 _atom_site_type_symbol
 _atom_site_label
 _atom_site_symmetry_multiplicity
 _atom_site_fract_x
 _atom_site_fract_y
 _atom_site_fract_z
 _atom_site_occupancy
  K  K0  1  0.473929  0.689989  0.501967  1
  K  K1  1  0.973929  0.310011  0.498033  1
  Ho  Ho2  1  0.203393  0.215273  0.998706  1
  Ho  Ho3  1  0.703393  0.784727  0.001294  1
  P  P4  1  0.686329  0.333318  0.834638  1
  P  P5  1  0.962737  0.799720  0.282148  1
  P  P6  1  0.186329  0.666682  0.165362  1
  P  P7  1  0.462737  0.200280  0.717852  1
  S  S8  1  0.774743  0.603160  0.753659  1
  S  S9  1  0.548881  0.166968  0.537204  1
  S  S10  1  0.754958  0.603922  0.261742  1
  S  S11  1  0.564293  0.379380  0.011555  1
  S  S12  1  0.399975  0.948376  0.841928  1
  S  S13  1  0.254958  0.396078  0.738258  1
  S  S14  1  0.064293  0.620620  0.988445  1
  S  S15  1  0.899975  0.051624  0.158072  1
  S  S16  1  0.048881  0.833032  0.462796  1
  S  S17  1  0.379651  0.895000  0.156465  1
  S  S18  1  0.879651  0.105000  0.843535  1
  S  S19  1  0.274743  0.396840  0.246341  1
