# generated using pymatgen
data_Yb10ZnGaCu4
_symmetry_space_group_name_H-M   'P 1'
_cell_length_a   8.84324157
_cell_length_b   8.84324184
_cell_length_c   8.84324100
_cell_angle_alpha   128.24380833
_cell_angle_beta   128.24381797
_cell_angle_gamma   76.23039045
_symmetry_Int_Tables_number   1
_chemical_formula_structural   Yb10ZnGaCu4
_chemical_formula_sum   'Yb10 Zn1 Ga1 Cu4'
_cell_volume   414.59831716
_cell_formula_units_Z   1
loop_
 _symmetry_equiv_pos_site_id
 _symmetry_equiv_pos_as_xyz
  1  'x, y, z'
loop_
 _atom_site_type_symbol
 _atom_site_label
 _atom_site_symmetry_multiplicity
 _atom_site_fract_x
 _atom_site_fract_y
 _atom_site_fract_z
 _atom_site_occupancy
  Yb  Yb0  1  0.501914  0.501914  0.000000  1
  Yb  Yb1  1  0.998086  0.998086  0.000000  1
  Yb  Yb2  1  0.529795  0.027835  0.838924  1
  Yb  Yb3  1  0.188912  0.690872  0.161076  1
  Yb  Yb4  1  0.027835  0.188912  0.498040  1
  Yb  Yb5  1  0.690872  0.529795  0.501960  1
  Yb  Yb6  1  0.472165  0.970205  0.161076  1
  Yb  Yb7  1  0.809128  0.311088  0.838924  1
  Yb  Yb8  1  0.970205  0.809128  0.498040  1
  Yb  Yb9  1  0.311088  0.472165  0.501960  1
  Zn  Zn10  1  0.250000  0.250000  0.000000  1
  Ga  Ga11  1  0.750000  0.750000  0.000000  1
  Cu  Cu12  1  0.117082  0.617082  0.734163  1
  Cu  Cu13  1  0.882918  0.382918  0.265837  1
  Cu  Cu14  1  0.617082  0.882918  0.500000  1
  Cu  Cu15  1  0.382918  0.117082  0.500000  1
