# generated using pymatgen
data_Yb3YNbOs7
_symmetry_space_group_name_H-M   'P 1'
_cell_length_a   5.41971000
_cell_length_b   5.41970903
_cell_length_c   8.60695800
_cell_angle_alpha   90.00000000
_cell_angle_beta   90.00000000
_cell_angle_gamma   119.99999371
_symmetry_Int_Tables_number   1
_chemical_formula_structural   Yb3YNbOs7
_chemical_formula_sum   'Yb3 Y1 Nb1 Os7'
_cell_volume   218.94365451
_cell_formula_units_Z   1
loop_
 _symmetry_equiv_pos_site_id
 _symmetry_equiv_pos_as_xyz
  1  'x, y, z'
loop_
 _atom_site_type_symbol
 _atom_site_label
 _atom_site_symmetry_multiplicity
 _atom_site_fract_x
 _atom_site_fract_y
 _atom_site_fract_z
 _atom_site_occupancy
  Yb  Yb0  1  0.666667  0.333333  0.575954  1
  Yb  Yb1  1  0.666667  0.333333  0.934785  1
  Yb  Yb2  1  0.333333  0.666667  0.059567  1
  Y  Y3  1  0.333333  0.666667  0.425352  1
  Nb  Nb4  1  0.000000  0.000000  0.500508  1
  Os  Os5  1  0.000000  0.000000  0.001844  1
  Os  Os6  1  0.826672  0.173328  0.248617  1
  Os  Os7  1  0.826672  0.653343  0.248617  1
  Os  Os8  1  0.346657  0.173328  0.248617  1
  Os  Os9  1  0.172901  0.827099  0.752047  1
  Os  Os10  1  0.172901  0.345804  0.752047  1
  Os  Os11  1  0.654196  0.827099  0.752047  1
