# generated using pymatgen
data_Sc4AlNi
_symmetry_space_group_name_H-M   'P 1'
_cell_length_a   8.81213245
_cell_length_b   8.81780179
_cell_length_c   8.81460753
_cell_angle_alpha   60.06801258
_cell_angle_beta   60.08377559
_cell_angle_gamma   60.07662626
_symmetry_Int_Tables_number   1
_chemical_formula_structural   Sc4AlNi
_chemical_formula_sum   'Sc16 Al4 Ni4'
_cell_volume   485.15220032
_cell_formula_units_Z   4
loop_
 _symmetry_equiv_pos_site_id
 _symmetry_equiv_pos_as_xyz
  1  'x, y, z'
loop_
 _atom_site_type_symbol
 _atom_site_label
 _atom_site_symmetry_multiplicity
 _atom_site_fract_x
 _atom_site_fract_y
 _atom_site_fract_z
 _atom_site_occupancy
  Sc  Sc0  1  0.436849  0.062799  0.436791  1
  Sc  Sc1  1  0.063116  0.436522  0.436777  1
  Sc  Sc2  1  0.436633  0.436665  0.063114  1
  Sc  Sc3  1  0.062924  0.436493  0.062937  1
  Sc  Sc4  1  0.436825  0.062717  0.062943  1
  Sc  Sc5  1  0.062884  0.062792  0.436781  1
  Sc  Sc6  1  0.809320  0.190886  0.809278  1
  Sc  Sc7  1  0.190770  0.809126  0.809356  1
  Sc  Sc8  1  0.809289  0.809097  0.190862  1
  Sc  Sc9  1  0.190416  0.808641  0.190555  1
  Sc  Sc10  1  0.808827  0.190464  0.190438  1
  Sc  Sc11  1  0.190641  0.190237  0.808829  1
  Sc  Sc12  1  0.648438  0.648054  0.648387  1
  Sc  Sc13  1  0.647863  0.647708  0.056830  1
  Sc  Sc14  1  0.056574  0.648050  0.647753  1
  Sc  Sc15  1  0.647550  0.056966  0.647807  1
  Al  Al16  1  0.419710  0.419608  0.741095  1
  Al  Al17  1  0.741014  0.419652  0.419781  1
  Al  Al18  1  0.419666  0.740888  0.419780  1
  Al  Al19  1  0.419547  0.419559  0.419672  1
  Ni  Ni20  1  0.856584  0.858063  0.855716  1
  Ni  Ni21  1  0.856908  0.857862  0.429932  1
  Ni  Ni22  1  0.430028  0.856912  0.857550  1
  Ni  Ni23  1  0.857624  0.430241  0.857035  1
