# generated using pymatgen
data_CeHo4CoPb3
_symmetry_space_group_name_H-M   'P 1'
_cell_length_a   9.27366270
_cell_length_b   9.06963808
_cell_length_c   6.62326400
_cell_angle_alpha   90.00000000
_cell_angle_beta   90.00000000
_cell_angle_gamma   119.27486027
_symmetry_Int_Tables_number   1
_chemical_formula_structural   CeHo4CoPb3
_chemical_formula_sum   'Ce2 Ho8 Co2 Pb6'
_cell_volume   485.92717041
_cell_formula_units_Z   2
loop_
 _symmetry_equiv_pos_site_id
 _symmetry_equiv_pos_as_xyz
  1  'x, y, z'
loop_
 _atom_site_type_symbol
 _atom_site_label
 _atom_site_symmetry_multiplicity
 _atom_site_fract_x
 _atom_site_fract_y
 _atom_site_fract_z
 _atom_site_occupancy
  Ce  Ce0  1  0.000000  0.208728  0.250000  1
  Ce  Ce1  1  0.000000  0.791272  0.750000  1
  Ho  Ho2  1  0.239167  0.240115  0.750000  1
  Ho  Ho3  1  0.760833  0.759885  0.250000  1
  Ho  Ho4  1  0.239167  0.999052  0.250000  1
  Ho  Ho5  1  0.760833  0.000948  0.750000  1
  Ho  Ho6  1  0.328591  0.664296  0.500000  1
  Ho  Ho7  1  0.671409  0.335704  0.500000  1
  Ho  Ho8  1  0.328591  0.664296  0.000000  1
  Ho  Ho9  1  0.671409  0.335704  0.000000  1
  Co  Co10  1  0.000000  0.000000  0.000000  1
  Co  Co11  1  0.000000  0.000000  0.500000  1
  Pb  Pb12  1  0.408448  0.405703  0.250000  1
  Pb  Pb13  1  0.591552  0.594297  0.750000  1
  Pb  Pb14  1  0.000000  0.405737  0.750000  1
  Pb  Pb15  1  0.591552  0.997256  0.250000  1
  Pb  Pb16  1  0.408448  0.002744  0.750000  1
  Pb  Pb17  1  0.000000  0.594263  0.250000  1
