# generated using pymatgen
data_DyY4Tc6P12Ir13
_symmetry_space_group_name_H-M   'P 1'
_cell_length_a   12.65921700
_cell_length_b   12.65921717
_cell_length_c   3.99203500
_cell_angle_alpha   90.00000000
_cell_angle_beta   90.00000000
_cell_angle_gamma   119.99999694
_symmetry_Int_Tables_number   1
_chemical_formula_structural   DyY4Tc6P12Ir13
_chemical_formula_sum   'Dy1 Y4 Tc6 P12 Ir13'
_cell_volume   554.03688667
_cell_formula_units_Z   1
loop_
 _symmetry_equiv_pos_site_id
 _symmetry_equiv_pos_as_xyz
  1  'x, y, z'
loop_
 _atom_site_type_symbol
 _atom_site_label
 _atom_site_symmetry_multiplicity
 _atom_site_fract_x
 _atom_site_fract_y
 _atom_site_fract_z
 _atom_site_occupancy
  Dy  Dy0  1  0.666667  0.333333  0.500000  1
  Y  Y1  1  0.333333  0.666667  0.500000  1
  Y  Y2  1  0.000267  0.812150  0.000000  1
  Y  Y3  1  0.187850  0.188117  0.000000  1
  Y  Y4  1  0.811883  0.999733  0.000000  1
  Tc  Tc5  1  0.990522  0.446632  0.500000  1
  Tc  Tc6  1  0.553368  0.543891  0.500000  1
  Tc  Tc7  1  0.456109  0.009478  0.500000  1
  Tc  Tc8  1  0.620400  0.799264  0.500000  1
  Tc  Tc9  1  0.200736  0.821136  0.500000  1
  Tc  Tc10  1  0.178864  0.379600  0.500000  1
  P  P11  1  0.006984  0.638499  0.500000  1
  P  P12  1  0.361501  0.368486  0.500000  1
  P  P13  1  0.631514  0.993016  0.500000  1
  P  P14  1  0.521377  0.694018  0.000000  1
  P  P15  1  0.305982  0.827358  0.000000  1
  P  P16  1  0.172642  0.478623  0.000000  1
  P  P17  1  0.482300  0.168163  0.000000  1
  P  P18  1  0.685863  0.517700  0.000000  1
  P  P19  1  0.831837  0.314137  0.000000  1
  P  P20  1  0.003876  0.182594  0.500000  1
  P  P21  1  0.817406  0.821283  0.500000  1
  P  P22  1  0.178717  0.996124  0.500000  1
  Ir  Ir23  1  0.506745  0.874551  0.000000  1
  Ir  Ir24  1  0.125449  0.632195  0.000000  1
  Ir  Ir25  1  0.367805  0.493255  0.000000  1
  Ir  Ir26  1  0.493732  0.358045  0.000000  1
  Ir  Ir27  1  0.864314  0.506268  0.000000  1
  Ir  Ir28  1  0.641955  0.135686  0.000000  1
  Ir  Ir29  1  0.995144  0.281598  0.000000  1
  Ir  Ir30  1  0.718402  0.713547  0.000000  1
  Ir  Ir31  1  0.286453  0.004856  0.000000  1
  Ir  Ir32  1  0.374142  0.185050  0.500000  1
  Ir  Ir33  1  0.810908  0.625858  0.500000  1
  Ir  Ir34  1  0.814950  0.189092  0.500000  1
  Ir  Ir35  1  0.000000  0.000000  0.500000  1
