# generated using pymatgen
data_Cs4NaErSe4
_symmetry_space_group_name_H-M   'P 1'
_cell_length_a   9.26012630
_cell_length_b   9.26012551
_cell_length_c   9.26012600
_cell_angle_alpha   133.09532336
_cell_angle_beta   129.15282749
_cell_angle_gamma   71.66301996
_symmetry_Int_Tables_number   1
_chemical_formula_structural   Cs4NaErSe4
_chemical_formula_sum   'Cs4 Na1 Er1 Se4'
_cell_volume   439.97616087
_cell_formula_units_Z   1
loop_
 _symmetry_equiv_pos_site_id
 _symmetry_equiv_pos_as_xyz
  1  'x, y, z'
loop_
 _atom_site_type_symbol
 _atom_site_label
 _atom_site_symmetry_multiplicity
 _atom_site_fract_x
 _atom_site_fract_y
 _atom_site_fract_z
 _atom_site_occupancy
  Cs  Cs0  1  0.513227  0.864604  0.674622  1
  Cs  Cs1  1  0.486773  0.161395  0.351377  1
  Cs  Cs2  1  0.810018  0.635396  0.148623  1
  Cs  Cs3  1  0.189982  0.338605  0.825378  1
  Na  Na4  1  0.000000  0.250000  0.250000  1
  Er  Er5  1  0.000000  0.750000  0.750000  1
  Se  Se6  1  0.090404  0.870785  0.165999  1
  Se  Se7  1  0.704786  0.424407  0.334001  1
  Se  Se8  1  0.909596  0.075593  0.780379  1
  Se  Se9  1  0.295215  0.629215  0.719621  1
