# generated using pymatgen
data_Li2NdDy5Rh16
_symmetry_space_group_name_H-M   'P 1'
_cell_length_a   5.31307100
_cell_length_b   5.31307085
_cell_length_c   17.12504800
_cell_angle_alpha   90.00000000
_cell_angle_beta   90.00000000
_cell_angle_gamma   120.00000714
_symmetry_Int_Tables_number   1
_chemical_formula_structural   Li2NdDy5Rh16
_chemical_formula_sum   'Li2 Nd1 Dy5 Rh16'
_cell_volume   418.65243834
_cell_formula_units_Z   1
loop_
 _symmetry_equiv_pos_site_id
 _symmetry_equiv_pos_as_xyz
  1  'x, y, z'
loop_
 _atom_site_type_symbol
 _atom_site_label
 _atom_site_symmetry_multiplicity
 _atom_site_fract_x
 _atom_site_fract_y
 _atom_site_fract_z
 _atom_site_occupancy
  Li  Li0  1  0.000000  0.000000  0.250000  1
  Li  Li1  1  0.000000  0.000000  0.750000  1
  Nd  Nd2  1  0.666667  0.333333  0.250000  1
  Dy  Dy3  1  0.333333  0.666667  0.539921  1
  Dy  Dy4  1  0.666667  0.333333  0.038708  1
  Dy  Dy5  1  0.666667  0.333333  0.461292  1
  Dy  Dy6  1  0.333333  0.666667  0.960079  1
  Dy  Dy7  1  0.333333  0.666667  0.750000  1
  Rh  Rh8  1  0.167652  0.335304  0.124452  1
  Rh  Rh9  1  0.832449  0.664900  0.625815  1
  Rh  Rh10  1  0.664696  0.832348  0.124452  1
  Rh  Rh11  1  0.167652  0.832348  0.124452  1
  Rh  Rh12  1  0.832449  0.167551  0.625815  1
  Rh  Rh13  1  0.335100  0.167551  0.625815  1
  Rh  Rh14  1  0.832449  0.664900  0.874185  1
  Rh  Rh15  1  0.832449  0.167551  0.874185  1
  Rh  Rh16  1  0.335100  0.167551  0.874185  1
  Rh  Rh17  1  0.664696  0.832348  0.375548  1
  Rh  Rh18  1  0.167652  0.832348  0.375548  1
  Rh  Rh19  1  0.167652  0.335304  0.375548  1
  Rh  Rh20  1  0.333333  0.666667  0.250000  1
  Rh  Rh21  1  0.666667  0.333333  0.750000  1
  Rh  Rh22  1  0.000000  0.000000  0.999373  1
  Rh  Rh23  1  0.000000  0.000000  0.500627  1
