# generated using pymatgen
data_Y4ErLuGa10
_symmetry_space_group_name_H-M   'P 1'
_cell_length_a   6.07010600
_cell_length_b   9.60844600
_cell_length_c   11.56774800
_cell_angle_alpha   90.00000000
_cell_angle_beta   90.00000000
_cell_angle_gamma   90.00000000
_symmetry_Int_Tables_number   1
_chemical_formula_structural   Y4ErLuGa10
_chemical_formula_sum   'Y8 Er2 Lu2 Ga20'
_cell_volume   674.68063943
_cell_formula_units_Z   2
loop_
 _symmetry_equiv_pos_site_id
 _symmetry_equiv_pos_as_xyz
  1  'x, y, z'
loop_
 _atom_site_type_symbol
 _atom_site_label
 _atom_site_symmetry_multiplicity
 _atom_site_fract_x
 _atom_site_fract_y
 _atom_site_fract_z
 _atom_site_occupancy
  Y  Y0  1  0.890041  0.506537  0.350752  1
  Y  Y1  1  0.609959  0.993463  0.850752  1
  Y  Y2  1  0.110280  0.006910  0.649150  1
  Y  Y3  1  0.389720  0.493090  0.149150  1
  Y  Y4  1  0.110280  0.493090  0.649150  1
  Y  Y5  1  0.389720  0.006910  0.149150  1
  Y  Y6  1  0.890041  0.993463  0.350752  1
  Y  Y7  1  0.609959  0.506537  0.850752  1
  Er  Er8  1  0.850631  0.750000  0.075023  1
  Er  Er9  1  0.649369  0.750000  0.575023  1
  Lu  Lu10  1  0.149632  0.250000  0.924737  1
  Lu  Lu11  1  0.350368  0.250000  0.424737  1
  Ga  Ga12  1  0.875496  0.053973  0.089070  1
  Ga  Ga13  1  0.624504  0.446027  0.589070  1
  Ga  Ga14  1  0.124572  0.553479  0.910960  1
  Ga  Ga15  1  0.375428  0.946521  0.410960  1
  Ga  Ga16  1  0.124572  0.946521  0.910960  1
  Ga  Ga17  1  0.375428  0.553479  0.410960  1
  Ga  Ga18  1  0.875496  0.446027  0.089070  1
  Ga  Ga19  1  0.624504  0.053973  0.589070  1
  Ga  Ga20  1  0.167774  0.750000  0.255065  1
  Ga  Ga21  1  0.332226  0.750000  0.755065  1
  Ga  Ga22  1  0.832926  0.250000  0.745190  1
  Ga  Ga23  1  0.667074  0.250000  0.245190  1
  Ga  Ga24  1  0.379473  0.750000  0.001887  1
  Ga  Ga25  1  0.120527  0.750000  0.501887  1
  Ga  Ga26  1  0.619736  0.250000  0.998072  1
  Ga  Ga27  1  0.880264  0.250000  0.498072  1
  Ga  Ga28  1  0.602837  0.750000  0.299057  1
  Ga  Ga29  1  0.897163  0.750000  0.799057  1
  Ga  Ga30  1  0.396942  0.250000  0.701107  1
  Ga  Ga31  1  0.103058  0.250000  0.201107  1
