# generated using pymatgen
data_Yb2Tm2LuRh2
_symmetry_space_group_name_H-M   'P 1'
_cell_length_a   6.35854957
_cell_length_b   7.19969869
_cell_length_c   8.43613700
_cell_angle_alpha   97.48744430
_cell_angle_beta   112.13956223
_cell_angle_gamma   89.99999074
_symmetry_Int_Tables_number   1
_chemical_formula_structural   Yb2Tm2LuRh2
_chemical_formula_sum   'Yb4 Tm4 Lu2 Rh4'
_cell_volume   354.17038399
_cell_formula_units_Z   2
loop_
 _symmetry_equiv_pos_site_id
 _symmetry_equiv_pos_as_xyz
  1  'x, y, z'
loop_
 _atom_site_type_symbol
 _atom_site_label
 _atom_site_symmetry_multiplicity
 _atom_site_fract_x
 _atom_site_fract_y
 _atom_site_fract_z
 _atom_site_occupancy
  Yb  Yb0  1  0.520743  0.079956  0.812803  1
  Yb  Yb1  1  0.479257  0.920044  0.187197  1
  Yb  Yb2  1  0.707940  0.420044  0.187197  1
  Yb  Yb3  1  0.292060  0.579956  0.812803  1
  Tm  Tm4  1  0.299766  0.313085  0.434685  1
  Tm  Tm5  1  0.700234  0.686915  0.565315  1
  Tm  Tm6  1  0.865082  0.186915  0.565315  1
  Tm  Tm7  1  0.134918  0.813085  0.434685  1
  Lu  Lu8  1  0.070636  0.250000  0.000000  1
  Lu  Lu9  1  0.929364  0.750000  0.000000  1
  Rh  Rh10  1  0.311778  0.574376  0.226685  1
  Rh  Rh11  1  0.688222  0.425624  0.773315  1
  Rh  Rh12  1  0.085094  0.925624  0.773315  1
  Rh  Rh13  1  0.914906  0.074376  0.226685  1
