# generated using pymatgen
data_Pa8Si15Ag
_symmetry_space_group_name_H-M   'P 1'
_cell_length_a   8.07121000
_cell_length_b   8.07120872
_cell_length_c   8.20167400
_cell_angle_alpha   90.00000000
_cell_angle_beta   90.00000000
_cell_angle_gamma   119.99999704
_symmetry_Int_Tables_number   1
_chemical_formula_structural   Pa8Si15Ag
_chemical_formula_sum   'Pa8 Si15 Ag1'
_cell_volume   462.71158484
_cell_formula_units_Z   1
loop_
 _symmetry_equiv_pos_site_id
 _symmetry_equiv_pos_as_xyz
  1  'x, y, z'
loop_
 _atom_site_type_symbol
 _atom_site_label
 _atom_site_symmetry_multiplicity
 _atom_site_fract_x
 _atom_site_fract_y
 _atom_site_fract_z
 _atom_site_occupancy
  Pa  Pa0  1  0.000000  0.000000  0.747123  1
  Pa  Pa1  1  0.000000  0.000000  0.253040  1
  Pa  Pa2  1  0.494165  0.505835  0.742285  1
  Pa  Pa3  1  0.494165  0.988333  0.742285  1
  Pa  Pa4  1  0.011667  0.505835  0.742285  1
  Pa  Pa5  1  0.495162  0.504838  0.257652  1
  Pa  Pa6  1  0.009677  0.504838  0.257652  1
  Pa  Pa7  1  0.495162  0.990323  0.257652  1
  Si  Si8  1  0.838917  0.161083  0.000229  1
  Si  Si9  1  0.838917  0.677834  0.000229  1
  Si  Si10  1  0.322166  0.161083  0.000229  1
  Si  Si11  1  0.832805  0.167195  0.500295  1
  Si  Si12  1  0.832805  0.665611  0.500295  1
  Si  Si13  1  0.334389  0.167195  0.500295  1
  Si  Si14  1  0.166199  0.833801  0.499806  1
  Si  Si15  1  0.667604  0.833801  0.499806  1
  Si  Si16  1  0.166199  0.332396  0.499806  1
  Si  Si17  1  0.169280  0.830720  0.999981  1
  Si  Si18  1  0.661439  0.830720  0.999981  1
  Si  Si19  1  0.169280  0.338561  0.999981  1
  Si  Si20  1  0.666667  0.333333  0.501470  1
  Si  Si21  1  0.333333  0.666667  0.498854  1
  Si  Si22  1  0.333333  0.666667  0.001082  1
  Ag  Ag23  1  0.666667  0.333333  0.997684  1
