# generated using pymatgen
data_Dy2Tc3Ru
_symmetry_space_group_name_H-M   'P 1'
_cell_length_a   5.26120329
_cell_length_b   5.26120236
_cell_length_c   9.22675200
_cell_angle_alpha   90.00000000
_cell_angle_beta   90.00000000
_cell_angle_gamma   120.02444269
_symmetry_Int_Tables_number   1
_chemical_formula_structural   Dy2Tc3Ru
_chemical_formula_sum   'Dy4 Tc6 Ru2'
_cell_volume   221.12739449
_cell_formula_units_Z   2
loop_
 _symmetry_equiv_pos_site_id
 _symmetry_equiv_pos_as_xyz
  1  'x, y, z'
loop_
 _atom_site_type_symbol
 _atom_site_label
 _atom_site_symmetry_multiplicity
 _atom_site_fract_x
 _atom_site_fract_y
 _atom_site_fract_z
 _atom_site_occupancy
  Dy  Dy0  1  0.666652  0.333348  0.562382  1
  Dy  Dy1  1  0.333348  0.666652  0.437618  1
  Dy  Dy2  1  0.333348  0.666652  0.062382  1
  Dy  Dy3  1  0.666652  0.333348  0.937618  1
  Tc  Tc4  1  0.171014  0.342017  0.750000  1
  Tc  Tc5  1  0.171002  0.828998  0.750000  1
  Tc  Tc6  1  0.657983  0.828986  0.750000  1
  Tc  Tc7  1  0.828986  0.657983  0.250000  1
  Tc  Tc8  1  0.828998  0.171002  0.250000  1
  Tc  Tc9  1  0.342017  0.171014  0.250000  1
  Ru  Ru10  1  0.000000  0.000000  0.500000  1
  Ru  Ru11  1  0.000000  0.000000  0.000000  1
