# generated using pymatgen
data_DyEr2Mg3Si2Ag
_symmetry_space_group_name_H-M   'P 1'
_cell_length_a   7.23397586
_cell_length_b   7.23397624
_cell_length_c   4.30732000
_cell_angle_alpha   90.00000000
_cell_angle_beta   90.00000000
_cell_angle_gamma   120.05599621
_symmetry_Int_Tables_number   1
_chemical_formula_structural   DyEr2Mg3Si2Ag
_chemical_formula_sum   'Dy1 Er2 Mg3 Si2 Ag1'
_cell_volume   195.09519504
_cell_formula_units_Z   1
loop_
 _symmetry_equiv_pos_site_id
 _symmetry_equiv_pos_as_xyz
  1  'x, y, z'
loop_
 _atom_site_type_symbol
 _atom_site_label
 _atom_site_symmetry_multiplicity
 _atom_site_fract_x
 _atom_site_fract_y
 _atom_site_fract_z
 _atom_site_occupancy
  Dy  Dy0  1  0.422088  0.422088  0.500000  1
  Er  Er1  1  0.577902  0.000174  0.500000  1
  Er  Er2  1  0.000174  0.577902  0.500000  1
  Mg  Mg3  1  0.751157  0.751157  0.000000  1
  Mg  Mg4  1  0.249007  0.999856  0.000000  1
  Mg  Mg5  1  0.999856  0.249007  0.000000  1
  Si  Si6  1  0.667126  0.333084  0.000000  1
  Si  Si7  1  0.333084  0.667126  0.000000  1
  Ag  Ag8  1  0.999607  0.999607  0.500000  1
