# generated using pymatgen
data_Nb6Fe15Si7Ni
_symmetry_space_group_name_H-M   'P 1'
_cell_length_a   7.95673419
_cell_length_b   7.97895473
_cell_length_c   7.95673400
_cell_angle_alpha   60.09208164
_cell_angle_beta   60.00000081
_cell_angle_gamma   60.09208377
_symmetry_Int_Tables_number   1
_chemical_formula_structural   Nb6Fe15Si7Ni
_chemical_formula_sum   'Nb6 Fe15 Si7 Ni1'
_cell_volume   357.68749669
_cell_formula_units_Z   1
loop_
 _symmetry_equiv_pos_site_id
 _symmetry_equiv_pos_as_xyz
  1  'x, y, z'
loop_
 _atom_site_type_symbol
 _atom_site_label
 _atom_site_symmetry_multiplicity
 _atom_site_fract_x
 _atom_site_fract_y
 _atom_site_fract_z
 _atom_site_occupancy
  Nb  Nb0  1  0.799042  0.796703  0.202128  1
  Nb  Nb1  1  0.796986  0.197526  0.796986  1
  Nb  Nb2  1  0.202128  0.796703  0.202128  1
  Nb  Nb3  1  0.796986  0.197526  0.208502  1
  Nb  Nb4  1  0.202128  0.796703  0.799042  1
  Nb  Nb5  1  0.208502  0.197526  0.796986  1
  Fe  Fe6  1  0.171669  0.175648  0.481015  1
  Fe  Fe7  1  0.481015  0.175648  0.171669  1
  Fe  Fe8  1  0.171669  0.175648  0.171669  1
  Fe  Fe9  1  0.512929  0.829333  0.828869  1
  Fe  Fe10  1  0.828869  0.829333  0.828869  1
  Fe  Fe11  1  0.828869  0.829333  0.512929  1
  Fe  Fe12  1  0.173010  0.480971  0.173010  1
  Fe  Fe13  1  0.619086  0.142742  0.619086  1
  Fe  Fe14  1  0.379958  0.381355  0.858730  1
  Fe  Fe15  1  0.858730  0.381355  0.379958  1
  Fe  Fe16  1  0.379958  0.381355  0.379958  1
  Fe  Fe17  1  0.143567  0.621577  0.617428  1
  Fe  Fe18  1  0.617428  0.621577  0.617428  1
  Fe  Fe19  1  0.617428  0.621577  0.143567  1
  Fe  Fe20  1  0.379370  0.861889  0.379370  1
  Si  Si21  1  0.500181  0.499458  0.500181  1
  Si  Si22  1  0.499410  0.999940  0.499410  1
  Si  Si23  1  0.998321  0.500974  0.998321  1
  Si  Si24  1  0.001241  0.999940  0.499410  1
  Si  Si25  1  0.499410  0.999940  0.001241  1
  Si  Si26  1  0.998321  0.500974  0.502383  1
  Si  Si27  1  0.502383  0.500974  0.998321  1
  Ni  Ni28  1  0.831407  0.505778  0.831407  1
