# generated using pymatgen
data_Mn3Nb6Al8Au
_symmetry_space_group_name_H-M   'P 1'
_cell_length_a   8.76584300
_cell_length_b   8.86530485
_cell_length_c   8.25774200
_cell_angle_alpha   90.00000000
_cell_angle_beta   90.00000000
_cell_angle_gamma   120.84282863
_symmetry_Int_Tables_number   1
_chemical_formula_structural   Mn3Nb6Al8Au
_chemical_formula_sum   'Mn6 Nb12 Al16 Au2'
_cell_volume   550.96990085
_cell_formula_units_Z   2
loop_
 _symmetry_equiv_pos_site_id
 _symmetry_equiv_pos_as_xyz
  1  'x, y, z'
loop_
 _atom_site_type_symbol
 _atom_site_label
 _atom_site_symmetry_multiplicity
 _atom_site_fract_x
 _atom_site_fract_y
 _atom_site_fract_z
 _atom_site_occupancy
  Mn  Mn0  1  0.178849  0.504945  0.750000  1
  Mn  Mn1  1  0.821151  0.495055  0.250000  1
  Mn  Mn2  1  0.484753  0.652796  0.750000  1
  Mn  Mn3  1  0.504709  0.167000  0.750000  1
  Mn  Mn4  1  0.515247  0.347204  0.250000  1
  Mn  Mn5  1  0.495291  0.833000  0.250000  1
  Nb  Nb6  1  0.340801  0.000682  0.065686  1
  Nb  Nb7  1  0.659199  0.999318  0.934314  1
  Nb  Nb8  1  0.998286  0.338565  0.064469  1
  Nb  Nb9  1  0.659199  0.999318  0.565686  1
  Nb  Nb10  1  0.998286  0.338565  0.435531  1
  Nb  Nb11  1  0.001714  0.661435  0.935531  1
  Nb  Nb12  1  0.340801  0.000682  0.434314  1
  Nb  Nb13  1  0.001714  0.661435  0.564469  1
  Nb  Nb14  1  0.658232  0.661616  0.064216  1
  Nb  Nb15  1  0.341768  0.338384  0.935784  1
  Nb  Nb16  1  0.341768  0.338384  0.564216  1
  Nb  Nb17  1  0.658232  0.661616  0.435784  1
  Al  Al18  1  0.339011  0.841793  0.750000  1
  Al  Al19  1  0.657840  0.504114  0.750000  1
  Al  Al20  1  0.660989  0.158207  0.250000  1
  Al  Al21  1  0.342160  0.495886  0.250000  1
  Al  Al22  1  0.846059  0.341037  0.750000  1
  Al  Al23  1  0.153941  0.658963  0.250000  1
  Al  Al24  1  0.337856  0.669179  0.500124  1
  Al  Al25  1  0.662144  0.330821  0.499876  1
  Al  Al26  1  0.662144  0.330821  0.000124  1
  Al  Al27  1  0.337856  0.669179  0.999876  1
  Al  Al28  1  0.182702  0.007748  0.750000  1
  Al  Al29  1  0.817298  0.992252  0.250000  1
  Al  Al30  1  0.013657  0.186266  0.750000  1
  Al  Al31  1  0.986343  0.813734  0.250000  1
  Al  Al32  1  0.811939  0.828755  0.750000  1
  Al  Al33  1  0.188061  0.171245  0.250000  1
  Au  Au34  1  0.000000  0.000000  0.500000  1
  Au  Au35  1  0.000000  0.000000  0.000000  1
