# generated using pymatgen
data_Pr4Ga4PtRh3
_symmetry_space_group_name_H-M   'P 1'
_cell_length_a   4.46485400
_cell_length_b   7.13135967
_cell_length_c   7.88788795
_cell_angle_alpha   89.67444301
_cell_angle_beta   90.00000000
_cell_angle_gamma   90.00000000
_symmetry_Int_Tables_number   1
_chemical_formula_structural   Pr4Ga4PtRh3
_chemical_formula_sum   'Pr4 Ga4 Pt1 Rh3'
_cell_volume   251.15008237
_cell_formula_units_Z   1
loop_
 _symmetry_equiv_pos_site_id
 _symmetry_equiv_pos_as_xyz
  1  'x, y, z'
loop_
 _atom_site_type_symbol
 _atom_site_label
 _atom_site_symmetry_multiplicity
 _atom_site_fract_x
 _atom_site_fract_y
 _atom_site_fract_z
 _atom_site_occupancy
  Pr  Pr0  1  0.250000  0.025661  0.686759  1
  Pr  Pr1  1  0.250000  0.529475  0.811324  1
  Pr  Pr2  1  0.750000  0.972470  0.310418  1
  Pr  Pr3  1  0.750000  0.476374  0.192893  1
  Ga  Ga4  1  0.250000  0.154033  0.072977  1
  Ga  Ga5  1  0.250000  0.655328  0.428843  1
  Ga  Ga6  1  0.750000  0.840896  0.929479  1
  Ga  Ga7  1  0.750000  0.345745  0.568484  1
  Pt  Pt8  1  0.750000  0.220511  0.891141  1
  Rh  Rh9  1  0.250000  0.278514  0.392557  1
  Rh  Rh10  1  0.250000  0.779565  0.107451  1
  Rh  Rh11  1  0.750000  0.721428  0.607673  1
