# generated using pymatgen
data_LiTm16Hg3Pt4
_symmetry_space_group_name_H-M   'P 1'
_cell_length_a   9.53004225
_cell_length_b   9.53004243
_cell_length_c   9.53004213
_cell_angle_alpha   59.90287572
_cell_angle_beta   59.90287740
_cell_angle_gamma   59.90287469
_symmetry_Int_Tables_number   1
_chemical_formula_structural   LiTm16Hg3Pt4
_chemical_formula_sum   'Li1 Tm16 Hg3 Pt4'
_cell_volume   610.67692271
_cell_formula_units_Z   1
loop_
 _symmetry_equiv_pos_site_id
 _symmetry_equiv_pos_as_xyz
  1  'x, y, z'
loop_
 _atom_site_type_symbol
 _atom_site_label
 _atom_site_symmetry_multiplicity
 _atom_site_fract_x
 _atom_site_fract_y
 _atom_site_fract_z
 _atom_site_occupancy
  Li  Li0  1  0.568415  0.568415  0.568415  1
  Tm  Tm1  1  0.353688  0.353688  0.353688  1
  Tm  Tm2  1  0.354960  0.354960  0.936673  1
  Tm  Tm3  1  0.354960  0.936673  0.354960  1
  Tm  Tm4  1  0.936673  0.354960  0.354960  1
  Tm  Tm5  1  0.809862  0.192325  0.192325  1
  Tm  Tm6  1  0.188903  0.813131  0.813131  1
  Tm  Tm7  1  0.192325  0.809862  0.192325  1
  Tm  Tm8  1  0.813131  0.188903  0.813131  1
  Tm  Tm9  1  0.192325  0.192325  0.809862  1
  Tm  Tm10  1  0.813131  0.813131  0.188903  1
  Tm  Tm11  1  0.936178  0.565027  0.565027  1
  Tm  Tm12  1  0.563101  0.936775  0.936775  1
  Tm  Tm13  1  0.565027  0.936178  0.565027  1
  Tm  Tm14  1  0.936775  0.563101  0.936775  1
  Tm  Tm15  1  0.565027  0.565027  0.936178  1
  Tm  Tm16  1  0.936775  0.936775  0.563101  1
  Hg  Hg17  1  0.587706  0.587706  0.242019  1
  Hg  Hg18  1  0.587706  0.242019  0.587706  1
  Hg  Hg19  1  0.242019  0.587706  0.587706  1
  Pt  Pt20  1  0.144896  0.144896  0.144896  1
  Pt  Pt21  1  0.143764  0.143764  0.568888  1
  Pt  Pt22  1  0.143764  0.568888  0.143764  1
  Pt  Pt23  1  0.568888  0.143764  0.143764  1
