# generated using pymatgen
data_Dy2Tm3Cr3(Co4P3)4
_symmetry_space_group_name_H-M   'P 1'
_cell_length_a   11.96993000
_cell_length_b   11.96993083
_cell_length_c   3.65883600
_cell_angle_alpha   90.00000000
_cell_angle_beta   90.00000000
_cell_angle_gamma   119.99999217
_symmetry_Int_Tables_number   1
_chemical_formula_structural   Dy2Tm3Cr3(Co4P3)4
_chemical_formula_sum   'Dy2 Tm3 Cr3 Co16 P12'
_cell_volume   454.00105391
_cell_formula_units_Z   1
loop_
 _symmetry_equiv_pos_site_id
 _symmetry_equiv_pos_as_xyz
  1  'x, y, z'
loop_
 _atom_site_type_symbol
 _atom_site_label
 _atom_site_symmetry_multiplicity
 _atom_site_fract_x
 _atom_site_fract_y
 _atom_site_fract_z
 _atom_site_occupancy
  Dy  Dy0  1  0.666667  0.333333  0.000000  1
  Dy  Dy1  1  0.333333  0.666667  0.000000  1
  Tm  Tm2  1  0.187163  0.187163  0.500000  1
  Tm  Tm3  1  0.812837  0.000000  0.500000  1
  Tm  Tm4  1  0.000000  0.812837  0.500000  1
  Cr  Cr5  1  0.554402  0.554402  0.000000  1
  Cr  Cr6  1  0.445598  0.000000  0.000000  1
  Cr  Cr7  1  0.000000  0.445598  0.000000  1
  Co  Co8  1  0.823093  0.199448  0.000000  1
  Co  Co9  1  0.800552  0.623645  0.000000  1
  Co  Co10  1  0.376355  0.176907  0.000000  1
  Co  Co11  1  0.199448  0.823093  0.000000  1
  Co  Co12  1  0.623645  0.800552  0.000000  1
  Co  Co13  1  0.176907  0.376355  0.000000  1
  Co  Co14  1  0.644331  0.125857  0.500000  1
  Co  Co15  1  0.874143  0.518474  0.500000  1
  Co  Co16  1  0.481526  0.355669  0.500000  1
  Co  Co17  1  0.125857  0.644331  0.500000  1
  Co  Co18  1  0.518474  0.874143  0.500000  1
  Co  Co19  1  0.355669  0.481526  0.500000  1
  Co  Co20  1  0.718065  0.718065  0.500000  1
  Co  Co21  1  0.281935  0.000000  0.500000  1
  Co  Co22  1  0.000000  0.281935  0.500000  1
  Co  Co23  1  0.000000  0.000000  0.000000  1
  P  P24  1  0.365847  0.365847  0.000000  1
  P  P25  1  0.634153  0.000000  0.000000  1
  P  P26  1  0.000000  0.634153  0.000000  1
  P  P27  1  0.837604  0.317443  0.500000  1
  P  P28  1  0.682557  0.520161  0.500000  1
  P  P29  1  0.479839  0.162396  0.500000  1
  P  P30  1  0.317443  0.837604  0.500000  1
  P  P31  1  0.520161  0.682557  0.500000  1
  P  P32  1  0.162396  0.479839  0.500000  1
  P  P33  1  0.821470  0.821470  0.000000  1
  P  P34  1  0.178530  0.000000  0.000000  1
  P  P35  1  0.000000  0.178530  0.000000  1
