# generated using pymatgen
data_Zn2H11Br
_symmetry_space_group_name_H-M   'P 1'
_cell_length_a   5.91837311
_cell_length_b   5.87227834
_cell_length_c   8.03164201
_cell_angle_alpha   100.36313069
_cell_angle_beta   74.27623113
_cell_angle_gamma   117.65321265
_symmetry_Int_Tables_number   1
_chemical_formula_structural   Zn2H11Br
_chemical_formula_sum   'Zn2 H11 Br1'
_cell_volume   237.51768296
_cell_formula_units_Z   1
loop_
 _symmetry_equiv_pos_site_id
 _symmetry_equiv_pos_as_xyz
  1  'x, y, z'
loop_
 _atom_site_type_symbol
 _atom_site_label
 _atom_site_symmetry_multiplicity
 _atom_site_fract_x
 _atom_site_fract_y
 _atom_site_fract_z
 _atom_site_occupancy
  Zn  Zn0  1  0.702837  0.572932  0.423739  1
  Zn  Zn1  1  0.941993  0.208206  0.530390  1
  H  H2  1  0.779077  0.365175  0.472022  1
  H  H3  1  0.907469  0.500200  0.076820  1
  H  H4  1  0.794256  0.880651  0.443794  1
  H  H5  1  0.162701  0.762256  0.724952  1
  H  H6  1  0.967276  0.247945  0.721750  1
  H  H7  1  0.571754  0.736767  0.831768  1
  H  H8  1  0.502334  0.593163  0.837576  1
  H  H9  1  0.351162  0.816885  0.318229  1
  H  H10  1  0.347814  0.942349  0.314731  1
  H  H11  1  0.192474  0.893834  0.703125  1
  H  H12  1  0.030911  0.545127  0.108907  1
  Br  Br13  1  0.332570  0.359535  0.279721  1
