# generated using pymatgen
data_Y4Tm6HgSb5
_symmetry_space_group_name_H-M   'P 1'
_cell_length_a   6.33162700
_cell_length_b   8.87980047
_cell_length_c   8.86497000
_cell_angle_alpha   120.05536390
_cell_angle_beta   90.00003620
_cell_angle_gamma   89.99994961
_symmetry_Int_Tables_number   1
_chemical_formula_structural   Y4Tm6HgSb5
_chemical_formula_sum   'Y4 Tm6 Hg1 Sb5'
_cell_volume   431.40370978
_cell_formula_units_Z   1
loop_
 _symmetry_equiv_pos_site_id
 _symmetry_equiv_pos_as_xyz
  1  'x, y, z'
loop_
 _atom_site_type_symbol
 _atom_site_label
 _atom_site_symmetry_multiplicity
 _atom_site_fract_x
 _atom_site_fract_y
 _atom_site_fract_z
 _atom_site_occupancy
  Y  Y0  1  0.750001  0.753604  0.761913  1
  Y  Y1  1  0.750001  0.991691  0.238087  1
  Y  Y2  1  0.250002  0.245536  0.242911  1
  Y  Y3  1  0.250002  0.002625  0.757089  1
  Tm  Tm4  1  0.498632  0.338083  0.672284  1
  Tm  Tm5  1  0.498632  0.665798  0.327716  1
  Tm  Tm6  1  0.001367  0.665800  0.327719  1
  Tm  Tm7  1  0.001367  0.338081  0.672281  1
  Tm  Tm8  1  0.749998  0.246879  0.000000  1
  Tm  Tm9  1  0.249999  0.755269  0.000000  1
  Hg  Hg10  1  0.750001  0.602241  0.000000  1
  Sb  Sb11  1  0.750000  0.389216  0.389792  1
  Sb  Sb12  1  0.750000  0.999422  0.610208  1
  Sb  Sb13  1  0.249997  0.393702  0.000000  1
  Sb  Sb14  1  0.250001  0.610227  0.608401  1
  Sb  Sb15  1  0.250001  0.001827  0.391599  1
