# generated using pymatgen
data_Tm2BeCo2
_symmetry_space_group_name_H-M   'P 1'
_cell_length_a   3.63703797
_cell_length_b   5.52120679
_cell_length_c   5.26463106
_cell_angle_alpha   121.62570009
_cell_angle_beta   110.20754918
_cell_angle_gamma   89.99999469
_symmetry_Int_Tables_number   1
_chemical_formula_structural   Tm2BeCo2
_chemical_formula_sum   'Tm2 Be1 Co2'
_cell_volume   82.27852478
_cell_formula_units_Z   1
loop_
 _symmetry_equiv_pos_site_id
 _symmetry_equiv_pos_as_xyz
  1  'x, y, z'
loop_
 _atom_site_type_symbol
 _atom_site_label
 _atom_site_symmetry_multiplicity
 _atom_site_fract_x
 _atom_site_fract_y
 _atom_site_fract_z
 _atom_site_occupancy
  Tm  Tm0  1  0.802353  0.302353  0.604706  1
  Tm  Tm1  1  0.197647  0.697647  0.395294  1
  Be  Be2  1  0.000000  0.000000  0.000000  1
  Co  Co3  1  0.500000  0.240703  0.000000  1
  Co  Co4  1  0.500000  0.759297  0.000000  1
