# generated using pymatgen
data_LiTb4Ho12Cd3Ir4
_symmetry_space_group_name_H-M   'P 1'
_cell_length_a   9.64693076
_cell_length_b   9.63884111
_cell_length_c   9.63884157
_cell_angle_alpha   59.77950559
_cell_angle_beta   59.74584151
_cell_angle_gamma   59.74584052
_symmetry_Int_Tables_number   1
_chemical_formula_structural   LiTb4Ho12Cd3Ir4
_chemical_formula_sum   'Li1 Tb4 Ho12 Cd3 Ir4'
_cell_volume   630.26235971
_cell_formula_units_Z   1
loop_
 _symmetry_equiv_pos_site_id
 _symmetry_equiv_pos_as_xyz
  1  'x, y, z'
loop_
 _atom_site_type_symbol
 _atom_site_label
 _atom_site_symmetry_multiplicity
 _atom_site_fract_x
 _atom_site_fract_y
 _atom_site_fract_z
 _atom_site_occupancy
  Li  Li0  1  0.821560  0.821349  0.821349  1
  Tb  Tb1  1  0.811482  0.189053  0.811512  1
  Tb  Tb2  1  0.186620  0.812548  0.186580  1
  Tb  Tb3  1  0.811482  0.811512  0.189053  1
  Tb  Tb4  1  0.186620  0.186580  0.812548  1
  Ho  Ho5  1  0.599643  0.599623  0.599623  1
  Ho  Ho6  1  0.598042  0.598041  0.207375  1
  Ho  Ho7  1  0.598042  0.207375  0.598041  1
  Ho  Ho8  1  0.207206  0.598180  0.598180  1
  Ho  Ho9  1  0.060643  0.439442  0.439442  1
  Ho  Ho10  1  0.434882  0.062770  0.062770  1
  Ho  Ho11  1  0.439603  0.060571  0.439530  1
  Ho  Ho12  1  0.062578  0.435110  0.062596  1
  Ho  Ho13  1  0.439603  0.439530  0.060571  1
  Ho  Ho14  1  0.062578  0.062596  0.435110  1
  Ho  Ho15  1  0.189983  0.810741  0.810741  1
  Ho  Ho16  1  0.812188  0.187169  0.187169  1
  Cd  Cd17  1  0.832167  0.832800  0.506828  1
  Cd  Cd18  1  0.832167  0.506828  0.832800  1
  Cd  Cd19  1  0.507106  0.832156  0.832156  1
  Ir  Ir20  1  0.392434  0.391794  0.391794  1
  Ir  Ir21  1  0.393620  0.394395  0.826148  1
  Ir  Ir22  1  0.393620  0.826148  0.394395  1
  Ir  Ir23  1  0.826136  0.393691  0.393691  1
