# generated using pymatgen
data_Li5(ZnNi3)2
_symmetry_space_group_name_H-M   'P 1'
_cell_length_a   4.79640275
_cell_length_b   4.79640219
_cell_length_c   8.69902504
_cell_angle_alpha   73.99709811
_cell_angle_beta   73.99708609
_cell_angle_gamma   59.99998566
_symmetry_Int_Tables_number   1
_chemical_formula_structural   Li5(ZnNi3)2
_chemical_formula_sum   'Li5 Zn2 Ni6'
_cell_volume   164.29743656
_cell_formula_units_Z   1
loop_
 _symmetry_equiv_pos_site_id
 _symmetry_equiv_pos_as_xyz
  1  'x, y, z'
loop_
 _atom_site_type_symbol
 _atom_site_label
 _atom_site_symmetry_multiplicity
 _atom_site_fract_x
 _atom_site_fract_y
 _atom_site_fract_z
 _atom_site_occupancy
  Li  Li0  1  0.833765  0.833765  0.498706  1
  Li  Li1  1  0.348752  0.348752  0.953743  1
  Li  Li2  1  0.651516  0.651516  0.045453  1
  Li  Li3  1  0.449131  0.449131  0.652610  1
  Li  Li4  1  0.550668  0.550668  0.347993  1
  Zn  Zn5  1  0.999826  0.999826  0.000522  1
  Zn  Zn6  1  0.166467  0.166467  0.500597  1
  Ni  Ni7  1  0.582841  0.087332  0.242495  1
  Ni  Ni8  1  0.087332  0.087332  0.242495  1
  Ni  Ni9  1  0.087332  0.582841  0.242495  1
  Ni  Ni10  1  0.417196  0.912587  0.757631  1
  Ni  Ni11  1  0.912587  0.912587  0.757631  1
  Ni  Ni12  1  0.912587  0.417196  0.757631  1
