# generated using pymatgen
data_Cs2Tm(PdO2)3
_symmetry_space_group_name_H-M   'P 1'
_cell_length_a   10.18064407
_cell_length_b   8.82067478
_cell_length_c   8.07109582
_cell_angle_alpha   73.97707129
_cell_angle_beta   56.38300037
_cell_angle_gamma   49.63991246
_symmetry_Int_Tables_number   1
_chemical_formula_structural   Cs2Tm(PdO2)3
_chemical_formula_sum   'Cs4 Tm2 Pd6 O12'
_cell_volume   456.00988234
_cell_formula_units_Z   2
loop_
 _symmetry_equiv_pos_site_id
 _symmetry_equiv_pos_as_xyz
  1  'x, y, z'
loop_
 _atom_site_type_symbol
 _atom_site_label
 _atom_site_symmetry_multiplicity
 _atom_site_fract_x
 _atom_site_fract_y
 _atom_site_fract_z
 _atom_site_occupancy
  Cs  Cs0  1  0.750000  0.750000  0.750000  1
  Cs  Cs1  1  0.250000  0.250000  0.250000  1
  Cs  Cs2  1  0.221271  0.778729  0.221271  1
  Cs  Cs3  1  0.778729  0.221271  0.778729  1
  Tm  Tm4  1  0.670513  0.670513  0.329487  1
  Tm  Tm5  1  0.329487  0.329487  0.670513  1
  Pd  Pd6  1  0.686568  0.006400  0.313432  1
  Pd  Pd7  1  0.993600  0.313432  0.006400  1
  Pd  Pd8  1  0.006400  0.686568  0.993600  1
  Pd  Pd9  1  0.313432  0.993600  0.686568  1
  Pd  Pd10  1  0.326272  0.673728  0.673728  1
  Pd  Pd11  1  0.673728  0.326272  0.326272  1
  O  O12  1  0.310443  0.480068  0.879748  1
  O  O13  1  0.329741  0.879748  0.480068  1
  O  O14  1  0.879748  0.329741  0.310443  1
  O  O15  1  0.480068  0.310443  0.329741  1
  O  O16  1  0.689557  0.519932  0.120252  1
  O  O17  1  0.670259  0.120252  0.519932  1
  O  O18  1  0.702080  0.891209  0.108791  1
  O  O19  1  0.519932  0.689557  0.670259  1
  O  O20  1  0.891209  0.702080  0.297920  1
  O  O21  1  0.108791  0.297920  0.702080  1
  O  O22  1  0.297920  0.108791  0.891209  1
  O  O23  1  0.120252  0.670259  0.689557  1
