# generated using pymatgen
data_Ho9Er11CoBi8Os3
_symmetry_space_group_name_H-M   'P 1'
_cell_length_a   7.90687100
_cell_length_b   8.97509300
_cell_length_c   12.41901116
_cell_angle_alpha   90.00000000
_cell_angle_beta   89.73116843
_cell_angle_gamma   90.00000000
_symmetry_Int_Tables_number   1
_chemical_formula_structural   Ho9Er11CoBi8Os3
_chemical_formula_sum   'Ho9 Er11 Co1 Bi8 Os3'
_cell_volume   881.30421603
_cell_formula_units_Z   1
loop_
 _symmetry_equiv_pos_site_id
 _symmetry_equiv_pos_as_xyz
  1  'x, y, z'
loop_
 _atom_site_type_symbol
 _atom_site_label
 _atom_site_symmetry_multiplicity
 _atom_site_fract_x
 _atom_site_fract_y
 _atom_site_fract_z
 _atom_site_occupancy
  Ho  Ho0  1  0.842239  0.250000  0.790719  1
  Ho  Ho1  1  0.879290  0.750000  0.805774  1
  Ho  Ho2  1  0.120018  0.250000  0.193707  1
  Ho  Ho3  1  0.378355  0.250000  0.692928  1
  Ho  Ho4  1  0.616370  0.750000  0.312851  1
  Ho  Ho5  1  0.056838  0.750000  0.496837  1
  Ho  Ho6  1  0.944533  0.250000  0.503086  1
  Ho  Ho7  1  0.557999  0.250000  0.003815  1
  Ho  Ho8  1  0.441811  0.750000  0.995715  1
  Er  Er9  1  0.344525  0.750000  0.701387  1
  Er  Er10  1  0.658198  0.250000  0.292151  1
  Er  Er11  1  0.156341  0.750000  0.207032  1
  Er  Er12  1  0.673651  0.542548  0.563595  1
  Er  Er13  1  0.326642  0.460622  0.437116  1
  Er  Er14  1  0.174132  0.457178  0.936041  1
  Er  Er15  1  0.326642  0.039378  0.437116  1
  Er  Er16  1  0.825148  0.543783  0.064352  1
  Er  Er17  1  0.673651  0.957452  0.563595  1
  Er  Er18  1  0.825148  0.956217  0.064352  1
  Er  Er19  1  0.174132  0.042822  0.936041  1
  Co  Co20  1  0.429678  0.750000  0.491590  1
  Bi  Bi21  1  0.569516  0.508948  0.827077  1
  Bi  Bi22  1  0.430009  0.492209  0.173222  1
  Bi  Bi23  1  0.071450  0.492229  0.671993  1
  Bi  Bi24  1  0.430009  0.007791  0.173222  1
  Bi  Bi25  1  0.929730  0.509033  0.328195  1
  Bi  Bi26  1  0.569516  0.991052  0.827077  1
  Bi  Bi27  1  0.929730  0.990967  0.328195  1
  Bi  Bi28  1  0.071450  0.007771  0.671993  1
  Os  Os29  1  0.075096  0.750000  0.989836  1
  Os  Os30  1  0.924359  0.250000  0.009942  1
  Os  Os31  1  0.573796  0.250000  0.509450  1
