# generated using pymatgen
data_BaCd9Au2
_symmetry_space_group_name_H-M   'P 1'
_cell_length_a   9.41968462
_cell_length_b   9.41968512
_cell_length_c   9.41968447
_cell_angle_alpha   99.64451169
_cell_angle_beta   99.64451099
_cell_angle_gamma   131.67699887
_symmetry_Int_Tables_number   1
_chemical_formula_structural   BaCd9Au2
_chemical_formula_sum   'Ba2 Cd18 Au4'
_cell_volume   569.58383301
_cell_formula_units_Z   2
loop_
 _symmetry_equiv_pos_site_id
 _symmetry_equiv_pos_as_xyz
  1  'x, y, z'
loop_
 _atom_site_type_symbol
 _atom_site_label
 _atom_site_symmetry_multiplicity
 _atom_site_fract_x
 _atom_site_fract_y
 _atom_site_fract_z
 _atom_site_occupancy
  Ba  Ba0  1  0.750000  0.250000  0.500000  1
  Ba  Ba1  1  0.500000  0.500000  0.000000  1
  Cd  Cd2  1  0.927556  0.008560  0.323378  1
  Cd  Cd3  1  0.685182  0.604179  0.676622  1
  Cd  Cd4  1  0.250000  0.750000  0.500000  1
  Cd  Cd5  1  0.000000  0.000000  0.000000  1
  Cd  Cd6  1  0.927556  0.604179  0.918997  1
  Cd  Cd7  1  0.854179  0.435182  0.176622  1
  Cd  Cd8  1  0.258560  0.677556  0.823378  1
  Cd  Cd9  1  0.685182  0.008560  0.081003  1
  Cd  Cd10  1  0.395821  0.072444  0.081003  1
  Cd  Cd11  1  0.991440  0.314818  0.918997  1
  Cd  Cd12  1  0.564818  0.145821  0.823378  1
  Cd  Cd13  1  0.322444  0.741440  0.176622  1
  Cd  Cd14  1  0.322444  0.145821  0.581003  1
  Cd  Cd15  1  0.395821  0.314818  0.323378  1
  Cd  Cd16  1  0.991440  0.072444  0.676622  1
  Cd  Cd17  1  0.564818  0.741440  0.418997  1
  Cd  Cd18  1  0.854179  0.677556  0.418997  1
  Cd  Cd19  1  0.258560  0.435182  0.581003  1
  Au  Au20  1  0.125000  0.875000  0.250000  1
  Au  Au21  1  0.125000  0.375000  0.250000  1
  Au  Au22  1  0.125000  0.875000  0.750000  1
  Au  Au23  1  0.625000  0.875000  0.750000  1
