# generated using pymatgen
data_Pr4Zn(FeO4)3
_symmetry_space_group_name_H-M   'P 1'
_cell_length_a   5.52594509
_cell_length_b   5.69139986
_cell_length_c   7.88580494
_cell_angle_alpha   90.06888875
_cell_angle_beta   89.95871283
_cell_angle_gamma   90.13307154
_symmetry_Int_Tables_number   1
_chemical_formula_structural   Pr4Zn(FeO4)3
_chemical_formula_sum   'Pr4 Zn1 Fe3 O12'
_cell_volume   248.01051646
_cell_formula_units_Z   1
loop_
 _symmetry_equiv_pos_site_id
 _symmetry_equiv_pos_as_xyz
  1  'x, y, z'
loop_
 _atom_site_type_symbol
 _atom_site_label
 _atom_site_symmetry_multiplicity
 _atom_site_fract_x
 _atom_site_fract_y
 _atom_site_fract_z
 _atom_site_occupancy
  Pr  Pr0  1  0.013357  0.944921  0.747986  1
  Pr  Pr1  1  0.512275  0.551672  0.252073  1
  Pr  Pr2  1  0.487725  0.448328  0.747927  1
  Pr  Pr3  1  0.986643  0.055079  0.252014  1
  Zn  Zn4  1  0.000000  0.500000  0.500000  1
  Fe  Fe5  1  0.500000  0.000000  0.500000  1
  Fe  Fe6  1  0.500000  0.000000  0.000000  1
  Fe  Fe7  1  0.000000  0.500000  0.000000  1
  O  O8  1  0.699857  0.286520  0.453363  1
  O  O9  1  0.215134  0.199323  0.545865  1
  O  O10  1  0.791989  0.794525  0.048646  1
  O  O11  1  0.293897  0.707584  0.952063  1
  O  O12  1  0.300143  0.713480  0.546637  1
  O  O13  1  0.784866  0.800677  0.454135  1
  O  O14  1  0.208011  0.205475  0.951354  1
  O  O15  1  0.706103  0.292416  0.047937  1
  O  O16  1  0.087949  0.475509  0.243071  1
  O  O17  1  0.589242  0.024625  0.752295  1
  O  O18  1  0.410758  0.975375  0.247705  1
  O  O19  1  0.912051  0.524491  0.756929  1
