# generated using pymatgen
data_Rb2Tb3Sm(CuSe4)2
_symmetry_space_group_name_H-M   'P 1'
_cell_length_a   4.19221300
_cell_length_b   7.48708823
_cell_length_c   14.46393401
_cell_angle_alpha   90.08179509
_cell_angle_beta   90.00000000
_cell_angle_gamma   73.74201695
_symmetry_Int_Tables_number   1
_chemical_formula_structural   Rb2Tb3Sm(CuSe4)2
_chemical_formula_sum   'Rb2 Tb3 Sm1 Cu2 Se8'
_cell_volume   435.83127033
_cell_formula_units_Z   1
loop_
 _symmetry_equiv_pos_site_id
 _symmetry_equiv_pos_as_xyz
  1  'x, y, z'
loop_
 _atom_site_type_symbol
 _atom_site_label
 _atom_site_symmetry_multiplicity
 _atom_site_fract_x
 _atom_site_fract_y
 _atom_site_fract_z
 _atom_site_occupancy
  Rb  Rb0  1  0.890636  0.218729  0.250254  1
  Rb  Rb1  1  0.109325  0.781352  0.749639  1
  Tb  Tb2  1  0.634872  0.730258  0.064171  1
  Tb  Tb3  1  0.634245  0.731511  0.436381  1
  Tb  Tb4  1  0.365594  0.268811  0.562842  1
  Sm  Sm5  1  0.366325  0.267349  0.936730  1
  Cu  Cu6  1  0.162203  0.675596  0.250185  1
  Cu  Cu7  1  0.837324  0.325352  0.750288  1
  Se  Se8  1  0.002194  0.995612  0.001142  1
  Se  Se9  1  0.261047  0.477905  0.110985  1
  Se  Se10  1  0.570351  0.859301  0.250347  1
  Se  Se11  1  0.261180  0.477641  0.390320  1
  Se  Se12  1  0.000049  0.999902  0.499893  1
  Se  Se13  1  0.738707  0.522588  0.609505  1
  Se  Se14  1  0.429750  0.140500  0.747935  1
  Se  Se15  1  0.736206  0.527590  0.889382  1
