# generated using pymatgen
data_Ho2Co2Br
_symmetry_space_group_name_H-M   'P 1'
_cell_length_a   3.90315500
_cell_length_b   3.90315442
_cell_length_c   16.35008000
_cell_angle_alpha   90.00000000
_cell_angle_beta   90.00000000
_cell_angle_gamma   119.99999647
_symmetry_Int_Tables_number   1
_chemical_formula_structural   Ho2Co2Br
_chemical_formula_sum   'Ho4 Co4 Br2'
_cell_volume   215.71585188
_cell_formula_units_Z   2
loop_
 _symmetry_equiv_pos_site_id
 _symmetry_equiv_pos_as_xyz
  1  'x, y, z'
loop_
 _atom_site_type_symbol
 _atom_site_label
 _atom_site_symmetry_multiplicity
 _atom_site_fract_x
 _atom_site_fract_y
 _atom_site_fract_z
 _atom_site_occupancy
  Ho  Ho0  1  0.000000  0.000000  0.106774  1
  Ho  Ho1  1  0.000000  0.000000  0.393226  1
  Ho  Ho2  1  0.000000  0.000000  0.893226  1
  Ho  Ho3  1  0.000000  0.000000  0.606774  1
  Co  Co4  1  0.333333  0.666667  0.001965  1
  Co  Co5  1  0.666667  0.333333  0.998035  1
  Co  Co6  1  0.333333  0.666667  0.498035  1
  Co  Co7  1  0.666667  0.333333  0.501965  1
  Br  Br8  1  0.333333  0.666667  0.750000  1
  Br  Br9  1  0.666667  0.333333  0.250000  1
