# generated using pymatgen
data_MnCo8Ge3(Mo3N)4
_symmetry_space_group_name_H-M   'P 1'
_cell_length_a   7.81511824
_cell_length_b   7.91630750
_cell_length_c   7.81511900
_cell_angle_alpha   60.42194558
_cell_angle_beta   60.00000102
_cell_angle_gamma   60.42194764
_symmetry_Int_Tables_number   1
_chemical_formula_structural   MnCo8Ge3(Mo3N)4
_chemical_formula_sum   'Mn1 Co8 Ge3 Mo12 N4'
_cell_volume   344.04826729
_cell_formula_units_Z   1
loop_
 _symmetry_equiv_pos_site_id
 _symmetry_equiv_pos_as_xyz
  1  'x, y, z'
loop_
 _atom_site_type_symbol
 _atom_site_label
 _atom_site_symmetry_multiplicity
 _atom_site_fract_x
 _atom_site_fract_y
 _atom_site_fract_z
 _atom_site_occupancy
  Mn  Mn0  1  0.625000  0.125000  0.625000  1
  Co  Co1  1  0.835734  0.492797  0.835734  1
  Co  Co2  1  0.418474  0.415547  0.747504  1
  Co  Co3  1  0.747504  0.415547  0.418474  1
  Co  Co4  1  0.418474  0.415547  0.418474  1
  Co  Co5  1  0.502496  0.834453  0.831526  1
  Co  Co6  1  0.831526  0.834453  0.831526  1
  Co  Co7  1  0.831526  0.834453  0.502496  1
  Co  Co8  1  0.414266  0.757203  0.414266  1
  Ge  Ge9  1  0.625000  0.625000  0.125000  1
  Ge  Ge10  1  0.125000  0.625000  0.625000  1
  Ge  Ge11  1  0.625000  0.625000  0.625000  1
  Mo  Mo12  1  0.203606  0.195500  0.800448  1
  Mo  Mo13  1  0.449552  0.054500  0.046394  1
  Mo  Mo14  1  0.057891  0.441148  0.443070  1
  Mo  Mo15  1  0.443070  0.441148  0.057891  1
  Mo  Mo16  1  0.449552  0.054500  0.449552  1
  Mo  Mo17  1  0.057891  0.441148  0.057891  1
  Mo  Mo18  1  0.800448  0.195500  0.800448  1
  Mo  Mo19  1  0.800448  0.195500  0.203606  1
  Mo  Mo20  1  0.192109  0.808852  0.806930  1
  Mo  Mo21  1  0.192109  0.808852  0.192109  1
  Mo  Mo22  1  0.046394  0.054500  0.449552  1
  Mo  Mo23  1  0.806930  0.808852  0.192109  1
  N  N24  1  0.125000  0.625000  0.125000  1
  N  N25  1  0.125000  0.125000  0.625000  1
  N  N26  1  0.625000  0.125000  0.125000  1
  N  N27  1  0.125000  0.125000  0.125000  1
