# generated using pymatgen
data_Sm4Ga3GeRu4
_symmetry_space_group_name_H-M   'P 1'
_cell_length_a   4.57678600
_cell_length_b   7.15766006
_cell_length_c   7.29062081
_cell_angle_alpha   90.36891694
_cell_angle_beta   90.00000000
_cell_angle_gamma   90.00000000
_symmetry_Int_Tables_number   1
_chemical_formula_structural   Sm4Ga3GeRu4
_chemical_formula_sum   'Sm4 Ga3 Ge1 Ru4'
_cell_volume   238.82906775
_cell_formula_units_Z   1
loop_
 _symmetry_equiv_pos_site_id
 _symmetry_equiv_pos_as_xyz
  1  'x, y, z'
loop_
 _atom_site_type_symbol
 _atom_site_label
 _atom_site_symmetry_multiplicity
 _atom_site_fract_x
 _atom_site_fract_y
 _atom_site_fract_z
 _atom_site_occupancy
  Sm  Sm0  1  0.250000  0.194591  0.976362  1
  Sm  Sm1  1  0.750000  0.807998  0.022570  1
  Sm  Sm2  1  0.750000  0.692927  0.524021  1
  Sm  Sm3  1  0.250000  0.305682  0.477796  1
  Ga  Ga4  1  0.250000  0.893023  0.307053  1
  Ga  Ga5  1  0.750000  0.107354  0.693823  1
  Ga  Ga6  1  0.750000  0.395076  0.195864  1
  Ge  Ge7  1  0.250000  0.603521  0.803657  1
  Ru  Ru8  1  0.250000  0.563764  0.149386  1
  Ru  Ru9  1  0.750000  0.441089  0.845141  1
  Ru  Ru10  1  0.750000  0.064594  0.343881  1
  Ru  Ru11  1  0.250000  0.930383  0.660445  1
