# generated using pymatgen
data_Tb8Dy3Er9Sn16
_symmetry_space_group_name_H-M   'P 1'
_cell_length_a   8.02250927
_cell_length_b   8.16657528
_cell_length_c   15.43562407
_cell_angle_alpha   89.99083891
_cell_angle_beta   90.00631783
_cell_angle_gamma   89.97121978
_symmetry_Int_Tables_number   1
_chemical_formula_structural   Tb8Dy3Er9Sn16
_chemical_formula_sum   'Tb8 Dy3 Er9 Sn16'
_cell_volume   1011.28677379
_cell_formula_units_Z   1
loop_
 _symmetry_equiv_pos_site_id
 _symmetry_equiv_pos_as_xyz
  1  'x, y, z'
loop_
 _atom_site_type_symbol
 _atom_site_label
 _atom_site_symmetry_multiplicity
 _atom_site_fract_x
 _atom_site_fract_y
 _atom_site_fract_z
 _atom_site_occupancy
  Tb  Tb0  1  0.520346  0.320239  0.902610  1
  Tb  Tb1  1  0.020216  0.179715  0.597336  1
  Tb  Tb2  1  0.479693  0.679617  0.402577  1
  Tb  Tb3  1  0.979756  0.820214  0.097347  1
  Tb  Tb4  1  0.479676  0.679779  0.097518  1
  Tb  Tb5  1  0.979819  0.820132  0.402430  1
  Tb  Tb6  1  0.520169  0.320130  0.597471  1
  Tb  Tb7  1  0.020248  0.179973  0.902728  1
  Dy  Dy8  1  0.367393  0.835999  0.878011  1
  Dy  Dy9  1  0.867484  0.663960  0.622146  1
  Dy  Dy10  1  0.632607  0.164011  0.377739  1
  Er  Er11  1  0.132730  0.336244  0.122349  1
  Er  Er12  1  0.632840  0.163679  0.122122  1
  Er  Er13  1  0.132941  0.336281  0.377718  1
  Er  Er14  1  0.367028  0.836300  0.622238  1
  Er  Er15  1  0.866979  0.663749  0.877749  1
  Er  Er16  1  0.198130  0.503145  0.749952  1
  Er  Er17  1  0.698124  0.996842  0.750113  1
  Er  Er18  1  0.802004  0.496742  0.249770  1
  Er  Er19  1  0.301685  0.003368  0.249928  1
  Sn  Sn20  1  0.293962  0.037442  0.042252  1
  Sn  Sn21  1  0.794612  0.463495  0.457881  1
  Sn  Sn22  1  0.705361  0.963562  0.542063  1
  Sn  Sn23  1  0.205197  0.535955  0.958411  1
  Sn  Sn24  1  0.706902  0.963468  0.958408  1
  Sn  Sn25  1  0.206870  0.536565  0.541576  1
  Sn  Sn26  1  0.293143  0.036586  0.458419  1
  Sn  Sn27  1  0.794231  0.463110  0.041677  1
  Sn  Sn28  1  0.564778  0.619888  0.750009  1
  Sn  Sn29  1  0.064793  0.880125  0.750008  1
  Sn  Sn30  1  0.434942  0.380035  0.249852  1
  Sn  Sn31  1  0.935501  0.120197  0.249826  1
  Sn  Sn32  1  0.328649  0.146747  0.749820  1
  Sn  Sn33  1  0.828622  0.353147  0.750168  1
  Sn  Sn34  1  0.671320  0.853173  0.249810  1
  Sn  Sn35  1  0.171249  0.646387  0.249966  1
