# generated using pymatgen
data_ErTh7(AlRu)8
_symmetry_space_group_name_H-M   'P 1'
_cell_length_a   4.10138900
_cell_length_b   7.31396134
_cell_length_c   16.23393687
_cell_angle_alpha   90.52030145
_cell_angle_beta   90.00000000
_cell_angle_gamma   90.00000000
_symmetry_Int_Tables_number   1
_chemical_formula_structural   ErTh7(AlRu)8
_chemical_formula_sum   'Er1 Th7 Al8 Ru8'
_cell_volume   486.95582815
_cell_formula_units_Z   1
loop_
 _symmetry_equiv_pos_site_id
 _symmetry_equiv_pos_as_xyz
  1  'x, y, z'
loop_
 _atom_site_type_symbol
 _atom_site_label
 _atom_site_symmetry_multiplicity
 _atom_site_fract_x
 _atom_site_fract_y
 _atom_site_fract_z
 _atom_site_occupancy
  Er  Er0  1  0.750000  0.957866  0.216334  1
  Th  Th1  1  0.250000  0.166430  0.560153  1
  Th  Th2  1  0.750000  0.831485  0.436542  1
  Th  Th3  1  0.750000  0.458191  0.280691  1
  Th  Th4  1  0.750000  0.332355  0.062520  1
  Th  Th5  1  0.250000  0.669469  0.940121  1
  Th  Th6  1  0.250000  0.043069  0.782318  1
  Th  Th7  1  0.250000  0.542630  0.718029  1
  Al  Al8  1  0.750000  0.502964  0.561242  1
  Al  Al9  1  0.750000  0.365770  0.851019  1
  Al  Al10  1  0.750000  0.003721  0.938849  1
  Al  Al11  1  0.750000  0.866199  0.649793  1
  Al  Al12  1  0.250000  0.493039  0.437332  1
  Al  Al13  1  0.250000  0.998114  0.067376  1
  Al  Al14  1  0.250000  0.643542  0.151624  1
  Al  Al15  1  0.250000  0.126358  0.343716  1
  Ru  Ru16  1  0.750000  0.742499  0.816541  1
  Ru  Ru17  1  0.250000  0.237207  0.936421  1
  Ru  Ru18  1  0.750000  0.258471  0.434561  1
  Ru  Ru19  1  0.250000  0.747716  0.319749  1
  Ru  Ru20  1  0.750000  0.763326  0.063972  1
  Ru  Ru21  1  0.750000  0.245525  0.682142  1
  Ru  Ru22  1  0.250000  0.268064  0.183879  1
  Ru  Ru23  1  0.250000  0.735988  0.565077  1
