# generated using pymatgen
data_Nd11Ni(Hg3Pd)3
_symmetry_space_group_name_H-M   'P 1'
_cell_length_a   13.45970973
_cell_length_b   13.46542979
_cell_length_c   3.78344500
_cell_angle_alpha   90.00000000
_cell_angle_beta   90.00000000
_cell_angle_gamma   113.34297091
_symmetry_Int_Tables_number   1
_chemical_formula_structural   Nd11Ni(Hg3Pd)3
_chemical_formula_sum   'Nd11 Ni1 Hg9 Pd3'
_cell_volume   629.58841326
_cell_formula_units_Z   1
loop_
 _symmetry_equiv_pos_site_id
 _symmetry_equiv_pos_as_xyz
  1  'x, y, z'
loop_
 _atom_site_type_symbol
 _atom_site_label
 _atom_site_symmetry_multiplicity
 _atom_site_fract_x
 _atom_site_fract_y
 _atom_site_fract_z
 _atom_site_occupancy
  Nd  Nd0  1  0.074994  0.417420  0.000000  1
  Nd  Nd1  1  0.926175  0.584724  0.000000  1
  Nd  Nd2  1  0.417147  0.072023  0.000000  1
  Nd  Nd3  1  0.582204  0.919582  0.000000  1
  Nd  Nd4  1  0.627035  0.373563  0.000000  1
  Nd  Nd5  1  0.380056  0.631210  0.000000  1
  Nd  Nd6  1  0.831893  0.164633  0.000000  1
  Nd  Nd7  1  0.168905  0.834543  0.000000  1
  Nd  Nd8  1  0.998486  0.999330  0.000000  1
  Nd  Nd9  1  0.303961  0.304633  0.000000  1
  Nd  Nd10  1  0.690460  0.697920  0.000000  1
  Ni  Ni11  1  0.549053  0.752001  0.500000  1
  Hg  Hg12  1  0.840417  0.369307  0.500000  1
  Hg  Hg13  1  0.159720  0.630275  0.500000  1
  Hg  Hg14  1  0.370536  0.837038  0.500000  1
  Hg  Hg15  1  0.630761  0.158611  0.500000  1
  Hg  Hg16  1  0.066947  0.214519  0.500000  1
  Hg  Hg17  1  0.932141  0.785861  0.500000  1
  Hg  Hg18  1  0.214132  0.065966  0.500000  1
  Hg  Hg19  1  0.784049  0.930561  0.500000  1
  Hg  Hg20  1  0.500848  0.502714  0.500000  1
  Pd  Pd21  1  0.251851  0.452156  0.500000  1
  Pd  Pd22  1  0.748822  0.552091  0.500000  1
  Pd  Pd23  1  0.449406  0.249318  0.500000  1
