# generated using pymatgen
data_ErZr11(Si3Ru)4
_symmetry_space_group_name_H-M   'P 1'
_cell_length_a   3.95749500
_cell_length_b   10.36548505
_cell_length_c   11.85985279
_cell_angle_alpha   90.15305319
_cell_angle_beta   90.00000000
_cell_angle_gamma   90.00000000
_symmetry_Int_Tables_number   1
_chemical_formula_structural   ErZr11(Si3Ru)4
_chemical_formula_sum   'Er1 Zr11 Si12 Ru4'
_cell_volume   486.50549904
_cell_formula_units_Z   1
loop_
 _symmetry_equiv_pos_site_id
 _symmetry_equiv_pos_as_xyz
  1  'x, y, z'
loop_
 _atom_site_type_symbol
 _atom_site_label
 _atom_site_symmetry_multiplicity
 _atom_site_fract_x
 _atom_site_fract_y
 _atom_site_fract_z
 _atom_site_occupancy
  Er  Er0  1  0.750000  0.158350  0.697870  1
  Zr  Zr1  1  0.250000  0.874719  0.022749  1
  Zr  Zr2  1  0.250000  0.625643  0.521255  1
  Zr  Zr3  1  0.750000  0.123237  0.981584  1
  Zr  Zr4  1  0.750000  0.377809  0.476381  1
  Zr  Zr5  1  0.250000  0.922619  0.595507  1
  Zr  Zr6  1  0.250000  0.575323  0.098306  1
  Zr  Zr7  1  0.750000  0.074550  0.398519  1
  Zr  Zr8  1  0.750000  0.424209  0.905002  1
  Zr  Zr9  1  0.250000  0.658081  0.801042  1
  Zr  Zr10  1  0.250000  0.840875  0.300824  1
  Zr  Zr11  1  0.750000  0.342751  0.198882  1
  Si  Si12  1  0.250000  0.011614  0.828205  1
  Si  Si13  1  0.250000  0.487238  0.325338  1
  Si  Si14  1  0.750000  0.984263  0.174392  1
  Si  Si15  1  0.750000  0.513442  0.674322  1
  Si  Si16  1  0.250000  0.252187  0.844873  1
  Si  Si17  1  0.250000  0.250926  0.339327  1
  Si  Si18  1  0.750000  0.748873  0.158921  1
  Si  Si19  1  0.750000  0.751055  0.659416  1
  Si  Si20  1  0.250000  0.196999  0.537972  1
  Si  Si21  1  0.250000  0.305691  0.044950  1
  Si  Si22  1  0.750000  0.805999  0.455783  1
  Si  Si23  1  0.750000  0.694476  0.956765  1
  Ru  Ru24  1  0.250000  0.387772  0.679590  1
  Ru  Ru25  1  0.250000  0.112891  0.179103  1
  Ru  Ru26  1  0.750000  0.613381  0.320012  1
  Ru  Ru27  1  0.750000  0.885027  0.823111  1
