# generated using pymatgen
data_Li3Sm2Dy(WO6)2
_symmetry_space_group_name_H-M   'P 1'
_cell_length_a   10.79804815
_cell_length_b   10.77839958
_cell_length_c   10.78900943
_cell_angle_alpha   109.45715873
_cell_angle_beta   109.53091119
_cell_angle_gamma   109.42265748
_symmetry_Int_Tables_number   1
_chemical_formula_structural   Li3Sm2Dy(WO6)2
_chemical_formula_sum   'Li12 Sm8 Dy4 W8 O48'
_cell_volume   966.66199718
_cell_formula_units_Z   4
loop_
 _symmetry_equiv_pos_site_id
 _symmetry_equiv_pos_as_xyz
  1  'x, y, z'
loop_
 _atom_site_type_symbol
 _atom_site_label
 _atom_site_symmetry_multiplicity
 _atom_site_fract_x
 _atom_site_fract_y
 _atom_site_fract_z
 _atom_site_occupancy
  Li  Li0  1  0.749358  0.374725  0.125062  1
  Li  Li1  1  0.875705  0.750336  0.125062  1
  Li  Li2  1  0.125470  0.375041  0.249944  1
  Li  Li3  1  0.624474  0.874903  0.249944  1
  Li  Li4  1  0.249488  0.123986  0.373572  1
  Li  Li5  1  0.624086  0.249586  0.373572  1
  Li  Li6  1  0.375108  0.750267  0.624638  1
  Li  Li7  1  0.749531  0.874372  0.624639  1
  Li  Li8  1  0.375077  0.124883  0.750575  1
  Li  Li9  1  0.875497  0.625693  0.750575  1
  Li  Li10  1  0.126212  0.250355  0.876197  1
  Li  Li11  1  0.249985  0.625841  0.876197  1
  Sm  Sm12  1  0.125764  0.749897  0.374111  1
  Sm  Sm13  1  0.748348  0.624215  0.374112  1
  Sm  Sm14  1  0.874950  0.249499  0.623889  1
  Sm  Sm15  1  0.248939  0.374390  0.623890  1
  Sm  Sm16  1  0.624891  0.374891  0.749781  1
  Sm  Sm17  1  0.125792  0.875792  0.751584  1
  Sm  Sm18  1  0.750754  0.125322  0.876092  1
  Sm  Sm19  1  0.625339  0.750770  0.876092  1
  Dy  Dy20  1  0.374485  0.250255  0.125767  1
  Dy  Dy21  1  0.251281  0.875512  0.125767  1
  Dy  Dy22  1  0.875257  0.125257  0.250513  1
  Dy  Dy23  1  0.374443  0.624444  0.248886  1
  W  W24  1  0.002237  0.001040  0.003191  1
  W  W25  1  0.002161  0.501496  0.000507  1
  W  W26  1  0.498346  0.499012  0.000507  1
  W  W27  1  0.500954  0.002151  0.003191  1
  W  W28  1  0.499556  0.998406  0.497850  1
  W  W29  1  0.998955  0.498854  0.498495  1
  W  W30  1  0.999540  0.999641  0.498495  1
  W  W31  1  0.498295  0.499444  0.497850  1
  O  O32  1  0.327026  0.407859  0.028576  1
  O  O33  1  0.201549  0.620717  0.028576  1
  O  O34  1  0.700157  0.173878  0.084175  1
  O  O35  1  0.884019  0.910298  0.084176  1
  O  O36  1  0.620778  0.922498  0.095083  1
  O  O37  1  0.974307  0.172586  0.095083  1
  O  O38  1  0.589303  0.416187  0.116608  1
  O  O39  1  0.027305  0.700422  0.116608  1
  O  O40  1  0.202053  0.081050  0.173508  1
  O  O41  1  0.471456  0.092459  0.173509  1
  O  O42  1  0.121169  0.526981  0.199035  1
  O  O43  1  0.577866  0.672053  0.199035  1
  O  O44  1  0.326686  0.418938  0.298113  1
  O  O45  1  0.471427  0.879175  0.298113  1
  O  O46  1  0.908205  0.525171  0.326092  1
  O  O47  1  0.917888  0.800922  0.326092  1
  O  O48  1  0.577693  0.405870  0.378866  1
  O  O49  1  0.301173  0.972996  0.378867  1
  O  O50  1  0.827526  0.026629  0.405654  1
  O  O51  1  0.078129  0.379025  0.405654  1
  O  O52  1  0.826112  0.299488  0.416010  1
  O  O53  1  0.089898  0.116523  0.416011  1
  O  O54  1  0.589213  0.673018  0.472645  1
  O  O55  1  0.383431  0.799628  0.472645  1
  O  O56  1  0.616461  0.197322  0.523759  1
  O  O57  1  0.407297  0.326437  0.523759  1
  O  O58  1  0.173005  0.697168  0.580940  1
  O  O59  1  0.907935  0.883773  0.580940  1
  O  O60  1  0.917888  0.615942  0.591112  1
  O  O61  1  0.173224  0.975169  0.591113  1
  O  O62  1  0.698010  0.024487  0.615889  1
  O  O63  1  0.417879  0.591402  0.615889  1
  O  O64  1  0.081354  0.197893  0.672784  1
  O  O65  1  0.091429  0.474891  0.672784  1
  O  O66  1  0.523647  0.115356  0.696164  1
  O  O67  1  0.672518  0.580807  0.696164  1
  O  O68  1  0.418036  0.326653  0.801933  1
  O  O69  1  0.883898  0.475281  0.801933  1
  O  O70  1  0.804362  0.919578  0.828078  1
  O  O71  1  0.523716  0.908500  0.828079  1
  O  O72  1  0.976119  0.302468  0.883686  1
  O  O73  1  0.407567  0.581219  0.883687  1
  O  O74  1  0.384131  0.084009  0.911144  1
  O  O75  1  0.027014  0.827135  0.911145  1
  O  O76  1  0.120624  0.094596  0.923237  1
  O  O77  1  0.302614  0.828641  0.923237  1
  O  O78  1  0.804029  0.384638  0.976629  1
  O  O79  1  0.672600  0.591990  0.976629  1
