# generated using pymatgen
data_YbPa2(AlNi)3
_symmetry_space_group_name_H-M   'P 1'
_cell_length_a   6.88613039
_cell_length_b   6.88210855
_cell_length_c   3.90776300
_cell_angle_alpha   90.00000000
_cell_angle_beta   90.00000000
_cell_angle_gamma   119.98067722
_symmetry_Int_Tables_number   1
_chemical_formula_structural   YbPa2(AlNi)3
_chemical_formula_sum   'Yb1 Pa2 Al3 Ni3'
_cell_volume   160.41321278
_cell_formula_units_Z   1
loop_
 _symmetry_equiv_pos_site_id
 _symmetry_equiv_pos_as_xyz
  1  'x, y, z'
loop_
 _atom_site_type_symbol
 _atom_site_label
 _atom_site_symmetry_multiplicity
 _atom_site_fract_x
 _atom_site_fract_y
 _atom_site_fract_z
 _atom_site_occupancy
  Yb  Yb0  1  0.000000  0.581722  0.500000  1
  Pa  Pa1  1  0.423939  0.421855  0.500000  1
  Pa  Pa2  1  0.576061  0.997916  0.500000  1
  Al  Al3  1  0.769658  0.766818  0.000000  1
  Al  Al4  1  0.230342  0.997160  0.000000  1
  Al  Al5  1  0.000000  0.238583  0.000000  1
  Ni  Ni6  1  0.647182  0.316068  0.000000  1
  Ni  Ni7  1  0.352818  0.668888  0.000000  1
  Ni  Ni8  1  0.000000  0.010991  0.500000  1
