# generated using pymatgen
data_Lu4MoOs7
_symmetry_space_group_name_H-M   'P 1'
_cell_length_a   5.40780400
_cell_length_b   5.21772866
_cell_length_c   8.84399200
_cell_angle_alpha   90.00000000
_cell_angle_beta   90.00000000
_cell_angle_gamma   121.21253857
_symmetry_Int_Tables_number   1
_chemical_formula_structural   Lu4MoOs7
_chemical_formula_sum   'Lu4 Mo1 Os7'
_cell_volume   213.42451406
_cell_formula_units_Z   1
loop_
 _symmetry_equiv_pos_site_id
 _symmetry_equiv_pos_as_xyz
  1  'x, y, z'
loop_
 _atom_site_type_symbol
 _atom_site_label
 _atom_site_symmetry_multiplicity
 _atom_site_fract_x
 _atom_site_fract_y
 _atom_site_fract_z
 _atom_site_occupancy
  Lu  Lu0  1  0.332920  0.665841  0.433639  1
  Lu  Lu1  1  0.668866  0.337731  0.562983  1
  Lu  Lu2  1  0.668866  0.337731  0.937017  1
  Lu  Lu3  1  0.332920  0.665841  0.066361  1
  Mo  Mo4  1  0.168724  0.337449  0.750000  1
  Os  Os5  1  0.171919  0.825806  0.750000  1
  Os  Os6  1  0.342397  0.169053  0.250000  1
  Os  Os7  1  0.826258  0.652515  0.250000  1
  Os  Os8  1  0.653886  0.825806  0.750000  1
  Os  Os9  1  0.003293  0.006587  0.001930  1
  Os  Os10  1  0.826656  0.169053  0.250000  1
  Os  Os11  1  0.003293  0.006587  0.498070  1
