# generated using pymatgen
data_Rb2TeClF5
_symmetry_space_group_name_H-M   'P 1'
_cell_length_a   11.10319200
_cell_length_b   4.86524130
_cell_length_c   16.11364946
_cell_angle_alpha   73.33453623
_cell_angle_beta   90.00000000
_cell_angle_gamma   90.00000000
_symmetry_Int_Tables_number   1
_chemical_formula_structural   Rb2TeClF5
_chemical_formula_sum   'Rb8 Te4 Cl4 F20'
_cell_volume   833.89166097
_cell_formula_units_Z   4
loop_
 _symmetry_equiv_pos_site_id
 _symmetry_equiv_pos_as_xyz
  1  'x, y, z'
loop_
 _atom_site_type_symbol
 _atom_site_label
 _atom_site_symmetry_multiplicity
 _atom_site_fract_x
 _atom_site_fract_y
 _atom_site_fract_z
 _atom_site_occupancy
  Rb  Rb0  1  0.076340  0.651086  0.105205  1
  Rb  Rb1  1  0.339386  0.315821  0.920582  1
  Rb  Rb2  1  0.160614  0.315821  0.420582  1
  Rb  Rb3  1  0.576340  0.348914  0.394795  1
  Rb  Rb4  1  0.423660  0.651086  0.605205  1
  Rb  Rb5  1  0.660614  0.684179  0.079418  1
  Rb  Rb6  1  0.923660  0.348914  0.894795  1
  Rb  Rb7  1  0.839386  0.684179  0.579418  1
  Te  Te8  1  0.630102  0.817004  0.818214  1
  Te  Te9  1  0.869898  0.817004  0.318214  1
  Te  Te10  1  0.130102  0.182996  0.681786  1
  Te  Te11  1  0.369898  0.182996  0.181786  1
  Cl  Cl12  1  0.128406  0.835333  0.896818  1
  Cl  Cl13  1  0.371594  0.835333  0.396818  1
  Cl  Cl14  1  0.871594  0.164667  0.103182  1
  Cl  Cl15  1  0.628406  0.164667  0.603182  1
  F  F16  1  0.248865  0.371710  0.239427  1
  F  F17  1  0.732767  0.873421  0.396229  1
  F  F18  1  0.007677  0.135494  0.592945  1
  F  F19  1  0.267233  0.126579  0.603771  1
  F  F20  1  0.502148  0.381617  0.226107  1
  F  F21  1  0.637916  0.442843  0.901893  1
  F  F22  1  0.251135  0.371710  0.739427  1
  F  F23  1  0.507677  0.864506  0.907055  1
  F  F24  1  0.137916  0.557157  0.598107  1
  F  F25  1  0.767233  0.873421  0.896229  1
  F  F26  1  0.997852  0.381617  0.726107  1
  F  F27  1  0.751135  0.628290  0.760573  1
  F  F28  1  0.862084  0.442843  0.401893  1
  F  F29  1  0.362084  0.557157  0.098107  1
  F  F30  1  0.492323  0.135494  0.092945  1
  F  F31  1  0.232767  0.126579  0.103771  1
  F  F32  1  0.002148  0.618383  0.273893  1
  F  F33  1  0.497852  0.618383  0.773893  1
  F  F34  1  0.748865  0.628290  0.260573  1
  F  F35  1  0.992323  0.864506  0.407055  1
