# generated using pymatgen
data_LaNd(BOs)8
_symmetry_space_group_name_H-M   'P 1'
_cell_length_a   7.64896200
_cell_length_b   7.64896200
_cell_length_c   4.00663200
_cell_angle_alpha   90.00000000
_cell_angle_beta   90.00000000
_cell_angle_gamma   90.00000000
_symmetry_Int_Tables_number   1
_chemical_formula_structural   LaNd(BOs)8
_chemical_formula_sum   'La1 Nd1 B8 Os8'
_cell_volume   234.41449461
_cell_formula_units_Z   1
loop_
 _symmetry_equiv_pos_site_id
 _symmetry_equiv_pos_as_xyz
  1  'x, y, z'
loop_
 _atom_site_type_symbol
 _atom_site_label
 _atom_site_symmetry_multiplicity
 _atom_site_fract_x
 _atom_site_fract_y
 _atom_site_fract_z
 _atom_site_occupancy
  La  La0  1  0.500000  0.500000  0.000000  1
  Nd  Nd1  1  0.000000  0.000000  0.500000  1
  B  B2  1  0.664759  0.781653  0.609518  1
  B  B3  1  0.164174  0.279934  0.888768  1
  B  B4  1  0.279934  0.835826  0.111232  1
  B  B5  1  0.720066  0.164174  0.111232  1
  B  B6  1  0.335241  0.218347  0.609518  1
  B  B7  1  0.835826  0.720066  0.888768  1
  B  B8  1  0.218347  0.664759  0.390482  1
  B  B9  1  0.781653  0.335241  0.390482  1
  Os  Os10  1  0.353134  0.105916  0.110869  1
  Os  Os11  1  0.646866  0.894084  0.110869  1
  Os  Os12  1  0.606515  0.144543  0.610658  1
  Os  Os13  1  0.105916  0.646866  0.889131  1
  Os  Os14  1  0.144543  0.393485  0.389342  1
  Os  Os15  1  0.855457  0.606515  0.389342  1
  Os  Os16  1  0.894084  0.353134  0.889131  1
  Os  Os17  1  0.393485  0.855457  0.610658  1
