# generated using pymatgen
data_Tb13Dy3Zn3InRh4
_symmetry_space_group_name_H-M   'P 1'
_cell_length_a   9.57877393
_cell_length_b   9.57627667
_cell_length_c   9.57804275
_cell_angle_alpha   59.90821479
_cell_angle_beta   59.95310081
_cell_angle_gamma   59.94332227
_symmetry_Int_Tables_number   1
_chemical_formula_structural   Tb13Dy3Zn3InRh4
_chemical_formula_sum   'Tb13 Dy3 Zn3 In1 Rh4'
_cell_volume   620.33499826
_cell_formula_units_Z   1
loop_
 _symmetry_equiv_pos_site_id
 _symmetry_equiv_pos_as_xyz
  1  'x, y, z'
loop_
 _atom_site_type_symbol
 _atom_site_label
 _atom_site_symmetry_multiplicity
 _atom_site_fract_x
 _atom_site_fract_y
 _atom_site_fract_z
 _atom_site_occupancy
  Tb  Tb0  1  0.691893  0.308883  0.308915  1
  Tb  Tb1  1  0.691298  0.691449  0.309671  1
  Tb  Tb2  1  0.308862  0.691895  0.309170  1
  Tb  Tb3  1  0.934958  0.934783  0.559020  1
  Tb  Tb4  1  0.146795  0.146857  0.557276  1
  Tb  Tb5  1  0.562949  0.936561  0.563057  1
  Tb  Tb6  1  0.148483  0.148074  0.148216  1
  Tb  Tb7  1  0.308906  0.309188  0.691931  1
  Tb  Tb8  1  0.936666  0.563019  0.563101  1
  Tb  Tb9  1  0.562984  0.563035  0.936515  1
  Tb  Tb10  1  0.558861  0.934876  0.934853  1
  Tb  Tb11  1  0.934964  0.558967  0.934755  1
  Tb  Tb12  1  0.147080  0.557052  0.146754  1
  Dy  Dy13  1  0.309636  0.691231  0.691367  1
  Dy  Dy14  1  0.691213  0.309595  0.691483  1
  Dy  Dy15  1  0.557108  0.147075  0.146706  1
  Zn  Zn16  1  0.920929  0.921151  0.243511  1
  Zn  Zn17  1  0.243565  0.921043  0.921025  1
  Zn  Zn18  1  0.920919  0.243500  0.921110  1
  In  In19  1  0.922276  0.922822  0.922569  1
  Rh  Rh20  1  0.357543  0.357120  0.357054  1
  Rh  Rh21  1  0.928529  0.356484  0.356802  1
  Rh  Rh22  1  0.356940  0.356505  0.928613  1
  Rh  Rh23  1  0.356643  0.928833  0.356527  1
