# generated using pymatgen
data_Nd5Os2
_symmetry_space_group_name_H-M   'P 1'
_cell_length_a   8.81044798
_cell_length_b   8.81044785
_cell_length_c   7.48287498
_cell_angle_alpha   83.45396177
_cell_angle_beta   83.45396150
_cell_angle_gamma   44.30384902
_symmetry_Int_Tables_number   1
_chemical_formula_structural   Nd5Os2
_chemical_formula_sum   'Nd10 Os4'
_cell_volume   402.61787754
_cell_formula_units_Z   2
loop_
 _symmetry_equiv_pos_site_id
 _symmetry_equiv_pos_as_xyz
  1  'x, y, z'
loop_
 _atom_site_type_symbol
 _atom_site_label
 _atom_site_symmetry_multiplicity
 _atom_site_fract_x
 _atom_site_fract_y
 _atom_site_fract_z
 _atom_site_occupancy
  Nd  Nd0  1  0.021255  0.795122  0.915046  1
  Nd  Nd1  1  0.204878  0.978745  0.584954  1
  Nd  Nd2  1  0.978745  0.204878  0.084954  1
  Nd  Nd3  1  0.795122  0.021255  0.415046  1
  Nd  Nd4  1  0.359074  0.206574  0.815096  1
  Nd  Nd5  1  0.793426  0.640926  0.684904  1
  Nd  Nd6  1  0.640926  0.793426  0.184904  1
  Nd  Nd7  1  0.206574  0.359074  0.315096  1
  Nd  Nd8  1  0.574031  0.425969  0.750000  1
  Nd  Nd9  1  0.425969  0.574031  0.250000  1
  Os  Os10  1  0.176057  0.603287  0.574588  1
  Os  Os11  1  0.396713  0.823943  0.925412  1
  Os  Os12  1  0.823943  0.396713  0.425412  1
  Os  Os13  1  0.603287  0.176057  0.074588  1
