# generated using pymatgen
data_BaV(PdSe2)2
_symmetry_space_group_name_H-M   'P 1'
_cell_length_a   10.13403655
_cell_length_b   10.13403753
_cell_length_c   7.29403400
_cell_angle_alpha   90.00000000
_cell_angle_beta   90.00000000
_cell_angle_gamma   146.59217324
_symmetry_Int_Tables_number   1
_chemical_formula_structural   BaV(PdSe2)2
_chemical_formula_sum   'Ba2 V2 Pd4 Se8'
_cell_volume   412.44386290
_cell_formula_units_Z   2
loop_
 _symmetry_equiv_pos_site_id
 _symmetry_equiv_pos_as_xyz
  1  'x, y, z'
loop_
 _atom_site_type_symbol
 _atom_site_label
 _atom_site_symmetry_multiplicity
 _atom_site_fract_x
 _atom_site_fract_y
 _atom_site_fract_z
 _atom_site_occupancy
  Ba  Ba0  1  0.196244  0.563833  0.750000  1
  Ba  Ba1  1  0.563833  0.196244  0.250000  1
  V  V2  1  0.715923  0.485028  0.750000  1
  V  V3  1  0.485028  0.715923  0.250000  1
  Pd  Pd4  1  0.611470  0.611470  0.500000  1
  Pd  Pd5  1  0.974784  0.236153  0.250000  1
  Pd  Pd6  1  0.236153  0.974784  0.750000  1
  Pd  Pd7  1  0.611470  0.611470  0.000000  1
  Se  Se8  1  0.717254  0.944067  0.987537  1
  Se  Se9  1  0.356888  0.314734  0.750000  1
  Se  Se10  1  0.314734  0.356888  0.250000  1
  Se  Se11  1  0.944067  0.717254  0.487537  1
  Se  Se12  1  0.624668  0.177969  0.750000  1
  Se  Se13  1  0.944067  0.717254  0.012463  1
  Se  Se14  1  0.177969  0.624668  0.250000  1
  Se  Se15  1  0.717254  0.944067  0.512463  1
