# generated using pymatgen
data_NaVRhSe4
_symmetry_space_group_name_H-M   'P 1'
_cell_length_a   7.59462871
_cell_length_b   7.59462807
_cell_length_c   5.93130301
_cell_angle_alpha   79.16922009
_cell_angle_beta   79.16922257
_cell_angle_gamma   28.02767851
_symmetry_Int_Tables_number   1
_chemical_formula_structural   NaVRhSe4
_chemical_formula_sum   'Na1 V1 Rh1 Se4'
_cell_volume   157.71212123
_cell_formula_units_Z   1
loop_
 _symmetry_equiv_pos_site_id
 _symmetry_equiv_pos_as_xyz
  1  'x, y, z'
loop_
 _atom_site_type_symbol
 _atom_site_label
 _atom_site_symmetry_multiplicity
 _atom_site_fract_x
 _atom_site_fract_y
 _atom_site_fract_z
 _atom_site_occupancy
  Na  Na0  1  0.242721  0.242721  0.714372  1
  V  V1  1  0.990511  0.990511  0.093444  1
  Rh  Rh2  1  0.494464  0.494464  0.499460  1
  Se  Se3  1  0.907546  0.907546  0.736018  1
  Se  Se4  1  0.379137  0.379137  0.237485  1
  Se  Se5  1  0.581001  0.581001  0.831095  1
  Se  Se6  1  0.105621  0.105621  0.321126  1
