# generated using pymatgen
data_CeMn(AsRh)2
_symmetry_space_group_name_H-M   'P 1'
_cell_length_a   4.05193300
_cell_length_b   7.69389546
_cell_length_c   6.81538445
_cell_angle_alpha   95.90918333
_cell_angle_beta   90.00000000
_cell_angle_gamma   90.00000000
_symmetry_Int_Tables_number   1
_chemical_formula_structural   CeMn(AsRh)2
_chemical_formula_sum   'Ce2 Mn2 As4 Rh4'
_cell_volume   211.34162615
_cell_formula_units_Z   2
loop_
 _symmetry_equiv_pos_site_id
 _symmetry_equiv_pos_as_xyz
  1  'x, y, z'
loop_
 _atom_site_type_symbol
 _atom_site_label
 _atom_site_symmetry_multiplicity
 _atom_site_fract_x
 _atom_site_fract_y
 _atom_site_fract_z
 _atom_site_occupancy
  Ce  Ce0  1  0.750000  0.250322  0.997414  1
  Ce  Ce1  1  0.250000  0.749678  0.002586  1
  Mn  Mn2  1  0.250000  0.748056  0.503243  1
  Mn  Mn3  1  0.750000  0.251944  0.496757  1
  As  As4  1  0.250000  0.402244  0.734557  1
  As  As5  1  0.750000  0.597756  0.265443  1
  As  As6  1  0.750000  0.903082  0.737460  1
  As  As7  1  0.250000  0.096918  0.262540  1
  Rh  Rh8  1  0.250000  0.425314  0.338199  1
  Rh  Rh9  1  0.750000  0.574686  0.661801  1
  Rh  Rh10  1  0.750000  0.926453  0.344629  1
  Rh  Rh11  1  0.250000  0.073547  0.655371  1
