# generated using pymatgen
data_ErZnCu3Au
_symmetry_space_group_name_H-M   'P 1'
_cell_length_a   5.06348060
_cell_length_b   5.06348079
_cell_length_c   5.05337706
_cell_angle_alpha   59.93384349
_cell_angle_beta   59.93384567
_cell_angle_gamma   60.00000389
_symmetry_Int_Tables_number   1
_chemical_formula_structural   ErZnCu3Au
_chemical_formula_sum   'Er1 Zn1 Cu3 Au1'
_cell_volume   91.52295712
_cell_formula_units_Z   1
loop_
 _symmetry_equiv_pos_site_id
 _symmetry_equiv_pos_as_xyz
  1  'x, y, z'
loop_
 _atom_site_type_symbol
 _atom_site_label
 _atom_site_symmetry_multiplicity
 _atom_site_fract_x
 _atom_site_fract_y
 _atom_site_fract_z
 _atom_site_occupancy
  Er  Er0  1  0.002167  0.002167  0.993498  1
  Zn  Zn1  1  0.622275  0.622275  0.133175  1
  Cu  Cu2  1  0.624038  0.125923  0.626002  1
  Cu  Cu3  1  0.125923  0.624038  0.626002  1
  Cu  Cu4  1  0.624038  0.624038  0.626002  1
  Au  Au5  1  0.251559  0.251559  0.245322  1
