# generated using pymatgen
data_Dy3Mn2(BiO6)2
_symmetry_space_group_name_H-M   'P 1'
_cell_length_a   6.87458687
_cell_length_b   6.87457658
_cell_length_c   7.27727628
_cell_angle_alpha   74.78948845
_cell_angle_beta   74.78954999
_cell_angle_gamma   50.40655543
_symmetry_Int_Tables_number   1
_chemical_formula_structural   Dy3Mn2(BiO6)2
_chemical_formula_sum   'Dy3 Mn2 Bi2 O12'
_cell_volume   253.63592986
_cell_formula_units_Z   1
loop_
 _symmetry_equiv_pos_site_id
 _symmetry_equiv_pos_as_xyz
  1  'x, y, z'
loop_
 _atom_site_type_symbol
 _atom_site_label
 _atom_site_symmetry_multiplicity
 _atom_site_fract_x
 _atom_site_fract_y
 _atom_site_fract_z
 _atom_site_occupancy
  Dy  Dy0  1  0.691615  0.691621  0.650399  1
  Dy  Dy1  1  0.303153  0.303151  0.843935  1
  Dy  Dy2  1  0.695734  0.695737  0.155174  1
  Mn  Mn3  1  0.756350  0.246131  0.999491  1
  Mn  Mn4  1  0.246139  0.756339  0.999503  1
  Bi  Bi5  1  0.306165  0.306150  0.355404  1
  Bi  Bi6  1  0.001017  0.001013  0.496752  1
  O  O7  1  0.900894  0.424084  0.918579  1
  O  O8  1  0.424080  0.900893  0.918584  1
  O  O9  1  0.099352  0.578834  0.083323  1
  O  O10  1  0.578832  0.099357  0.083318  1
  O  O11  1  0.095996  0.588519  0.576276  1
  O  O12  1  0.588523  0.095993  0.576276  1
  O  O13  1  0.899862  0.411170  0.421232  1
  O  O14  1  0.411173  0.899858  0.421232  1
  O  O15  1  0.998832  0.998831  0.825964  1
  O  O16  1  0.001768  0.001782  0.174097  1
  O  O17  1  0.498972  0.498983  0.820553  1
  O  O18  1  0.501543  0.501553  0.179908  1
