# generated using pymatgen
data_Dy3Al3GaNi9B2
_symmetry_space_group_name_H-M   'P 1'
_cell_length_a   5.18234800
_cell_length_b   5.18234848
_cell_length_c   10.61699000
_cell_angle_alpha   90.00000000
_cell_angle_beta   90.00000000
_cell_angle_gamma   120.00000968
_symmetry_Int_Tables_number   1
_chemical_formula_structural   Dy3Al3GaNi9B2
_chemical_formula_sum   'Dy3 Al3 Ga1 Ni9 B2'
_cell_volume   246.93644072
_cell_formula_units_Z   1
loop_
 _symmetry_equiv_pos_site_id
 _symmetry_equiv_pos_as_xyz
  1  'x, y, z'
loop_
 _atom_site_type_symbol
 _atom_site_label
 _atom_site_symmetry_multiplicity
 _atom_site_fract_x
 _atom_site_fract_y
 _atom_site_fract_z
 _atom_site_occupancy
  Dy  Dy0  1  0.000000  0.000000  0.999203  1
  Dy  Dy1  1  0.000000  0.000000  0.661637  1
  Dy  Dy2  1  0.000000  0.000000  0.336575  1
  Al  Al3  1  0.666667  0.333333  0.685116  1
  Al  Al4  1  0.333333  0.666667  0.684348  1
  Al  Al5  1  0.333333  0.666667  0.316054  1
  Ga  Ga6  1  0.666667  0.333333  0.315214  1
  Ni  Ni7  1  0.499845  0.500155  0.500525  1
  Ni  Ni8  1  0.499845  0.999690  0.500525  1
  Ni  Ni9  1  0.000310  0.500155  0.500525  1
  Ni  Ni10  1  0.499915  0.500085  0.871185  1
  Ni  Ni11  1  0.499915  0.999829  0.871185  1
  Ni  Ni12  1  0.000171  0.500085  0.871185  1
  Ni  Ni13  1  0.499663  0.500337  0.128724  1
  Ni  Ni14  1  0.499663  0.999326  0.128724  1
  Ni  Ni15  1  0.000674  0.500337  0.128724  1
  B  B16  1  0.666667  0.333333  0.000236  1
  B  B17  1  0.333333  0.666667  0.000322  1
