# generated using pymatgen
data_Nd3GaGeRh2
_symmetry_space_group_name_H-M   'P 1'
_cell_length_a   5.75644300
_cell_length_b   8.15480500
_cell_length_c   13.48837400
_cell_angle_alpha   90.00000000
_cell_angle_beta   90.00000000
_cell_angle_gamma   90.00000000
_symmetry_Int_Tables_number   1
_chemical_formula_structural   Nd3GaGeRh2
_chemical_formula_sum   'Nd12 Ga4 Ge4 Rh8'
_cell_volume   633.18029166
_cell_formula_units_Z   4
loop_
 _symmetry_equiv_pos_site_id
 _symmetry_equiv_pos_as_xyz
  1  'x, y, z'
loop_
 _atom_site_type_symbol
 _atom_site_label
 _atom_site_symmetry_multiplicity
 _atom_site_fract_x
 _atom_site_fract_y
 _atom_site_fract_z
 _atom_site_occupancy
  Nd  Nd0  1  0.639208  0.250556  0.250000  1
  Nd  Nd1  1  0.360792  0.749444  0.750000  1
  Nd  Nd2  1  0.360792  0.750556  0.250000  1
  Nd  Nd3  1  0.639208  0.249444  0.750000  1
  Nd  Nd4  1  0.150973  0.394564  0.099958  1
  Nd  Nd5  1  0.849027  0.605436  0.900042  1
  Nd  Nd6  1  0.849027  0.605436  0.599958  1
  Nd  Nd7  1  0.849027  0.894564  0.400042  1
  Nd  Nd8  1  0.150973  0.394564  0.400042  1
  Nd  Nd9  1  0.150973  0.105436  0.599958  1
  Nd  Nd10  1  0.150973  0.105436  0.900042  1
  Nd  Nd11  1  0.849027  0.894564  0.099958  1
  Ga  Ga12  1  0.639809  0.250000  0.000000  1
  Ga  Ga13  1  0.360191  0.750000  0.000000  1
  Ga  Ga14  1  0.360191  0.750000  0.500000  1
  Ga  Ga15  1  0.639809  0.250000  0.500000  1
  Ge  Ge16  1  0.139216  0.107069  0.250000  1
  Ge  Ge17  1  0.860784  0.892931  0.750000  1
  Ge  Ge18  1  0.860784  0.607069  0.250000  1
  Ge  Ge19  1  0.139216  0.392931  0.750000  1
  Rh  Rh20  1  0.373863  0.030772  0.094003  1
  Rh  Rh21  1  0.626137  0.969228  0.905997  1
  Rh  Rh22  1  0.626137  0.969228  0.594003  1
  Rh  Rh23  1  0.626137  0.530772  0.405997  1
  Rh  Rh24  1  0.373863  0.030772  0.405997  1
  Rh  Rh25  1  0.373863  0.469228  0.594003  1
  Rh  Rh26  1  0.373863  0.469228  0.905997  1
  Rh  Rh27  1  0.626137  0.530772  0.094003  1
