# generated using pymatgen
data_DyEr19Ir7Au5
_symmetry_space_group_name_H-M   'P 1'
_cell_length_a   11.07380029
_cell_length_b   11.07383289
_cell_length_c   6.32724018
_cell_angle_alpha   89.87074441
_cell_angle_beta   89.90353971
_cell_angle_gamma   89.55889972
_symmetry_Int_Tables_number   1
_chemical_formula_structural   DyEr19Ir7Au5
_chemical_formula_sum   'Dy1 Er19 Ir7 Au5'
_cell_volume   775.87971048
_cell_formula_units_Z   1
loop_
 _symmetry_equiv_pos_site_id
 _symmetry_equiv_pos_as_xyz
  1  'x, y, z'
loop_
 _atom_site_type_symbol
 _atom_site_label
 _atom_site_symmetry_multiplicity
 _atom_site_fract_x
 _atom_site_fract_y
 _atom_site_fract_z
 _atom_site_occupancy
  Dy  Dy0  1  0.299694  0.090402  0.364167  1
  Er  Er1  1  0.302268  0.907626  0.862386  1
  Er  Er2  1  0.696763  0.080030  0.860118  1
  Er  Er3  1  0.697171  0.906239  0.361317  1
  Er  Er4  1  0.580754  0.786102  0.875870  1
  Er  Er5  1  0.575676  0.205852  0.363223  1
  Er  Er6  1  0.418495  0.789502  0.375564  1
  Er  Er7  1  0.411938  0.207281  0.878203  1
  Er  Er8  1  0.213877  0.419312  0.624029  1
  Er  Er9  1  0.210277  0.581643  0.124392  1
  Er  Er10  1  0.794259  0.424794  0.136794  1
  Er  Er11  1  0.792880  0.588401  0.621555  1
  Er  Er12  1  0.909595  0.699450  0.135387  1
  Er  Er13  1  0.920034  0.303288  0.639818  1
  Er  Er14  1  0.092027  0.697817  0.637596  1
  Er  Er15  1  0.093355  0.303122  0.138422  1
  Er  Er16  1  0.998356  0.000174  0.499280  1
  Er  Er17  1  0.999591  0.001234  0.000863  1
  Er  Er18  1  0.496098  0.502121  0.001671  1
  Er  Er19  1  0.497990  0.503955  0.498475  1
  Ir  Ir20  1  0.653241  0.651351  0.250468  1
  Ir  Ir21  1  0.348769  0.347565  0.249122  1
  Ir  Ir22  1  0.345573  0.654338  0.749975  1
  Ir  Ir23  1  0.499952  0.999275  0.111335  1
  Ir  Ir24  1  0.499765  0.999896  0.614079  1
  Ir  Ir25  1  0.999893  0.500739  0.886138  1
  Ir  Ir26  1  0.000509  0.500595  0.388321  1
  Au  Au27  1  0.841533  0.158540  0.249970  1
  Au  Au28  1  0.843445  0.845428  0.750591  1
  Au  Au29  1  0.153956  0.156849  0.751003  1
  Au  Au30  1  0.155925  0.843360  0.249833  1
  Au  Au31  1  0.656337  0.343719  0.750039  1
