# generated using pymatgen
data_Li4Al8ZnIr3
_symmetry_space_group_name_H-M   'P 1'
_cell_length_a   4.27988341
_cell_length_b   6.08211900
_cell_length_c   8.62205683
_cell_angle_alpha   90.00000000
_cell_angle_beta   90.05022696
_cell_angle_gamma   90.00000000
_symmetry_Int_Tables_number   1
_chemical_formula_structural   Li4Al8ZnIr3
_chemical_formula_sum   'Li4 Al8 Zn1 Ir3'
_cell_volume   224.43860760
_cell_formula_units_Z   1
loop_
 _symmetry_equiv_pos_site_id
 _symmetry_equiv_pos_as_xyz
  1  'x, y, z'
loop_
 _atom_site_type_symbol
 _atom_site_label
 _atom_site_symmetry_multiplicity
 _atom_site_fract_x
 _atom_site_fract_y
 _atom_site_fract_z
 _atom_site_occupancy
  Li  Li0  1  0.247569  0.250000  0.125051  1
  Li  Li1  1  0.747922  0.749999  0.378033  1
  Li  Li2  1  0.252530  0.250000  0.625023  1
  Li  Li3  1  0.752395  0.749999  0.871897  1
  Al  Al4  1  0.747968  0.485639  0.124981  1
  Al  Al5  1  0.747968  0.014363  0.124981  1
  Al  Al6  1  0.248595  0.006108  0.384162  1
  Al  Al7  1  0.248595  0.493892  0.384162  1
  Al  Al8  1  0.751559  0.493494  0.624987  1
  Al  Al9  1  0.751559  0.006508  0.624987  1
  Al  Al10  1  0.251807  0.006110  0.865868  1
  Al  Al11  1  0.251807  0.493890  0.865868  1
  Zn  Zn12  1  0.248001  0.749999  0.125016  1
  Ir  Ir13  1  0.748664  0.250000  0.372317  1
  Ir  Ir14  1  0.251298  0.749999  0.625015  1
  Ir  Ir15  1  0.751760  0.250000  0.877656  1
