# generated using pymatgen
data_Ba3InCO3F7
_symmetry_space_group_name_H-M   'P 1'
_cell_length_a   9.00939171
_cell_length_b   9.00939091
_cell_length_c   6.14920600
_cell_angle_alpha   90.00000000
_cell_angle_beta   90.00000000
_cell_angle_gamma   99.01037480
_symmetry_Int_Tables_number   1
_chemical_formula_structural   Ba3InCO3F7
_chemical_formula_sum   'Ba6 In2 C2 O6 F14'
_cell_volume   492.96650001
_cell_formula_units_Z   2
loop_
 _symmetry_equiv_pos_site_id
 _symmetry_equiv_pos_as_xyz
  1  'x, y, z'
loop_
 _atom_site_type_symbol
 _atom_site_label
 _atom_site_symmetry_multiplicity
 _atom_site_fract_x
 _atom_site_fract_y
 _atom_site_fract_z
 _atom_site_occupancy
  Ba  Ba0  1  0.604669  0.845891  0.750000  1
  Ba  Ba1  1  0.845891  0.604669  0.250000  1
  Ba  Ba2  1  0.154109  0.395331  0.750000  1
  Ba  Ba3  1  0.906110  0.093890  0.250000  1
  Ba  Ba4  1  0.093890  0.906110  0.750000  1
  Ba  Ba5  1  0.395331  0.154109  0.250000  1
  In  In6  1  0.729090  0.270910  0.750000  1
  In  In7  1  0.270910  0.729090  0.250000  1
  C  C8  1  0.534351  0.465649  0.750000  1
  C  C9  1  0.465649  0.534351  0.250000  1
  O  O10  1  0.441202  0.558798  0.750000  1
  O  O11  1  0.510410  0.680610  0.250000  1
  O  O12  1  0.680610  0.510410  0.750000  1
  O  O13  1  0.489590  0.319390  0.750000  1
  O  O14  1  0.558798  0.441202  0.250000  1
  O  O15  1  0.319390  0.489590  0.250000  1
  F  F16  1  0.160847  0.160847  0.500000  1
  F  F17  1  0.887447  0.112553  0.750000  1
  F  F18  1  0.112553  0.887447  0.250000  1
  F  F19  1  0.839153  0.839153  0.500000  1
  F  F20  1  0.639384  0.112570  0.498836  1
  F  F21  1  0.112570  0.639384  0.501164  1
  F  F22  1  0.887430  0.360616  0.001164  1
  F  F23  1  0.887430  0.360616  0.498836  1
  F  F24  1  0.639384  0.112570  0.001164  1
  F  F25  1  0.360616  0.887430  0.998836  1
  F  F26  1  0.839153  0.839153  0.000000  1
  F  F27  1  0.160847  0.160847  0.000000  1
  F  F28  1  0.112570  0.639384  0.998836  1
  F  F29  1  0.360616  0.887430  0.501164  1
