# generated using pymatgen
data_Yb5Eu3(MnN3)4
_symmetry_space_group_name_H-M   'P 1'
_cell_length_a   5.88542939
_cell_length_b   5.88542846
_cell_length_c   11.64860694
_cell_angle_alpha   90.35920549
_cell_angle_beta   89.64079407
_cell_angle_gamma   125.36974490
_symmetry_Int_Tables_number   1
_chemical_formula_structural   Yb5Eu3(MnN3)4
_chemical_formula_sum   'Yb5 Eu3 Mn4 N12'
_cell_volume   329.00917283
_cell_formula_units_Z   1
loop_
 _symmetry_equiv_pos_site_id
 _symmetry_equiv_pos_as_xyz
  1  'x, y, z'
loop_
 _atom_site_type_symbol
 _atom_site_label
 _atom_site_symmetry_multiplicity
 _atom_site_fract_x
 _atom_site_fract_y
 _atom_site_fract_z
 _atom_site_occupancy
  Yb  Yb0  1  0.946255  0.053745  0.143065  1
  Yb  Yb1  1  0.143600  0.856400  0.422818  1
  Yb  Yb2  1  0.858528  0.141472  0.577296  1
  Yb  Yb3  1  0.356798  0.643202  0.923902  1
  Yb  Yb4  1  0.640279  0.359721  0.078718  1
  Eu  Eu5  1  0.452352  0.547648  0.350643  1
  Eu  Eu6  1  0.551080  0.448920  0.644976  1
  Eu  Eu7  1  0.049974  0.950026  0.857017  1
  Mn  Mn8  1  0.251486  0.748514  0.160453  1
  Mn  Mn9  1  0.746047  0.253953  0.841212  1
  Mn  Mn10  1  0.246545  0.753455  0.659629  1
  Mn  Mn11  1  0.757802  0.242198  0.339418  1
  N  N12  1  0.152265  0.847735  0.038436  1
  N  N13  1  0.842377  0.157623  0.965201  1
  N  N14  1  0.345058  0.654942  0.535508  1
  N  N15  1  0.659326  0.340674  0.463233  1
  N  N16  1  0.418496  0.581504  0.130978  1
  N  N17  1  0.578355  0.421645  0.868962  1
  N  N18  1  0.079409  0.920591  0.631616  1
  N  N19  1  0.923108  0.076892  0.366973  1
  N  N20  1  0.957121  0.536901  0.249417  1
  N  N21  1  0.540154  0.959513  0.750555  1
  N  N22  1  0.040487  0.459846  0.750555  1
  N  N23  1  0.463099  0.042879  0.249417  1
