# generated using pymatgen
data_Tb2Pr3P12Ru18Pt
_symmetry_space_group_name_H-M   'P 1'
_cell_length_a   12.56461800
_cell_length_b   12.66416487
_cell_length_c   4.02508500
_cell_angle_alpha   90.00000000
_cell_angle_beta   90.00000000
_cell_angle_gamma   119.74031511
_symmetry_Int_Tables_number   1
_chemical_formula_structural   Tb2Pr3P12Ru18Pt
_chemical_formula_sum   'Tb2 Pr3 P12 Ru18 Pt1'
_cell_volume   556.11170827
_cell_formula_units_Z   1
loop_
 _symmetry_equiv_pos_site_id
 _symmetry_equiv_pos_as_xyz
  1  'x, y, z'
loop_
 _atom_site_type_symbol
 _atom_site_label
 _atom_site_symmetry_multiplicity
 _atom_site_fract_x
 _atom_site_fract_y
 _atom_site_fract_z
 _atom_site_occupancy
  Tb  Tb0  1  0.331594  0.661699  0.000000  1
  Tb  Tb1  1  0.669897  0.338301  0.000000  1
  Pr  Pr2  1  0.816970  0.000000  0.500000  1
  Pr  Pr3  1  0.001351  0.816003  0.500000  1
  Pr  Pr4  1  0.185347  0.183997  0.500000  1
  P  P5  1  0.191507  0.000000  0.000000  1
  P  P6  1  0.999078  0.187675  0.000000  1
  P  P7  1  0.811402  0.812325  0.000000  1
  P  P8  1  0.519516  0.695160  0.500000  1
  P  P9  1  0.297526  0.815865  0.500000  1
  P  P10  1  0.171636  0.475781  0.500000  1
  P  P11  1  0.481661  0.184135  0.500000  1
  P  P12  1  0.695855  0.524219  0.500000  1
  P  P13  1  0.824356  0.304840  0.500000  1
  P  P14  1  0.633253  0.000000  0.000000  1
  P  P15  1  0.999098  0.624627  0.000000  1
  P  P16  1  0.374471  0.375373  0.000000  1
  Ru  Ru17  1  0.997912  0.444891  0.000000  1
  Ru  Ru18  1  0.553021  0.555109  0.000000  1
  Ru  Ru19  1  0.293686  0.000000  0.500000  1
  Ru  Ru20  1  0.998043  0.285826  0.500000  1
  Ru  Ru21  1  0.712219  0.714174  0.500000  1
  Ru  Ru22  1  0.617380  0.804170  0.000000  1
  Ru  Ru23  1  0.197741  0.814261  0.000000  1
  Ru  Ru24  1  0.183838  0.378879  0.000000  1
  Ru  Ru25  1  0.383478  0.185739  0.000000  1
  Ru  Ru26  1  0.804959  0.621121  0.000000  1
  Ru  Ru27  1  0.813210  0.195830  0.000000  1
  Ru  Ru28  1  0.503792  0.873269  0.500000  1
  Ru  Ru29  1  0.121401  0.627954  0.500000  1
  Ru  Ru30  1  0.366502  0.493822  0.500000  1
  Ru  Ru31  1  0.493447  0.372046  0.500000  1
  Ru  Ru32  1  0.872680  0.506178  0.500000  1
  Ru  Ru33  1  0.630523  0.126731  0.500000  1
  Ru  Ru34  1  0.002108  0.000000  0.000000  1
  Pt  Pt35  1  0.449538  0.000000  0.000000  1
