# generated using pymatgen
data_GdScCrB6
_symmetry_space_group_name_H-M   'P 1'
_cell_length_a   3.48586100
_cell_length_b   9.03850400
_cell_length_c   11.42004700
_cell_angle_alpha   90.00000000
_cell_angle_beta   90.00000000
_cell_angle_gamma   90.00000000
_symmetry_Int_Tables_number   1
_chemical_formula_structural   GdScCrB6
_chemical_formula_sum   'Gd4 Sc4 Cr4 B24'
_cell_volume   359.81106215
_cell_formula_units_Z   4
loop_
 _symmetry_equiv_pos_site_id
 _symmetry_equiv_pos_as_xyz
  1  'x, y, z'
loop_
 _atom_site_type_symbol
 _atom_site_label
 _atom_site_symmetry_multiplicity
 _atom_site_fract_x
 _atom_site_fract_y
 _atom_site_fract_z
 _atom_site_occupancy
  Gd  Gd0  1  0.000000  0.822755  0.085417  1
  Gd  Gd1  1  0.000000  0.177245  0.914583  1
  Gd  Gd2  1  0.000000  0.322755  0.414583  1
  Gd  Gd3  1  0.000000  0.677245  0.585417  1
  Sc  Sc4  1  0.000000  0.443230  0.131237  1
  Sc  Sc5  1  0.000000  0.556770  0.868763  1
  Sc  Sc6  1  0.000000  0.943230  0.368763  1
  Sc  Sc7  1  0.000000  0.056770  0.631237  1
  Cr  Cr8  1  0.000000  0.141750  0.182186  1
  Cr  Cr9  1  0.000000  0.858250  0.817814  1
  Cr  Cr10  1  0.000000  0.641750  0.317814  1
  Cr  Cr11  1  0.000000  0.358250  0.682186  1
  B  B12  1  0.500000  0.055293  0.068563  1
  B  B13  1  0.500000  0.944707  0.931437  1
  B  B14  1  0.500000  0.555293  0.431437  1
  B  B15  1  0.500000  0.444707  0.568563  1
  B  B16  1  0.500000  0.253448  0.083374  1
  B  B17  1  0.500000  0.746552  0.916626  1
  B  B18  1  0.500000  0.753448  0.416626  1
  B  B19  1  0.500000  0.246552  0.583374  1
  B  B20  1  0.500000  0.294336  0.235356  1
  B  B21  1  0.500000  0.705664  0.764644  1
  B  B22  1  0.500000  0.794336  0.264644  1
  B  B23  1  0.500000  0.205664  0.735356  1
  B  B24  1  0.500000  0.129353  0.316438  1
  B  B25  1  0.500000  0.870647  0.683562  1
  B  B26  1  0.500000  0.629353  0.183562  1
  B  B27  1  0.500000  0.370647  0.816438  1
  B  B28  1  0.500000  0.483152  0.286161  1
  B  B29  1  0.500000  0.516848  0.713839  1
  B  B30  1  0.500000  0.983152  0.213839  1
  B  B31  1  0.500000  0.016848  0.786161  1
  B  B32  1  0.500000  0.095236  0.474242  1
  B  B33  1  0.500000  0.904764  0.525758  1
  B  B34  1  0.500000  0.595236  0.025758  1
  B  B35  1  0.500000  0.404764  0.974242  1
