# generated using pymatgen
data_Pr7Dy(Si3Ir)4
_symmetry_space_group_name_H-M   'P 1'
_cell_length_a   8.25150573
_cell_length_b   8.25150707
_cell_length_c   8.50319100
_cell_angle_alpha   90.00000000
_cell_angle_beta   90.00000000
_cell_angle_gamma   119.92589365
_symmetry_Int_Tables_number   1
_chemical_formula_structural   Pr7Dy(Si3Ir)4
_chemical_formula_sum   'Pr7 Dy1 Si12 Ir4'
_cell_volume   501.76789584
_cell_formula_units_Z   1
loop_
 _symmetry_equiv_pos_site_id
 _symmetry_equiv_pos_as_xyz
  1  'x, y, z'
loop_
 _atom_site_type_symbol
 _atom_site_label
 _atom_site_symmetry_multiplicity
 _atom_site_fract_x
 _atom_site_fract_y
 _atom_site_fract_z
 _atom_site_occupancy
  Pr  Pr0  1  0.500466  0.499534  0.250000  1
  Pr  Pr1  1  0.001326  0.500640  0.750000  1
  Pr  Pr2  1  0.998791  0.499451  0.250000  1
  Pr  Pr3  1  0.499360  0.998674  0.750000  1
  Pr  Pr4  1  0.500549  0.001209  0.250000  1
  Pr  Pr5  1  0.999889  0.000111  0.750000  1
  Pr  Pr6  1  0.000081  0.999919  0.250000  1
  Dy  Dy7  1  0.499695  0.500305  0.750000  1
  Si  Si8  1  0.832909  0.167091  0.000715  1
  Si  Si9  1  0.167056  0.832944  0.999726  1
  Si  Si10  1  0.334224  0.167891  0.998153  1
  Si  Si11  1  0.167056  0.832944  0.500274  1
  Si  Si12  1  0.665751  0.832044  0.996749  1
  Si  Si13  1  0.832909  0.167091  0.499285  1
  Si  Si14  1  0.832109  0.665776  0.998153  1
  Si  Si15  1  0.665751  0.832044  0.503251  1
  Si  Si16  1  0.167956  0.334249  0.996749  1
  Si  Si17  1  0.334224  0.167891  0.501847  1
  Si  Si18  1  0.167956  0.334249  0.503251  1
  Si  Si19  1  0.832109  0.665776  0.501847  1
  Ir  Ir20  1  0.665604  0.334396  0.993780  1
  Ir  Ir21  1  0.334313  0.665687  0.998908  1
  Ir  Ir22  1  0.334313  0.665687  0.501092  1
  Ir  Ir23  1  0.665604  0.334396  0.506220  1
