# generated using pymatgen
data_YbBeAl2Ga
_symmetry_space_group_name_H-M   'P 1'
_cell_length_a   4.03659895
_cell_length_b   4.03659964
_cell_length_c   6.13907764
_cell_angle_alpha   70.80630642
_cell_angle_beta   70.80630539
_cell_angle_gamma   89.99998877
_symmetry_Int_Tables_number   1
_chemical_formula_structural   YbBeAl2Ga
_chemical_formula_sum   'Yb1 Be1 Al2 Ga1'
_cell_volume   88.56158966
_cell_formula_units_Z   1
loop_
 _symmetry_equiv_pos_site_id
 _symmetry_equiv_pos_as_xyz
  1  'x, y, z'
loop_
 _atom_site_type_symbol
 _atom_site_label
 _atom_site_symmetry_multiplicity
 _atom_site_fract_x
 _atom_site_fract_y
 _atom_site_fract_z
 _atom_site_occupancy
  Yb  Yb0  1  0.999305  0.999305  0.001390  1
  Be  Be1  1  0.386009  0.386009  0.227982  1
  Al  Al2  1  0.758310  0.258310  0.483380  1
  Al  Al3  1  0.258310  0.758310  0.483380  1
  Ga  Ga4  1  0.598067  0.598067  0.803868  1
