# generated using pymatgen
data_TmLu3(Sc3Ga4)2
_symmetry_space_group_name_H-M   'P 1'
_cell_length_a   7.20357925
_cell_length_b   7.50806360
_cell_length_c   14.36947512
_cell_angle_alpha   90.04226135
_cell_angle_beta   89.99326595
_cell_angle_gamma   89.98413173
_symmetry_Int_Tables_number   1
_chemical_formula_structural   TmLu3(Sc3Ga4)2
_chemical_formula_sum   'Tm2 Lu6 Sc12 Ga16'
_cell_volume   777.17182590
_cell_formula_units_Z   2
loop_
 _symmetry_equiv_pos_site_id
 _symmetry_equiv_pos_as_xyz
  1  'x, y, z'
loop_
 _atom_site_type_symbol
 _atom_site_label
 _atom_site_symmetry_multiplicity
 _atom_site_fract_x
 _atom_site_fract_y
 _atom_site_fract_z
 _atom_site_occupancy
  Tm  Tm0  1  0.510965  0.321710  0.405140  1
  Tm  Tm1  1  0.489035  0.678290  0.594860  1
  Lu  Lu2  1  0.010873  0.178525  0.094518  1
  Lu  Lu3  1  0.989127  0.821475  0.905482  1
  Lu  Lu4  1  0.489121  0.678468  0.905158  1
  Lu  Lu5  1  0.989285  0.821525  0.595074  1
  Lu  Lu6  1  0.510879  0.321532  0.094842  1
  Lu  Lu7  1  0.010715  0.178475  0.404926  1
  Sc  Sc8  1  0.162032  0.504373  0.750288  1
  Sc  Sc9  1  0.837968  0.495627  0.249712  1
  Sc  Sc10  1  0.337550  0.004676  0.249727  1
  Sc  Sc11  1  0.662450  0.995324  0.750273  1
  Sc  Sc12  1  0.330493  0.175380  0.624878  1
  Sc  Sc13  1  0.669507  0.824620  0.375122  1
  Sc  Sc14  1  0.168579  0.676082  0.375126  1
  Sc  Sc15  1  0.669080  0.824177  0.124426  1
  Sc  Sc16  1  0.831421  0.323918  0.624874  1
  Sc  Sc17  1  0.330920  0.175823  0.875574  1
  Sc  Sc18  1  0.831004  0.324099  0.875404  1
  Sc  Sc19  1  0.168996  0.675901  0.124596  1
  Ga  Ga20  1  0.031306  0.112560  0.750300  1
  Ga  Ga21  1  0.968694  0.887440  0.249700  1
  Ga  Ga22  1  0.468580  0.613219  0.249821  1
  Ga  Ga23  1  0.531420  0.386781  0.750179  1
  Ga  Ga24  1  0.284373  0.868908  0.750424  1
  Ga  Ga25  1  0.715627  0.131092  0.249576  1
  Ga  Ga26  1  0.215198  0.369271  0.249539  1
  Ga  Ga27  1  0.784802  0.630729  0.750461  1
  Ga  Ga28  1  0.161601  0.465260  0.539862  1
  Ga  Ga29  1  0.838399  0.534740  0.460138  1
  Ga  Ga30  1  0.337307  0.965861  0.459961  1
  Ga  Ga31  1  0.837492  0.534027  0.039946  1
  Ga  Ga32  1  0.662693  0.034139  0.540039  1
  Ga  Ga33  1  0.162508  0.465973  0.960054  1
  Ga  Ga34  1  0.662396  0.034018  0.960038  1
  Ga  Ga35  1  0.337604  0.965982  0.039962  1
