# generated using pymatgen
data_Tm8Si12OsPt3
_symmetry_space_group_name_H-M   'P 1'
_cell_length_a   8.14931000
_cell_length_b   8.14930995
_cell_length_c   7.79349200
_cell_angle_alpha   90.00000000
_cell_angle_beta   90.00000000
_cell_angle_gamma   119.99999209
_symmetry_Int_Tables_number   1
_chemical_formula_structural   Tm8Si12OsPt3
_chemical_formula_sum   'Tm8 Si12 Os1 Pt3'
_cell_volume   448.23362713
_cell_formula_units_Z   1
loop_
 _symmetry_equiv_pos_site_id
 _symmetry_equiv_pos_as_xyz
  1  'x, y, z'
loop_
 _atom_site_type_symbol
 _atom_site_label
 _atom_site_symmetry_multiplicity
 _atom_site_fract_x
 _atom_site_fract_y
 _atom_site_fract_z
 _atom_site_occupancy
  Tm  Tm0  1  0.509648  0.019295  0.245148  1
  Tm  Tm1  1  0.486087  0.972175  0.754226  1
  Tm  Tm2  1  0.980705  0.490352  0.245148  1
  Tm  Tm3  1  0.027825  0.513913  0.754226  1
  Tm  Tm4  1  0.509648  0.490352  0.245148  1
  Tm  Tm5  1  0.486087  0.513913  0.754226  1
  Tm  Tm6  1  0.000000  0.000000  0.251566  1
  Tm  Tm7  1  0.000000  0.000000  0.750968  1
  Si  Si8  1  0.167459  0.334918  0.004405  1
  Si  Si9  1  0.836289  0.672579  0.996128  1
  Si  Si10  1  0.665082  0.832541  0.004405  1
  Si  Si11  1  0.834808  0.669618  0.501304  1
  Si  Si12  1  0.327421  0.163711  0.996128  1
  Si  Si13  1  0.165293  0.330586  0.499851  1
  Si  Si14  1  0.167459  0.832541  0.004405  1
  Si  Si15  1  0.330382  0.165192  0.501304  1
  Si  Si16  1  0.836289  0.163711  0.996128  1
  Si  Si17  1  0.669414  0.834707  0.499851  1
  Si  Si18  1  0.834808  0.165192  0.501304  1
  Si  Si19  1  0.165293  0.834707  0.499851  1
  Os  Os20  1  0.333333  0.666667  0.036850  1
  Pt  Pt21  1  0.666667  0.333333  0.965544  1
  Pt  Pt22  1  0.666667  0.333333  0.537340  1
  Pt  Pt23  1  0.333333  0.666667  0.454542  1
