# generated using pymatgen
data_Dy2Y2V3FeB16
_symmetry_space_group_name_H-M   'P 1'
_cell_length_a   3.44049600
_cell_length_b   5.98232581
_cell_length_c   11.56493700
_cell_angle_alpha   89.97020306
_cell_angle_beta   90.00000000
_cell_angle_gamma   90.00000000
_symmetry_Int_Tables_number   1
_chemical_formula_structural   Dy2Y2V3FeB16
_chemical_formula_sum   'Dy2 Y2 V3 Fe1 B16'
_cell_volume   238.03144447
_cell_formula_units_Z   1
loop_
 _symmetry_equiv_pos_site_id
 _symmetry_equiv_pos_as_xyz
  1  'x, y, z'
loop_
 _atom_site_type_symbol
 _atom_site_label
 _atom_site_symmetry_multiplicity
 _atom_site_fract_x
 _atom_site_fract_y
 _atom_site_fract_z
 _atom_site_occupancy
  Dy  Dy0  1  0.500000  0.376035  0.151355  1
  Dy  Dy1  1  0.500000  0.625757  0.848850  1
  Y  Y2  1  0.500000  0.124123  0.650384  1
  Y  Y3  1  0.500000  0.875841  0.349076  1
  V  V4  1  0.500000  0.373175  0.414365  1
  V  V5  1  0.500000  0.626848  0.582823  1
  V  V6  1  0.500000  0.126852  0.920072  1
  Fe  Fe7  1  0.500000  0.873992  0.081603  1
  B  B8  1  0.000000  0.108741  0.049601  1
  B  B9  1  0.000000  0.883670  0.955935  1
  B  B10  1  0.000000  0.385438  0.546393  1
  B  B11  1  0.000000  0.614411  0.452323  1
  B  B12  1  0.000000  0.134964  0.466787  1
  B  B13  1  0.000000  0.864424  0.532574  1
  B  B14  1  0.000000  0.364701  0.969843  1
  B  B15  1  0.000000  0.638945  0.033080  1
  B  B16  1  0.000000  0.021511  0.190703  1
  B  B17  1  0.000000  0.975149  0.809196  1
  B  B18  1  0.000000  0.474544  0.692429  1
  B  B19  1  0.000000  0.527384  0.305833  1
  B  B20  1  0.000000  0.213561  0.312473  1
  B  B21  1  0.000000  0.785190  0.686330  1
  B  B22  1  0.000000  0.283619  0.815664  1
  B  B23  1  0.000000  0.721125  0.182307  1
