# generated using pymatgen
data_Nd2Co3Tc6Ni3P7
_symmetry_space_group_name_H-M   'P 1'
_cell_length_a   9.39158600
_cell_length_b   9.39158495
_cell_length_c   3.80206800
_cell_angle_alpha   90.00000000
_cell_angle_beta   90.00000000
_cell_angle_gamma   119.99999571
_symmetry_Int_Tables_number   1
_chemical_formula_structural   Nd2Co3Tc6Ni3P7
_chemical_formula_sum   'Nd2 Co3 Tc6 Ni3 P7'
_cell_volume   290.42123063
_cell_formula_units_Z   1
loop_
 _symmetry_equiv_pos_site_id
 _symmetry_equiv_pos_as_xyz
  1  'x, y, z'
loop_
 _atom_site_type_symbol
 _atom_site_label
 _atom_site_symmetry_multiplicity
 _atom_site_fract_x
 _atom_site_fract_y
 _atom_site_fract_z
 _atom_site_occupancy
  Nd  Nd0  1  0.000000  0.000000  0.000000  1
  Nd  Nd1  1  0.333333  0.666667  0.500000  1
  Co  Co2  1  0.821987  0.601668  0.000000  1
  Co  Co3  1  0.398332  0.220320  0.000000  1
  Co  Co4  1  0.779680  0.178013  0.000000  1
  Tc  Tc5  1  0.059960  0.768814  0.500000  1
  Tc  Tc6  1  0.231186  0.291145  0.500000  1
  Tc  Tc7  1  0.708855  0.940040  0.500000  1
  Tc  Tc8  1  0.874770  0.421784  0.500000  1
  Tc  Tc9  1  0.578216  0.452987  0.500000  1
  Tc  Tc10  1  0.547013  0.125230  0.500000  1
  Ni  Ni11  1  0.087116  0.396550  0.000000  1
  Ni  Ni12  1  0.603450  0.690564  0.000000  1
  Ni  Ni13  1  0.309436  0.912884  0.000000  1
  P  P14  1  0.785540  0.730306  0.500000  1
  P  P15  1  0.269694  0.055234  0.500000  1
  P  P16  1  0.944766  0.214460  0.500000  1
  P  P17  1  0.666667  0.333333  0.000000  1
  P  P18  1  0.071450  0.630633  0.000000  1
  P  P19  1  0.369367  0.440817  0.000000  1
  P  P20  1  0.559183  0.928550  0.000000  1
