# generated using pymatgen
data_Zr2Ti7In14FeCo6
_symmetry_space_group_name_H-M   'P 1'
_cell_length_a   9.23954521
_cell_length_b   9.23954700
_cell_length_c   9.20843003
_cell_angle_alpha   59.88816198
_cell_angle_beta   59.88815583
_cell_angle_gamma   59.99999747
_symmetry_Int_Tables_number   1
_chemical_formula_structural   Zr2Ti7In14FeCo6
_chemical_formula_sum   'Zr2 Ti7 In14 Fe1 Co6'
_cell_volume   554.92670245
_cell_formula_units_Z   1
loop_
 _symmetry_equiv_pos_site_id
 _symmetry_equiv_pos_as_xyz
  1  'x, y, z'
loop_
 _atom_site_type_symbol
 _atom_site_label
 _atom_site_symmetry_multiplicity
 _atom_site_fract_x
 _atom_site_fract_y
 _atom_site_fract_z
 _atom_site_occupancy
  Zr  Zr0  1  0.499217  0.499217  0.502350  1
  Zr  Zr1  1  0.123411  0.123411  0.629766  1
  Ti  Ti2  1  0.116159  0.650040  0.117645  1
  Ti  Ti3  1  0.349087  0.882445  0.886022  1
  Ti  Ti4  1  0.882445  0.882445  0.886022  1
  Ti  Ti5  1  0.650040  0.116159  0.117645  1
  Ti  Ti6  1  0.883540  0.883540  0.349378  1
  Ti  Ti7  1  0.116159  0.116159  0.117645  1
  Ti  Ti8  1  0.882445  0.349087  0.886022  1
  In  In9  1  0.499937  0.843825  0.156302  1
  In  In10  1  0.503021  0.842498  0.501088  1
  In  In11  1  0.503021  0.153392  0.501088  1
  In  In12  1  0.499046  0.499046  0.847806  1
  In  In13  1  0.153392  0.503021  0.501088  1
  In  In14  1  0.842498  0.153392  0.501088  1
  In  In15  1  0.153392  0.842498  0.501088  1
  In  In16  1  0.499046  0.154102  0.847806  1
  In  In17  1  0.154102  0.499046  0.847806  1
  In  In18  1  0.499937  0.499937  0.156302  1
  In  In19  1  0.842498  0.503021  0.501088  1
  In  In20  1  0.843825  0.499937  0.156302  1
  In  In21  1  0.257297  0.257297  0.228110  1
  In  In22  1  0.749965  0.749965  0.750105  1
  Fe  Fe23  1  0.999134  0.999134  0.002597  1
  Co  Co24  1  0.787889  0.787889  0.211778  1
  Co  Co25  1  0.212445  0.787889  0.211778  1
  Co  Co26  1  0.213499  0.782168  0.790834  1
  Co  Co27  1  0.213499  0.213499  0.790834  1
  Co  Co28  1  0.782168  0.213499  0.790834  1
  Co  Co29  1  0.787889  0.212445  0.211778  1
