# generated using pymatgen
data_NaLaHo5IrI12
_symmetry_space_group_name_H-M   'P 1'
_cell_length_a   9.86671145
_cell_length_b   9.71771282
_cell_length_c   9.88910858
_cell_angle_alpha   106.55185475
_cell_angle_beta   106.82601142
_cell_angle_gamma   107.40855304
_symmetry_Int_Tables_number   1
_chemical_formula_structural   NaLaHo5IrI12
_chemical_formula_sum   'Na1 La1 Ho5 Ir1 I12'
_cell_volume   791.15134682
_cell_formula_units_Z   1
loop_
 _symmetry_equiv_pos_site_id
 _symmetry_equiv_pos_as_xyz
  1  'x, y, z'
loop_
 _atom_site_type_symbol
 _atom_site_label
 _atom_site_symmetry_multiplicity
 _atom_site_fract_x
 _atom_site_fract_y
 _atom_site_fract_z
 _atom_site_occupancy
  Na  Na0  1  0.499821  0.499493  0.500339  1
  La  La1  1  0.097460  0.295565  0.027611  1
  Ho  Ho2  1  0.311590  0.031594  0.103973  1
  Ho  Ho3  1  0.030936  0.101410  0.309564  1
  Ho  Ho4  1  0.967623  0.893626  0.688677  1
  Ho  Ho5  1  0.688226  0.969475  0.895961  1
  Ho  Ho6  1  0.904597  0.715746  0.972511  1
  Ir  Ir7  1  0.001618  0.005846  0.999013  1
  I  I8  1  0.219514  0.686890  0.074432  1
  I  I9  1  0.466038  0.374576  0.150678  1
  I  I10  1  0.679803  0.071962  0.220625  1
  I  I11  1  0.923211  0.772195  0.312478  1
  I  I12  1  0.145344  0.453808  0.386033  1
  I  I13  1  0.371891  0.139962  0.450266  1
  I  I14  1  0.627976  0.857439  0.548421  1
  I  I15  1  0.856631  0.548191  0.632628  1
  I  I16  1  0.073297  0.216962  0.669653  1
  I  I17  1  0.318909  0.924374  0.778421  1
  I  I18  1  0.552507  0.626763  0.858304  1
  I  I19  1  0.763010  0.314123  0.920417  1
