# generated using pymatgen
data_YEr15In3HgIr4
_symmetry_space_group_name_H-M   'P 1'
_cell_length_a   9.55674884
_cell_length_b   9.57471167
_cell_length_c   9.56855600
_cell_angle_alpha   60.02126497
_cell_angle_beta   59.95912227
_cell_angle_gamma   59.94359660
_symmetry_Int_Tables_number   1
_chemical_formula_structural   YEr15In3HgIr4
_chemical_formula_sum   'Y1 Er15 In3 Hg1 Ir4'
_cell_volume   618.75286726
_cell_formula_units_Z   1
loop_
 _symmetry_equiv_pos_site_id
 _symmetry_equiv_pos_as_xyz
  1  'x, y, z'
loop_
 _atom_site_type_symbol
 _atom_site_label
 _atom_site_symmetry_multiplicity
 _atom_site_fract_x
 _atom_site_fract_y
 _atom_site_fract_z
 _atom_site_occupancy
  Y  Y0  1  0.058968  0.064067  0.438483  1
  Er  Er1  1  0.649731  0.048522  0.650873  1
  Er  Er2  1  0.191433  0.808364  0.190746  1
  Er  Er3  1  0.438483  0.061265  0.439439  1
  Er  Er4  1  0.191527  0.190517  0.808978  1
  Er  Er5  1  0.649912  0.650777  0.650300  1
  Er  Er6  1  0.048095  0.650597  0.650655  1
  Er  Er7  1  0.438483  0.061265  0.060812  1
  Er  Er8  1  0.649912  0.650777  0.049012  1
  Er  Er9  1  0.191433  0.808364  0.809456  1
  Er  Er10  1  0.809073  0.190446  0.809881  1
  Er  Er11  1  0.809073  0.190446  0.190600  1
  Er  Er12  1  0.809660  0.809270  0.190535  1
  Er  Er13  1  0.058337  0.439588  0.438919  1
  Er  Er14  1  0.438010  0.439422  0.061283  1
  Er  Er15  1  0.058337  0.439588  0.063156  1
  In  In16  1  0.417661  0.416891  0.748495  1
  In  In17  1  0.418012  0.748075  0.416956  1
  In  In18  1  0.417661  0.416891  0.416951  1
  Hg  Hg19  1  0.757524  0.414517  0.413979  1
  Ir  Ir20  1  0.857926  0.858695  0.859172  1
  Ir  Ir21  1  0.424744  0.858505  0.858376  1
  Ir  Ir22  1  0.857926  0.858695  0.424208  1
  Ir  Ir23  1  0.858080  0.424454  0.858733  1
