# generated using pymatgen
data_K3In(AsO4)2
_symmetry_space_group_name_H-M   'P 1'
_cell_length_a   5.58103005
_cell_length_b   5.58102949
_cell_length_c   8.12364645
_cell_angle_alpha   89.73932991
_cell_angle_beta   89.73932830
_cell_angle_gamma   62.96054933
_symmetry_Int_Tables_number   1
_chemical_formula_structural   K3In(AsO4)2
_chemical_formula_sum   'K3 In1 As2 O8'
_cell_volume   225.37300919
_cell_formula_units_Z   1
loop_
 _symmetry_equiv_pos_site_id
 _symmetry_equiv_pos_as_xyz
  1  'x, y, z'
loop_
 _atom_site_type_symbol
 _atom_site_label
 _atom_site_symmetry_multiplicity
 _atom_site_fract_x
 _atom_site_fract_y
 _atom_site_fract_z
 _atom_site_occupancy
  K  K0  1  0.306983  0.306983  0.714819  1
  K  K1  1  0.693017  0.693017  0.285181  1
  K  K2  1  0.000000  0.000000  0.500000  1
  In  In3  1  0.000000  0.000000  0.000000  1
  As  As4  1  0.655041  0.655041  0.800073  1
  As  As5  1  0.344959  0.344959  0.199927  1
  O  O6  1  0.263168  0.263168  0.386139  1
  O  O7  1  0.772747  0.772747  0.959262  1
  O  O8  1  0.695632  0.213258  0.194027  1
  O  O9  1  0.786742  0.304368  0.805973  1
  O  O10  1  0.227253  0.227253  0.040738  1
  O  O11  1  0.213258  0.695632  0.194027  1
  O  O12  1  0.304368  0.786742  0.805973  1
  O  O13  1  0.736832  0.736832  0.613861  1
