# generated using pymatgen
data_La4Hg4PtRh3
_symmetry_space_group_name_H-M   'P 1'
_cell_length_a   4.07429400
_cell_length_b   7.87253600
_cell_length_c   17.63416000
_cell_angle_alpha   90.00000000
_cell_angle_beta   90.00000000
_cell_angle_gamma   90.00000000
_symmetry_Int_Tables_number   1
_chemical_formula_structural   La4Hg4PtRh3
_chemical_formula_sum   'La8 Hg8 Pt2 Rh6'
_cell_volume   565.61614383
_cell_formula_units_Z   2
loop_
 _symmetry_equiv_pos_site_id
 _symmetry_equiv_pos_as_xyz
  1  'x, y, z'
loop_
 _atom_site_type_symbol
 _atom_site_label
 _atom_site_symmetry_multiplicity
 _atom_site_fract_x
 _atom_site_fract_y
 _atom_site_fract_z
 _atom_site_occupancy
  La  La0  1  0.750000  0.332475  0.443707  1
  La  La1  1  0.250000  0.055385  0.714723  1
  La  La2  1  0.250000  0.564090  0.783208  1
  La  La3  1  0.250000  0.668620  0.558794  1
  La  La4  1  0.750000  0.831380  0.058794  1
  La  La5  1  0.250000  0.167525  0.943707  1
  La  La6  1  0.750000  0.444615  0.214723  1
  La  La7  1  0.750000  0.935910  0.283208  1
  Hg  Hg8  1  0.250000  0.108731  0.151521  1
  Hg  Hg9  1  0.250000  0.993611  0.434403  1
  Hg  Hg10  1  0.750000  0.885686  0.846354  1
  Hg  Hg11  1  0.750000  0.001753  0.566697  1
  Hg  Hg12  1  0.250000  0.498247  0.066697  1
  Hg  Hg13  1  0.750000  0.391269  0.651521  1
  Hg  Hg14  1  0.750000  0.506389  0.934403  1
  Hg  Hg15  1  0.250000  0.614314  0.346354  1
  Pt  Pt16  1  0.750000  0.260006  0.810051  1
  Pt  Pt17  1  0.250000  0.239994  0.310051  1
  Rh  Rh18  1  0.250000  0.767140  0.945131  1
  Rh  Rh19  1  0.250000  0.263046  0.554744  1
  Rh  Rh20  1  0.250000  0.742342  0.190668  1
  Rh  Rh21  1  0.750000  0.732860  0.445131  1
  Rh  Rh22  1  0.750000  0.236954  0.054744  1
  Rh  Rh23  1  0.750000  0.757658  0.690668  1
