# generated using pymatgen
data_TmCrCo4As3
_symmetry_space_group_name_H-M   'P 1'
_cell_length_a   3.76523300
_cell_length_b   10.74371000
_cell_length_c   12.27745200
_cell_angle_alpha   90.00000000
_cell_angle_beta   90.00000000
_cell_angle_gamma   90.00000000
_symmetry_Int_Tables_number   1
_chemical_formula_structural   TmCrCo4As3
_chemical_formula_sum   'Tm4 Cr4 Co16 As12'
_cell_volume   496.65450406
_cell_formula_units_Z   4
loop_
 _symmetry_equiv_pos_site_id
 _symmetry_equiv_pos_as_xyz
  1  'x, y, z'
loop_
 _atom_site_type_symbol
 _atom_site_label
 _atom_site_symmetry_multiplicity
 _atom_site_fract_x
 _atom_site_fract_y
 _atom_site_fract_z
 _atom_site_occupancy
  Tm  Tm0  1  0.250000  0.580441  0.705508  1
  Tm  Tm1  1  0.250000  0.919559  0.205508  1
  Tm  Tm2  1  0.750000  0.419559  0.294492  1
  Tm  Tm3  1  0.750000  0.080441  0.794492  1
  Cr  Cr4  1  0.250000  0.705796  0.990615  1
  Cr  Cr5  1  0.250000  0.794204  0.490615  1
  Cr  Cr6  1  0.750000  0.294204  0.009385  1
  Cr  Cr7  1  0.750000  0.205796  0.509385  1
  Co  Co8  1  0.250000  0.405804  0.488365  1
  Co  Co9  1  0.250000  0.094196  0.988365  1
  Co  Co10  1  0.750000  0.594196  0.511635  1
  Co  Co11  1  0.750000  0.905804  0.011635  1
  Co  Co12  1  0.250000  0.217090  0.175760  1
  Co  Co13  1  0.250000  0.282910  0.675760  1
  Co  Co14  1  0.750000  0.782910  0.824240  1
  Co  Co15  1  0.750000  0.717090  0.324240  1
  Co  Co16  1  0.250000  0.884108  0.698718  1
  Co  Co17  1  0.250000  0.615892  0.198718  1
  Co  Co18  1  0.750000  0.115892  0.301282  1
  Co  Co19  1  0.750000  0.384108  0.801282  1
  Co  Co20  1  0.250000  0.464980  0.931858  1
  Co  Co21  1  0.250000  0.035020  0.431858  1
  Co  Co22  1  0.750000  0.535020  0.068142  1
  Co  Co23  1  0.750000  0.964980  0.568142  1
  As  As24  1  0.250000  0.417793  0.115017  1
  As  As25  1  0.250000  0.082207  0.615017  1
  As  As26  1  0.750000  0.582207  0.884983  1
  As  As27  1  0.750000  0.917793  0.384983  1
  As  As28  1  0.250000  0.266334  0.866091  1
  As  As29  1  0.250000  0.233666  0.366091  1
  As  As30  1  0.750000  0.733666  0.133909  1
  As  As31  1  0.750000  0.766334  0.633909  1
  As  As32  1  0.250000  0.595133  0.389275  1
  As  As33  1  0.250000  0.904867  0.889275  1
  As  As34  1  0.750000  0.404867  0.610725  1
  As  As35  1  0.750000  0.095133  0.110725  1
