# generated using pymatgen
data_NdY(Si7Rh3)2
_symmetry_space_group_name_H-M   'P 1'
_cell_length_a   8.02403098
_cell_length_b   8.02403067
_cell_length_c   8.02403254
_cell_angle_alpha   57.07994415
_cell_angle_beta   57.07994636
_cell_angle_gamma   57.07993879
_symmetry_Int_Tables_number   1
_chemical_formula_structural   NdY(Si7Rh3)2
_chemical_formula_sum   'Nd1 Y1 Si14 Rh6'
_cell_volume   340.72452937
_cell_formula_units_Z   1
loop_
 _symmetry_equiv_pos_site_id
 _symmetry_equiv_pos_as_xyz
  1  'x, y, z'
loop_
 _atom_site_type_symbol
 _atom_site_label
 _atom_site_symmetry_multiplicity
 _atom_site_fract_x
 _atom_site_fract_y
 _atom_site_fract_z
 _atom_site_occupancy
  Nd  Nd0  1  0.500000  0.500000  0.500000  1
  Y  Y1  1  0.000000  0.000000  0.000000  1
  Si  Si2  1  0.750074  0.750074  0.750074  1
  Si  Si3  1  0.249926  0.249926  0.249926  1
  Si  Si4  1  0.852451  0.064245  0.672734  1
  Si  Si5  1  0.672734  0.852451  0.064245  1
  Si  Si6  1  0.064245  0.672734  0.852451  1
  Si  Si7  1  0.648782  0.828284  0.434847  1
  Si  Si8  1  0.434847  0.648782  0.828284  1
  Si  Si9  1  0.828284  0.434847  0.648782  1
  Si  Si10  1  0.171716  0.565153  0.351218  1
  Si  Si11  1  0.565153  0.351218  0.171716  1
  Si  Si12  1  0.351218  0.171716  0.565153  1
  Si  Si13  1  0.935755  0.327266  0.147549  1
  Si  Si14  1  0.327266  0.147549  0.935755  1
  Si  Si15  1  0.147549  0.935755  0.327266  1
  Rh  Rh16  1  0.067407  0.430050  0.751535  1
  Rh  Rh17  1  0.248465  0.932593  0.569950  1
  Rh  Rh18  1  0.569950  0.248465  0.932593  1
  Rh  Rh19  1  0.932593  0.569950  0.248465  1
  Rh  Rh20  1  0.430050  0.751535  0.067407  1
  Rh  Rh21  1  0.751535  0.067407  0.430050  1
