# generated using pymatgen
data_CsTbMnSe3
_symmetry_space_group_name_H-M   'P 1'
_cell_length_a   8.36441704
_cell_length_b   8.36441564
_cell_length_c   11.11302500
_cell_angle_alpha   90.00000000
_cell_angle_beta   90.00000000
_cell_angle_gamma   150.46342451
_symmetry_Int_Tables_number   1
_chemical_formula_structural   CsTbMnSe3
_chemical_formula_sum   'Cs2 Tb2 Mn2 Se6'
_cell_volume   383.29402489
_cell_formula_units_Z   2
loop_
 _symmetry_equiv_pos_site_id
 _symmetry_equiv_pos_as_xyz
  1  'x, y, z'
loop_
 _atom_site_type_symbol
 _atom_site_label
 _atom_site_symmetry_multiplicity
 _atom_site_fract_x
 _atom_site_fract_y
 _atom_site_fract_z
 _atom_site_occupancy
  Cs  Cs0  1  0.257282  0.742718  0.250000  1
  Cs  Cs1  1  0.742718  0.257282  0.750000  1
  Tb  Tb2  1  0.000000  0.000000  0.000000  1
  Tb  Tb3  1  0.000000  0.000000  0.500000  1
  Mn  Mn4  1  0.537208  0.462792  0.250000  1
  Mn  Mn5  1  0.462792  0.537208  0.750000  1
  Se  Se6  1  0.616070  0.383930  0.057652  1
  Se  Se7  1  0.383930  0.616070  0.942348  1
  Se  Se8  1  0.383930  0.616070  0.557652  1
  Se  Se9  1  0.616070  0.383930  0.442348  1
  Se  Se10  1  0.945455  0.054545  0.250000  1
  Se  Se11  1  0.054545  0.945455  0.750000  1
