# generated using pymatgen
data_YCd3Ir3RuO14
_symmetry_space_group_name_H-M   'P 1'
_cell_length_a   7.22357108
_cell_length_b   7.22357053
_cell_length_c   7.30359537
_cell_angle_alpha   60.36179842
_cell_angle_beta   60.36179743
_cell_angle_gamma   60.00000202
_symmetry_Int_Tables_number   1
_chemical_formula_structural   YCd3Ir3RuO14
_chemical_formula_sum   'Y1 Cd3 Ir3 Ru1 O14'
_cell_volume   270.94368425
_cell_formula_units_Z   1
loop_
 _symmetry_equiv_pos_site_id
 _symmetry_equiv_pos_as_xyz
  1  'x, y, z'
loop_
 _atom_site_type_symbol
 _atom_site_label
 _atom_site_symmetry_multiplicity
 _atom_site_fract_x
 _atom_site_fract_y
 _atom_site_fract_z
 _atom_site_occupancy
  Y  Y0  1  0.125000  0.125000  0.625000  1
  Cd  Cd1  1  0.625000  0.125000  0.125000  1
  Cd  Cd2  1  0.125000  0.625000  0.125000  1
  Cd  Cd3  1  0.125000  0.125000  0.125000  1
  Ir  Ir4  1  0.125000  0.625000  0.625000  1
  Ir  Ir5  1  0.625000  0.125000  0.625000  1
  Ir  Ir6  1  0.625000  0.625000  0.625000  1
  Ru  Ru7  1  0.625000  0.625000  0.125000  1
  O  O8  1  0.694973  0.694973  0.306820  1
  O  O9  1  0.294793  0.294793  0.698161  1
  O  O10  1  0.712253  0.294793  0.698161  1
  O  O11  1  0.303235  0.694973  0.306820  1
  O  O12  1  0.294793  0.712253  0.698161  1
  O  O13  1  0.694973  0.303235  0.306820  1
  O  O14  1  0.555027  0.555027  0.943180  1
  O  O15  1  0.955207  0.955207  0.551839  1
  O  O16  1  0.537747  0.955207  0.551839  1
  O  O17  1  0.946765  0.555027  0.943180  1
  O  O18  1  0.955207  0.537747  0.551839  1
  O  O19  1  0.555027  0.946765  0.943180  1
  O  O20  1  0.251350  0.251350  0.245952  1
  O  O21  1  0.998650  0.998650  0.004048  1
