# generated using pymatgen
data_Pr2Y18Si15Pt
_symmetry_space_group_name_H-M   'P 1'
_cell_length_a   7.45080513
_cell_length_b   7.77484971
_cell_length_c   14.74046029
_cell_angle_alpha   89.69439119
_cell_angle_beta   90.00144242
_cell_angle_gamma   89.89755531
_symmetry_Int_Tables_number   1
_chemical_formula_structural   Pr2Y18Si15Pt
_chemical_formula_sum   'Pr2 Y18 Si15 Pt1'
_cell_volume   853.88499221
_cell_formula_units_Z   1
loop_
 _symmetry_equiv_pos_site_id
 _symmetry_equiv_pos_as_xyz
  1  'x, y, z'
loop_
 _atom_site_type_symbol
 _atom_site_label
 _atom_site_symmetry_multiplicity
 _atom_site_fract_x
 _atom_site_fract_y
 _atom_site_fract_z
 _atom_site_occupancy
  Pr  Pr0  1  0.523318  0.569845  0.342750  1
  Pr  Pr1  1  0.023675  0.429488  0.656661  1
  Y  Y2  1  0.811853  0.575275  0.874575  1
  Y  Y3  1  0.318587  0.426542  0.125705  1
  Y  Y4  1  0.182379  0.928023  0.373116  1
  Y  Y5  1  0.681905  0.069917  0.627167  1
  Y  Y6  1  0.182702  0.928218  0.628444  1
  Y  Y7  1  0.682268  0.070563  0.371339  1
  Y  Y8  1  0.815327  0.571648  0.126565  1
  Y  Y9  1  0.321435  0.430633  0.873194  1
  Y  Y10  1  0.644483  0.235515  0.999583  1
  Y  Y11  1  0.155361  0.759123  0.000686  1
  Y  Y12  1  0.350367  0.263225  0.500052  1
  Y  Y13  1  0.850357  0.735938  0.499900  1
  Y  Y14  1  0.475027  0.932359  0.846941  1
  Y  Y15  1  0.973155  0.066579  0.152308  1
  Y  Y16  1  0.473310  0.932777  0.152319  1
  Y  Y17  1  0.971653  0.067370  0.848740  1
  Y  Y18  1  0.528045  0.565690  0.651887  1
  Y  Y19  1  0.028026  0.433939  0.347892  1
  Si  Si20  1  0.020325  0.350858  0.999887  1
  Si  Si21  1  0.476450  0.858256  0.500988  1
  Si  Si22  1  0.976655  0.141109  0.499157  1
  Si  Si23  1  0.650476  0.276733  0.790453  1
  Si  Si24  1  0.150341  0.722270  0.209411  1
  Si  Si25  1  0.352001  0.216928  0.287912  1
  Si  Si26  1  0.852332  0.782837  0.712636  1
  Si  Si27  1  0.360448  0.220263  0.710562  1
  Si  Si28  1  0.860140  0.779696  0.288913  1
  Si  Si29  1  0.645813  0.270116  0.206515  1
  Si  Si30  1  0.145163  0.728006  0.793182  1
  Si  Si31  1  0.770440  0.880481  0.000767  1
  Si  Si32  1  0.259317  0.125591  0.999505  1
  Si  Si33  1  0.234326  0.626897  0.501556  1
  Si  Si34  1  0.733385  0.373521  0.498572  1
  Pt  Pt35  1  0.519154  0.653770  0.000159  1
