# generated using pymatgen
data_Sm4Ho3Er(B6Ru)4
_symmetry_space_group_name_H-M   'P 1'
_cell_length_a   3.68892500
_cell_length_b   9.17835602
_cell_length_c   11.58052003
_cell_angle_alpha   90.00820288
_cell_angle_beta   90.00000000
_cell_angle_gamma   90.00000000
_symmetry_Int_Tables_number   1
_chemical_formula_structural   Sm4Ho3Er(B6Ru)4
_chemical_formula_sum   'Sm4 Ho3 Er1 B24 Ru4'
_cell_volume   392.09633508
_cell_formula_units_Z   1
loop_
 _symmetry_equiv_pos_site_id
 _symmetry_equiv_pos_as_xyz
  1  'x, y, z'
loop_
 _atom_site_type_symbol
 _atom_site_label
 _atom_site_symmetry_multiplicity
 _atom_site_fract_x
 _atom_site_fract_y
 _atom_site_fract_z
 _atom_site_occupancy
  Sm  Sm0  1  0.000000  0.322768  0.414361  1
  Sm  Sm1  1  0.000000  0.677243  0.585742  1
  Sm  Sm2  1  0.000000  0.822675  0.085566  1
  Sm  Sm3  1  0.000000  0.177359  0.914303  1
  Ho  Ho4  1  0.000000  0.943955  0.371819  1
  Ho  Ho5  1  0.000000  0.056054  0.628226  1
  Ho  Ho6  1  0.000000  0.444018  0.128013  1
  Er  Er7  1  0.000000  0.555927  0.871928  1
  B  B8  1  0.500000  0.555585  0.431476  1
  B  B9  1  0.500000  0.444454  0.568612  1
  B  B10  1  0.500000  0.055554  0.068500  1
  B  B11  1  0.500000  0.944315  0.931444  1
  B  B12  1  0.500000  0.749291  0.418094  1
  B  B13  1  0.500000  0.250780  0.581938  1
  B  B14  1  0.500000  0.249325  0.081879  1
  B  B15  1  0.500000  0.750388  0.918071  1
  B  B16  1  0.500000  0.790884  0.266309  1
  B  B17  1  0.500000  0.209257  0.733720  1
  B  B18  1  0.500000  0.290912  0.233655  1
  B  B19  1  0.500000  0.708792  0.766403  1
  B  B20  1  0.500000  0.631127  0.184826  1
  B  B21  1  0.500000  0.369123  0.815248  1
  B  B22  1  0.500000  0.131163  0.315122  1
  B  B23  1  0.500000  0.868767  0.684932  1
  B  B24  1  0.500000  0.985081  0.213506  1
  B  B25  1  0.500000  0.014856  0.786503  1
  B  B26  1  0.500000  0.485062  0.286460  1
  B  B27  1  0.500000  0.515148  0.713767  1
  B  B28  1  0.500000  0.604342  0.028209  1
  B  B29  1  0.500000  0.395909  0.971271  1
  B  B30  1  0.500000  0.104527  0.471457  1
  B  B31  1  0.500000  0.895474  0.528561  1
  Ru  Ru32  1  0.000000  0.638907  0.319993  1
  Ru  Ru33  1  0.000000  0.361282  0.680121  1
  Ru  Ru34  1  0.000000  0.138969  0.179902  1
  Ru  Ru35  1  0.000000  0.860726  0.820061  1
