# generated using pymatgen
data_Ho10Er2In2Fe2Ir
_symmetry_space_group_name_H-M   'P 1'
_cell_length_a   8.33288944
_cell_length_b   8.33701458
_cell_length_c   8.33288947
_cell_angle_alpha   108.75949271
_cell_angle_beta   108.70988843
_cell_angle_gamma   110.93392745
_symmetry_Int_Tables_number   1
_chemical_formula_structural   Ho10Er2In2Fe2Ir
_chemical_formula_sum   'Ho10 Er2 In2 Fe2 Ir1'
_cell_volume   445.52734128
_cell_formula_units_Z   1
loop_
 _symmetry_equiv_pos_site_id
 _symmetry_equiv_pos_as_xyz
  1  'x, y, z'
loop_
 _atom_site_type_symbol
 _atom_site_label
 _atom_site_symmetry_multiplicity
 _atom_site_fract_x
 _atom_site_fract_y
 _atom_site_fract_z
 _atom_site_occupancy
  Ho  Ho0  1  0.307671  0.307538  0.614732  1
  Ho  Ho1  1  0.692329  0.692462  0.385268  1
  Ho  Ho2  1  0.307196  0.692462  0.000133  1
  Ho  Ho3  1  0.692804  0.307538  0.999867  1
  Ho  Ho4  1  0.432460  0.193829  0.239105  1
  Ho  Ho5  1  0.567540  0.806171  0.760895  1
  Ho  Ho6  1  0.954723  0.193829  0.761370  1
  Ho  Ho7  1  0.193364  0.954487  0.761123  1
  Ho  Ho8  1  0.045277  0.806171  0.238630  1
  Ho  Ho9  1  0.806636  0.045513  0.238877  1
  Er  Er10  1  0.193228  0.432043  0.238814  1
  Er  Er11  1  0.806772  0.567957  0.761186  1
  In  In12  1  0.500000  0.000000  0.500000  1
  In  In13  1  0.000000  0.500000  0.500000  1
  Fe  Fe14  1  0.386346  0.386395  0.000049  1
  Fe  Fe15  1  0.613654  0.613605  0.999951  1
  Ir  Ir16  1  0.000000  0.000000  0.000000  1
