# generated using pymatgen
data_Zr6Zn3Si(PtN)2
_symmetry_space_group_name_H-M   'P 1'
_cell_length_a   8.57568707
_cell_length_b   8.57568726
_cell_length_c   8.58340800
_cell_angle_alpha   59.97022136
_cell_angle_beta   59.97022065
_cell_angle_gamma   59.87993837
_symmetry_Int_Tables_number   1
_chemical_formula_structural   Zr6Zn3Si(PtN)2
_chemical_formula_sum   'Zr12 Zn6 Si2 Pt4 N4'
_cell_volume   445.75039049
_cell_formula_units_Z   2
loop_
 _symmetry_equiv_pos_site_id
 _symmetry_equiv_pos_as_xyz
  1  'x, y, z'
loop_
 _atom_site_type_symbol
 _atom_site_label
 _atom_site_symmetry_multiplicity
 _atom_site_fract_x
 _atom_site_fract_y
 _atom_site_fract_z
 _atom_site_occupancy
  Zr  Zr0  1  0.809601  0.191205  0.190717  1
  Zr  Zr1  1  0.191205  0.809601  0.190717  1
  Zr  Zr2  1  0.807252  0.807252  0.192748  1
  Zr  Zr3  1  0.191205  0.809601  0.808477  1
  Zr  Zr4  1  0.809601  0.191205  0.808477  1
  Zr  Zr5  1  0.187848  0.187848  0.812152  1
  Zr  Zr6  1  0.440889  0.061869  0.056068  1
  Zr  Zr7  1  0.061869  0.440889  0.056068  1
  Zr  Zr8  1  0.439759  0.439759  0.060241  1
  Zr  Zr9  1  0.061869  0.440889  0.441174  1
  Zr  Zr10  1  0.440889  0.061869  0.441174  1
  Zr  Zr11  1  0.059114  0.059114  0.440886  1
  Zn  Zn12  1  0.756387  0.417998  0.412807  1
  Zn  Zn13  1  0.417998  0.756387  0.412807  1
  Zn  Zn14  1  0.830661  0.830661  0.509132  1
  Zn  Zn15  1  0.830661  0.830661  0.829548  1
  Zn  Zn16  1  0.506524  0.832601  0.830439  1
  Zn  Zn17  1  0.832601  0.506524  0.830439  1
  Si  Si18  1  0.418269  0.418269  0.752063  1
  Si  Si19  1  0.418269  0.418269  0.411396  1
  Pt  Pt20  1  0.617950  0.617950  0.133661  1
  Pt  Pt21  1  0.617950  0.617950  0.630439  1
  Pt  Pt22  1  0.144740  0.609367  0.622946  1
  Pt  Pt23  1  0.609367  0.144740  0.622946  1
  N  N24  1  0.124201  0.124201  0.625439  1
  N  N25  1  0.124201  0.124201  0.126159  1
  N  N26  1  0.625556  0.123564  0.125440  1
  N  N27  1  0.123564  0.625556  0.125440  1
