# generated using pymatgen
data_Er4Cd2Ni3Pd
_symmetry_space_group_name_H-M   'P 1'
_cell_length_a   7.47045329
_cell_length_b   7.47045329
_cell_length_c   3.59134700
_cell_angle_alpha   90.00000000
_cell_angle_beta   90.00000000
_cell_angle_gamma   90.54756924
_symmetry_Int_Tables_number   1
_chemical_formula_structural   Er4Cd2Ni3Pd
_chemical_formula_sum   'Er4 Cd2 Ni3 Pd1'
_cell_volume   200.41556387
_cell_formula_units_Z   1
loop_
 _symmetry_equiv_pos_site_id
 _symmetry_equiv_pos_as_xyz
  1  'x, y, z'
loop_
 _atom_site_type_symbol
 _atom_site_label
 _atom_site_symmetry_multiplicity
 _atom_site_fract_x
 _atom_site_fract_y
 _atom_site_fract_z
 _atom_site_occupancy
  Er  Er0  1  0.682481  0.171622  0.500000  1
  Er  Er1  1  0.328378  0.817519  0.500000  1
  Er  Er2  1  0.164033  0.335967  0.500000  1
  Er  Er3  1  0.824945  0.675055  0.500000  1
  Cd  Cd4  1  0.998907  0.996810  0.000000  1
  Cd  Cd5  1  0.503190  0.501093  0.000000  1
  Ni  Ni6  1  0.116670  0.621797  0.000000  1
  Ni  Ni7  1  0.878203  0.383330  0.000000  1
  Ni  Ni8  1  0.626953  0.873047  0.000000  1
  Pd  Pd9  1  0.376239  0.123761  0.000000  1
