# generated using pymatgen
data_Nd7ThSe12
_symmetry_space_group_name_H-M   'P 1'
_cell_length_a   11.51964942
_cell_length_b   4.16002100
_cell_length_c   11.26376437
_cell_angle_alpha   90.00000000
_cell_angle_beta   89.88847404
_cell_angle_gamma   90.00000000
_symmetry_Int_Tables_number   1
_chemical_formula_structural   Nd7ThSe12
_chemical_formula_sum   'Nd7 Th1 Se12'
_cell_volume   539.78090770
_cell_formula_units_Z   1
loop_
 _symmetry_equiv_pos_site_id
 _symmetry_equiv_pos_as_xyz
  1  'x, y, z'
loop_
 _atom_site_type_symbol
 _atom_site_label
 _atom_site_symmetry_multiplicity
 _atom_site_fract_x
 _atom_site_fract_y
 _atom_site_fract_z
 _atom_site_occupancy
  Nd  Nd0  1  0.484774  0.250000  0.189116  1
  Nd  Nd1  1  0.988544  0.250000  0.315487  1
  Nd  Nd2  1  0.510594  0.750000  0.810408  1
  Nd  Nd3  1  0.013439  0.750000  0.685040  1
  Nd  Nd4  1  0.691985  0.750000  0.491488  1
  Nd  Nd5  1  0.195128  0.750000  0.001549  1
  Nd  Nd6  1  0.307460  0.250000  0.503854  1
  Th  Th7  1  0.807837  0.250000  0.002064  1
  Se  Se8  1  0.548584  0.250000  0.625469  1
  Se  Se9  1  0.042676  0.250000  0.875340  1
  Se  Se10  1  0.453560  0.750000  0.374192  1
  Se  Se11  1  0.952278  0.750000  0.125043  1
  Se  Se12  1  0.621307  0.750000  0.053284  1
  Se  Se13  1  0.122111  0.750000  0.445342  1
  Se  Se14  1  0.380674  0.250000  0.946508  1
  Se  Se15  1  0.876522  0.250000  0.555144  1
  Se  Se16  1  0.729581  0.250000  0.292916  1
  Se  Se17  1  0.224762  0.250000  0.197839  1
  Se  Se18  1  0.271442  0.750000  0.701705  1
  Se  Se19  1  0.776741  0.750000  0.808212  1
