# generated using pymatgen
data_Sr7Yb12PrPt16
_symmetry_space_group_name_H-M   'P 1'
_cell_length_a   7.64279245
_cell_length_b   7.79747762
_cell_length_c   14.82965603
_cell_angle_alpha   89.85756919
_cell_angle_beta   89.88398686
_cell_angle_gamma   90.07258354
_symmetry_Int_Tables_number   1
_chemical_formula_structural   Sr7Yb12PrPt16
_chemical_formula_sum   'Sr7 Yb12 Pr1 Pt16'
_cell_volume   883.76072480
_cell_formula_units_Z   1
loop_
 _symmetry_equiv_pos_site_id
 _symmetry_equiv_pos_as_xyz
  1  'x, y, z'
loop_
 _atom_site_type_symbol
 _atom_site_label
 _atom_site_symmetry_multiplicity
 _atom_site_fract_x
 _atom_site_fract_y
 _atom_site_fract_z
 _atom_site_occupancy
  Sr  Sr0  1  0.001197  0.175041  0.596297  1
  Sr  Sr1  1  0.498025  0.675207  0.403554  1
  Sr  Sr2  1  0.997919  0.824908  0.096761  1
  Sr  Sr3  1  0.497875  0.675027  0.096400  1
  Sr  Sr4  1  0.998488  0.824512  0.403357  1
  Sr  Sr5  1  0.502335  0.325152  0.596571  1
  Sr  Sr6  1  0.001632  0.174370  0.903823  1
  Yb  Yb7  1  0.339520  0.831834  0.877714  1
  Yb  Yb8  1  0.838874  0.666879  0.622938  1
  Yb  Yb9  1  0.661081  0.166658  0.376862  1
  Yb  Yb10  1  0.161323  0.333785  0.122973  1
  Yb  Yb11  1  0.660860  0.167696  0.123100  1
  Yb  Yb12  1  0.160589  0.333408  0.377419  1
  Yb  Yb13  1  0.338769  0.832594  0.622984  1
  Yb  Yb14  1  0.839269  0.667920  0.877189  1
  Yb  Yb15  1  0.176108  0.498864  0.749515  1
  Yb  Yb16  1  0.679422  0.001087  0.749530  1
  Yb  Yb17  1  0.822832  0.501978  0.250350  1
  Yb  Yb18  1  0.322316  0.998423  0.250453  1
  Pr  Pr19  1  0.499116  0.321017  0.900346  1
  Pt  Pt20  1  0.335505  0.046852  0.039563  1
  Pt  Pt21  1  0.834507  0.460511  0.457580  1
  Pt  Pt22  1  0.664375  0.960672  0.542871  1
  Pt  Pt23  1  0.176015  0.529399  0.955959  1
  Pt  Pt24  1  0.662858  0.970967  0.954668  1
  Pt  Pt25  1  0.164892  0.538058  0.543297  1
  Pt  Pt26  1  0.334578  0.039601  0.457595  1
  Pt  Pt27  1  0.829885  0.459668  0.037995  1
  Pt  Pt28  1  0.542254  0.624631  0.752949  1
  Pt  Pt29  1  0.048245  0.871846  0.749438  1
  Pt  Pt30  1  0.454831  0.370950  0.250588  1
  Pt  Pt31  1  0.955081  0.129365  0.250124  1
  Pt  Pt32  1  0.308141  0.129723  0.756370  1
  Pt  Pt33  1  0.797071  0.371653  0.753570  1
  Pt  Pt34  1  0.697198  0.874344  0.249882  1
  Pt  Pt35  1  0.197012  0.625402  0.249419  1
