# generated using pymatgen
data_HoTaNbB2Ru5
_symmetry_space_group_name_H-M   'P 1'
_cell_length_a   9.56920089
_cell_length_b   9.56920078
_cell_length_c   3.08738200
_cell_angle_alpha   90.00000000
_cell_angle_beta   90.00000000
_cell_angle_gamma   90.61908428
_symmetry_Int_Tables_number   1
_chemical_formula_structural   HoTaNbB2Ru5
_chemical_formula_sum   'Ho2 Ta2 Nb2 B4 Ru10'
_cell_volume   282.69384616
_cell_formula_units_Z   2
loop_
 _symmetry_equiv_pos_site_id
 _symmetry_equiv_pos_as_xyz
  1  'x, y, z'
loop_
 _atom_site_type_symbol
 _atom_site_label
 _atom_site_symmetry_multiplicity
 _atom_site_fract_x
 _atom_site_fract_y
 _atom_site_fract_z
 _atom_site_occupancy
  Ho  Ho0  1  0.823764  0.676236  0.000000  1
  Ho  Ho1  1  0.176236  0.323764  0.000000  1
  Ta  Ta2  1  0.500000  0.500000  0.000000  1
  Ta  Ta3  1  0.000000  0.000000  0.000000  1
  Nb  Nb4  1  0.324504  0.824504  0.000000  1
  Nb  Nb5  1  0.675496  0.175496  0.000000  1
  B  B6  1  0.620645  0.879355  0.000000  1
  B  B7  1  0.379355  0.120645  0.000000  1
  B  B8  1  0.120965  0.620965  0.000000  1
  B  B9  1  0.879035  0.379035  0.000000  1
  Ru  Ru10  1  0.559917  0.722512  0.500000  1
  Ru  Ru11  1  0.440083  0.277488  0.500000  1
  Ru  Ru12  1  0.080781  0.785261  0.500000  1
  Ru  Ru13  1  0.919219  0.214739  0.500000  1
  Ru  Ru14  1  0.285261  0.580781  0.500000  1
  Ru  Ru15  1  0.714739  0.419219  0.500000  1
  Ru  Ru16  1  0.222512  0.059917  0.500000  1
  Ru  Ru17  1  0.777488  0.940083  0.500000  1
  Ru  Ru18  1  0.500000  0.000000  0.500000  1
  Ru  Ru19  1  0.000000  0.500000  0.500000  1
