# generated using pymatgen
data_Na6Li4TiSnP6
_symmetry_space_group_name_H-M   'P 1'
_cell_length_a   9.40774656
_cell_length_b   9.40774689
_cell_length_c   13.65998000
_cell_angle_alpha   90.00000000
_cell_angle_beta   90.00000000
_cell_angle_gamma   143.07356652
_symmetry_Int_Tables_number   1
_chemical_formula_structural   Na6Li4TiSnP6
_chemical_formula_sum   'Na12 Li8 Ti2 Sn2 P12'
_cell_volume   726.34564919
_cell_formula_units_Z   2
loop_
 _symmetry_equiv_pos_site_id
 _symmetry_equiv_pos_as_xyz
  1  'x, y, z'
loop_
 _atom_site_type_symbol
 _atom_site_label
 _atom_site_symmetry_multiplicity
 _atom_site_fract_x
 _atom_site_fract_y
 _atom_site_fract_z
 _atom_site_occupancy
  Na  Na0  1  0.096122  0.437545  0.680923  1
  Na  Na1  1  0.731629  0.731525  0.681364  1
  Na  Na2  1  0.231525  0.231629  0.818636  1
  Na  Na3  1  0.768371  0.768475  0.181364  1
  Na  Na4  1  0.937545  0.596122  0.819077  1
  Na  Na5  1  0.562455  0.903878  0.319077  1
  Na  Na6  1  0.403878  0.062455  0.180923  1
  Na  Na7  1  0.056898  0.397846  0.176163  1
  Na  Na8  1  0.897846  0.556898  0.323837  1
  Na  Na9  1  0.443102  0.102154  0.676163  1
  Na  Na10  1  0.602154  0.943103  0.823837  1
  Na  Na11  1  0.268475  0.268371  0.318636  1
  Li  Li12  1  0.916620  0.083380  0.000000  1
  Li  Li13  1  0.583380  0.416620  0.500000  1
  Li  Li14  1  0.083273  0.916727  0.000000  1
  Li  Li15  1  0.416727  0.583273  0.500000  1
  Li  Li16  1  0.756062  0.243938  0.000000  1
  Li  Li17  1  0.743938  0.256062  0.500000  1
  Li  Li18  1  0.245855  0.754145  0.000000  1
  Li  Li19  1  0.254145  0.745855  0.500000  1
  Ti  Ti20  1  0.086032  0.913968  0.500000  1
  Ti  Ti21  1  0.413968  0.586032  0.000000  1
  Sn  Sn22  1  0.911240  0.088760  0.500000  1
  Sn  Sn23  1  0.588760  0.411240  0.000000  1
  P  P24  1  0.910217  0.580419  0.111497  1
  P  P25  1  0.419581  0.089783  0.888503  1
  P  P26  1  0.589783  0.919581  0.611497  1
  P  P27  1  0.935352  0.612968  0.602815  1
  P  P28  1  0.112968  0.435352  0.897185  1
  P  P29  1  0.564648  0.887032  0.102815  1
  P  P30  1  0.387032  0.064648  0.397185  1
  P  P31  1  0.239386  0.228975  0.602384  1
  P  P32  1  0.728975  0.739386  0.897616  1
  P  P33  1  0.260614  0.271025  0.102384  1
  P  P34  1  0.080419  0.410217  0.388503  1
  P  P35  1  0.771025  0.760614  0.397616  1
