# generated using pymatgen
data_Ho5Fe18P12Pt
_symmetry_space_group_name_H-M   'P 1'
_cell_length_a   11.94738200
_cell_length_b   11.94738259
_cell_length_c   3.69406800
_cell_angle_alpha   90.00000000
_cell_angle_beta   90.00000000
_cell_angle_gamma   119.99999837
_symmetry_Int_Tables_number   1
_chemical_formula_structural   Ho5Fe18P12Pt
_chemical_formula_sum   'Ho5 Fe18 P12 Pt1'
_cell_volume   456.64745915
_cell_formula_units_Z   1
loop_
 _symmetry_equiv_pos_site_id
 _symmetry_equiv_pos_as_xyz
  1  'x, y, z'
loop_
 _atom_site_type_symbol
 _atom_site_label
 _atom_site_symmetry_multiplicity
 _atom_site_fract_x
 _atom_site_fract_y
 _atom_site_fract_z
 _atom_site_occupancy
  Ho  Ho0  1  0.666667  0.333333  0.000000  1
  Ho  Ho1  1  0.333333  0.666667  0.000000  1
  Ho  Ho2  1  0.192555  0.192555  0.500000  1
  Ho  Ho3  1  0.807445  0.000000  0.500000  1
  Ho  Ho4  1  0.000000  0.807445  0.500000  1
  Fe  Fe5  1  0.816420  0.198104  0.000000  1
  Fe  Fe6  1  0.801896  0.618316  0.000000  1
  Fe  Fe7  1  0.381684  0.183580  0.000000  1
  Fe  Fe8  1  0.198104  0.816420  0.000000  1
  Fe  Fe9  1  0.618316  0.801896  0.000000  1
  Fe  Fe10  1  0.183580  0.381684  0.000000  1
  Fe  Fe11  1  0.557492  0.557492  0.000000  1
  Fe  Fe12  1  0.442508  0.000000  0.000000  1
  Fe  Fe13  1  0.000000  0.442508  0.000000  1
  Fe  Fe14  1  0.637656  0.121682  0.500000  1
  Fe  Fe15  1  0.878318  0.515975  0.500000  1
  Fe  Fe16  1  0.484025  0.362344  0.500000  1
  Fe  Fe17  1  0.121682  0.637656  0.500000  1
  Fe  Fe18  1  0.515975  0.878318  0.500000  1
  Fe  Fe19  1  0.362344  0.484025  0.500000  1
  Fe  Fe20  1  0.712135  0.712135  0.500000  1
  Fe  Fe21  1  0.287865  0.000000  0.500000  1
  Fe  Fe22  1  0.000000  0.287865  0.500000  1
  P  P23  1  0.372532  0.372532  0.000000  1
  P  P24  1  0.627468  0.000000  0.000000  1
  P  P25  1  0.000000  0.627468  0.000000  1
  P  P26  1  0.831505  0.311190  0.500000  1
  P  P27  1  0.688810  0.520315  0.500000  1
  P  P28  1  0.479685  0.168495  0.500000  1
  P  P29  1  0.311190  0.831505  0.500000  1
  P  P30  1  0.520315  0.688810  0.500000  1
  P  P31  1  0.168495  0.479685  0.500000  1
  P  P32  1  0.804381  0.804381  0.000000  1
  P  P33  1  0.195619  0.000000  0.000000  1
  P  P34  1  0.000000  0.195619  0.000000  1
  Pt  Pt35  1  0.000000  0.000000  0.000000  1
