# generated using pymatgen
data_Ba8NaAu6
_symmetry_space_group_name_H-M   'P 1'
_cell_length_a   8.77274383
_cell_length_b   8.77274429
_cell_length_c   8.77274358
_cell_angle_alpha   71.16222605
_cell_angle_beta   71.16222302
_cell_angle_gamma   71.16222135
_symmetry_Int_Tables_number   1
_chemical_formula_structural   Ba8NaAu6
_chemical_formula_sum   'Ba8 Na1 Au6'
_cell_volume   586.47777237
_cell_formula_units_Z   1
loop_
 _symmetry_equiv_pos_site_id
 _symmetry_equiv_pos_as_xyz
  1  'x, y, z'
loop_
 _atom_site_type_symbol
 _atom_site_label
 _atom_site_symmetry_multiplicity
 _atom_site_fract_x
 _atom_site_fract_y
 _atom_site_fract_z
 _atom_site_occupancy
  Ba  Ba0  1  0.807765  0.807765  0.807765  1
  Ba  Ba1  1  0.192235  0.192235  0.192235  1
  Ba  Ba2  1  0.319522  0.618618  0.848325  1
  Ba  Ba3  1  0.848325  0.319522  0.618618  1
  Ba  Ba4  1  0.618618  0.848325  0.319522  1
  Ba  Ba5  1  0.680478  0.381382  0.151675  1
  Ba  Ba6  1  0.151675  0.680478  0.381382  1
  Ba  Ba7  1  0.381382  0.151675  0.680478  1
  Na  Na8  1  0.000000  0.000000  0.000000  1
  Au  Au9  1  0.157319  0.958740  0.585086  1
  Au  Au10  1  0.585086  0.157319  0.958740  1
  Au  Au11  1  0.958740  0.585086  0.157319  1
  Au  Au12  1  0.842681  0.041260  0.414914  1
  Au  Au13  1  0.414914  0.842681  0.041260  1
  Au  Au14  1  0.041260  0.414914  0.842681  1
