# generated using pymatgen
data_Dy7Ho3Cd4(InNi)4
_symmetry_space_group_name_H-M   'P 1'
_cell_length_a   7.94304000
_cell_length_b   18.11483100
_cell_length_c   3.55810900
_cell_angle_alpha   90.00000000
_cell_angle_beta   90.00000000
_cell_angle_gamma   90.00146373
_symmetry_Int_Tables_number   1
_chemical_formula_structural   Dy7Ho3Cd4(InNi)4
_chemical_formula_sum   'Dy7 Ho3 Cd4 In4 Ni4'
_cell_volume   511.96501485
_cell_formula_units_Z   1
loop_
 _symmetry_equiv_pos_site_id
 _symmetry_equiv_pos_as_xyz
  1  'x, y, z'
loop_
 _atom_site_type_symbol
 _atom_site_label
 _atom_site_symmetry_multiplicity
 _atom_site_fract_x
 _atom_site_fract_y
 _atom_site_fract_z
 _atom_site_occupancy
  Dy  Dy0  1  0.500006  0.500005  0.000000  1
  Dy  Dy1  1  0.000036  0.999989  0.000000  1
  Dy  Dy2  1  0.758800  0.279312  0.000000  1
  Dy  Dy3  1  0.241420  0.720748  0.000000  1
  Dy  Dy4  1  0.741451  0.779209  0.000000  1
  Dy  Dy5  1  0.258367  0.220821  0.000000  1
  Dy  Dy6  1  0.617541  0.088844  0.000000  1
  Ho  Ho7  1  0.382732  0.910892  0.000000  1
  Ho  Ho8  1  0.882764  0.589040  0.000000  1
  Ho  Ho9  1  0.117288  0.410989  0.000000  1
  Cd  Cd10  1  0.704906  0.930689  0.500000  1
  Cd  Cd11  1  0.294607  0.069168  0.500000  1
  Cd  Cd12  1  0.795202  0.430828  0.500000  1
  Cd  Cd13  1  0.204842  0.569154  0.500000  1
  In  In14  1  0.562325  0.650328  0.500000  1
  In  In15  1  0.437612  0.349736  0.500000  1
  In  In16  1  0.938148  0.150387  0.500000  1
  In  In17  1  0.062277  0.849655  0.500000  1
  Ni  Ni18  1  0.535813  0.197571  0.500000  1
  Ni  Ni19  1  0.463862  0.802629  0.500000  1
  Ni  Ni20  1  0.963909  0.697379  0.500000  1
  Ni  Ni21  1  0.036092  0.302627  0.500000  1
