# generated using pymatgen
data_YbHoAlIr2
_symmetry_space_group_name_H-M   'P 1'
_cell_length_a   5.57753182
_cell_length_b   5.57753087
_cell_length_c   5.57753180
_cell_angle_alpha   137.84735502
_cell_angle_beta   117.21096920
_cell_angle_gamma   78.54329032
_symmetry_Int_Tables_number   1
_chemical_formula_structural   YbHoAlIr2
_chemical_formula_sum   'Yb1 Ho1 Al1 Ir2'
_cell_volume   100.65239010
_cell_formula_units_Z   1
loop_
 _symmetry_equiv_pos_site_id
 _symmetry_equiv_pos_as_xyz
  1  'x, y, z'
loop_
 _atom_site_type_symbol
 _atom_site_label
 _atom_site_symmetry_multiplicity
 _atom_site_fract_x
 _atom_site_fract_y
 _atom_site_fract_z
 _atom_site_occupancy
  Yb  Yb0  1  0.296887  0.796888  0.500001  1
  Ho  Ho1  1  0.701168  0.201169  0.499999  1
  Al  Al2  1  0.999748  0.999748  0.000000  1
  Ir  Ir3  1  0.735168  0.501098  0.234070  1
  Ir  Ir4  1  0.267027  0.501099  0.765930  1
