# generated using pymatgen
data_Li4Ca2Tm2Si7Ge
_symmetry_space_group_name_H-M   'P 1'
_cell_length_a   3.78413100
_cell_length_b   7.79227561
_cell_length_c   10.40042228
_cell_angle_alpha   89.30729631
_cell_angle_beta   90.00000000
_cell_angle_gamma   90.00000000
_symmetry_Int_Tables_number   1
_chemical_formula_structural   Li4Ca2Tm2Si7Ge
_chemical_formula_sum   'Li4 Ca2 Tm2 Si7 Ge1'
_cell_volume   306.65475272
_cell_formula_units_Z   1
loop_
 _symmetry_equiv_pos_site_id
 _symmetry_equiv_pos_as_xyz
  1  'x, y, z'
loop_
 _atom_site_type_symbol
 _atom_site_label
 _atom_site_symmetry_multiplicity
 _atom_site_fract_x
 _atom_site_fract_y
 _atom_site_fract_z
 _atom_site_occupancy
  Li  Li0  1  0.250000  0.998819  0.390221  1
  Li  Li1  1  0.750000  0.000853  0.610281  1
  Li  Li2  1  0.250000  0.490689  0.109725  1
  Li  Li3  1  0.750000  0.511652  0.889938  1
  Ca  Ca4  1  0.250000  0.637157  0.634857  1
  Ca  Ca5  1  0.750000  0.362838  0.365793  1
  Tm  Tm6  1  0.250000  0.127268  0.862982  1
  Tm  Tm7  1  0.750000  0.869805  0.135314  1
  Si  Si8  1  0.250000  0.740757  0.939884  1
  Si  Si9  1  0.750000  0.773562  0.424898  1
  Si  Si10  1  0.250000  0.226388  0.575122  1
  Si  Si11  1  0.750000  0.845800  0.827750  1
  Si  Si12  1  0.250000  0.151062  0.175735  1
  Si  Si13  1  0.750000  0.331202  0.685929  1
  Si  Si14  1  0.250000  0.668418  0.314330  1
  Ge  Ge15  1  0.750000  0.263729  0.057241  1
