# generated using pymatgen
data_K5Pb4F21
_symmetry_space_group_name_H-M   'P 1'
_cell_length_a   11.44379600
_cell_length_b   8.02051906
_cell_length_c   11.74445100
_cell_angle_alpha   81.75543762
_cell_angle_beta   90.00000000
_cell_angle_gamma   90.00000000
_symmetry_Int_Tables_number   1
_chemical_formula_structural   K5Pb4F21
_chemical_formula_sum   'K10 Pb8 F42'
_cell_volume   1066.82581111
_cell_formula_units_Z   2
loop_
 _symmetry_equiv_pos_site_id
 _symmetry_equiv_pos_as_xyz
  1  'x, y, z'
loop_
 _atom_site_type_symbol
 _atom_site_label
 _atom_site_symmetry_multiplicity
 _atom_site_fract_x
 _atom_site_fract_y
 _atom_site_fract_z
 _atom_site_occupancy
  K  K0  1  0.523798  0.678070  0.104504  1
  K  K1  1  0.023798  0.321930  0.895496  1
  K  K2  1  0.483466  0.968210  0.735753  1
  K  K3  1  0.983466  0.031790  0.264247  1
  K  K4  1  0.823878  0.833124  0.901135  1
  K  K5  1  0.323878  0.166876  0.098865  1
  K  K6  1  0.644008  0.798618  0.454603  1
  K  K7  1  0.144008  0.201382  0.545397  1
  K  K8  1  0.974521  0.711211  0.607633  1
  K  K9  1  0.474521  0.288789  0.392367  1
  Pb  Pb10  1  0.835529  0.533434  0.274426  1
  Pb  Pb11  1  0.335529  0.466566  0.725574  1
  Pb  Pb12  1  0.693869  0.159879  0.096772  1
  Pb  Pb13  1  0.193869  0.840121  0.903228  1
  Pb  Pb14  1  0.662057  0.502484  0.769222  1
  Pb  Pb15  1  0.162057  0.497516  0.230778  1
  Pb  Pb16  1  0.803387  0.204831  0.591469  1
  Pb  Pb17  1  0.303387  0.795169  0.408531  1
  F  F18  1  0.901764  0.046895  0.718176  1
  F  F19  1  0.401764  0.953105  0.281824  1
  F  F20  1  0.941468  0.372850  0.595345  1
  F  F21  1  0.441468  0.627150  0.404655  1
  F  F22  1  0.888485  0.038014  0.492162  1
  F  F23  1  0.388485  0.961986  0.507838  1
  F  F24  1  0.841115  0.522508  0.811678  1
  F  F25  1  0.341115  0.477492  0.188322  1
  F  F26  1  0.641510  0.096282  0.561251  1
  F  F27  1  0.141510  0.903718  0.438749  1
  F  F28  1  0.655244  0.579610  0.295681  1
  F  F29  1  0.155244  0.420390  0.704319  1
  F  F30  1  0.693613  0.453933  0.591783  1
  F  F31  1  0.193613  0.546067  0.408217  1
  F  F32  1  0.792304  0.673756  0.115373  1
  F  F33  1  0.599336  0.665129  0.882813  1
  F  F34  1  0.868477  0.705604  0.389104  1
  F  F35  1  0.368477  0.294396  0.610896  1
  F  F36  1  0.990242  0.383647  0.328641  1
  F  F37  1  0.490242  0.616353  0.671359  1
  F  F38  1  0.104735  0.010810  0.990122  1
  F  F39  1  0.604735  0.989190  0.009878  1
  F  F40  1  0.216460  0.006402  0.751606  1
  F  F41  1  0.716460  0.993598  0.248394  1
  F  F42  1  0.007481  0.658088  0.197458  1
  F  F43  1  0.507481  0.341912  0.802542  1
  F  F44  1  0.353422  0.913901  0.967999  1
  F  F45  1  0.853422  0.086099  0.032001  1
  F  F46  1  0.222473  0.767634  0.237062  1
  F  F47  1  0.722473  0.232366  0.762938  1
  F  F48  1  0.047510  0.733802  0.834972  1
  F  F49  1  0.547510  0.266198  0.165028  1
  F  F50  1  0.318212  0.679190  0.822891  1
  F  F51  1  0.818212  0.320810  0.177109  1
  F  F52  1  0.273078  0.668601  0.589017  1
  F  F53  1  0.773078  0.331399  0.410983  1
  F  F54  1  0.209484  0.252131  0.319739  1
  F  F55  1  0.709484  0.747869  0.680261  1
  F  F56  1  0.182066  0.632590  0.034435  1
  F  F57  1  0.682066  0.367410  0.965565  1
  F  F58  1  0.292304  0.326244  0.884627  1
  F  F59  1  0.099336  0.334871  0.117187  1
