# generated using pymatgen
data_Tb2TcC2
_symmetry_space_group_name_H-M   'P 1'
_cell_length_a   5.13282500
_cell_length_b   6.59689900
_cell_length_c   9.95168800
_cell_angle_alpha   90.00000000
_cell_angle_beta   90.00000000
_cell_angle_gamma   90.00000000
_symmetry_Int_Tables_number   1
_chemical_formula_structural   Tb2TcC2
_chemical_formula_sum   'Tb8 Tc4 C8'
_cell_volume   336.97140160
_cell_formula_units_Z   4
loop_
 _symmetry_equiv_pos_site_id
 _symmetry_equiv_pos_as_xyz
  1  'x, y, z'
loop_
 _atom_site_type_symbol
 _atom_site_label
 _atom_site_symmetry_multiplicity
 _atom_site_fract_x
 _atom_site_fract_y
 _atom_site_fract_z
 _atom_site_occupancy
  Tb  Tb0  1  0.750000  0.820817  0.057003  1
  Tb  Tb1  1  0.250000  0.679183  0.557003  1
  Tb  Tb2  1  0.750000  0.320817  0.442997  1
  Tb  Tb3  1  0.250000  0.179183  0.942997  1
  Tb  Tb4  1  0.750000  0.468867  0.784430  1
  Tb  Tb5  1  0.250000  0.031133  0.284430  1
  Tb  Tb6  1  0.750000  0.968867  0.715570  1
  Tb  Tb7  1  0.250000  0.531133  0.215570  1
  Tc  Tc8  1  0.750000  0.278970  0.135615  1
  Tc  Tc9  1  0.250000  0.221030  0.635615  1
  Tc  Tc10  1  0.750000  0.778970  0.364385  1
  Tc  Tc11  1  0.250000  0.721030  0.864385  1
  C  C12  1  0.750000  0.180436  0.953837  1
  C  C13  1  0.250000  0.819564  0.046163  1
  C  C14  1  0.750000  0.680436  0.546163  1
  C  C15  1  0.250000  0.319564  0.453837  1
  C  C16  1  0.750000  0.045349  0.258268  1
  C  C17  1  0.250000  0.454651  0.758268  1
  C  C18  1  0.750000  0.545349  0.241732  1
  C  C19  1  0.250000  0.954651  0.741732  1
