# generated using pymatgen
data_Tb5Ho3MgCo2Hg
_symmetry_space_group_name_H-M   'P 1'
_cell_length_a   9.53836944
_cell_length_b   9.53836980
_cell_length_c   9.52717700
_cell_angle_alpha   60.03881328
_cell_angle_beta   60.03881204
_cell_angle_gamma   60.44274172
_symmetry_Int_Tables_number   1
_chemical_formula_structural   Tb5Ho3MgCo2Hg
_chemical_formula_sum   'Tb10 Ho6 Mg2 Co4 Hg2'
_cell_volume   615.29855648
_cell_formula_units_Z   2
loop_
 _symmetry_equiv_pos_site_id
 _symmetry_equiv_pos_as_xyz
  1  'x, y, z'
loop_
 _atom_site_type_symbol
 _atom_site_label
 _atom_site_symmetry_multiplicity
 _atom_site_fract_x
 _atom_site_fract_y
 _atom_site_fract_z
 _atom_site_occupancy
  Tb  Tb0  1  0.937612  0.560231  0.562404  1
  Tb  Tb1  1  0.560231  0.937612  0.939754  1
  Tb  Tb2  1  0.560232  0.937612  0.562404  1
  Tb  Tb3  1  0.937612  0.560231  0.939754  1
  Tb  Tb4  1  0.561792  0.561791  0.938209  1
  Tb  Tb5  1  0.938981  0.938981  0.561019  1
  Tb  Tb6  1  0.345570  0.345570  0.342785  1
  Tb  Tb7  1  0.345570  0.345570  0.966073  1
  Tb  Tb8  1  0.348930  0.959593  0.345738  1
  Tb  Tb9  1  0.959593  0.348930  0.345738  1
  Ho  Ho10  1  0.812450  0.184070  0.188135  1
  Ho  Ho11  1  0.184070  0.812450  0.815345  1
  Ho  Ho12  1  0.184070  0.812450  0.188135  1
  Ho  Ho13  1  0.812450  0.184070  0.815345  1
  Ho  Ho14  1  0.185325  0.185325  0.814675  1
  Ho  Ho15  1  0.808761  0.808761  0.191239  1
  Mg  Mg16  1  0.581120  0.274039  0.572420  1
  Mg  Mg17  1  0.274039  0.581120  0.572420  1
  Co  Co18  1  0.140409  0.140409  0.141277  1
  Co  Co19  1  0.140409  0.140409  0.577907  1
  Co  Co20  1  0.139404  0.578491  0.141053  1
  Co  Co21  1  0.578491  0.139404  0.141053  1
  Hg  Hg22  1  0.581439  0.581439  0.588105  1
  Hg  Hg23  1  0.581439  0.581439  0.249017  1
