# generated using pymatgen
data_UCr2SnSe8
_symmetry_space_group_name_H-M   'P 1'
_cell_length_a   7.60699294
_cell_length_b   7.43390008
_cell_length_c   7.42936206
_cell_angle_alpha   60.01665276
_cell_angle_beta   60.75718723
_cell_angle_gamma   63.92156294
_symmetry_Int_Tables_number   1
_chemical_formula_structural   UCr2SnSe8
_chemical_formula_sum   'U1 Cr2 Sn1 Se8'
_cell_volume   306.72222413
_cell_formula_units_Z   1
loop_
 _symmetry_equiv_pos_site_id
 _symmetry_equiv_pos_as_xyz
  1  'x, y, z'
loop_
 _atom_site_type_symbol
 _atom_site_label
 _atom_site_symmetry_multiplicity
 _atom_site_fract_x
 _atom_site_fract_y
 _atom_site_fract_z
 _atom_site_occupancy
  U  U0  1  0.500051  0.999946  0.499803  1
  Cr  Cr1  1  0.499428  0.499788  0.500410  1
  Cr  Cr2  1  0.500333  0.500276  0.999880  1
  Sn  Sn3  1  0.999982  0.499976  0.500041  1
  Se  Se4  1  0.737257  0.752491  0.765281  1
  Se  Se5  1  0.262679  0.247680  0.755154  1
  Se  Se6  1  0.284335  0.723640  0.245876  1
  Se  Se7  1  0.730795  0.289587  0.239817  1
  Se  Se8  1  0.715609  0.276398  0.754138  1
  Se  Se9  1  0.269283  0.710333  0.760224  1
  Se  Se10  1  0.262968  0.247821  0.234460  1
  Se  Se11  1  0.737273  0.752068  0.244904  1
