# generated using pymatgen
data_LaPr4Y(CI5)2
_symmetry_space_group_name_H-M   'P 1'
_cell_length_a   7.96866130
_cell_length_b   9.76057870
_cell_length_c   9.86045238
_cell_angle_alpha   107.14207464
_cell_angle_beta   96.71787472
_cell_angle_gamma   104.56722828
_symmetry_Int_Tables_number   1
_chemical_formula_structural   LaPr4Y(CI5)2
_chemical_formula_sum   'La1 Pr4 Y1 C2 I10'
_cell_volume   693.99582978
_cell_formula_units_Z   1
loop_
 _symmetry_equiv_pos_site_id
 _symmetry_equiv_pos_as_xyz
  1  'x, y, z'
loop_
 _atom_site_type_symbol
 _atom_site_label
 _atom_site_symmetry_multiplicity
 _atom_site_fract_x
 _atom_site_fract_y
 _atom_site_fract_z
 _atom_site_occupancy
  La  La0  1  0.376951  0.136418  0.183190  1
  Pr  Pr1  1  0.028888  0.733402  0.921981  1
  Pr  Pr2  1  0.104804  0.038675  0.775062  1
  Pr  Pr3  1  0.967138  0.265520  0.075649  1
  Pr  Pr4  1  0.890287  0.958525  0.222555  1
  Y  Y5  1  0.633983  0.868671  0.823636  1
  C  C6  1  0.085579  0.029488  0.040594  1
  C  C7  1  0.910608  0.969613  0.958696  1
  I  I8  1  0.205476  0.736910  0.649929  1
  I  I9  1  0.910720  0.629210  0.179427  1
  I  I10  1  0.087363  0.369525  0.818759  1
  I  I11  1  0.736394  0.911636  0.544917  1
  I  I12  1  0.250582  0.083478  0.464074  1
  I  I13  1  0.647908  0.550825  0.726149  1
  I  I14  1  0.459644  0.806461  0.082225  1
  I  I15  1  0.814151  0.268526  0.358961  1
  I  I16  1  0.344142  0.461924  0.273232  1
  I  I17  1  0.545383  0.181193  0.900968  1
