# generated using pymatgen
data_DyEr2Al12CuRu3
_symmetry_space_group_name_H-M   'P 1'
_cell_length_a   8.80886591
_cell_length_b   8.80886627
_cell_length_c   9.45434800
_cell_angle_alpha   90.00000000
_cell_angle_beta   90.00000000
_cell_angle_gamma   119.53474957
_symmetry_Int_Tables_number   1
_chemical_formula_structural   DyEr2Al12CuRu3
_chemical_formula_sum   'Dy2 Er4 Al24 Cu2 Ru6'
_cell_volume   638.29177450
_cell_formula_units_Z   2
loop_
 _symmetry_equiv_pos_site_id
 _symmetry_equiv_pos_as_xyz
  1  'x, y, z'
loop_
 _atom_site_type_symbol
 _atom_site_label
 _atom_site_symmetry_multiplicity
 _atom_site_fract_x
 _atom_site_fract_y
 _atom_site_fract_z
 _atom_site_occupancy
  Dy  Dy0  1  0.811874  0.616577  0.750000  1
  Dy  Dy1  1  0.383423  0.188126  0.750000  1
  Er  Er2  1  0.194595  0.805405  0.250000  1
  Er  Er3  1  0.188982  0.385159  0.250000  1
  Er  Er4  1  0.614841  0.811018  0.250000  1
  Er  Er5  1  0.806032  0.193968  0.750000  1
  Al  Al6  1  0.560077  0.439923  0.250000  1
  Al  Al7  1  0.559545  0.121035  0.250000  1
  Al  Al8  1  0.878965  0.440455  0.250000  1
  Al  Al9  1  0.439198  0.560802  0.750000  1
  Al  Al10  1  0.440271  0.878164  0.750000  1
  Al  Al11  1  0.121836  0.559729  0.750000  1
  Al  Al12  1  0.323886  0.157377  0.421475  1
  Al  Al13  1  0.836416  0.163584  0.423036  1
  Al  Al14  1  0.842623  0.676114  0.421475  1
  Al  Al15  1  0.675883  0.842885  0.577928  1
  Al  Al16  1  0.163806  0.836194  0.577035  1
  Al  Al17  1  0.157115  0.324117  0.577928  1
  Al  Al18  1  0.675883  0.842885  0.922072  1
  Al  Al19  1  0.163806  0.836194  0.922965  1
  Al  Al20  1  0.157115  0.324117  0.922072  1
  Al  Al21  1  0.323886  0.157377  0.078525  1
  Al  Al22  1  0.836416  0.163584  0.076964  1
  Al  Al23  1  0.842623  0.676114  0.078525  1
  Al  Al24  1  0.668129  0.331871  0.520407  1
  Al  Al25  1  0.332245  0.667755  0.478631  1
  Al  Al26  1  0.332245  0.667755  0.021369  1
  Al  Al27  1  0.668129  0.331871  0.979593  1
  Al  Al28  1  0.997965  0.002035  0.250000  1
  Al  Al29  1  0.001788  0.998212  0.750000  1
  Cu  Cu30  1  0.499999  0.500001  0.500092  1
  Cu  Cu31  1  0.499999  0.500001  0.999908  1
  Ru  Ru32  1  0.000025  0.999975  0.499807  1
  Ru  Ru33  1  0.000025  0.999975  0.000193  1
  Ru  Ru34  1  0.499990  0.999814  0.499655  1
  Ru  Ru35  1  0.000186  0.500010  0.499655  1
  Ru  Ru36  1  0.499990  0.999814  0.000345  1
  Ru  Ru37  1  0.000186  0.500010  0.000345  1
