# generated using pymatgen
data_SrEuTm2F10
_symmetry_space_group_name_H-M   'P 1'
_cell_length_a   8.14468872
_cell_length_b   8.14468827
_cell_length_c   5.72454791
_cell_angle_alpha   89.08570914
_cell_angle_beta   89.08569473
_cell_angle_gamma   149.38711618
_symmetry_Int_Tables_number   1
_chemical_formula_structural   SrEuTm2F10
_chemical_formula_sum   'Sr1 Eu1 Tm2 F10'
_cell_volume   193.02496793
_cell_formula_units_Z   1
loop_
 _symmetry_equiv_pos_site_id
 _symmetry_equiv_pos_as_xyz
  1  'x, y, z'
loop_
 _atom_site_type_symbol
 _atom_site_label
 _atom_site_symmetry_multiplicity
 _atom_site_fract_x
 _atom_site_fract_y
 _atom_site_fract_z
 _atom_site_occupancy
  Sr  Sr0  1  0.675536  0.324464  0.250000  1
  Eu  Eu1  1  0.324706  0.675294  0.750000  1
  Tm  Tm2  1  0.074769  0.925231  0.750000  1
  Tm  Tm3  1  0.925121  0.074879  0.250000  1
  F  F4  1  0.732236  0.806890  0.599789  1
  F  F5  1  0.807092  0.732064  0.099744  1
  F  F6  1  0.802942  0.178253  0.005833  1
  F  F7  1  0.620253  0.379747  0.750000  1
  F  F8  1  0.821747  0.197058  0.494167  1
  F  F9  1  0.178035  0.803138  0.505055  1
  F  F10  1  0.379652  0.620348  0.250000  1
  F  F11  1  0.196862  0.821965  0.994945  1
  F  F12  1  0.193110  0.267764  0.900211  1
  F  F13  1  0.267936  0.192908  0.400256  1
