# generated using pymatgen
data_SmUCo12SiP6
_symmetry_space_group_name_H-M   'P 1'
_cell_length_a   9.04429300
_cell_length_b   9.04429282
_cell_length_c   3.60721200
_cell_angle_alpha   90.00000000
_cell_angle_beta   90.00000000
_cell_angle_gamma   120.00000432
_symmetry_Int_Tables_number   1
_chemical_formula_structural   SmUCo12SiP6
_chemical_formula_sum   'Sm1 U1 Co12 Si1 P6'
_cell_volume   255.53566200
_cell_formula_units_Z   1
loop_
 _symmetry_equiv_pos_site_id
 _symmetry_equiv_pos_as_xyz
  1  'x, y, z'
loop_
 _atom_site_type_symbol
 _atom_site_label
 _atom_site_symmetry_multiplicity
 _atom_site_fract_x
 _atom_site_fract_y
 _atom_site_fract_z
 _atom_site_occupancy
  Sm  Sm0  1  0.000000  0.000000  0.000000  1
  U  U1  1  0.333333  0.666667  0.500000  1
  Co  Co2  1  0.106628  0.401255  0.000000  1
  Co  Co3  1  0.598745  0.705373  0.000000  1
  Co  Co4  1  0.294627  0.893372  0.000000  1
  Co  Co5  1  0.052617  0.766418  0.500000  1
  Co  Co6  1  0.233582  0.286200  0.500000  1
  Co  Co7  1  0.713800  0.947383  0.500000  1
  Co  Co8  1  0.822397  0.614933  0.000000  1
  Co  Co9  1  0.385067  0.207464  0.000000  1
  Co  Co10  1  0.792536  0.177603  0.000000  1
  Co  Co11  1  0.897390  0.434807  0.500000  1
  Co  Co12  1  0.565193  0.462583  0.500000  1
  Co  Co13  1  0.537417  0.102610  0.500000  1
  Si  Si14  1  0.666667  0.333333  0.000000  1
  P  P15  1  0.775052  0.733013  0.500000  1
  P  P16  1  0.266987  0.042038  0.500000  1
  P  P17  1  0.957962  0.224948  0.500000  1
  P  P18  1  0.067304  0.625445  0.000000  1
  P  P19  1  0.374555  0.441857  0.000000  1
  P  P20  1  0.558143  0.932696  0.000000  1
