# generated using pymatgen
data_Sr3Al4O9
_symmetry_space_group_name_H-M   'P 1'
_cell_length_a   6.70331874
_cell_length_b   7.98294345
_cell_length_c   9.63766026
_cell_angle_alpha   84.76493396
_cell_angle_beta   72.76270731
_cell_angle_gamma   74.18470661
_symmetry_Int_Tables_number   1
_chemical_formula_structural   Sr3Al4O9
_chemical_formula_sum   'Sr6 Al8 O18'
_cell_volume   473.89189074
_cell_formula_units_Z   2
loop_
 _symmetry_equiv_pos_site_id
 _symmetry_equiv_pos_as_xyz
  1  'x, y, z'
loop_
 _atom_site_type_symbol
 _atom_site_label
 _atom_site_symmetry_multiplicity
 _atom_site_fract_x
 _atom_site_fract_y
 _atom_site_fract_z
 _atom_site_occupancy
  Sr  Sr0  1  0.052526  0.055485  0.692130  1
  Sr  Sr1  1  0.180667  0.567902  0.670962  1
  Sr  Sr2  1  0.309182  0.211451  0.956484  1
  Sr  Sr3  1  0.690818  0.788549  0.043516  1
  Sr  Sr4  1  0.819333  0.432098  0.329038  1
  Sr  Sr5  1  0.947474  0.944515  0.307870  1
  Al  Al6  1  0.398861  0.174998  0.301135  1
  Al  Al7  1  0.331839  0.553297  0.237168  1
  Al  Al8  1  0.742916  0.262815  0.059054  1
  Al  Al9  1  0.565530  0.188569  0.581230  1
  Al  Al10  1  0.434470  0.811431  0.418770  1
  Al  Al11  1  0.257084  0.737185  0.940946  1
  Al  Al12  1  0.668161  0.446703  0.762832  1
  Al  Al13  1  0.601139  0.825002  0.698865  1
  O  O14  1  0.259382  0.016984  0.386896  1
  O  O15  1  0.213469  0.375796  0.281155  1
  O  O16  1  0.208587  0.719791  0.131747  1
  O  O17  1  0.563431  0.119212  0.117615  1
  O  O18  1  0.027716  0.808928  0.877716  1
  O  O19  1  0.301271  0.238572  0.697054  1
  O  O20  1  0.299703  0.652681  0.403073  1
  O  O21  1  0.585516  0.194093  0.393522  1
  O  O22  1  0.610438  0.476230  0.137924  1
  O  O23  1  0.389562  0.523770  0.862076  1
  O  O24  1  0.414484  0.805907  0.606478  1
  O  O25  1  0.700297  0.347319  0.596927  1
  O  O26  1  0.698729  0.761428  0.302946  1
  O  O27  1  0.972284  0.191072  0.122284  1
  O  O28  1  0.436569  0.880788  0.882385  1
  O  O29  1  0.791413  0.280209  0.868253  1
  O  O30  1  0.786531  0.624204  0.718845  1
  O  O31  1  0.740618  0.983016  0.613104  1
