# generated using pymatgen
data_NaMnFe2Sb12Pt
_symmetry_space_group_name_H-M   'P 1'
_cell_length_a   8.08887273
_cell_length_b   8.02180607
_cell_length_c   8.04995012
_cell_angle_alpha   109.43763206
_cell_angle_beta   109.52176085
_cell_angle_gamma   109.31085311
_symmetry_Int_Tables_number   1
_chemical_formula_structural   NaMnFe2Sb12Pt
_chemical_formula_sum   'Na1 Mn1 Fe2 Sb12 Pt1'
_cell_volume   402.80666078
_cell_formula_units_Z   1
loop_
 _symmetry_equiv_pos_site_id
 _symmetry_equiv_pos_as_xyz
  1  'x, y, z'
loop_
 _atom_site_type_symbol
 _atom_site_label
 _atom_site_symmetry_multiplicity
 _atom_site_fract_x
 _atom_site_fract_y
 _atom_site_fract_z
 _atom_site_occupancy
  Na  Na0  1  0.000000  0.000000  0.000000  1
  Mn  Mn1  1  0.000000  0.500000  0.000000  1
  Fe  Fe2  1  0.500000  0.500000  0.500000  1
  Fe  Fe3  1  0.500000  0.000000  0.000000  1
  Sb  Sb4  1  0.650111  0.816468  0.146780  1
  Sb  Sb5  1  0.833662  0.328537  0.175146  1
  Sb  Sb6  1  0.508050  0.838167  0.670781  1
  Sb  Sb7  1  0.833134  0.650021  0.505055  1
  Sb  Sb8  1  0.491950  0.161833  0.329219  1
  Sb  Sb9  1  0.166338  0.671463  0.824854  1
  Sb  Sb10  1  0.808389  0.158145  0.660191  1
  Sb  Sb11  1  0.191611  0.841855  0.339809  1
  Sb  Sb12  1  0.166866  0.349979  0.494945  1
  Sb  Sb13  1  0.657892  0.504332  0.834062  1
  Sb  Sb14  1  0.342108  0.495668  0.165938  1
  Sb  Sb15  1  0.349889  0.183532  0.853220  1
  Pt  Pt16  1  0.000000  0.000000  0.500000  1
