# generated using pymatgen
data_Nd5Cu5Ni14
_symmetry_space_group_name_H-M   'P 1'
_cell_length_a   5.07359364
_cell_length_b   5.07359317
_cell_length_c   16.68503216
_cell_angle_alpha   81.25481510
_cell_angle_beta   81.25481750
_cell_angle_gamma   60.00000818
_symmetry_Int_Tables_number   1
_chemical_formula_structural   Nd5Cu5Ni14
_chemical_formula_sum   'Nd5 Cu5 Ni14'
_cell_volume   366.17684854
_cell_formula_units_Z   1
loop_
 _symmetry_equiv_pos_site_id
 _symmetry_equiv_pos_as_xyz
  1  'x, y, z'
loop_
 _atom_site_type_symbol
 _atom_site_label
 _atom_site_symmetry_multiplicity
 _atom_site_fract_x
 _atom_site_fract_y
 _atom_site_fract_z
 _atom_site_occupancy
  Nd  Nd0  1  0.999463  0.999463  0.001612  1
  Nd  Nd1  1  0.077672  0.077672  0.766984  1
  Nd  Nd2  1  0.921554  0.921554  0.235338  1
  Nd  Nd3  1  0.151729  0.151729  0.544811  1
  Nd  Nd4  1  0.848308  0.848308  0.455076  1
  Cu  Cu5  1  0.250936  0.250936  0.247192  1
  Cu  Cu6  1  0.749211  0.749211  0.752369  1
  Cu  Cu7  1  0.333348  0.333348  0.999955  1
  Cu  Cu8  1  0.666820  0.666820  0.999541  1
  Cu  Cu9  1  0.415709  0.415709  0.752872  1
  Ni  Ni10  1  0.500011  0.500011  0.499967  1
  Ni  Ni11  1  0.584469  0.584469  0.246593  1
  Ni  Ni12  1  0.124715  0.622981  0.629323  1
  Ni  Ni13  1  0.622981  0.622981  0.629323  1
  Ni  Ni14  1  0.622981  0.124715  0.629323  1
  Ni  Ni15  1  0.873828  0.378187  0.369798  1
  Ni  Ni16  1  0.378187  0.378187  0.369798  1
  Ni  Ni17  1  0.378187  0.873828  0.369798  1
  Ni  Ni18  1  0.041310  0.540943  0.876803  1
  Ni  Ni19  1  0.540943  0.540943  0.876803  1
  Ni  Ni20  1  0.540943  0.041310  0.876803  1
  Ni  Ni21  1  0.957113  0.459791  0.123306  1
  Ni  Ni22  1  0.459791  0.459791  0.123306  1
  Ni  Ni23  1  0.459791  0.957113  0.123306  1
