# generated using pymatgen
data_Tm3MnSi3Ru
_symmetry_space_group_name_H-M   'P 1'
_cell_length_a   5.69792820
_cell_length_b   5.69792940
_cell_length_c   13.56895326
_cell_angle_alpha   89.99096187
_cell_angle_beta   90.00903742
_cell_angle_gamma   137.68712839
_symmetry_Int_Tables_number   1
_chemical_formula_structural   Tm3MnSi3Ru
_chemical_formula_sum   'Tm6 Mn2 Si6 Ru2'
_cell_volume   296.55873055
_cell_formula_units_Z   2
loop_
 _symmetry_equiv_pos_site_id
 _symmetry_equiv_pos_as_xyz
  1  'x, y, z'
loop_
 _atom_site_type_symbol
 _atom_site_label
 _atom_site_symmetry_multiplicity
 _atom_site_fract_x
 _atom_site_fract_y
 _atom_site_fract_z
 _atom_site_occupancy
  Tm  Tm0  1  0.641199  0.358801  0.249869  1
  Tm  Tm1  1  0.358801  0.641199  0.750131  1
  Tm  Tm2  1  0.923789  0.076211  0.113864  1
  Tm  Tm3  1  0.076211  0.923789  0.886136  1
  Tm  Tm4  1  0.075824  0.924176  0.615844  1
  Tm  Tm5  1  0.924176  0.075824  0.384156  1
  Mn  Mn6  1  0.218671  0.781329  0.077164  1
  Mn  Mn7  1  0.781329  0.218671  0.922836  1
  Si  Si8  1  0.331621  0.668379  0.249307  1
  Si  Si9  1  0.668379  0.331621  0.750693  1
  Si  Si10  1  0.608729  0.391271  0.039640  1
  Si  Si11  1  0.391271  0.608729  0.960360  1
  Si  Si12  1  0.384626  0.615374  0.538188  1
  Si  Si13  1  0.615374  0.384626  0.461812  1
  Ru  Ru14  1  0.787248  0.212752  0.582175  1
  Ru  Ru15  1  0.212752  0.787248  0.417825  1
