# generated using pymatgen
data_Li2DyYSi4
_symmetry_space_group_name_H-M   'P 1'
_cell_length_a   3.80065800
_cell_length_b   7.59818105
_cell_length_c   10.19353104
_cell_angle_alpha   89.98849931
_cell_angle_beta   90.00000000
_cell_angle_gamma   90.00000000
_symmetry_Int_Tables_number   1
_chemical_formula_structural   Li2DyYSi4
_chemical_formula_sum   'Li4 Dy2 Y2 Si8'
_cell_volume   294.36967625
_cell_formula_units_Z   2
loop_
 _symmetry_equiv_pos_site_id
 _symmetry_equiv_pos_as_xyz
  1  'x, y, z'
loop_
 _atom_site_type_symbol
 _atom_site_label
 _atom_site_symmetry_multiplicity
 _atom_site_fract_x
 _atom_site_fract_y
 _atom_site_fract_z
 _atom_site_occupancy
  Li  Li0  1  0.250000  0.991389  0.390961  1
  Li  Li1  1  0.750000  0.008611  0.609039  1
  Li  Li2  1  0.250000  0.489793  0.108130  1
  Li  Li3  1  0.750000  0.510207  0.891870  1
  Dy  Dy4  1  0.250000  0.138382  0.863781  1
  Dy  Dy5  1  0.750000  0.861618  0.136219  1
  Y  Y6  1  0.250000  0.639242  0.636298  1
  Y  Y7  1  0.750000  0.360758  0.363702  1
  Si  Si8  1  0.750000  0.267170  0.066734  1
  Si  Si9  1  0.250000  0.732830  0.933266  1
  Si  Si10  1  0.750000  0.769521  0.431291  1
  Si  Si11  1  0.250000  0.230479  0.568709  1
  Si  Si12  1  0.750000  0.843300  0.821398  1
  Si  Si13  1  0.250000  0.156700  0.178602  1
  Si  Si14  1  0.750000  0.341887  0.680426  1
  Si  Si15  1  0.250000  0.658113  0.319574  1
