# generated using pymatgen
data_Th(BeB14)2
_symmetry_space_group_name_H-M   'P 1'
_cell_length_a   7.22794871
_cell_length_b   7.22794898
_cell_length_c   5.76344464
_cell_angle_alpha   66.87379709
_cell_angle_beta   66.87380057
_cell_angle_gamma   92.52974569
_symmetry_Int_Tables_number   1
_chemical_formula_structural   Th(BeB14)2
_chemical_formula_sum   'Th1 Be2 B28'
_cell_volume   247.54777776
_cell_formula_units_Z   1
loop_
 _symmetry_equiv_pos_site_id
 _symmetry_equiv_pos_as_xyz
  1  'x, y, z'
loop_
 _atom_site_type_symbol
 _atom_site_label
 _atom_site_symmetry_multiplicity
 _atom_site_fract_x
 _atom_site_fract_y
 _atom_site_fract_z
 _atom_site_occupancy
  Th  Th0  1  0.883533  0.883533  0.371985  1
  Be  Be1  1  0.528082  0.528082  0.442492  1
  Be  Be2  1  0.262014  0.262014  0.288539  1
  B  B3  1  0.415381  0.730805  0.182448  1
  B  B4  1  0.577161  0.253259  0.840568  1
  B  B5  1  0.253259  0.577161  0.840568  1
  B  B6  1  0.730805  0.415381  0.182448  1
  B  B7  1  0.692352  0.860227  0.980083  1
  B  B8  1  0.303525  0.127847  0.040723  1
  B  B9  1  0.127847  0.303525  0.040723  1
  B  B10  1  0.860227  0.692352  0.980083  1
  B  B11  1  0.528425  0.866964  0.310947  1
  B  B12  1  0.468328  0.118934  0.219400  1
  B  B13  1  0.118934  0.468328  0.219400  1
  B  B14  1  0.866964  0.528425  0.310947  1
  B  B15  1  0.458309  0.117340  0.715504  1
  B  B16  1  0.526163  0.864338  0.809496  1
  B  B17  1  0.864338  0.526163  0.809496  1
  B  B18  1  0.117340  0.458309  0.715504  1
  B  B19  1  0.716695  0.098579  0.008207  1
  B  B20  1  0.278718  0.887853  0.336544  1
  B  B21  1  0.887853  0.278718  0.336544  1
  B  B22  1  0.098579  0.716695  0.008207  1
  B  B23  1  0.277224  0.888981  0.014010  1
  B  B24  1  0.713497  0.098244  0.692011  1
  B  B25  1  0.098244  0.713497  0.692011  1
  B  B26  1  0.888981  0.277224  0.014010  1
  B  B27  1  0.278352  0.467308  0.395905  1
  B  B28  1  0.698821  0.512741  0.652643  1
  B  B29  1  0.512741  0.698821  0.652643  1
  B  B30  1  0.467308  0.278352  0.395905  1
