# generated using pymatgen
data_Ho4Ti4Ir3Rh
_symmetry_space_group_name_H-M   'P 1'
_cell_length_a   4.33250800
_cell_length_b   6.91443939
_cell_length_c   8.13674338
_cell_angle_alpha   90.07415997
_cell_angle_beta   90.00000000
_cell_angle_gamma   90.00000000
_symmetry_Int_Tables_number   1
_chemical_formula_structural   Ho4Ti4Ir3Rh
_chemical_formula_sum   'Ho4 Ti4 Ir3 Rh1'
_cell_volume   243.75111023
_cell_formula_units_Z   1
loop_
 _symmetry_equiv_pos_site_id
 _symmetry_equiv_pos_as_xyz
  1  'x, y, z'
loop_
 _atom_site_type_symbol
 _atom_site_label
 _atom_site_symmetry_multiplicity
 _atom_site_fract_x
 _atom_site_fract_y
 _atom_site_fract_z
 _atom_site_occupancy
  Ho  Ho0  1  0.250000  0.518381  0.181307  1
  Ho  Ho1  1  0.750000  0.483251  0.818159  1
  Ho  Ho2  1  0.750000  0.980590  0.683002  1
  Ho  Ho3  1  0.250000  0.017071  0.319204  1
  Ti  Ti4  1  0.250000  0.638693  0.565910  1
  Ti  Ti5  1  0.750000  0.360883  0.430405  1
  Ti  Ti6  1  0.750000  0.861132  0.066559  1
  Ti  Ti7  1  0.250000  0.139497  0.936596  1
  Ir  Ir8  1  0.250000  0.778535  0.903230  1
  Ir  Ir9  1  0.750000  0.222068  0.096632  1
  Ir  Ir10  1  0.750000  0.720898  0.405195  1
  Rh  Rh11  1  0.250000  0.279002  0.593800  1
