# generated using pymatgen
data_Y6Al19Si5Ru8
_symmetry_space_group_name_H-M   'P 1'
_cell_length_a   8.67703108
_cell_length_b   8.67703065
_cell_length_c   9.59465600
_cell_angle_alpha   90.00000000
_cell_angle_beta   90.00000000
_cell_angle_gamma   119.88462658
_symmetry_Int_Tables_number   1
_chemical_formula_structural   Y6Al19Si5Ru8
_chemical_formula_sum   'Y6 Al19 Si5 Ru8'
_cell_volume   626.33409472
_cell_formula_units_Z   1
loop_
 _symmetry_equiv_pos_site_id
 _symmetry_equiv_pos_as_xyz
  1  'x, y, z'
loop_
 _atom_site_type_symbol
 _atom_site_label
 _atom_site_symmetry_multiplicity
 _atom_site_fract_x
 _atom_site_fract_y
 _atom_site_fract_z
 _atom_site_occupancy
  Y  Y0  1  0.806113  0.193887  0.750000  1
  Y  Y1  1  0.193394  0.806606  0.250000  1
  Y  Y2  1  0.390356  0.197642  0.750000  1
  Y  Y3  1  0.611735  0.805926  0.250000  1
  Y  Y4  1  0.802358  0.609644  0.750000  1
  Y  Y5  1  0.194074  0.388265  0.250000  1
  Al  Al6  1  0.834936  0.165064  0.421779  1
  Al  Al7  1  0.165563  0.834437  0.578401  1
  Al  Al8  1  0.330695  0.165544  0.422635  1
  Al  Al9  1  0.165563  0.834437  0.921599  1
  Al  Al10  1  0.669873  0.835755  0.578270  1
  Al  Al11  1  0.834936  0.165064  0.078221  1
  Al  Al12  1  0.834456  0.669305  0.422635  1
  Al  Al13  1  0.669873  0.835755  0.921730  1
  Al  Al14  1  0.164245  0.330127  0.578270  1
  Al  Al15  1  0.330695  0.165544  0.077365  1
  Al  Al16  1  0.164245  0.330127  0.921730  1
  Al  Al17  1  0.834456  0.669305  0.077365  1
  Al  Al18  1  0.562770  0.437230  0.250000  1
  Al  Al19  1  0.126998  0.560648  0.750000  1
  Al  Al20  1  0.872891  0.437030  0.250000  1
  Al  Al21  1  0.439352  0.873002  0.750000  1
  Al  Al22  1  0.562970  0.127109  0.250000  1
  Al  Al23  1  0.000170  0.999830  0.750000  1
  Al  Al24  1  0.999687  0.000313  0.250000  1
  Si  Si25  1  0.667506  0.332494  0.963379  1
  Si  Si26  1  0.332557  0.667443  0.038517  1
  Si  Si27  1  0.332557  0.667443  0.461483  1
  Si  Si28  1  0.667506  0.332494  0.536621  1
  Si  Si29  1  0.436330  0.563670  0.750000  1
  Ru  Ru30  1  0.499107  0.500893  0.993956  1
  Ru  Ru31  1  0.001188  0.500068  0.999464  1
  Ru  Ru32  1  0.499107  0.500893  0.506044  1
  Ru  Ru33  1  0.499932  0.998812  0.999464  1
  Ru  Ru34  1  0.001188  0.500068  0.500536  1
  Ru  Ru35  1  0.499932  0.998812  0.500536  1
  Ru  Ru36  1  0.000344  0.999656  0.999869  1
  Ru  Ru37  1  0.000344  0.999656  0.500131  1
