# generated using pymatgen
data_La6PrPd2Ru
_symmetry_space_group_name_H-M   'P 1'
_cell_length_a   10.36524000
_cell_length_b   10.22356689
_cell_length_c   6.60452308
_cell_angle_alpha   90.53756392
_cell_angle_beta   90.00000000
_cell_angle_gamma   120.45946460
_symmetry_Int_Tables_number   1
_chemical_formula_structural   La6PrPd2Ru
_chemical_formula_sum   'La12 Pr2 Pd4 Ru2'
_cell_volume   603.25199739
_cell_formula_units_Z   2
loop_
 _symmetry_equiv_pos_site_id
 _symmetry_equiv_pos_as_xyz
  1  'x, y, z'
loop_
 _atom_site_type_symbol
 _atom_site_label
 _atom_site_symmetry_multiplicity
 _atom_site_fract_x
 _atom_site_fract_y
 _atom_site_fract_z
 _atom_site_occupancy
  La  La0  1  0.137757  0.888655  0.239513  1
  La  La1  1  0.750898  0.888655  0.239513  1
  La  La2  1  0.123530  0.247060  0.241867  1
  La  La3  1  0.872271  0.127809  0.755060  1
  La  La4  1  0.255538  0.127809  0.755060  1
  La  La5  1  0.871994  0.743988  0.739668  1
  La  La6  1  0.531108  0.450796  0.434026  1
  La  La7  1  0.919688  0.450796  0.434026  1
  La  La8  1  0.542270  0.084541  0.433217  1
  La  La9  1  0.461750  0.533762  0.945570  1
  La  La10  1  0.072012  0.533762  0.945570  1
  La  La11  1  0.464253  0.928506  0.936139  1
  Pr  Pr12  1  0.333936  0.667872  0.446039  1
  Pr  Pr13  1  0.665371  0.330743  0.963225  1
  Pd  Pd14  1  0.814832  0.629663  0.193769  1
  Pd  Pd15  1  0.185735  0.808546  0.694476  1
  Pd  Pd16  1  0.622811  0.808546  0.694476  1
  Pd  Pd17  1  0.188951  0.377901  0.694026  1
  Ru  Ru18  1  0.816910  0.185297  0.200275  1
  Ru  Ru19  1  0.368384  0.185297  0.200275  1
