# generated using pymatgen
data_Lu16Al4NiRu3
_symmetry_space_group_name_H-M   'P 1'
_cell_length_a   9.28032047
_cell_length_b   9.30540362
_cell_length_c   9.30703804
_cell_angle_alpha   59.98472155
_cell_angle_beta   59.90030307
_cell_angle_gamma   59.90154958
_symmetry_Int_Tables_number   1
_chemical_formula_structural   Lu16Al4NiRu3
_chemical_formula_sum   'Lu16 Al4 Ni1 Ru3'
_cell_volume   567.40437220
_cell_formula_units_Z   1
loop_
 _symmetry_equiv_pos_site_id
 _symmetry_equiv_pos_as_xyz
  1  'x, y, z'
loop_
 _atom_site_type_symbol
 _atom_site_label
 _atom_site_symmetry_multiplicity
 _atom_site_fract_x
 _atom_site_fract_y
 _atom_site_fract_z
 _atom_site_occupancy
  Lu  Lu0  1  0.352731  0.350287  0.350400  1
  Lu  Lu1  1  0.352726  0.350265  0.946587  1
  Lu  Lu2  1  0.352775  0.946519  0.350333  1
  Lu  Lu3  1  0.946500  0.351109  0.351134  1
  Lu  Lu4  1  0.806117  0.193724  0.193784  1
  Lu  Lu5  1  0.193017  0.805521  0.805611  1
  Lu  Lu6  1  0.193066  0.805503  0.195736  1
  Lu  Lu7  1  0.806083  0.193719  0.806356  1
  Lu  Lu8  1  0.193035  0.195635  0.805611  1
  Lu  Lu9  1  0.806069  0.806300  0.193785  1
  Lu  Lu10  1  0.938855  0.560119  0.560135  1
  Lu  Lu11  1  0.559583  0.937665  0.937703  1
  Lu  Lu12  1  0.559615  0.937697  0.564837  1
  Lu  Lu13  1  0.938848  0.560138  0.940721  1
  Lu  Lu14  1  0.559623  0.564681  0.937788  1
  Lu  Lu15  1  0.938856  0.940710  0.560152  1
  Al  Al16  1  0.577357  0.578168  0.578181  1
  Al  Al17  1  0.577378  0.578200  0.266141  1
  Al  Al18  1  0.577350  0.266107  0.578235  1
  Al  Al19  1  0.264966  0.578236  0.578357  1
  Ni  Ni20  1  0.578882  0.142383  0.140336  1
  Ru  Ru21  1  0.142291  0.140282  0.140461  1
  Ru  Ru22  1  0.142118  0.140192  0.577145  1
  Ru  Ru23  1  0.142158  0.576840  0.140471  1
