# generated using pymatgen
data_TmZn(Ni7B2)3
_symmetry_space_group_name_H-M   'P 1'
_cell_length_a   7.46186592
_cell_length_b   7.46186539
_cell_length_c   7.46186600
_cell_angle_alpha   60.00000615
_cell_angle_beta   60.00000851
_cell_angle_gamma   60.00000588
_symmetry_Int_Tables_number   1
_chemical_formula_structural   TmZn(Ni7B2)3
_chemical_formula_sum   'Tm1 Zn1 Ni21 B6'
_cell_volume   293.78347696
_cell_formula_units_Z   1
loop_
 _symmetry_equiv_pos_site_id
 _symmetry_equiv_pos_as_xyz
  1  'x, y, z'
loop_
 _atom_site_type_symbol
 _atom_site_label
 _atom_site_symmetry_multiplicity
 _atom_site_fract_x
 _atom_site_fract_y
 _atom_site_fract_z
 _atom_site_occupancy
  Tm  Tm0  1  0.250000  0.250000  0.250000  1
  Zn  Zn1  1  0.750000  0.750000  0.750000  1
  Ni  Ni2  1  0.337270  0.999972  0.999972  1
  Ni  Ni3  1  0.662786  0.999972  0.999972  1
  Ni  Ni4  1  0.999972  0.337270  0.662786  1
  Ni  Ni5  1  0.999972  0.662786  0.337270  1
  Ni  Ni6  1  0.999972  0.337270  0.999972  1
  Ni  Ni7  1  0.662786  0.999972  0.337270  1
  Ni  Ni8  1  0.999972  0.662786  0.999972  1
  Ni  Ni9  1  0.337270  0.999972  0.662786  1
  Ni  Ni10  1  0.999972  0.999972  0.337270  1
  Ni  Ni11  1  0.999972  0.999972  0.662786  1
  Ni  Ni12  1  0.662786  0.337270  0.999972  1
  Ni  Ni13  1  0.337270  0.662786  0.999972  1
  Ni  Ni14  1  0.391170  0.391170  0.391170  1
  Ni  Ni15  1  0.620284  0.620284  0.620284  1
  Ni  Ni16  1  0.391170  0.391170  0.826488  1
  Ni  Ni17  1  0.391170  0.826488  0.391170  1
  Ni  Ni18  1  0.620284  0.620284  0.139150  1
  Ni  Ni19  1  0.620284  0.139150  0.620284  1
  Ni  Ni20  1  0.826488  0.391170  0.391170  1
  Ni  Ni21  1  0.139150  0.620284  0.620284  1
  Ni  Ni22  1  0.000000  0.000000  0.000000  1
  B  B23  1  0.728728  0.271272  0.271272  1
  B  B24  1  0.271272  0.728728  0.728728  1
  B  B25  1  0.271272  0.728728  0.271272  1
  B  B26  1  0.728728  0.271272  0.728728  1
  B  B27  1  0.271272  0.271272  0.728728  1
  B  B28  1  0.728728  0.728728  0.271272  1
