# generated using pymatgen
data_Eu2Zn17CdCu4
_symmetry_space_group_name_H-M   'P 1'
_cell_length_a   8.29381574
_cell_length_b   8.29381566
_cell_length_c   8.29381535
_cell_angle_alpha   99.54585817
_cell_angle_beta   99.54585871
_cell_angle_gamma   131.93799137
_symmetry_Int_Tables_number   1
_chemical_formula_structural   Eu2Zn17CdCu4
_chemical_formula_sum   'Eu2 Zn17 Cd1 Cu4'
_cell_volume   387.60093634
_cell_formula_units_Z   1
loop_
 _symmetry_equiv_pos_site_id
 _symmetry_equiv_pos_as_xyz
  1  'x, y, z'
loop_
 _atom_site_type_symbol
 _atom_site_label
 _atom_site_symmetry_multiplicity
 _atom_site_fract_x
 _atom_site_fract_y
 _atom_site_fract_z
 _atom_site_occupancy
  Eu  Eu0  1  0.000000  0.000000  0.000000  1
  Eu  Eu1  1  0.250000  0.750000  0.500000  1
  Zn  Zn2  1  0.500000  0.500000  0.000000  1
  Zn  Zn3  1  0.188799  0.514452  0.082210  1
  Zn  Zn4  1  0.188799  0.106589  0.674348  1
  Zn  Zn5  1  0.765505  0.934822  0.584133  1
  Zn  Zn6  1  0.765505  0.181372  0.830682  1
  Zn  Zn7  1  0.432243  0.514452  0.325652  1
  Zn  Zn8  1  0.432243  0.106589  0.917790  1
  Zn  Zn9  1  0.350689  0.934822  0.169318  1
  Zn  Zn10  1  0.350689  0.181372  0.415867  1
  Zn  Zn11  1  0.065178  0.234495  0.415867  1
  Zn  Zn12  1  0.065178  0.649311  0.830682  1
  Zn  Zn13  1  0.485548  0.811201  0.917790  1
  Zn  Zn14  1  0.485548  0.567757  0.674348  1
  Zn  Zn15  1  0.818628  0.234495  0.169318  1
  Zn  Zn16  1  0.818628  0.649311  0.584133  1
  Zn  Zn17  1  0.893411  0.811201  0.325652  1
  Zn  Zn18  1  0.893411  0.567757  0.082210  1
  Cd  Cd19  1  0.750000  0.250000  0.500000  1
  Cu  Cu20  1  0.130283  0.375642  0.754641  1
  Cu  Cu21  1  0.624358  0.869717  0.245359  1
  Cu  Cu22  1  0.624358  0.378999  0.754641  1
  Cu  Cu23  1  0.621001  0.375642  0.245359  1
