# generated using pymatgen
data_Nd4Ag3Pt
_symmetry_space_group_name_H-M   'P 1'
_cell_length_a   4.81886200
_cell_length_b   5.89651071
_cell_length_c   7.46105734
_cell_angle_alpha   90.63813703
_cell_angle_beta   90.00000000
_cell_angle_gamma   90.00000000
_symmetry_Int_Tables_number   1
_chemical_formula_structural   Nd4Ag3Pt
_chemical_formula_sum   'Nd4 Ag3 Pt1'
_cell_volume   211.98885134
_cell_formula_units_Z   1
loop_
 _symmetry_equiv_pos_site_id
 _symmetry_equiv_pos_as_xyz
  1  'x, y, z'
loop_
 _atom_site_type_symbol
 _atom_site_label
 _atom_site_symmetry_multiplicity
 _atom_site_fract_x
 _atom_site_fract_y
 _atom_site_fract_z
 _atom_site_occupancy
  Nd  Nd0  1  0.250000  0.357502  0.696322  1
  Nd  Nd1  1  0.250000  0.152273  0.168698  1
  Nd  Nd2  1  0.750000  0.629746  0.310459  1
  Nd  Nd3  1  0.750000  0.862783  0.827526  1
  Ag  Ag4  1  0.250000  0.859823  0.533872  1
  Ag  Ag5  1  0.250000  0.651476  0.042107  1
  Ag  Ag6  1  0.750000  0.132843  0.461743  1
  Pt  Pt7  1  0.750000  0.353554  0.959273  1
