# generated using pymatgen
data_NdLu9Sb9Te
_symmetry_space_group_name_H-M   'P 1'
_cell_length_a   7.43594240
_cell_length_b   8.65276519
_cell_length_c   9.61609600
_cell_angle_alpha   103.03017777
_cell_angle_beta   97.34081520
_cell_angle_gamma   106.92942497
_symmetry_Int_Tables_number   1
_chemical_formula_structural   NdLu9Sb9Te
_chemical_formula_sum   'Nd1 Lu9 Sb9 Te1'
_cell_volume   564.10588536
_cell_formula_units_Z   1
loop_
 _symmetry_equiv_pos_site_id
 _symmetry_equiv_pos_as_xyz
  1  'x, y, z'
loop_
 _atom_site_type_symbol
 _atom_site_label
 _atom_site_symmetry_multiplicity
 _atom_site_fract_x
 _atom_site_fract_y
 _atom_site_fract_z
 _atom_site_occupancy
  Nd  Nd0  1  0.899552  0.052150  0.805154  1
  Lu  Lu1  1  0.901585  0.550074  0.800168  1
  Lu  Lu2  1  0.692294  0.152875  0.401190  1
  Lu  Lu3  1  0.505225  0.751809  0.002738  1
  Lu  Lu4  1  0.694674  0.643525  0.397687  1
  Lu  Lu5  1  0.299920  0.354437  0.600290  1
  Lu  Lu6  1  0.101484  0.947335  0.192620  1
  Lu  Lu7  1  0.499437  0.250045  0.999555  1
  Lu  Lu8  1  0.306383  0.847396  0.601115  1
  Lu  Lu9  1  0.098879  0.450711  0.200361  1
  Sb  Sb10  1  0.800435  0.600170  0.101077  1
  Sb  Sb11  1  0.591909  0.202578  0.698043  1
  Sb  Sb12  1  0.400742  0.800705  0.300609  1
  Sb  Sb13  1  0.799194  0.102219  0.109468  1
  Sb  Sb14  1  0.207256  0.407470  0.901647  1
  Sb  Sb15  1  0.596860  0.693548  0.697507  1
  Sb  Sb16  1  0.396250  0.298389  0.299351  1
  Sb  Sb17  1  0.207123  0.896483  0.899536  1
  Sb  Sb18  1  0.998953  0.500183  0.499832  1
  Te  Te19  1  0.001844  0.997902  0.492051  1
