# generated using pymatgen
data_Ca(Eu3Si2)3
_symmetry_space_group_name_H-M   'P 1'
_cell_length_a   9.29956938
_cell_length_b   9.29956896
_cell_length_c   9.29956900
_cell_angle_alpha   130.41475447
_cell_angle_beta   130.41474993
_cell_angle_gamma   72.74457747
_symmetry_Int_Tables_number   1
_chemical_formula_structural   Ca(Eu3Si2)3
_chemical_formula_sum   'Ca1 Eu9 Si6'
_cell_volume   455.47495534
_cell_formula_units_Z   1
loop_
 _symmetry_equiv_pos_site_id
 _symmetry_equiv_pos_as_xyz
  1  'x, y, z'
loop_
 _atom_site_type_symbol
 _atom_site_label
 _atom_site_symmetry_multiplicity
 _atom_site_fract_x
 _atom_site_fract_y
 _atom_site_fract_z
 _atom_site_occupancy
  Ca  Ca0  1  0.500000  0.500000  0.000000  1
  Eu  Eu1  1  0.532824  0.032958  0.855368  1
  Eu  Eu2  1  0.177591  0.677457  0.144632  1
  Eu  Eu3  1  0.032958  0.177591  0.500134  1
  Eu  Eu4  1  0.677457  0.532824  0.499866  1
  Eu  Eu5  1  0.467176  0.967042  0.144632  1
  Eu  Eu6  1  0.822409  0.322543  0.855368  1
  Eu  Eu7  1  0.967042  0.822409  0.499866  1
  Eu  Eu8  1  0.322543  0.467176  0.500134  1
  Eu  Eu9  1  0.000000  0.000000  0.000000  1
  Si  Si10  1  0.889282  0.389531  0.278813  1
  Si  Si11  1  0.110718  0.610469  0.721187  1
  Si  Si12  1  0.389531  0.110718  0.500248  1
  Si  Si13  1  0.610469  0.889282  0.499752  1
  Si  Si14  1  0.250032  0.250032  0.000000  1
  Si  Si15  1  0.749968  0.749968  0.000000  1
