# generated using pymatgen
data_Mg4Zr6Al12Pt7
_symmetry_space_group_name_H-M   'P 1'
_cell_length_a   8.87850982
_cell_length_b   8.87851075
_cell_length_c   8.87851000
_cell_angle_alpha   60.00000279
_cell_angle_beta   59.99999933
_cell_angle_gamma   60.00000301
_symmetry_Int_Tables_number   1
_chemical_formula_structural   Mg4Zr6Al12Pt7
_chemical_formula_sum   'Mg4 Zr6 Al12 Pt7'
_cell_volume   494.88616328
_cell_formula_units_Z   1
loop_
 _symmetry_equiv_pos_site_id
 _symmetry_equiv_pos_as_xyz
  1  'x, y, z'
loop_
 _atom_site_type_symbol
 _atom_site_label
 _atom_site_symmetry_multiplicity
 _atom_site_fract_x
 _atom_site_fract_y
 _atom_site_fract_z
 _atom_site_occupancy
  Mg  Mg0  1  0.880904  0.880904  0.357287  1
  Mg  Mg1  1  0.880904  0.357287  0.880904  1
  Mg  Mg2  1  0.357287  0.880904  0.880904  1
  Mg  Mg3  1  0.880904  0.880904  0.880904  1
  Zr  Zr4  1  0.682201  0.682201  0.317799  1
  Zr  Zr5  1  0.317799  0.682201  0.317799  1
  Zr  Zr6  1  0.682201  0.317799  0.317799  1
  Zr  Zr7  1  0.317799  0.317799  0.682201  1
  Zr  Zr8  1  0.682201  0.317799  0.682201  1
  Zr  Zr9  1  0.317799  0.682201  0.682201  1
  Al  Al10  1  0.119547  0.119547  0.641359  1
  Al  Al11  1  0.119547  0.641359  0.119547  1
  Al  Al12  1  0.641359  0.119547  0.119547  1
  Al  Al13  1  0.119547  0.119547  0.119547  1
  Al  Al14  1  0.663398  0.663398  0.009806  1
  Al  Al15  1  0.663398  0.009806  0.663398  1
  Al  Al16  1  0.009806  0.663398  0.663398  1
  Al  Al17  1  0.663398  0.663398  0.663398  1
  Al  Al18  1  0.337356  0.337356  0.987930  1
  Al  Al19  1  0.337356  0.987930  0.337356  1
  Al  Al20  1  0.987930  0.337356  0.337356  1
  Al  Al21  1  0.337356  0.337356  0.337356  1
  Pt  Pt22  1  0.000000  0.000000  0.000000  1
  Pt  Pt23  1  0.002744  0.002744  0.497256  1
  Pt  Pt24  1  0.497256  0.002744  0.497256  1
  Pt  Pt25  1  0.002744  0.497256  0.497256  1
  Pt  Pt26  1  0.497256  0.497256  0.002744  1
  Pt  Pt27  1  0.002744  0.497256  0.002744  1
  Pt  Pt28  1  0.497256  0.002744  0.002744  1
