# generated using pymatgen
data_Tb3TcB7
_symmetry_space_group_name_H-M   'P 1'
_cell_length_a   8.12678838
_cell_length_b   8.12678811
_cell_length_c   9.38680200
_cell_angle_alpha   90.00000000
_cell_angle_beta   90.00000000
_cell_angle_gamma   154.75750675
_symmetry_Int_Tables_number   1
_chemical_formula_structural   Tb3TcB7
_chemical_formula_sum   'Tb6 Tc2 B14'
_cell_volume   264.37714294
_cell_formula_units_Z   2
loop_
 _symmetry_equiv_pos_site_id
 _symmetry_equiv_pos_as_xyz
  1  'x, y, z'
loop_
 _atom_site_type_symbol
 _atom_site_label
 _atom_site_symmetry_multiplicity
 _atom_site_fract_x
 _atom_site_fract_y
 _atom_site_fract_z
 _atom_site_occupancy
  Tb  Tb0  1  0.258041  0.741959  0.250000  1
  Tb  Tb1  1  0.741959  0.258041  0.750000  1
  Tb  Tb2  1  0.604772  0.395228  0.060389  1
  Tb  Tb3  1  0.395228  0.604772  0.939611  1
  Tb  Tb4  1  0.395228  0.604772  0.560389  1
  Tb  Tb5  1  0.604772  0.395228  0.439611  1
  Tc  Tc6  1  0.446529  0.553471  0.250000  1
  Tc  Tc7  1  0.553471  0.446529  0.750000  1
  B  B8  1  0.978485  0.021515  0.095907  1
  B  B9  1  0.021515  0.978485  0.904093  1
  B  B10  1  0.021515  0.978485  0.595907  1
  B  B11  1  0.978485  0.021515  0.404093  1
  B  B12  1  0.773220  0.226780  0.032682  1
  B  B13  1  0.226780  0.773220  0.967318  1
  B  B14  1  0.226780  0.773220  0.532682  1
  B  B15  1  0.773220  0.226780  0.467318  1
  B  B16  1  0.867979  0.132021  0.151245  1
  B  B17  1  0.132021  0.867979  0.848755  1
  B  B18  1  0.132021  0.867979  0.651245  1
  B  B19  1  0.867979  0.132021  0.348755  1
  B  B20  1  0.040764  0.959236  0.250000  1
  B  B21  1  0.959236  0.040764  0.750000  1
