# generated using pymatgen
data_TbDy5Er2(MoO6)4
_symmetry_space_group_name_H-M   'P 1'
_cell_length_a   9.94535417
_cell_length_b   9.94535387
_cell_length_c   5.38500807
_cell_angle_alpha   75.04894222
_cell_angle_beta   75.04894327
_cell_angle_gamma   68.17962415
_symmetry_Int_Tables_number   1
_chemical_formula_structural   TbDy5Er2(MoO6)4
_chemical_formula_sum   'Tb1 Dy5 Er2 Mo4 O24'
_cell_volume   469.86431709
_cell_formula_units_Z   1
loop_
 _symmetry_equiv_pos_site_id
 _symmetry_equiv_pos_as_xyz
  1  'x, y, z'
loop_
 _atom_site_type_symbol
 _atom_site_label
 _atom_site_symmetry_multiplicity
 _atom_site_fract_x
 _atom_site_fract_y
 _atom_site_fract_z
 _atom_site_occupancy
  Tb  Tb0  1  0.136779  0.863221  0.750000  1
  Dy  Dy1  1  0.216245  0.448278  0.877406  1
  Dy  Dy2  1  0.448374  0.216238  0.377399  1
  Dy  Dy3  1  0.783762  0.551626  0.122601  1
  Dy  Dy4  1  0.551722  0.783755  0.622594  1
  Dy  Dy5  1  0.862836  0.137164  0.250000  1
  Er  Er6  1  0.395907  0.604093  0.250000  1
  Er  Er7  1  0.604192  0.395808  0.750000  1
  Mo  Mo8  1  0.989370  0.703244  0.436667  1
  Mo  Mo9  1  0.296756  0.010630  0.063333  1
  Mo  Mo10  1  0.010568  0.296786  0.563395  1
  Mo  Mo11  1  0.703214  0.989432  0.936605  1
  O  O12  1  0.428075  0.391192  0.577063  1
  O  O13  1  0.608808  0.571925  0.922937  1
  O  O14  1  0.571945  0.608780  0.422980  1
  O  O15  1  0.391220  0.428055  0.077020  1
  O  O16  1  0.194458  0.661583  0.573934  1
  O  O17  1  0.338417  0.805542  0.926066  1
  O  O18  1  0.805613  0.337891  0.425537  1
  O  O19  1  0.662109  0.194387  0.074463  1
  O  O20  1  0.114374  0.672919  0.121714  1
  O  O21  1  0.327081  0.885626  0.378286  1
  O  O22  1  0.885624  0.326760  0.878756  1
  O  O23  1  0.673240  0.114376  0.621244  1
  O  O24  1  0.710357  0.816411  0.864071  1
  O  O25  1  0.183589  0.289643  0.635929  1
  O  O26  1  0.289675  0.183599  0.135944  1
  O  O27  1  0.816401  0.710325  0.364056  1
  O  O28  1  0.888577  0.953078  0.984235  1
  O  O29  1  0.046922  0.111423  0.515765  1
  O  O30  1  0.975734  0.568419  0.744630  1
  O  O31  1  0.952769  0.888920  0.483525  1
  O  O32  1  0.568412  0.975787  0.244517  1
  O  O33  1  0.024213  0.431588  0.255483  1
  O  O34  1  0.431581  0.024266  0.755370  1
  O  O35  1  0.111080  0.047231  0.016475  1
