# generated using pymatgen
data_COF36
_symmetry_space_group_name_H-M   'P 1'
_cell_length_a   6.72460708
_cell_length_b   10.06975751
_cell_length_c   10.76938206
_cell_angle_alpha   87.37735302
_cell_angle_beta   97.99618280
_cell_angle_gamma   71.84003785
_symmetry_Int_Tables_number   1
_chemical_formula_structural   COF36
_chemical_formula_sum   'C1 O1 F36'
_cell_volume   683.10525081
_cell_formula_units_Z   1
loop_
 _symmetry_equiv_pos_site_id
 _symmetry_equiv_pos_as_xyz
  1  'x, y, z'
loop_
 _atom_site_type_symbol
 _atom_site_label
 _atom_site_symmetry_multiplicity
 _atom_site_fract_x
 _atom_site_fract_y
 _atom_site_fract_z
 _atom_site_occupancy
  C  C0  1  0.287164  0.138156  0.126018  1
  O  O1  1  0.735845  0.798659  0.733748  1
  F  F2  1  0.276300  0.425757  0.881040  1
  F  F3  1  0.679317  0.614612  0.080104  1
  F  F4  1  0.298186  0.252246  0.577116  1
  F  F5  1  0.708185  0.735703  0.436204  1
  F  F6  1  0.943111  0.196866  0.825127  1
  F  F7  1  0.116549  0.770428  0.197060  1
  F  F8  1  0.712011  0.868298  0.013458  1
  F  F9  1  0.366331  0.134178  0.017736  1
  F  F10  1  0.790089  0.625695  0.854954  1
  F  F11  1  0.183357  0.271828  0.142629  1
  F  F12  1  0.454463  0.433565  0.826790  1
  F  F13  1  0.557205  0.593442  0.172861  1
  F  F14  1  0.773142  0.602282  0.676840  1
  F  F15  1  0.275655  0.367910  0.375602  1
  F  F16  1  0.746491  0.024565  0.523375  1
  F  F17  1  0.257772  0.007125  0.462166  1
  F  F18  1  0.318019  0.182565  0.700353  1
  F  F19  1  0.709957  0.808863  0.320080  1
  F  F20  1  0.812501  0.087877  0.630850  1
  F  F21  1  0.203134  0.911565  0.380529  1
  F  F22  1  0.789507  0.975073  0.968135  1
  F  F23  1  0.152738  0.062867  0.120225  1
  F  F24  1  0.887297  0.345043  0.796314  1
  F  F25  1  0.139129  0.626623  0.228304  1
  F  F26  1  0.161481  0.723052  0.915565  1
  F  F27  1  0.709748  0.316103  0.046229  1
  F  F28  1  0.529786  0.879111  0.713534  1
  F  F29  1  0.446022  0.082644  0.222951  1
  F  F30  1  0.108471  0.766370  0.581319  1
  F  F31  1  0.872918  0.257683  0.424053  1
  F  F32  1  0.228093  0.644471  0.664421  1
  F  F33  1  0.843452  0.384700  0.349303  1
  F  F34  1  0.259542  0.829095  0.905998  1
  F  F35  1  0.719776  0.225403  0.154081  1
  F  F36  1  0.443206  0.456448  0.498091  1
  F  F37  1  0.504048  0.573128  0.456837  1
