# generated using pymatgen
data_Fe6ReSi2W3
_symmetry_space_group_name_H-M   'P 1'
_cell_length_a   4.74119200
_cell_length_b   4.74119311
_cell_length_c   7.61143300
_cell_angle_alpha   90.00000000
_cell_angle_beta   90.00000000
_cell_angle_gamma   119.99999224
_symmetry_Int_Tables_number   1
_chemical_formula_structural   Fe6ReSi2W3
_chemical_formula_sum   'Fe6 Re1 Si2 W3'
_cell_volume   148.17409459
_cell_formula_units_Z   1
loop_
 _symmetry_equiv_pos_site_id
 _symmetry_equiv_pos_as_xyz
  1  'x, y, z'
loop_
 _atom_site_type_symbol
 _atom_site_label
 _atom_site_symmetry_multiplicity
 _atom_site_fract_x
 _atom_site_fract_y
 _atom_site_fract_z
 _atom_site_occupancy
  Fe  Fe0  1  0.170360  0.829640  0.249599  1
  Fe  Fe1  1  0.341416  0.170709  0.749661  1
  Fe  Fe2  1  0.829291  0.658584  0.749661  1
  Fe  Fe3  1  0.170360  0.340720  0.249599  1
  Fe  Fe4  1  0.659280  0.829640  0.249599  1
  Fe  Fe5  1  0.829291  0.170709  0.749661  1
  Re  Re6  1  0.333333  0.666667  0.937059  1
  Si  Si7  1  0.000000  0.000000  0.998771  1
  Si  Si8  1  0.000000  0.000000  0.499925  1
  W  W9  1  0.666667  0.333333  0.433554  1
  W  W10  1  0.666667  0.333333  0.060710  1
  W  W11  1  0.333333  0.666667  0.572204  1
