# generated using pymatgen
data_Li3Er5(Co4P3)4
_symmetry_space_group_name_H-M   'P 1'
_cell_length_a   12.01161900
_cell_length_b   12.01161945
_cell_length_c   3.70498800
_cell_angle_alpha   90.00000000
_cell_angle_beta   90.00000000
_cell_angle_gamma   119.99999601
_symmetry_Int_Tables_number   1
_chemical_formula_structural   Li3Er5(Co4P3)4
_chemical_formula_sum   'Li3 Er5 Co16 P12'
_cell_volume   462.93558714
_cell_formula_units_Z   1
loop_
 _symmetry_equiv_pos_site_id
 _symmetry_equiv_pos_as_xyz
  1  'x, y, z'
loop_
 _atom_site_type_symbol
 _atom_site_label
 _atom_site_symmetry_multiplicity
 _atom_site_fract_x
 _atom_site_fract_y
 _atom_site_fract_z
 _atom_site_occupancy
  Li  Li0  1  0.440521  0.440521  0.000000  1
  Li  Li1  1  0.559479  0.000000  0.000000  1
  Li  Li2  1  0.000000  0.559479  0.000000  1
  Er  Er3  1  0.666667  0.333333  0.000000  1
  Er  Er4  1  0.333333  0.666667  0.000000  1
  Er  Er5  1  0.813093  0.813093  0.500000  1
  Er  Er6  1  0.186907  0.000000  0.500000  1
  Er  Er7  1  0.000000  0.186907  0.500000  1
  Co  Co8  1  0.198677  0.377200  0.000000  1
  Co  Co9  1  0.178522  0.801323  0.000000  1
  Co  Co10  1  0.821478  0.622800  0.000000  1
  Co  Co11  1  0.801323  0.178522  0.000000  1
  Co  Co12  1  0.377200  0.198677  0.000000  1
  Co  Co13  1  0.125632  0.482749  0.500000  1
  Co  Co14  1  0.357117  0.874368  0.500000  1
  Co  Co15  1  0.517251  0.642883  0.500000  1
  Co  Co16  1  0.642883  0.517251  0.500000  1
  Co  Co17  1  0.874368  0.357117  0.500000  1
  Co  Co18  1  0.482749  0.125632  0.500000  1
  Co  Co19  1  0.000000  0.000000  0.000000  1
  Co  Co20  1  0.717067  0.000000  0.500000  1
  Co  Co21  1  0.000000  0.717067  0.500000  1
  Co  Co22  1  0.622800  0.821478  0.000000  1
  Co  Co23  1  0.282933  0.282933  0.500000  1
  P  P24  1  0.633497  0.633497  0.000000  1
  P  P25  1  0.366503  0.000000  0.000000  1
  P  P26  1  0.000000  0.366503  0.000000  1
  P  P27  1  0.480718  0.310753  0.500000  1
  P  P28  1  0.689247  0.169965  0.500000  1
  P  P29  1  0.830035  0.519282  0.500000  1
  P  P30  1  0.519282  0.830035  0.500000  1
  P  P31  1  0.169965  0.689247  0.500000  1
  P  P32  1  0.817999  0.000000  0.000000  1
  P  P33  1  0.000000  0.817999  0.000000  1
  P  P34  1  0.310753  0.480718  0.500000  1
  P  P35  1  0.182001  0.182001  0.000000  1
