# generated using pymatgen
data_Ce3Pr2Zn2Ru3
_symmetry_space_group_name_H-M   'P 1'
_cell_length_a   8.50151360
_cell_length_b   8.50151416
_cell_length_c   8.50151403
_cell_angle_alpha   110.02535096
_cell_angle_beta   110.02536451
_cell_angle_gamma   110.02535207
_symmetry_Int_Tables_number   1
_chemical_formula_structural   Ce3Pr2Zn2Ru3
_chemical_formula_sum   'Ce6 Pr4 Zn4 Ru6'
_cell_volume   463.04791882
_cell_formula_units_Z   2
loop_
 _symmetry_equiv_pos_site_id
 _symmetry_equiv_pos_as_xyz
  1  'x, y, z'
loop_
 _atom_site_type_symbol
 _atom_site_label
 _atom_site_symmetry_multiplicity
 _atom_site_fract_x
 _atom_site_fract_y
 _atom_site_fract_z
 _atom_site_occupancy
  Ce  Ce0  1  0.712664  0.499079  0.000659  1
  Ce  Ce1  1  0.000659  0.712664  0.499079  1
  Ce  Ce2  1  0.499079  0.000659  0.712664  1
  Ce  Ce3  1  0.239434  0.186211  0.935521  1
  Ce  Ce4  1  0.935521  0.239434  0.186211  1
  Ce  Ce5  1  0.186211  0.935521  0.239434  1
  Pr  Pr6  1  0.766188  0.766188  0.766188  1
  Pr  Pr7  1  0.306793  0.558479  0.752532  1
  Pr  Pr8  1  0.752532  0.306793  0.558479  1
  Pr  Pr9  1  0.558479  0.752532  0.306793  1
  Zn  Zn10  1  0.398928  0.398928  0.398928  1
  Zn  Zn11  1  0.085579  0.499120  0.010677  1
  Zn  Zn12  1  0.010677  0.085579  0.499120  1
  Zn  Zn13  1  0.499120  0.010677  0.085579  1
  Ru  Ru14  1  0.906839  0.121386  0.763159  1
  Ru  Ru15  1  0.763159  0.906839  0.121386  1
  Ru  Ru16  1  0.121386  0.763159  0.906839  1
  Ru  Ru17  1  0.231721  0.628179  0.396853  1
  Ru  Ru18  1  0.396853  0.231721  0.628179  1
  Ru  Ru19  1  0.628179  0.396853  0.231721  1
