# generated using pymatgen
data_Zr10CuSn5GeSb
_symmetry_space_group_name_H-M   'P 1'
_cell_length_a   8.71182088
_cell_length_b   8.71493136
_cell_length_c   5.87534571
_cell_angle_alpha   90.05624399
_cell_angle_beta   89.97186598
_cell_angle_gamma   120.01180013
_symmetry_Int_Tables_number   1
_chemical_formula_structural   Zr10CuSn5GeSb
_chemical_formula_sum   'Zr10 Cu1 Sn5 Ge1 Sb1'
_cell_volume   386.26477420
_cell_formula_units_Z   1
loop_
 _symmetry_equiv_pos_site_id
 _symmetry_equiv_pos_as_xyz
  1  'x, y, z'
loop_
 _atom_site_type_symbol
 _atom_site_label
 _atom_site_symmetry_multiplicity
 _atom_site_fract_x
 _atom_site_fract_y
 _atom_site_fract_z
 _atom_site_occupancy
  Zr  Zr0  1  0.667614  0.333478  0.999723  1
  Zr  Zr1  1  0.332386  0.665864  0.999723  1
  Zr  Zr2  1  0.332545  0.666110  0.500354  1
  Zr  Zr3  1  0.667455  0.333564  0.500354  1
  Zr  Zr4  1  0.735085  0.735250  0.748884  1
  Zr  Zr5  1  0.264915  0.000165  0.748884  1
  Zr  Zr6  1  0.000000  0.265449  0.749558  1
  Zr  Zr7  1  0.263773  0.264601  0.250863  1
  Zr  Zr8  1  0.736227  0.000829  0.250863  1
  Zr  Zr9  1  0.000000  0.734297  0.250927  1
  Cu  Cu10  1  0.000000  0.998704  0.998895  1
  Sn  Sn11  1  0.388257  0.387623  0.751148  1
  Sn  Sn12  1  0.611743  0.999367  0.751148  1
  Sn  Sn13  1  0.000000  0.613820  0.750818  1
  Sn  Sn14  1  0.612243  0.612570  0.249133  1
  Sn  Sn15  1  0.387757  0.000328  0.249133  1
  Ge  Ge16  1  0.000000  0.999450  0.500595  1
  Sb  Sb17  1  0.000000  0.388534  0.248997  1
