# generated using pymatgen
data_Ho2Pd2O7
_symmetry_space_group_name_H-M   'P 1'
_cell_length_a   7.21955600
_cell_length_b   7.21955770
_cell_length_c   7.21955600
_cell_angle_alpha   120.00000136
_cell_angle_beta   90.00000000
_cell_angle_gamma   120.00000136
_symmetry_Int_Tables_number   1
_chemical_formula_structural   Ho2Pd2O7
_chemical_formula_sum   'Ho4 Pd4 O14'
_cell_volume   266.08264877
_cell_formula_units_Z   2
loop_
 _symmetry_equiv_pos_site_id
 _symmetry_equiv_pos_as_xyz
  1  'x, y, z'
loop_
 _atom_site_type_symbol
 _atom_site_label
 _atom_site_symmetry_multiplicity
 _atom_site_fract_x
 _atom_site_fract_y
 _atom_site_fract_z
 _atom_site_occupancy
  Ho  Ho0  1  0.000000  0.499999  0.000000  1
  Ho  Ho1  1  0.000000  0.000000  0.499999  1
  Ho  Ho2  1  0.000000  0.499999  0.499999  1
  Ho  Ho3  1  0.500000  0.000000  0.500000  1
  Pd  Pd4  1  0.000000  0.000000  0.000000  1
  Pd  Pd5  1  0.499999  0.000000  0.000000  1
  Pd  Pd6  1  0.499999  0.499999  0.000000  1
  Pd  Pd7  1  0.499999  0.499999  0.499999  1
  O  O8  1  0.409138  0.750000  0.090861  1
  O  O9  1  0.840862  0.181723  0.090862  1
  O  O10  1  0.840862  0.750000  0.090862  1
  O  O11  1  0.590862  0.250001  0.340862  1
  O  O12  1  0.590862  0.681722  0.340862  1
  O  O13  1  0.159139  0.250001  0.340862  1
  O  O14  1  0.124999  0.750000  0.375000  1
  O  O15  1  0.875000  0.250001  0.625000  1
  O  O16  1  0.840862  0.750000  0.659138  1
  O  O17  1  0.409138  0.318279  0.659139  1
  O  O18  1  0.409138  0.750000  0.659139  1
  O  O19  1  0.590861  0.250001  0.909139  1
  O  O20  1  0.159139  0.818278  0.909139  1
  O  O21  1  0.159139  0.250001  0.909139  1
