# generated using pymatgen
data_Yb4SmPa3(Pt2Pb)4
_symmetry_space_group_name_H-M   'P 1'
_cell_length_a   7.92650918
_cell_length_b   7.92650938
_cell_length_c   7.24357400
_cell_angle_alpha   90.00000000
_cell_angle_beta   90.00000000
_cell_angle_gamma   91.09210391
_symmetry_Int_Tables_number   1
_chemical_formula_structural   Yb4SmPa3(Pt2Pb)4
_chemical_formula_sum   'Yb4 Sm1 Pa3 Pt8 Pb4'
_cell_volume   455.02781875
_cell_formula_units_Z   1
loop_
 _symmetry_equiv_pos_site_id
 _symmetry_equiv_pos_as_xyz
  1  'x, y, z'
loop_
 _atom_site_type_symbol
 _atom_site_label
 _atom_site_symmetry_multiplicity
 _atom_site_fract_x
 _atom_site_fract_y
 _atom_site_fract_z
 _atom_site_occupancy
  Yb  Yb0  1  0.343298  0.345371  0.500000  1
  Yb  Yb1  1  0.654629  0.656702  0.500000  1
  Yb  Yb2  1  0.841805  0.158195  0.000000  1
  Yb  Yb3  1  0.156521  0.843479  0.000000  1
  Sm  Sm4  1  0.176626  0.823374  0.500000  1
  Pa  Pa5  1  0.678327  0.675528  0.000000  1
  Pa  Pa6  1  0.826731  0.173269  0.500000  1
  Pa  Pa7  1  0.324472  0.321673  0.000000  1
  Pt  Pt8  1  0.861424  0.873308  0.735170  1
  Pt  Pt9  1  0.126692  0.138576  0.735170  1
  Pt  Pt10  1  0.634602  0.365398  0.767090  1
  Pt  Pt11  1  0.634602  0.365398  0.232910  1
  Pt  Pt12  1  0.378667  0.621333  0.215256  1
  Pt  Pt13  1  0.126692  0.138576  0.264830  1
  Pt  Pt14  1  0.861424  0.873308  0.264830  1
  Pt  Pt15  1  0.378667  0.621333  0.784744  1
  Pb  Pb16  1  0.496644  0.999232  0.747871  1
  Pb  Pb17  1  0.496644  0.999232  0.252129  1
  Pb  Pb18  1  0.000768  0.503356  0.747871  1
  Pb  Pb19  1  0.000768  0.503356  0.252129  1
