# generated using pymatgen
data_Pr4Nd8Co(PtBr4)3
_symmetry_space_group_name_H-M   'P 1'
_cell_length_a   10.48687259
_cell_length_b   10.48687341
_cell_length_c   10.48549106
_cell_angle_alpha   109.30059412
_cell_angle_beta   109.30060145
_cell_angle_gamma   109.18793247
_symmetry_Int_Tables_number   1
_chemical_formula_structural   Pr4Nd8Co(PtBr4)3
_chemical_formula_sum   'Pr4 Nd8 Co1 Pt3 Br12'
_cell_volume   894.46065376
_cell_formula_units_Z   1
loop_
 _symmetry_equiv_pos_site_id
 _symmetry_equiv_pos_as_xyz
  1  'x, y, z'
loop_
 _atom_site_type_symbol
 _atom_site_label
 _atom_site_symmetry_multiplicity
 _atom_site_fract_x
 _atom_site_fract_y
 _atom_site_fract_z
 _atom_site_occupancy
  Pr  Pr0  1  0.477006  0.239232  0.467081  1
  Pr  Pr1  1  0.013880  0.486120  0.750000  1
  Pr  Pr2  1  0.260768  0.022994  0.032919  1
  Pr  Pr3  1  0.236852  0.263148  0.750000  1
  Nd  Nd4  1  0.466172  0.477134  0.238852  1
  Nd  Nd5  1  0.750329  0.236226  0.263562  1
  Nd  Nd6  1  0.749669  0.014022  0.485172  1
  Nd  Nd7  1  0.238713  0.465900  0.475849  1
  Nd  Nd8  1  0.263774  0.749671  0.236438  1
  Nd  Nd9  1  0.034100  0.261287  0.024151  1
  Nd  Nd10  1  0.022866  0.033828  0.261148  1
  Nd  Nd11  1  0.485978  0.750331  0.014828  1
  Co  Co12  1  0.249558  0.250442  0.250000  1
  Pt  Pt13  1  0.499958  0.000042  0.250000  1
  Pt  Pt14  1  0.000099  0.249467  0.498287  1
  Pt  Pt15  1  0.250533  0.499901  0.001713  1
  Br  Br16  1  0.250956  0.753215  0.746432  1
  Br  Br17  1  0.509673  0.506168  0.754922  1
  Br  Br18  1  0.990353  0.745919  0.996558  1
  Br  Br19  1  0.746785  0.249044  0.753568  1
  Br  Br20  1  0.993832  0.990327  0.745078  1
  Br  Br21  1  0.249068  0.993380  0.503890  1
  Br  Br22  1  0.754081  0.509647  0.503442  1
  Br  Br23  1  0.506620  0.250932  0.996110  1
  Br  Br24  1  0.753008  0.746992  0.250000  1
  Br  Br25  1  0.745849  0.995571  0.991062  1
  Br  Br26  1  0.995089  0.504911  0.250000  1
  Br  Br27  1  0.504429  0.754151  0.508938  1
