# generated using pymatgen
data_Y2Ho2Ga3SiRu4
_symmetry_space_group_name_H-M   'P 1'
_cell_length_a   4.45455900
_cell_length_b   7.13272568
_cell_length_c   7.15620439
_cell_angle_alpha   90.25722098
_cell_angle_beta   90.00000000
_cell_angle_gamma   90.00000000
_symmetry_Int_Tables_number   1
_chemical_formula_structural   Y2Ho2Ga3SiRu4
_chemical_formula_sum   'Y2 Ho2 Ga3 Si1 Ru4'
_cell_volume   227.37284547
_cell_formula_units_Z   1
loop_
 _symmetry_equiv_pos_site_id
 _symmetry_equiv_pos_as_xyz
  1  'x, y, z'
loop_
 _atom_site_type_symbol
 _atom_site_label
 _atom_site_symmetry_multiplicity
 _atom_site_fract_x
 _atom_site_fract_y
 _atom_site_fract_z
 _atom_site_occupancy
  Y  Y0  1  0.750000  0.015450  0.194612  1
  Y  Y1  1  0.750000  0.514266  0.307236  1
  Ho  Ho2  1  0.250000  0.984845  0.806127  1
  Ho  Ho3  1  0.250000  0.476867  0.695551  1
  Ga  Ga4  1  0.250000  0.302288  0.106596  1
  Ga  Ga5  1  0.750000  0.694655  0.892018  1
  Ga  Ga6  1  0.250000  0.801017  0.397219  1
  Si  Si7  1  0.750000  0.196474  0.602137  1
  Ru  Ru8  1  0.750000  0.857696  0.567469  1
  Ru  Ru9  1  0.250000  0.163537  0.447824  1
  Ru  Ru10  1  0.750000  0.332193  0.919623  1
  Ru  Ru11  1  0.250000  0.660712  0.063586  1
