# generated using pymatgen
data_Sc4H9
_symmetry_space_group_name_H-M   'P 1'
_cell_length_a   5.84856223
_cell_length_b   5.84856277
_cell_length_c   5.84856229
_cell_angle_alpha   131.88363536
_cell_angle_beta   131.88363997
_cell_angle_gamma   70.41287582
_symmetry_Int_Tables_number   1
_chemical_formula_structural   Sc4H9
_chemical_formula_sum   'Sc4 H9'
_cell_volume   108.66181490
_cell_formula_units_Z   1
loop_
 _symmetry_equiv_pos_site_id
 _symmetry_equiv_pos_as_xyz
  1  'x, y, z'
loop_
 _atom_site_type_symbol
 _atom_site_label
 _atom_site_symmetry_multiplicity
 _atom_site_fract_x
 _atom_site_fract_y
 _atom_site_fract_z
 _atom_site_occupancy
  Sc  Sc0  1  0.500000  0.000000  0.500000  1
  Sc  Sc1  1  0.000000  0.500000  0.500000  1
  Sc  Sc2  1  0.746282  0.746282  0.000000  1
  Sc  Sc3  1  0.253718  0.253718  0.000000  1
  H  H4  1  0.885264  0.370030  0.000000  1
  H  H5  1  0.370030  0.885264  0.000000  1
  H  H6  1  0.629970  0.114736  0.000000  1
  H  H7  1  0.114736  0.114736  0.484766  1
  H  H8  1  0.370030  0.370030  0.484766  1
  H  H9  1  0.500000  0.500000  0.000000  1
  H  H10  1  0.114736  0.629970  0.000000  1
  H  H11  1  0.629970  0.629970  0.515234  1
  H  H12  1  0.885264  0.885264  0.515234  1
