# generated using pymatgen
data_ErTm2TeP2
_symmetry_space_group_name_H-M   'P 1'
_cell_length_a   4.02529000
_cell_length_b   10.08415074
_cell_length_c   6.94378900
_cell_angle_alpha   89.91258032
_cell_angle_beta   90.00000000
_cell_angle_gamma   90.00000000
_symmetry_Int_Tables_number   1
_chemical_formula_structural   ErTm2TeP2
_chemical_formula_sum   'Er2 Tm4 Te2 P4'
_cell_volume   281.85939361
_cell_formula_units_Z   2
loop_
 _symmetry_equiv_pos_site_id
 _symmetry_equiv_pos_as_xyz
  1  'x, y, z'
loop_
 _atom_site_type_symbol
 _atom_site_label
 _atom_site_symmetry_multiplicity
 _atom_site_fract_x
 _atom_site_fract_y
 _atom_site_fract_z
 _atom_site_occupancy
  Er  Er0  1  0.250000  0.500284  0.248793  1
  Er  Er1  1  0.750000  0.499768  0.751209  1
  Tm  Tm2  1  0.250000  0.798439  0.915800  1
  Tm  Tm3  1  0.750000  0.201554  0.084188  1
  Tm  Tm4  1  0.750000  0.797471  0.417789  1
  Tm  Tm5  1  0.250000  0.202517  0.582219  1
  Te  Te6  1  0.750000  0.000659  0.749612  1
  Te  Te7  1  0.250000  0.999320  0.250392  1
  P  P8  1  0.250000  0.656997  0.583857  1
  P  P9  1  0.750000  0.342987  0.416139  1
  P  P10  1  0.750000  0.658489  0.083450  1
  P  P11  1  0.250000  0.341514  0.916551  1
