# generated using pymatgen
data_TmLuPdPtO7
_symmetry_space_group_name_H-M   'P 1'
_cell_length_a   7.17757984
_cell_length_b   7.16420628
_cell_length_c   7.17758014
_cell_angle_alpha   60.06161389
_cell_angle_beta   60.08439323
_cell_angle_gamma   60.06161633
_symmetry_Int_Tables_number   1
_chemical_formula_structural   TmLuPdPtO7
_chemical_formula_sum   'Tm2 Lu2 Pd2 Pt2 O14'
_cell_volume   261.39046841
_cell_formula_units_Z   2
loop_
 _symmetry_equiv_pos_site_id
 _symmetry_equiv_pos_as_xyz
  1  'x, y, z'
loop_
 _atom_site_type_symbol
 _atom_site_label
 _atom_site_symmetry_multiplicity
 _atom_site_fract_x
 _atom_site_fract_y
 _atom_site_fract_z
 _atom_site_occupancy
  Tm  Tm0  1  0.625000  0.625000  0.625000  1
  Tm  Tm1  1  0.625000  0.125000  0.625000  1
  Lu  Lu2  1  0.625000  0.625000  0.125000  1
  Lu  Lu3  1  0.125000  0.625000  0.625000  1
  Pd  Pd4  1  0.625000  0.125000  0.125000  1
  Pd  Pd5  1  0.125000  0.125000  0.625000  1
  Pt  Pt6  1  0.125000  0.125000  0.125000  1
  Pt  Pt7  1  0.125000  0.625000  0.125000  1
  O  O8  1  0.032812  0.469701  0.467248  1
  O  O9  1  0.782752  0.780299  0.217188  1
  O  O10  1  0.782752  0.219760  0.217188  1
  O  O11  1  0.467882  0.032118  0.467882  1
  O  O12  1  0.752109  0.747891  0.752109  1
  O  O13  1  0.030661  0.469339  0.030661  1
  O  O14  1  0.032812  0.030240  0.467248  1
  O  O15  1  0.219339  0.780661  0.219339  1
  O  O16  1  0.217188  0.219760  0.782752  1
  O  O17  1  0.782118  0.217882  0.782118  1
  O  O18  1  0.497891  0.502109  0.497891  1
  O  O19  1  0.467248  0.030240  0.032812  1
  O  O20  1  0.467248  0.469701  0.032812  1
  O  O21  1  0.217188  0.780299  0.782752  1
