# generated using pymatgen
data_Ho3Al12Ru3Pt
_symmetry_space_group_name_H-M   'P 1'
_cell_length_a   8.82918130
_cell_length_b   8.80503476
_cell_length_c   9.54724448
_cell_angle_alpha   90.00000019
_cell_angle_beta   90.14733481
_cell_angle_gamma   119.90957288
_symmetry_Int_Tables_number   1
_chemical_formula_structural   Ho3Al12Ru3Pt
_chemical_formula_sum   'Ho6 Al24 Ru6 Pt2'
_cell_volume   643.35885678
_cell_formula_units_Z   2
loop_
 _symmetry_equiv_pos_site_id
 _symmetry_equiv_pos_as_xyz
  1  'x, y, z'
loop_
 _atom_site_type_symbol
 _atom_site_label
 _atom_site_symmetry_multiplicity
 _atom_site_fract_x
 _atom_site_fract_y
 _atom_site_fract_z
 _atom_site_occupancy
  Ho  Ho0  1  0.192190  0.387494  0.251029  1
  Ho  Ho1  1  0.807810  0.612506  0.748971  1
  Ho  Ho2  1  0.614635  0.807318  0.250364  1
  Ho  Ho3  1  0.385365  0.192682  0.749636  1
  Ho  Ho4  1  0.192190  0.804697  0.251029  1
  Ho  Ho5  1  0.807810  0.195303  0.748971  1
  Al  Al6  1  0.328061  0.664031  0.027525  1
  Al  Al7  1  0.671939  0.335969  0.972475  1
  Al  Al8  1  0.666237  0.333118  0.521488  1
  Al  Al9  1  0.333763  0.666882  0.478512  1
  Al  Al10  1  0.163516  0.325853  0.577852  1
  Al  Al11  1  0.836484  0.674147  0.422148  1
  Al  Al12  1  0.675245  0.837623  0.578203  1
  Al  Al13  1  0.841821  0.675286  0.077959  1
  Al  Al14  1  0.324755  0.162377  0.421797  1
  Al  Al15  1  0.158179  0.324714  0.922041  1
  Al  Al16  1  0.163516  0.837663  0.577852  1
  Al  Al17  1  0.322486  0.161242  0.079085  1
  Al  Al18  1  0.836484  0.162337  0.422148  1
  Al  Al19  1  0.677514  0.838758  0.920915  1
  Al  Al20  1  0.841821  0.166534  0.077959  1
  Al  Al21  1  0.158179  0.833466  0.922041  1
  Al  Al22  1  0.562213  0.124906  0.251833  1
  Al  Al23  1  0.437787  0.875094  0.748167  1
  Al  Al24  1  0.876902  0.438451  0.248141  1
  Al  Al25  1  0.123098  0.561549  0.751859  1
  Al  Al26  1  0.562213  0.437307  0.251833  1
  Al  Al27  1  0.437787  0.562693  0.748167  1
  Al  Al28  1  0.999173  0.999586  0.250001  1
  Al  Al29  1  0.000827  0.000414  0.749999  1
  Ru  Ru30  1  0.000000  0.500000  0.000000  1
  Ru  Ru31  1  0.500000  0.000000  0.500000  1
  Ru  Ru32  1  0.000000  0.500000  0.500000  1
  Ru  Ru33  1  0.500000  0.500000  0.500000  1
  Ru  Ru34  1  0.000000  0.000000  0.000000  1
  Ru  Ru35  1  0.000000  0.000000  0.500000  1
  Pt  Pt36  1  0.500000  0.000000  0.000000  1
  Pt  Pt37  1  0.500000  0.500000  0.000000  1
