# generated using pymatgen
data_HoHf(SnRh)2
_symmetry_space_group_name_H-M   'P 1'
_cell_length_a   7.46741500
_cell_length_b   7.46741517
_cell_length_c   7.50723700
_cell_angle_alpha   90.00000000
_cell_angle_beta   90.00000000
_cell_angle_gamma   120.00000367
_symmetry_Int_Tables_number   1
_chemical_formula_structural   HoHf(SnRh)2
_chemical_formula_sum   'Ho3 Hf3 Sn6 Rh6'
_cell_volume   362.53615787
_cell_formula_units_Z   3
loop_
 _symmetry_equiv_pos_site_id
 _symmetry_equiv_pos_as_xyz
  1  'x, y, z'
loop_
 _atom_site_type_symbol
 _atom_site_label
 _atom_site_symmetry_multiplicity
 _atom_site_fract_x
 _atom_site_fract_y
 _atom_site_fract_z
 _atom_site_occupancy
  Ho  Ho0  1  0.999734  0.405793  0.750000  1
  Ho  Ho1  1  0.594207  0.593941  0.750000  1
  Ho  Ho2  1  0.406059  0.000266  0.750000  1
  Hf  Hf3  1  0.997548  0.392336  0.250000  1
  Hf  Hf4  1  0.607664  0.605212  0.250000  1
  Hf  Hf5  1  0.394788  0.002452  0.250000  1
  Sn  Sn6  1  0.265836  0.267764  0.493948  1
  Sn  Sn7  1  0.001928  0.734164  0.493948  1
  Sn  Sn8  1  0.001928  0.734164  0.006052  1
  Sn  Sn9  1  0.732236  0.998072  0.493948  1
  Sn  Sn10  1  0.732236  0.998072  0.006052  1
  Sn  Sn11  1  0.265836  0.267764  0.006052  1
  Rh  Rh12  1  0.333333  0.666667  0.459464  1
  Rh  Rh13  1  0.666667  0.333333  0.463526  1
  Rh  Rh14  1  0.333333  0.666667  0.040536  1
  Rh  Rh15  1  0.000000  0.000000  0.750000  1
  Rh  Rh16  1  0.000000  0.000000  0.250000  1
  Rh  Rh17  1  0.666667  0.333333  0.036474  1
