# generated using pymatgen
data_Y4Er6IrRu3
_symmetry_space_group_name_H-M   'P 1'
_cell_length_a   6.35904850
_cell_length_b   7.32087760
_cell_length_c   8.47047000
_cell_angle_alpha   96.86892373
_cell_angle_beta   112.13464002
_cell_angle_gamma   90.00769278
_symmetry_Int_Tables_number   1
_chemical_formula_structural   Y4Er6IrRu3
_chemical_formula_sum   'Y4 Er6 Ir1 Ru3'
_cell_volume   362.21077137
_cell_formula_units_Z   1
loop_
 _symmetry_equiv_pos_site_id
 _symmetry_equiv_pos_as_xyz
  1  'x, y, z'
loop_
 _atom_site_type_symbol
 _atom_site_label
 _atom_site_symmetry_multiplicity
 _atom_site_fract_x
 _atom_site_fract_y
 _atom_site_fract_z
 _atom_site_occupancy
  Y  Y0  1  0.978267  0.918497  0.186355  1
  Y  Y1  1  0.790603  0.584099  0.812205  1
  Y  Y2  1  0.022230  0.083675  0.813069  1
  Y  Y3  1  0.210441  0.415322  0.186263  1
  Er  Er4  1  0.640102  0.816510  0.435193  1
  Er  Er5  1  0.206517  0.684184  0.565951  1
  Er  Er6  1  0.359133  0.184470  0.565430  1
  Er  Er7  1  0.793584  0.314351  0.435682  1
  Er  Er8  1  0.421784  0.750151  0.000255  1
  Er  Er9  1  0.577518  0.248800  0.998907  1
  Ir  Ir10  1  0.819411  0.575727  0.223193  1
  Ru  Ru11  1  0.600539  0.923611  0.778545  1
  Ru  Ru12  1  0.178215  0.425421  0.777628  1
  Ru  Ru13  1  0.401657  0.075182  0.221324  1
