# generated using pymatgen
data_Pr2Er3InIr18
_symmetry_space_group_name_H-M   'P 1'
_cell_length_a   9.01724170
_cell_length_b   9.01724170
_cell_length_c   5.21428200
_cell_angle_alpha   90.00000000
_cell_angle_beta   90.00000000
_cell_angle_gamma   89.64736376
_symmetry_Int_Tables_number   1
_chemical_formula_structural   Pr2Er3InIr18
_chemical_formula_sum   'Pr2 Er3 In1 Ir18'
_cell_volume   423.96861723
_cell_formula_units_Z   1
loop_
 _symmetry_equiv_pos_site_id
 _symmetry_equiv_pos_as_xyz
  1  'x, y, z'
loop_
 _atom_site_type_symbol
 _atom_site_label
 _atom_site_symmetry_multiplicity
 _atom_site_fract_x
 _atom_site_fract_y
 _atom_site_fract_z
 _atom_site_occupancy
  Pr  Pr0  1  0.500365  0.504117  0.000000  1
  Pr  Pr1  1  0.995883  0.999635  0.000000  1
  Er  Er2  1  0.121043  0.621085  0.000000  1
  Er  Er3  1  0.878915  0.378957  0.000000  1
  Er  Er4  1  0.381687  0.118313  0.000000  1
  In  In5  1  0.621984  0.878016  0.000000  1
  Ir  Ir6  1  0.998323  0.501677  0.500000  1
  Ir  Ir7  1  0.500951  0.999049  0.500000  1
  Ir  Ir8  1  0.555093  0.702452  0.500000  1
  Ir  Ir9  1  0.443645  0.295190  0.500000  1
  Ir  Ir10  1  0.944140  0.205296  0.500000  1
  Ir  Ir11  1  0.057709  0.795431  0.500000  1
  Ir  Ir12  1  0.704569  0.442291  0.500000  1
  Ir  Ir13  1  0.294704  0.555860  0.500000  1
  Ir  Ir14  1  0.204810  0.056355  0.500000  1
  Ir  Ir15  1  0.797548  0.944907  0.500000  1
  Ir  Ir16  1  0.320859  0.819613  0.755714  1
  Ir  Ir17  1  0.680387  0.179141  0.755714  1
  Ir  Ir18  1  0.180117  0.319883  0.753237  1
  Ir  Ir19  1  0.817953  0.682047  0.755313  1
  Ir  Ir20  1  0.680387  0.179141  0.244286  1
  Ir  Ir21  1  0.320859  0.819613  0.244286  1
  Ir  Ir22  1  0.817953  0.682047  0.244687  1
  Ir  Ir23  1  0.180117  0.319883  0.246763  1
