# generated using pymatgen
data_La4CuNi3I2
_symmetry_space_group_name_H-M   'P 1'
_cell_length_a   4.16182200
_cell_length_b   4.16182150
_cell_length_c   17.62139200
_cell_angle_alpha   90.00000000
_cell_angle_beta   90.00000000
_cell_angle_gamma   120.00000398
_symmetry_Int_Tables_number   1
_chemical_formula_structural   La4CuNi3I2
_chemical_formula_sum   'La4 Cu1 Ni3 I2'
_cell_volume   264.32471813
_cell_formula_units_Z   1
loop_
 _symmetry_equiv_pos_site_id
 _symmetry_equiv_pos_as_xyz
  1  'x, y, z'
loop_
 _atom_site_type_symbol
 _atom_site_label
 _atom_site_symmetry_multiplicity
 _atom_site_fract_x
 _atom_site_fract_y
 _atom_site_fract_z
 _atom_site_occupancy
  La  La0  1  0.000000  0.000000  0.105595  1
  La  La1  1  0.000000  0.000000  0.893540  1
  La  La2  1  0.000000  0.000000  0.604524  1
  La  La3  1  0.000000  0.000000  0.395624  1
  Cu  Cu4  1  0.333333  0.666667  0.999310  1
  Ni  Ni5  1  0.333333  0.666667  0.500987  1
  Ni  Ni6  1  0.666667  0.333333  0.498933  1
  Ni  Ni7  1  0.666667  0.333333  0.001262  1
  I  I8  1  0.333333  0.666667  0.250482  1
  I  I9  1  0.666667  0.333333  0.749743  1
