# generated using pymatgen
data_Tb3Sm(CuP2)4
_symmetry_space_group_name_H-M   'P 1'
_cell_length_a   3.71516400
_cell_length_b   3.78432884
_cell_length_c   19.57149600
_cell_angle_alpha   90.14331799
_cell_angle_beta   90.00000000
_cell_angle_gamma   90.00000000
_symmetry_Int_Tables_number   1
_chemical_formula_structural   Tb3Sm(CuP2)4
_chemical_formula_sum   'Tb3 Sm1 Cu4 P8'
_cell_volume   275.16267440
_cell_formula_units_Z   1
loop_
 _symmetry_equiv_pos_site_id
 _symmetry_equiv_pos_as_xyz
  1  'x, y, z'
loop_
 _atom_site_type_symbol
 _atom_site_label
 _atom_site_symmetry_multiplicity
 _atom_site_fract_x
 _atom_site_fract_y
 _atom_site_fract_z
 _atom_site_occupancy
  Tb  Tb0  1  0.250000  0.716765  0.383640  1
  Tb  Tb1  1  0.250000  0.784322  0.880430  1
  Tb  Tb2  1  0.750000  0.283153  0.617327  1
  Sm  Sm3  1  0.750000  0.216393  0.117517  1
  Cu  Cu4  1  0.250000  0.216531  0.251742  1
  Cu  Cu5  1  0.750000  0.782733  0.749413  1
  Cu  Cu6  1  0.250000  0.282998  0.748822  1
  Cu  Cu7  1  0.750000  0.716237  0.252280  1
  P  P8  1  0.750000  0.805696  0.502183  1
  P  P9  1  0.750000  0.690674  0.999640  1
  P  P10  1  0.250000  0.194917  0.498590  1
  P  P11  1  0.250000  0.310023  0.995385  1
  P  P12  1  0.250000  0.716346  0.175533  1
  P  P13  1  0.750000  0.217220  0.329045  1
  P  P14  1  0.750000  0.283473  0.826348  1
  P  P15  1  0.250000  0.782519  0.672107  1
