# generated using pymatgen
data_La4Pr2Sn7Hg3
_symmetry_space_group_name_H-M   'P 1'
_cell_length_a   6.70078360
_cell_length_b   6.70078247
_cell_length_c   10.55234775
_cell_angle_alpha   90.42614752
_cell_angle_beta   90.42614907
_cell_angle_gamma   102.85012104
_symmetry_Int_Tables_number   1
_chemical_formula_structural   La4Pr2Sn7Hg3
_chemical_formula_sum   'La4 Pr2 Sn7 Hg3'
_cell_volume   461.90637708
_cell_formula_units_Z   1
loop_
 _symmetry_equiv_pos_site_id
 _symmetry_equiv_pos_as_xyz
  1  'x, y, z'
loop_
 _atom_site_type_symbol
 _atom_site_label
 _atom_site_symmetry_multiplicity
 _atom_site_fract_x
 _atom_site_fract_y
 _atom_site_fract_z
 _atom_site_occupancy
  La  La0  1  0.205878  0.797625  0.499559  1
  La  La1  1  0.205867  0.792501  0.000412  1
  La  La2  1  0.797625  0.205878  0.499559  1
  La  La3  1  0.792501  0.205867  0.000412  1
  Pr  Pr4  1  0.629338  0.629338  0.251921  1
  Pr  Pr5  1  0.370443  0.370443  0.745752  1
  Sn  Sn6  1  0.019068  0.019068  0.246078  1
  Sn  Sn7  1  0.980804  0.980804  0.752339  1
  Sn  Sn8  1  0.691577  0.691577  0.548921  1
  Sn  Sn9  1  0.490943  0.072410  0.248336  1
  Sn  Sn10  1  0.929498  0.509847  0.752002  1
  Sn  Sn11  1  0.509847  0.929498  0.752002  1
  Sn  Sn12  1  0.072410  0.490943  0.248336  1
  Hg  Hg13  1  0.308813  0.308813  0.041504  1
  Hg  Hg14  1  0.689571  0.689571  0.958934  1
  Hg  Hg15  1  0.305816  0.305816  0.453932  1
