# generated using pymatgen
data_Dy5Si10P2Ir11Rh8
_symmetry_space_group_name_H-M   'P 1'
_cell_length_a   12.85540412
_cell_length_b   12.82546819
_cell_length_c   3.95576800
_cell_angle_alpha   90.00000000
_cell_angle_beta   90.00000000
_cell_angle_gamma   120.01166191
_symmetry_Int_Tables_number   1
_chemical_formula_structural   Dy5Si10P2Ir11Rh8
_chemical_formula_sum   'Dy5 Si10 P2 Ir11 Rh8'
_cell_volume   564.76706024
_cell_formula_units_Z   1
loop_
 _symmetry_equiv_pos_site_id
 _symmetry_equiv_pos_as_xyz
  1  'x, y, z'
loop_
 _atom_site_type_symbol
 _atom_site_label
 _atom_site_symmetry_multiplicity
 _atom_site_fract_x
 _atom_site_fract_y
 _atom_site_fract_z
 _atom_site_occupancy
  Dy  Dy0  1  0.333270  0.666575  0.500000  1
  Dy  Dy1  1  0.666461  0.333247  0.500000  1
  Dy  Dy2  1  0.000145  0.813708  0.000000  1
  Dy  Dy3  1  0.184622  0.185640  0.000000  1
  Dy  Dy4  1  0.814787  0.001012  0.000000  1
  Si  Si5  1  0.999936  0.629461  0.500000  1
  Si  Si6  1  0.370463  0.370650  0.500000  1
  Si  Si7  1  0.629770  0.999974  0.500000  1
  Si  Si8  1  0.520090  0.686385  0.000000  1
  Si  Si9  1  0.314256  0.833665  0.000000  1
  Si  Si10  1  0.167164  0.480161  0.000000  1
  Si  Si11  1  0.479559  0.166092  0.000000  1
  Si  Si12  1  0.686013  0.519696  0.000000  1
  Si  Si13  1  0.832408  0.312992  0.000000  1
  Si  Si14  1  0.999580  0.179179  0.500000  1
  P  P15  1  0.818972  0.819357  0.500000  1
  P  P16  1  0.181006  0.999957  0.500000  1
  Ir  Ir17  1  0.513962  0.872619  0.000000  1
  Ir  Ir18  1  0.127058  0.641261  0.000000  1
  Ir  Ir19  1  0.360216  0.486529  0.000000  1
  Ir  Ir20  1  0.486026  0.358775  0.000000  1
  Ir  Ir21  1  0.872754  0.513851  0.000000  1
  Ir  Ir22  1  0.639010  0.126455  0.000000  1
  Ir  Ir23  1  0.000271  0.280652  0.000000  1
  Ir  Ir24  1  0.722637  0.722731  0.000000  1
  Ir  Ir25  1  0.277555  0.999882  0.000000  1
  Ir  Ir26  1  0.817727  0.193136  0.500000  1
  Ir  Ir27  1  0.000263  0.995920  0.500000  1
  Rh  Rh28  1  0.000693  0.446597  0.500000  1
  Rh  Rh29  1  0.555356  0.553948  0.500000  1
  Rh  Rh30  1  0.445375  0.999402  0.500000  1
  Rh  Rh31  1  0.627453  0.807588  0.500000  1
  Rh  Rh32  1  0.192482  0.819716  0.500000  1
  Rh  Rh33  1  0.182599  0.375205  0.500000  1
  Rh  Rh34  1  0.372282  0.180360  0.500000  1
  Rh  Rh35  1  0.807779  0.627623  0.500000  1
