# generated using pymatgen
data_MgCoNi4P3
_symmetry_space_group_name_H-M   'P 1'
_cell_length_a   3.60463100
_cell_length_b   10.30185600
_cell_length_c   11.69680400
_cell_angle_alpha   90.00000000
_cell_angle_beta   90.00000000
_cell_angle_gamma   90.00000000
_symmetry_Int_Tables_number   1
_chemical_formula_structural   MgCoNi4P3
_chemical_formula_sum   'Mg4 Co4 Ni16 P12'
_cell_volume   434.35367558
_cell_formula_units_Z   4
loop_
 _symmetry_equiv_pos_site_id
 _symmetry_equiv_pos_as_xyz
  1  'x, y, z'
loop_
 _atom_site_type_symbol
 _atom_site_label
 _atom_site_symmetry_multiplicity
 _atom_site_fract_x
 _atom_site_fract_y
 _atom_site_fract_z
 _atom_site_occupancy
  Mg  Mg0  1  0.250000  0.578981  0.704102  1
  Mg  Mg1  1  0.250000  0.921019  0.204102  1
  Mg  Mg2  1  0.750000  0.421019  0.295898  1
  Mg  Mg3  1  0.750000  0.078981  0.795898  1
  Co  Co4  1  0.250000  0.467192  0.929107  1
  Co  Co5  1  0.250000  0.032808  0.429107  1
  Co  Co6  1  0.750000  0.532808  0.070893  1
  Co  Co7  1  0.750000  0.967192  0.570893  1
  Ni  Ni8  1  0.250000  0.713263  0.996104  1
  Ni  Ni9  1  0.250000  0.786737  0.496104  1
  Ni  Ni10  1  0.750000  0.286737  0.003896  1
  Ni  Ni11  1  0.750000  0.213263  0.503896  1
  Ni  Ni12  1  0.250000  0.406277  0.480226  1
  Ni  Ni13  1  0.250000  0.093723  0.980226  1
  Ni  Ni14  1  0.750000  0.593723  0.519774  1
  Ni  Ni15  1  0.750000  0.906277  0.019774  1
  Ni  Ni16  1  0.250000  0.222543  0.173972  1
  Ni  Ni17  1  0.250000  0.277457  0.673972  1
  Ni  Ni18  1  0.750000  0.777457  0.826028  1
  Ni  Ni19  1  0.750000  0.722543  0.326028  1
  Ni  Ni20  1  0.250000  0.884445  0.704138  1
  Ni  Ni21  1  0.250000  0.615555  0.204138  1
  Ni  Ni22  1  0.750000  0.115555  0.295862  1
  Ni  Ni23  1  0.750000  0.384445  0.795862  1
  P  P24  1  0.250000  0.420249  0.113211  1
  P  P25  1  0.250000  0.079751  0.613211  1
  P  P26  1  0.750000  0.579751  0.886789  1
  P  P27  1  0.750000  0.920249  0.386789  1
  P  P28  1  0.250000  0.265581  0.865516  1
  P  P29  1  0.250000  0.234419  0.365516  1
  P  P30  1  0.750000  0.734419  0.134484  1
  P  P31  1  0.750000  0.765581  0.634484  1
  P  P32  1  0.250000  0.599337  0.393630  1
  P  P33  1  0.250000  0.900663  0.893630  1
  P  P34  1  0.750000  0.400663  0.606370  1
  P  P35  1  0.750000  0.099337  0.106370  1
