# generated using pymatgen
data_Ba3UTlSe6
_symmetry_space_group_name_H-M   'P 1'
_cell_length_a   9.01904148
_cell_length_b   9.01904103
_cell_length_c   9.01904100
_cell_angle_alpha   89.14998894
_cell_angle_beta   89.14999534
_cell_angle_gamma   89.15000577
_symmetry_Int_Tables_number   1
_chemical_formula_structural   Ba3UTlSe6
_chemical_formula_sum   'Ba6 U2 Tl2 Se12'
_cell_volume   733.39697705
_cell_formula_units_Z   2
loop_
 _symmetry_equiv_pos_site_id
 _symmetry_equiv_pos_as_xyz
  1  'x, y, z'
loop_
 _atom_site_type_symbol
 _atom_site_label
 _atom_site_symmetry_multiplicity
 _atom_site_fract_x
 _atom_site_fract_y
 _atom_site_fract_z
 _atom_site_occupancy
  Ba  Ba0  1  0.878806  0.621194  0.250000  1
  Ba  Ba1  1  0.250000  0.878806  0.621194  1
  Ba  Ba2  1  0.621194  0.250000  0.878806  1
  Ba  Ba3  1  0.750000  0.121194  0.378806  1
  Ba  Ba4  1  0.378806  0.750000  0.121194  1
  Ba  Ba5  1  0.121194  0.378806  0.750000  1
  U  U6  1  0.500000  0.500000  0.500000  1
  U  U7  1  0.000000  0.000000  0.000000  1
  Tl  Tl8  1  0.250000  0.250000  0.250000  1
  Tl  Tl9  1  0.750000  0.750000  0.750000  1
  Se  Se10  1  0.207837  0.563502  0.428244  1
  Se  Se11  1  0.428244  0.207837  0.563502  1
  Se  Se12  1  0.563502  0.428244  0.207837  1
  Se  Se13  1  0.928244  0.063502  0.707837  1
  Se  Se14  1  0.707837  0.928244  0.063502  1
  Se  Se15  1  0.063502  0.707837  0.928244  1
  Se  Se16  1  0.792163  0.436498  0.571756  1
  Se  Se17  1  0.571756  0.792163  0.436498  1
  Se  Se18  1  0.436498  0.571756  0.792163  1
  Se  Se19  1  0.071756  0.936498  0.292163  1
  Se  Se20  1  0.292163  0.071756  0.936498  1
  Se  Se21  1  0.936498  0.292163  0.071756  1
