# generated using pymatgen
data_Ho3Sc4Pa(ReB6)4
_symmetry_space_group_name_H-M   'P 1'
_cell_length_a   3.60233600
_cell_length_b   8.99760148
_cell_length_c   11.37242128
_cell_angle_alpha   90.06822976
_cell_angle_beta   90.00000000
_cell_angle_gamma   90.00000000
_symmetry_Int_Tables_number   1
_chemical_formula_structural   Ho3Sc4Pa(ReB6)4
_chemical_formula_sum   'Ho3 Sc4 Pa1 Re4 B24'
_cell_volume   368.60702119
_cell_formula_units_Z   1
loop_
 _symmetry_equiv_pos_site_id
 _symmetry_equiv_pos_as_xyz
  1  'x, y, z'
loop_
 _atom_site_type_symbol
 _atom_site_label
 _atom_site_symmetry_multiplicity
 _atom_site_fract_x
 _atom_site_fract_y
 _atom_site_fract_z
 _atom_site_occupancy
  Ho  Ho0  1  0.000000  0.681041  0.586572  1
  Ho  Ho1  1  0.000000  0.821395  0.085470  1
  Ho  Ho2  1  0.000000  0.177673  0.913409  1
  Sc  Sc3  1  0.000000  0.943466  0.372106  1
  Sc  Sc4  1  0.000000  0.054549  0.628861  1
  Sc  Sc5  1  0.000000  0.444291  0.127157  1
  Sc  Sc6  1  0.000000  0.556691  0.870929  1
  Pa  Pa7  1  0.000000  0.321591  0.414288  1
  Re  Re8  1  0.000000  0.637956  0.319312  1
  Re  Re9  1  0.000000  0.360093  0.679515  1
  Re  Re10  1  0.000000  0.142609  0.183048  1
  Re  Re11  1  0.000000  0.859524  0.818864  1
  B  B12  1  0.500000  0.553993  0.432010  1
  B  B13  1  0.500000  0.445244  0.567870  1
  B  B14  1  0.500000  0.054490  0.067240  1
  B  B15  1  0.500000  0.946048  0.933323  1
  B  B16  1  0.500000  0.753727  0.418107  1
  B  B17  1  0.500000  0.246179  0.582084  1
  B  B18  1  0.500000  0.253323  0.080657  1
  B  B19  1  0.500000  0.746340  0.918808  1
  B  B20  1  0.500000  0.794463  0.265016  1
  B  B21  1  0.500000  0.205566  0.735553  1
  B  B22  1  0.500000  0.293971  0.234530  1
  B  B23  1  0.500000  0.705628  0.765167  1
  B  B24  1  0.500000  0.629513  0.182390  1
  B  B25  1  0.500000  0.371384  0.817078  1
  B  B26  1  0.500000  0.129392  0.316731  1
  B  B27  1  0.500000  0.870778  0.683560  1
  B  B28  1  0.500000  0.981403  0.213436  1
  B  B29  1  0.500000  0.018727  0.786684  1
  B  B30  1  0.500000  0.481924  0.285705  1
  B  B31  1  0.500000  0.519064  0.714667  1
  B  B32  1  0.500000  0.596573  0.026020  1
  B  B33  1  0.500000  0.403384  0.973112  1
  B  B34  1  0.500000  0.097257  0.473540  1
  B  B35  1  0.500000  0.900751  0.527182  1
