# generated using pymatgen
data_Tb5Er13(ThSn8)2
_symmetry_space_group_name_H-M   'P 1'
_cell_length_a   8.03743940
_cell_length_b   8.15525449
_cell_length_c   15.39220504
_cell_angle_alpha   90.01118155
_cell_angle_beta   90.21678456
_cell_angle_gamma   89.96541518
_symmetry_Int_Tables_number   1
_chemical_formula_structural   Tb5Er13(ThSn8)2
_chemical_formula_sum   'Tb5 Er13 Th2 Sn16'
_cell_volume   1008.91103879
_cell_formula_units_Z   1
loop_
 _symmetry_equiv_pos_site_id
 _symmetry_equiv_pos_as_xyz
  1  'x, y, z'
loop_
 _atom_site_type_symbol
 _atom_site_label
 _atom_site_symmetry_multiplicity
 _atom_site_fract_x
 _atom_site_fract_y
 _atom_site_fract_z
 _atom_site_occupancy
  Tb  Tb0  1  0.979035  0.821023  0.097105  1
  Tb  Tb1  1  0.478514  0.679539  0.097791  1
  Tb  Tb2  1  0.978558  0.820873  0.402319  1
  Tb  Tb3  1  0.521281  0.320915  0.597510  1
  Tb  Tb4  1  0.021337  0.179958  0.902102  1
  Er  Er5  1  0.367448  0.836405  0.877422  1
  Er  Er6  1  0.866247  0.663581  0.622875  1
  Er  Er7  1  0.633584  0.163737  0.377195  1
  Er  Er8  1  0.132268  0.336342  0.122481  1
  Er  Er9  1  0.632531  0.164097  0.122148  1
  Er  Er10  1  0.133122  0.336031  0.376950  1
  Er  Er11  1  0.366932  0.836170  0.623234  1
  Er  Er12  1  0.867256  0.663761  0.877731  1
  Er  Er13  1  0.521512  0.321077  0.902645  1
  Er  Er14  1  0.197597  0.501861  0.750578  1
  Er  Er15  1  0.697007  0.996704  0.751047  1
  Er  Er16  1  0.802863  0.496651  0.249130  1
  Er  Er17  1  0.302667  0.002155  0.249579  1
  Th  Th18  1  0.019589  0.180305  0.597518  1
  Th  Th19  1  0.480463  0.680268  0.402774  1
  Sn  Sn20  1  0.293779  0.036895  0.041772  1
  Sn  Sn21  1  0.796024  0.461284  0.458851  1
  Sn  Sn22  1  0.704111  0.961364  0.541188  1
  Sn  Sn23  1  0.207627  0.535715  0.957820  1
  Sn  Sn24  1  0.706252  0.964518  0.957852  1
  Sn  Sn25  1  0.205583  0.536428  0.542411  1
  Sn  Sn26  1  0.294278  0.036212  0.457695  1
  Sn  Sn27  1  0.792353  0.463176  0.041442  1
  Sn  Sn28  1  0.564040  0.620713  0.750164  1
  Sn  Sn29  1  0.064075  0.877669  0.749486  1
  Sn  Sn30  1  0.435936  0.377743  0.250435  1
  Sn  Sn31  1  0.935851  0.121296  0.249888  1
  Sn  Sn32  1  0.331655  0.147723  0.750930  1
  Sn  Sn33  1  0.826881  0.355370  0.751524  1
  Sn  Sn34  1  0.672627  0.855321  0.248640  1
  Sn  Sn35  1  0.169114  0.647123  0.249771  1
