# generated using pymatgen
data_AcF18
_symmetry_space_group_name_H-M   'P 1'
_cell_length_a   6.78930310
_cell_length_b   10.16357948
_cell_length_c   10.81163491
_cell_angle_alpha   82.28895550
_cell_angle_beta   95.48364626
_cell_angle_gamma   71.33541370
_symmetry_Int_Tables_number   1
_chemical_formula_structural   AcF18
_chemical_formula_sum   'Ac2 F36'
_cell_volume   692.75126869
_cell_formula_units_Z   2
loop_
 _symmetry_equiv_pos_site_id
 _symmetry_equiv_pos_as_xyz
  1  'x, y, z'
loop_
 _atom_site_type_symbol
 _atom_site_label
 _atom_site_symmetry_multiplicity
 _atom_site_fract_x
 _atom_site_fract_y
 _atom_site_fract_z
 _atom_site_occupancy
  Ac  Ac0  1  0.837485  0.729252  0.761213  1
  Ac  Ac1  1  0.162515  0.270748  0.238787  1
  F  F2  1  0.320372  0.412623  0.890794  1
  F  F3  1  0.679628  0.587377  0.109206  1
  F  F4  1  0.253269  0.281515  0.505236  1
  F  F5  1  0.746731  0.718485  0.494764  1
  F  F6  1  0.887503  0.192892  0.813830  1
  F  F7  1  0.112497  0.807108  0.186170  1
  F  F8  1  0.742064  0.845025  0.988619  1
  F  F9  1  0.257936  0.154975  0.011381  1
  F  F10  1  0.789883  0.616926  0.945259  1
  F  F11  1  0.210117  0.383074  0.054741  1
  F  F12  1  0.409556  0.425936  0.769593  1
  F  F13  1  0.590444  0.574064  0.230407  1
  F  F14  1  0.831966  0.550926  0.658800  1
  F  F15  1  0.168034  0.449074  0.341200  1
  F  F16  1  0.765811  0.999406  0.558333  1
  F  F17  1  0.234189  0.000594  0.441667  1
  F  F18  1  0.305368  0.154062  0.604892  1
  F  F19  1  0.694632  0.845938  0.395108  1
  F  F20  1  0.812894  0.072213  0.659002  1
  F  F21  1  0.187106  0.927787  0.340998  1
  F  F22  1  0.730145  0.989773  0.992182  1
  F  F23  1  0.269855  0.010227  0.007818  1
  F  F24  1  0.870351  0.332501  0.749909  1
  F  F25  1  0.129649  0.667499  0.250091  1
  F  F26  1  0.133723  0.785917  0.882373  1
  F  F27  1  0.866277  0.214083  0.117627  1
  F  F28  1  0.480905  0.895870  0.719672  1
  F  F29  1  0.519095  0.104130  0.280328  1
  F  F30  1  0.122285  0.764876  0.586240  1
  F  F31  1  0.877715  0.235124  0.413760  1
  F  F32  1  0.241877  0.623071  0.664727  1
  F  F33  1  0.758123  0.376929  0.335273  1
  F  F34  1  0.303395  0.837592  0.804503  1
  F  F35  1  0.696605  0.162408  0.195497  1
  F  F36  1  0.539024  0.433418  0.540687  1
  F  F37  1  0.460976  0.566582  0.459313  1
