# generated using pymatgen
data_Lu8Ti12Si15Ir
_symmetry_space_group_name_H-M   'P 1'
_cell_length_a   7.00058200
_cell_length_b   6.98643538
_cell_length_c   12.85446609
_cell_angle_alpha   89.90149276
_cell_angle_beta   89.79000649
_cell_angle_gamma   90.03671056
_symmetry_Int_Tables_number   1
_chemical_formula_structural   Lu8Ti12Si15Ir
_chemical_formula_sum   'Lu8 Ti12 Si15 Ir1'
_cell_volume   628.69526028
_cell_formula_units_Z   1
loop_
 _symmetry_equiv_pos_site_id
 _symmetry_equiv_pos_as_xyz
  1  'x, y, z'
loop_
 _atom_site_type_symbol
 _atom_site_label
 _atom_site_symmetry_multiplicity
 _atom_site_fract_x
 _atom_site_fract_y
 _atom_site_fract_z
 _atom_site_occupancy
  Lu  Lu0  1  0.337999  0.001606  0.467198  1
  Lu  Lu1  1  0.500093  0.841366  0.717393  1
  Lu  Lu2  1  0.500918  0.159755  0.217280  1
  Lu  Lu3  1  0.840918  0.497843  0.282923  1
  Lu  Lu4  1  0.157292  0.501739  0.782588  1
  Lu  Lu5  1  0.660880  0.998373  0.967954  1
  Lu  Lu6  1  0.002309  0.338800  0.534784  1
  Lu  Lu7  1  0.999470  0.659323  0.033007  1
  Ti  Ti8  1  0.328233  0.327060  0.001521  1
  Ti  Ti9  1  0.172502  0.827667  0.249837  1
  Ti  Ti10  1  0.833426  0.171909  0.747446  1
  Ti  Ti11  1  0.671834  0.670945  0.499109  1
  Ti  Ti12  1  0.156606  0.009192  0.874768  1
  Ti  Ti13  1  0.493027  0.650501  0.125283  1
  Ti  Ti14  1  0.497123  0.343180  0.626553  1
  Ti  Ti15  1  0.655118  0.497914  0.876009  1
  Ti  Ti16  1  0.348963  0.505712  0.373684  1
  Ti  Ti17  1  0.847203  0.993470  0.374015  1
  Ti  Ti18  1  0.007265  0.150611  0.126126  1
  Ti  Ti19  1  0.992102  0.850744  0.619827  1
  Si  Si20  1  0.368548  0.703192  0.933395  1
  Si  Si21  1  0.633148  0.296141  0.432502  1
  Si  Si22  1  0.704970  0.367589  0.068269  1
  Si  Si23  1  0.299792  0.633091  0.565046  1
  Si  Si24  1  0.794920  0.867200  0.181159  1
  Si  Si25  1  0.132161  0.203708  0.317209  1
  Si  Si26  1  0.866641  0.798650  0.817267  1
  Si  Si27  1  0.294316  0.953887  0.065872  1
  Si  Si28  1  0.545589  0.792809  0.314578  1
  Si  Si29  1  0.459516  0.212420  0.817529  1
  Si  Si30  1  0.788475  0.548112  0.685470  1
  Si  Si31  1  0.206434  0.454110  0.185258  1
  Si  Si32  1  0.703320  0.044889  0.561689  1
  Si  Si33  1  0.953594  0.293100  0.937880  1
  Si  Si34  1  0.045891  0.706025  0.433212  1
  Ir  Ir35  1  0.199405  0.127368  0.686363  1
