# generated using pymatgen
data_Nd2Ho3Tm3(Si3Rh)4
_symmetry_space_group_name_H-M   'P 1'
_cell_length_a   8.18175800
_cell_length_b   8.18175776
_cell_length_c   7.95738300
_cell_angle_alpha   90.00000000
_cell_angle_beta   90.00000000
_cell_angle_gamma   120.00000097
_symmetry_Int_Tables_number   1
_chemical_formula_structural   Nd2Ho3Tm3(Si3Rh)4
_chemical_formula_sum   'Nd2 Ho3 Tm3 Si12 Rh4'
_cell_volume   461.31134589
_cell_formula_units_Z   1
loop_
 _symmetry_equiv_pos_site_id
 _symmetry_equiv_pos_as_xyz
  1  'x, y, z'
loop_
 _atom_site_type_symbol
 _atom_site_label
 _atom_site_symmetry_multiplicity
 _atom_site_fract_x
 _atom_site_fract_y
 _atom_site_fract_z
 _atom_site_occupancy
  Nd  Nd0  1  0.000000  0.000000  0.250000  1
  Nd  Nd1  1  0.000000  0.000000  0.750000  1
  Ho  Ho2  1  0.491541  0.508459  0.750000  1
  Ho  Ho3  1  0.491541  0.983082  0.750000  1
  Ho  Ho4  1  0.016918  0.508459  0.750000  1
  Tm  Tm5  1  0.508751  0.491249  0.250000  1
  Tm  Tm6  1  0.508751  0.017502  0.250000  1
  Tm  Tm7  1  0.982498  0.491249  0.250000  1
  Si  Si8  1  0.168752  0.831248  0.500570  1
  Si  Si9  1  0.168752  0.337502  0.500570  1
  Si  Si10  1  0.662498  0.831248  0.500570  1
  Si  Si11  1  0.831586  0.168414  0.496622  1
  Si  Si12  1  0.831586  0.663174  0.496622  1
  Si  Si13  1  0.336826  0.168414  0.496622  1
  Si  Si14  1  0.831586  0.168414  0.003378  1
  Si  Si15  1  0.831586  0.663174  0.003378  1
  Si  Si16  1  0.336826  0.168414  0.003378  1
  Si  Si17  1  0.168752  0.831248  0.999430  1
  Si  Si18  1  0.168752  0.337502  0.999430  1
  Si  Si19  1  0.662498  0.831248  0.999430  1
  Rh  Rh20  1  0.333333  0.666667  0.458774  1
  Rh  Rh21  1  0.666667  0.333333  0.531921  1
  Rh  Rh22  1  0.666667  0.333333  0.968079  1
  Rh  Rh23  1  0.333333  0.666667  0.041226  1
