# generated using pymatgen
data_Zr6Zn17Pt6S
_symmetry_space_group_name_H-M   'P 1'
_cell_length_a   8.82096018
_cell_length_b   8.82072948
_cell_length_c   8.82230900
_cell_angle_alpha   60.00180565
_cell_angle_beta   60.02460597
_cell_angle_gamma   60.02534221
_symmetry_Int_Tables_number   1
_chemical_formula_structural   Zr6Zn17Pt6S
_chemical_formula_sum   'Zr6 Zn17 Pt6 S1'
_cell_volume   485.57620653
_cell_formula_units_Z   1
loop_
 _symmetry_equiv_pos_site_id
 _symmetry_equiv_pos_as_xyz
  1  'x, y, z'
loop_
 _atom_site_type_symbol
 _atom_site_label
 _atom_site_symmetry_multiplicity
 _atom_site_fract_x
 _atom_site_fract_y
 _atom_site_fract_z
 _atom_site_occupancy
  Zr  Zr0  1  0.705743  0.294270  0.294260  1
  Zr  Zr1  1  0.294259  0.705728  0.705736  1
  Zr  Zr2  1  0.294237  0.705767  0.294237  1
  Zr  Zr3  1  0.705760  0.294232  0.705766  1
  Zr  Zr4  1  0.294203  0.294214  0.705799  1
  Zr  Zr5  1  0.705803  0.705795  0.294192  1
  Zn  Zn6  1  0.122397  0.122370  0.122448  1
  Zn  Zn7  1  0.877605  0.877632  0.877548  1
  Zn  Zn8  1  0.122386  0.122399  0.632775  1
  Zn  Zn9  1  0.122458  0.632775  0.122403  1
  Zn  Zn10  1  0.877617  0.877601  0.367225  1
  Zn  Zn11  1  0.877545  0.367226  0.877594  1
  Zn  Zn12  1  0.632765  0.122456  0.122385  1
  Zn  Zn13  1  0.367236  0.877545  0.877613  1
  Zn  Zn14  1  0.336032  0.336130  0.336094  1
  Zn  Zn15  1  0.663966  0.663869  0.663908  1
  Zn  Zn16  1  0.336078  0.336040  0.991753  1
  Zn  Zn17  1  0.336076  0.991750  0.336024  1
  Zn  Zn18  1  0.663920  0.663959  0.008247  1
  Zn  Zn19  1  0.663920  0.008251  0.663979  1
  Zn  Zn20  1  0.991744  0.336097  0.336086  1
  Zn  Zn21  1  0.008257  0.663900  0.663916  1
  Zn  Zn22  1  0.999998  0.999999  0.000002  1
  Pt  Pt23  1  0.500004  0.999993  0.000007  1
  Pt  Pt24  1  0.999995  0.500005  0.499995  1
  Pt  Pt25  1  0.999992  0.500003  0.000008  1
  Pt  Pt26  1  0.500007  0.999996  0.499993  1
  Pt  Pt27  1  0.999998  0.000002  0.499998  1
  Pt  Pt28  1  0.500001  0.499998  0.000003  1
  S  S29  1  0.499996  0.499999  0.500003  1
