# generated using pymatgen
data_Ac8Yb11LuSn16
_symmetry_space_group_name_H-M   'P 1'
_cell_length_a   8.16546115
_cell_length_b   8.70635777
_cell_length_c   16.44172300
_cell_angle_alpha   90.09327790
_cell_angle_beta   90.15568996
_cell_angle_gamma   89.96928360
_symmetry_Int_Tables_number   1
_chemical_formula_structural   Ac8Yb11LuSn16
_chemical_formula_sum   'Ac8 Yb11 Lu1 Sn16'
_cell_volume   1168.85950577
_cell_formula_units_Z   1
loop_
 _symmetry_equiv_pos_site_id
 _symmetry_equiv_pos_as_xyz
  1  'x, y, z'
loop_
 _atom_site_type_symbol
 _atom_site_label
 _atom_site_symmetry_multiplicity
 _atom_site_fract_x
 _atom_site_fract_y
 _atom_site_fract_z
 _atom_site_occupancy
  Ac  Ac0  1  0.495232  0.320154  0.904142  1
  Ac  Ac1  1  0.994484  0.182481  0.596053  1
  Ac  Ac2  1  0.505912  0.682637  0.404238  1
  Ac  Ac3  1  0.004827  0.816388  0.095672  1
  Ac  Ac4  1  0.505565  0.682340  0.095677  1
  Ac  Ac5  1  0.005761  0.816804  0.404518  1
  Ac  Ac6  1  0.493972  0.318308  0.596219  1
  Ac  Ac7  1  0.994391  0.183465  0.905642  1
  Yb  Yb8  1  0.829495  0.670253  0.624284  1
  Yb  Yb9  1  0.669599  0.170472  0.376068  1
  Yb  Yb10  1  0.168913  0.329757  0.122765  1
  Yb  Yb11  1  0.669171  0.169783  0.122947  1
  Yb  Yb12  1  0.169578  0.329424  0.376251  1
  Yb  Yb13  1  0.330697  0.830215  0.624344  1
  Yb  Yb14  1  0.830356  0.670967  0.877165  1
  Yb  Yb15  1  0.161225  0.505675  0.749927  1
  Yb  Yb16  1  0.663830  0.995274  0.749646  1
  Yb  Yb17  1  0.838632  0.493062  0.250110  1
  Yb  Yb18  1  0.338733  0.005778  0.249653  1
  Lu  Lu19  1  0.332017  0.828350  0.875049  1
  Sn  Sn20  1  0.330796  0.035107  0.035308  1
  Sn  Sn21  1  0.834636  0.461472  0.460787  1
  Sn  Sn22  1  0.664638  0.962248  0.540080  1
  Sn  Sn23  1  0.171562  0.543149  0.958779  1
  Sn  Sn24  1  0.658265  0.959985  0.957708  1
  Sn  Sn25  1  0.164684  0.538748  0.540301  1
  Sn  Sn26  1  0.335622  0.038254  0.460689  1
  Sn  Sn27  1  0.833991  0.462119  0.039014  1
  Sn  Sn28  1  0.529765  0.615363  0.751270  1
  Sn  Sn29  1  0.037347  0.885836  0.754555  1
  Sn  Sn30  1  0.467309  0.388180  0.249269  1
  Sn  Sn31  1  0.967495  0.109821  0.249780  1
  Sn  Sn32  1  0.288553  0.130515  0.752232  1
  Sn  Sn33  1  0.786848  0.368445  0.750609  1
  Sn  Sn34  1  0.713185  0.866648  0.249622  1
  Sn  Sn35  1  0.212915  0.632523  0.249629  1
