# generated using pymatgen
data_La7Pr3In5Pb
_symmetry_space_group_name_H-M   'P 1'
_cell_length_a   9.66378753
_cell_length_b   9.66377694
_cell_length_c   9.57680300
_cell_angle_alpha   96.04811952
_cell_angle_beta   96.09216267
_cell_angle_gamma   142.22434152
_symmetry_Int_Tables_number   1
_chemical_formula_structural   La7Pr3In5Pb
_chemical_formula_sum   'La7 Pr3 In5 Pb1'
_cell_volume   517.80726752
_cell_formula_units_Z   1
loop_
 _symmetry_equiv_pos_site_id
 _symmetry_equiv_pos_as_xyz
  1  'x, y, z'
loop_
 _atom_site_type_symbol
 _atom_site_label
 _atom_site_symmetry_multiplicity
 _atom_site_fract_x
 _atom_site_fract_y
 _atom_site_fract_z
 _atom_site_occupancy
  La  La0  1  0.220253  0.087603  0.307817  1
  La  La1  1  0.779297  0.912472  0.691926  1
  La  La2  1  0.086769  0.779941  0.866644  1
  La  La3  1  0.719951  0.413239  0.133186  1
  La  La4  1  0.280620  0.586895  0.867524  1
  La  La5  1  0.587365  0.720569  0.307941  1
  La  La6  1  0.412500  0.279593  0.692210  1
  Pr  Pr7  1  0.750835  0.250521  0.499751  1
  Pr  Pr8  1  0.249124  0.748830  0.499720  1
  Pr  Pr9  1  0.913690  0.218853  0.132549  1
  In  In10  1  0.750099  0.751634  0.000245  1
  In  In11  1  0.248924  0.250488  0.000323  1
  In  In12  1  0.840249  0.659603  0.499943  1
  In  In13  1  0.660594  0.159443  0.820118  1
  In  In14  1  0.340824  0.839999  0.180770  1
  Pb  Pb15  1  0.158904  0.340318  0.499334  1
