# generated using pymatgen
data_PrY5Al24(Os3Ru)2
_symmetry_space_group_name_H-M   'P 1'
_cell_length_a   8.83830978
_cell_length_b   8.83830776
_cell_length_c   9.57843400
_cell_angle_alpha   90.00000000
_cell_angle_beta   90.00000000
_cell_angle_gamma   119.79039254
_symmetry_Int_Tables_number   1
_chemical_formula_structural   PrY5Al24(Os3Ru)2
_chemical_formula_sum   'Pr1 Y5 Al24 Os6 Ru2'
_cell_volume   649.34709999
_cell_formula_units_Z   1
loop_
 _symmetry_equiv_pos_site_id
 _symmetry_equiv_pos_as_xyz
  1  'x, y, z'
loop_
 _atom_site_type_symbol
 _atom_site_label
 _atom_site_symmetry_multiplicity
 _atom_site_fract_x
 _atom_site_fract_y
 _atom_site_fract_z
 _atom_site_occupancy
  Pr  Pr0  1  0.807400  0.192600  0.750000  1
  Y  Y1  1  0.193238  0.386551  0.250000  1
  Y  Y2  1  0.806273  0.612301  0.750000  1
  Y  Y3  1  0.613449  0.806762  0.250000  1
  Y  Y4  1  0.387699  0.193727  0.750000  1
  Y  Y5  1  0.192941  0.807059  0.250000  1
  Al  Al6  1  0.333067  0.666933  0.014134  1
  Al  Al7  1  0.666249  0.333751  0.988157  1
  Al  Al8  1  0.666249  0.333751  0.511843  1
  Al  Al9  1  0.333067  0.666933  0.485866  1
  Al  Al10  1  0.163909  0.324796  0.574982  1
  Al  Al11  1  0.838100  0.676577  0.423493  1
  Al  Al12  1  0.675204  0.836091  0.574982  1
  Al  Al13  1  0.838100  0.676577  0.076507  1
  Al  Al14  1  0.323423  0.161900  0.423493  1
  Al  Al15  1  0.163909  0.324796  0.925018  1
  Al  Al16  1  0.162025  0.837975  0.575175  1
  Al  Al17  1  0.323423  0.161900  0.076507  1
  Al  Al18  1  0.838018  0.161982  0.421408  1
  Al  Al19  1  0.675204  0.836091  0.925018  1
  Al  Al20  1  0.838018  0.161982  0.078592  1
  Al  Al21  1  0.162025  0.837975  0.924825  1
  Al  Al22  1  0.559339  0.119988  0.250000  1
  Al  Al23  1  0.436748  0.876510  0.750000  1
  Al  Al24  1  0.880012  0.440661  0.250000  1
  Al  Al25  1  0.123490  0.563252  0.750000  1
  Al  Al26  1  0.559992  0.440008  0.250000  1
  Al  Al27  1  0.439945  0.560055  0.750000  1
  Al  Al28  1  0.999733  0.000267  0.250000  1
  Al  Al29  1  0.002042  0.997958  0.750000  1
  Os  Os30  1  0.498464  0.999177  0.001211  1
  Os  Os31  1  0.000823  0.501536  0.001211  1
  Os  Os32  1  0.498464  0.999177  0.498789  1
  Os  Os33  1  0.499643  0.500357  0.000785  1
  Os  Os34  1  0.000823  0.501536  0.498789  1
  Os  Os35  1  0.499643  0.500357  0.499215  1
  Ru  Ru36  1  0.999925  0.000075  0.000383  1
  Ru  Ru37  1  0.999925  0.000075  0.499617  1
