# generated using pymatgen
data_La6Zn(P3Rh5)4
_symmetry_space_group_name_H-M   'P 1'
_cell_length_a   13.67130100
_cell_length_b   13.67130078
_cell_length_c   3.96910700
_cell_angle_alpha   90.00000000
_cell_angle_beta   90.00000000
_cell_angle_gamma   119.99999812
_symmetry_Int_Tables_number   1
_chemical_formula_structural   La6Zn(P3Rh5)4
_chemical_formula_sum   'La6 Zn1 P12 Rh20'
_cell_volume   642.45561650
_cell_formula_units_Z   1
loop_
 _symmetry_equiv_pos_site_id
 _symmetry_equiv_pos_as_xyz
  1  'x, y, z'
loop_
 _atom_site_type_symbol
 _atom_site_label
 _atom_site_symmetry_multiplicity
 _atom_site_fract_x
 _atom_site_fract_y
 _atom_site_fract_z
 _atom_site_occupancy
  La  La0  1  0.529941  0.717958  0.250304  1
  La  La1  1  0.282042  0.811984  0.250304  1
  La  La2  1  0.188016  0.470059  0.250304  1
  La  La3  1  0.470059  0.282042  0.749696  1
  La  La4  1  0.717958  0.188016  0.749696  1
  La  La5  1  0.811984  0.529941  0.749696  1
  Zn  Zn6  1  0.000000  0.000000  0.000000  1
  P  P7  1  0.520947  0.132428  0.249942  1
  P  P8  1  0.867572  0.388521  0.249942  1
  P  P9  1  0.611479  0.479053  0.249942  1
  P  P10  1  0.950317  0.725402  0.249097  1
  P  P11  1  0.274598  0.224915  0.249097  1
  P  P12  1  0.775085  0.049683  0.249097  1
  P  P13  1  0.388521  0.520947  0.750058  1
  P  P14  1  0.479053  0.867572  0.750058  1
  P  P15  1  0.132428  0.611479  0.750058  1
  P  P16  1  0.725402  0.775085  0.750903  1
  P  P17  1  0.224915  0.950317  0.750903  1
  P  P18  1  0.049683  0.274598  0.750903  1
  Rh  Rh19  1  0.333333  0.666667  0.751592  1
  Rh  Rh20  1  0.924150  0.252292  0.249782  1
  Rh  Rh21  1  0.747708  0.671857  0.249782  1
  Rh  Rh22  1  0.328143  0.075850  0.249782  1
  Rh  Rh23  1  0.441612  0.026029  0.750273  1
  Rh  Rh24  1  0.973971  0.415584  0.750273  1
  Rh  Rh25  1  0.584416  0.558388  0.750273  1
  Rh  Rh26  1  0.666667  0.333333  0.248408  1
  Rh  Rh27  1  0.095471  0.201297  0.253189  1
  Rh  Rh28  1  0.798703  0.894173  0.253189  1
  Rh  Rh29  1  0.105827  0.904529  0.253189  1
  Rh  Rh30  1  0.026029  0.584416  0.249727  1
  Rh  Rh31  1  0.415584  0.441612  0.249727  1
  Rh  Rh32  1  0.558388  0.973971  0.249727  1
  Rh  Rh33  1  0.671857  0.924150  0.750218  1
  Rh  Rh34  1  0.075850  0.747708  0.750218  1
  Rh  Rh35  1  0.252292  0.328143  0.750218  1
  Rh  Rh36  1  0.904529  0.798703  0.746811  1
  Rh  Rh37  1  0.201297  0.105827  0.746811  1
  Rh  Rh38  1  0.894173  0.095471  0.746811  1
