# generated using pymatgen
data_Y2ThCo7(NiP3)2
_symmetry_space_group_name_H-M   'P 1'
_cell_length_a   3.77305500
_cell_length_b   10.53058500
_cell_length_c   12.31193700
_cell_angle_alpha   90.00000000
_cell_angle_beta   90.00000000
_cell_angle_gamma   90.00000000
_symmetry_Int_Tables_number   1
_chemical_formula_structural   Y2ThCo7(NiP3)2
_chemical_formula_sum   'Y4 Th2 Co14 Ni4 P12'
_cell_volume   489.18374613
_cell_formula_units_Z   2
loop_
 _symmetry_equiv_pos_site_id
 _symmetry_equiv_pos_as_xyz
  1  'x, y, z'
loop_
 _atom_site_type_symbol
 _atom_site_label
 _atom_site_symmetry_multiplicity
 _atom_site_fract_x
 _atom_site_fract_y
 _atom_site_fract_z
 _atom_site_occupancy
  Y  Y0  1  0.500000  0.813788  0.204612  1
  Y  Y1  1  0.500000  0.186212  0.204612  1
  Y  Y2  1  0.000000  0.686212  0.795388  1
  Y  Y3  1  0.000000  0.313788  0.795388  1
  Th  Th4  1  0.000000  0.500000  0.522744  1
  Th  Th5  1  0.500000  0.000000  0.477256  1
  Co  Co6  1  0.000000  0.500000  0.983246  1
  Co  Co7  1  0.500000  0.000000  0.016754  1
  Co  Co8  1  0.500000  0.334722  0.995801  1
  Co  Co9  1  0.500000  0.665278  0.995801  1
  Co  Co10  1  0.000000  0.165278  0.004199  1
  Co  Co11  1  0.000000  0.834722  0.004199  1
  Co  Co12  1  0.500000  0.300545  0.428000  1
  Co  Co13  1  0.500000  0.699455  0.428000  1
  Co  Co14  1  0.000000  0.199455  0.572000  1
  Co  Co15  1  0.000000  0.800545  0.572000  1
  Co  Co16  1  0.500000  0.881509  0.715677  1
  Co  Co17  1  0.500000  0.118491  0.715677  1
  Co  Co18  1  0.000000  0.618491  0.284323  1
  Co  Co19  1  0.000000  0.381509  0.284323  1
  Ni  Ni20  1  0.500000  0.500000  0.158305  1
  Ni  Ni21  1  0.000000  0.000000  0.841695  1
  Ni  Ni22  1  0.500000  0.500000  0.703306  1
  Ni  Ni23  1  0.000000  0.000000  0.296694  1
  P  P24  1  0.500000  0.500000  0.882256  1
  P  P25  1  0.000000  0.000000  0.117744  1
  P  P26  1  0.500000  0.500000  0.339878  1
  P  P27  1  0.000000  0.000000  0.660122  1
  P  P28  1  0.500000  0.304309  0.616770  1
  P  P29  1  0.500000  0.695691  0.616770  1
  P  P30  1  0.000000  0.195691  0.383230  1
  P  P31  1  0.000000  0.804309  0.383230  1
  P  P32  1  0.500000  0.846105  0.897442  1
  P  P33  1  0.500000  0.153895  0.897442  1
  P  P34  1  0.000000  0.653895  0.102558  1
  P  P35  1  0.000000  0.346105  0.102558  1
