# generated using pymatgen
data_Ti8Al10Ga5Ir7
_symmetry_space_group_name_H-M   'P 1'
_cell_length_a   8.66205559
_cell_length_b   8.66205526
_cell_length_c   8.66205538
_cell_angle_alpha   120.27444196
_cell_angle_beta   119.77900029
_cell_angle_gamma   89.95426396
_symmetry_Int_Tables_number   1
_chemical_formula_structural   Ti8Al10Ga5Ir7
_chemical_formula_sum   'Ti8 Al10 Ga5 Ir7'
_cell_volume   459.36944927
_cell_formula_units_Z   1
loop_
 _symmetry_equiv_pos_site_id
 _symmetry_equiv_pos_as_xyz
  1  'x, y, z'
loop_
 _atom_site_type_symbol
 _atom_site_label
 _atom_site_symmetry_multiplicity
 _atom_site_fract_x
 _atom_site_fract_y
 _atom_site_fract_z
 _atom_site_occupancy
  Ti  Ti0  1  0.794116  0.291291  0.076437  1
  Ti  Ti1  1  0.214854  0.291291  0.497177  1
  Ti  Ti2  1  0.206329  0.706329  0.500000  1
  Ti  Ti3  1  0.214854  0.717679  0.923563  1
  Ti  Ti4  1  0.794116  0.717679  0.502823  1
  Ti  Ti5  1  0.784149  0.284149  0.500000  1
  Ti  Ti6  1  0.377446  0.124554  0.747108  1
  Ti  Ti7  1  0.377446  0.630338  0.252892  1
  Al  Al8  1  0.844168  0.654053  0.809886  1
  Al  Al9  1  0.844168  0.034283  0.190114  1
  Al  Al10  1  0.842627  0.656213  0.186414  1
  Al  Al11  1  0.469800  0.656213  0.813586  1
  Al  Al12  1  0.379024  0.121918  0.257107  1
  Al  Al13  1  0.864812  0.121918  0.742893  1
  Al  Al14  1  0.620762  0.877961  0.257198  1
  Al  Al15  1  0.620762  0.363565  0.742802  1
  Al  Al16  1  0.620030  0.877960  0.742069  1
  Al  Al17  1  0.135890  0.877960  0.257931  1
  Ga  Ga18  1  0.995600  0.495600  0.500000  1
  Ga  Ga19  1  0.151721  0.348549  0.196826  1
  Ga  Ga20  1  0.151721  0.954894  0.803174  1
  Ga  Ga21  1  0.149414  0.350933  0.798481  1
  Ga  Ga22  1  0.552451  0.350933  0.201519  1
  Ir  Ir23  1  0.998572  0.999471  0.499181  1
  Ir  Ir24  1  0.500290  0.999471  0.000899  1
  Ir  Ir25  1  0.499967  0.499967  0.000000  1
  Ir  Ir26  1  0.500290  0.499391  0.500819  1
  Ir  Ir27  1  0.998572  0.499391  0.999101  1
  Ir  Ir28  1  0.997951  0.997951  0.000000  1
  Ir  Ir29  1  0.498092  0.998092  0.500000  1
