# generated using pymatgen
data_Sr6CaCd(PdO6)2
_symmetry_space_group_name_H-M   'P 1'
_cell_length_a   6.85981563
_cell_length_b   6.85981529
_cell_length_c   6.85981447
_cell_angle_alpha   91.07891422
_cell_angle_beta   91.07891542
_cell_angle_gamma   91.07891206
_symmetry_Int_Tables_number   1
_chemical_formula_structural   Sr6CaCd(PdO6)2
_chemical_formula_sum   'Sr6 Ca1 Cd1 Pd2 O12'
_cell_volume   322.62888048
_cell_formula_units_Z   1
loop_
 _symmetry_equiv_pos_site_id
 _symmetry_equiv_pos_as_xyz
  1  'x, y, z'
loop_
 _atom_site_type_symbol
 _atom_site_label
 _atom_site_symmetry_multiplicity
 _atom_site_fract_x
 _atom_site_fract_y
 _atom_site_fract_z
 _atom_site_occupancy
  Sr  Sr0  1  0.250000  0.614548  0.885452  1
  Sr  Sr1  1  0.885452  0.250000  0.614548  1
  Sr  Sr2  1  0.614548  0.885452  0.250000  1
  Sr  Sr3  1  0.750000  0.382327  0.117673  1
  Sr  Sr4  1  0.117673  0.750000  0.382327  1
  Sr  Sr5  1  0.382327  0.117673  0.750000  1
  Ca  Ca6  1  0.750000  0.750000  0.750000  1
  Cd  Cd7  1  0.250000  0.250000  0.250000  1
  Pd  Pd8  1  0.501556  0.501556  0.501556  1
  Pd  Pd9  1  0.998444  0.998444  0.998444  1
  O  O10  1  0.079642  0.285257  0.948509  1
  O  O11  1  0.948509  0.079642  0.285257  1
  O  O12  1  0.285257  0.948509  0.079642  1
  O  O13  1  0.420358  0.551491  0.214743  1
  O  O14  1  0.214743  0.420358  0.551491  1
  O  O15  1  0.551491  0.214743  0.420358  1
  O  O16  1  0.918206  0.712489  0.049305  1
  O  O17  1  0.049305  0.918206  0.712489  1
  O  O18  1  0.712489  0.049305  0.918206  1
  O  O19  1  0.581794  0.450695  0.787511  1
  O  O20  1  0.450695  0.787511  0.581794  1
  O  O21  1  0.787511  0.581794  0.450695  1
