# generated using pymatgen
data_CaYb19Ir3Ru
_symmetry_space_group_name_H-M   'P 1'
_cell_length_a   6.68992639
_cell_length_b   7.45244835
_cell_length_c   15.69186630
_cell_angle_alpha   90.00873071
_cell_angle_beta   90.08627992
_cell_angle_gamma   89.95307868
_symmetry_Int_Tables_number   1
_chemical_formula_structural   CaYb19Ir3Ru
_chemical_formula_sum   'Ca1 Yb19 Ir3 Ru1'
_cell_volume   782.33772055
_cell_formula_units_Z   1
loop_
 _symmetry_equiv_pos_site_id
 _symmetry_equiv_pos_as_xyz
  1  'x, y, z'
loop_
 _atom_site_type_symbol
 _atom_site_label
 _atom_site_symmetry_multiplicity
 _atom_site_fract_x
 _atom_site_fract_y
 _atom_site_fract_z
 _atom_site_occupancy
  Ca  Ca0  1  0.858705  0.192829  0.934019  1
  Yb  Yb1  1  0.151482  0.097379  0.249975  1
  Yb  Yb2  1  0.860945  0.192637  0.567556  1
  Yb  Yb3  1  0.850159  0.905514  0.749872  1
  Yb  Yb4  1  0.824059  0.464240  0.146135  1
  Yb  Yb5  1  0.175534  0.534229  0.645873  1
  Yb  Yb6  1  0.360428  0.307825  0.068453  1
  Yb  Yb7  1  0.347857  0.596905  0.250194  1
  Yb  Yb8  1  0.824439  0.464345  0.354389  1
  Yb  Yb9  1  0.322909  0.036932  0.853659  1
  Yb  Yb10  1  0.139258  0.806955  0.068034  1
  Yb  Yb11  1  0.639082  0.692217  0.568042  1
  Yb  Yb12  1  0.675552  0.963885  0.354333  1
  Yb  Yb13  1  0.638936  0.692025  0.931871  1
  Yb  Yb14  1  0.323654  0.036475  0.645907  1
  Yb  Yb15  1  0.139521  0.807476  0.432006  1
  Yb  Yb16  1  0.653228  0.401532  0.749718  1
  Yb  Yb17  1  0.175519  0.532799  0.853380  1
  Yb  Yb18  1  0.360481  0.307799  0.431978  1
  Yb  Yb19  1  0.675388  0.963354  0.145943  1
  Ir  Ir20  1  0.463958  0.741253  0.749973  1
  Ir  Ir21  1  0.538672  0.258430  0.250122  1
  Ir  Ir22  1  0.962428  0.758989  0.250253  1
  Ru  Ru23  1  0.037805  0.243978  0.748314  1
