# generated using pymatgen
data_CsNaS2O7
_symmetry_space_group_name_H-M   'P 1'
_cell_length_a   6.03624164
_cell_length_b   7.79031707
_cell_length_c   8.18555527
_cell_angle_alpha   100.95003874
_cell_angle_beta   90.26672358
_cell_angle_gamma   92.76611581
_symmetry_Int_Tables_number   1
_chemical_formula_structural   CsNaS2O7
_chemical_formula_sum   'Cs2 Na2 S4 O14'
_cell_volume   377.43351080
_cell_formula_units_Z   2
loop_
 _symmetry_equiv_pos_site_id
 _symmetry_equiv_pos_as_xyz
  1  'x, y, z'
loop_
 _atom_site_type_symbol
 _atom_site_label
 _atom_site_symmetry_multiplicity
 _atom_site_fract_x
 _atom_site_fract_y
 _atom_site_fract_z
 _atom_site_occupancy
  Cs  Cs0  1  0.226281  0.777071  0.429185  1
  Cs  Cs1  1  0.773719  0.222929  0.570815  1
  Na  Na2  1  0.209771  0.636032  0.903461  1
  Na  Na3  1  0.790229  0.363968  0.096539  1
  S  S4  1  0.718879  0.722730  0.714370  1
  S  S5  1  0.722390  0.814855  0.081222  1
  S  S6  1  0.277610  0.185145  0.918778  1
  S  S7  1  0.281121  0.277270  0.285630  1
  O  O8  1  0.737439  0.867622  0.891496  1
  O  O9  1  0.501176  0.261483  0.907262  1
  O  O10  1  0.894345  0.687875  0.085524  1
  O  O11  1  0.491076  0.378295  0.283819  1
  O  O12  1  0.262561  0.132378  0.108504  1
  O  O13  1  0.498824  0.738517  0.092738  1
  O  O14  1  0.105655  0.312125  0.914476  1
  O  O15  1  0.508924  0.621705  0.716181  1
  O  O16  1  0.086169  0.382973  0.289166  1
  O  O17  1  0.274041  0.162754  0.407171  1
  O  O18  1  0.231425  0.015036  0.814663  1
  O  O19  1  0.725959  0.837246  0.592829  1
  O  O20  1  0.913831  0.617027  0.710834  1
  O  O21  1  0.768575  0.984964  0.185337  1
