# generated using pymatgen
data_Ti2AlIr3Rh2
_symmetry_space_group_name_H-M   'P 1'
_cell_length_a   4.00613700
_cell_length_b   5.41477421
_cell_length_c   10.67105841
_cell_angle_alpha   89.96817803
_cell_angle_beta   90.00000000
_cell_angle_gamma   90.00000000
_symmetry_Int_Tables_number   1
_chemical_formula_structural   Ti2AlIr3Rh2
_chemical_formula_sum   'Ti4 Al2 Ir6 Rh4'
_cell_volume   231.48005605
_cell_formula_units_Z   2
loop_
 _symmetry_equiv_pos_site_id
 _symmetry_equiv_pos_as_xyz
  1  'x, y, z'
loop_
 _atom_site_type_symbol
 _atom_site_label
 _atom_site_symmetry_multiplicity
 _atom_site_fract_x
 _atom_site_fract_y
 _atom_site_fract_z
 _atom_site_occupancy
  Ti  Ti0  1  0.500000  0.321089  0.139343  1
  Ti  Ti1  1  0.500000  0.678911  0.860657  1
  Ti  Ti2  1  0.500000  0.819092  0.360661  1
  Ti  Ti3  1  0.500000  0.180908  0.639339  1
  Al  Al4  1  0.000000  0.000000  0.000000  1
  Al  Al5  1  0.000000  0.500000  0.500000  1
  Ir  Ir6  1  0.000000  0.068839  0.247601  1
  Ir  Ir7  1  0.000000  0.931161  0.752399  1
  Ir  Ir8  1  0.000000  0.569308  0.252107  1
  Ir  Ir9  1  0.000000  0.430692  0.747893  1
  Ir  Ir10  1  0.500000  0.309149  0.388965  1
  Ir  Ir11  1  0.500000  0.690851  0.611035  1
  Rh  Rh12  1  0.000000  0.000000  0.500000  1
  Rh  Rh13  1  0.000000  0.500000  0.000000  1
  Rh  Rh14  1  0.500000  0.810688  0.110782  1
  Rh  Rh15  1  0.500000  0.189312  0.889218  1
