# generated using pymatgen
data_NdTh4(In2Rh)2
_symmetry_space_group_name_H-M   'P 1'
_cell_length_a   3.83390400
_cell_length_b   8.21293400
_cell_length_c   18.50285800
_cell_angle_alpha   90.00000000
_cell_angle_beta   90.00000000
_cell_angle_gamma   90.00000000
_symmetry_Int_Tables_number   1
_chemical_formula_structural   NdTh4(In2Rh)2
_chemical_formula_sum   'Nd2 Th8 In8 Rh4'
_cell_volume   582.61060108
_cell_formula_units_Z   2
loop_
 _symmetry_equiv_pos_site_id
 _symmetry_equiv_pos_as_xyz
  1  'x, y, z'
loop_
 _atom_site_type_symbol
 _atom_site_label
 _atom_site_symmetry_multiplicity
 _atom_site_fract_x
 _atom_site_fract_y
 _atom_site_fract_z
 _atom_site_occupancy
  Nd  Nd0  1  0.000000  0.000000  0.000000  1
  Nd  Nd1  1  0.000000  0.500000  0.500000  1
  Th  Th2  1  0.000000  0.117569  0.414919  1
  Th  Th3  1  0.000000  0.882431  0.585081  1
  Th  Th4  1  0.000000  0.382431  0.914919  1
  Th  Th5  1  0.000000  0.617569  0.085081  1
  Th  Th6  1  0.000000  0.244938  0.221795  1
  Th  Th7  1  0.000000  0.755062  0.778205  1
  Th  Th8  1  0.000000  0.255062  0.721795  1
  Th  Th9  1  0.000000  0.744938  0.278205  1
  In  In10  1  0.500000  0.433748  0.350585  1
  In  In11  1  0.500000  0.566252  0.649415  1
  In  In12  1  0.500000  0.066252  0.850585  1
  In  In13  1  0.500000  0.933748  0.149415  1
  In  In14  1  0.500000  0.288165  0.068178  1
  In  In15  1  0.500000  0.711835  0.931822  1
  In  In16  1  0.500000  0.211835  0.568178  1
  In  In17  1  0.500000  0.788165  0.431822  1
  Rh  Rh18  1  0.500000  0.018752  0.305622  1
  Rh  Rh19  1  0.500000  0.981248  0.694378  1
  Rh  Rh20  1  0.500000  0.481248  0.805622  1
  Rh  Rh21  1  0.500000  0.518752  0.194378  1
