# generated using pymatgen
data_Ho3Co8MoAs6
_symmetry_space_group_name_H-M   'P 1'
_cell_length_a   3.80465700
_cell_length_b   10.95702500
_cell_length_c   12.62594100
_cell_angle_alpha   90.00000000
_cell_angle_beta   90.00000000
_cell_angle_gamma   90.00000000
_symmetry_Int_Tables_number   1
_chemical_formula_structural   Ho3Co8MoAs6
_chemical_formula_sum   'Ho6 Co16 Mo2 As12'
_cell_volume   526.34671670
_cell_formula_units_Z   2
loop_
 _symmetry_equiv_pos_site_id
 _symmetry_equiv_pos_as_xyz
  1  'x, y, z'
loop_
 _atom_site_type_symbol
 _atom_site_label
 _atom_site_symmetry_multiplicity
 _atom_site_fract_x
 _atom_site_fract_y
 _atom_site_fract_z
 _atom_site_occupancy
  Ho  Ho0  1  0.000000  0.500000  0.527507  1
  Ho  Ho1  1  0.500000  0.000000  0.472493  1
  Ho  Ho2  1  0.500000  0.819365  0.205110  1
  Ho  Ho3  1  0.500000  0.180635  0.205110  1
  Ho  Ho4  1  0.000000  0.680635  0.794890  1
  Ho  Ho5  1  0.000000  0.319365  0.794890  1
  Co  Co6  1  0.500000  0.500000  0.699624  1
  Co  Co7  1  0.000000  0.000000  0.300376  1
  Co  Co8  1  0.000000  0.500000  0.986763  1
  Co  Co9  1  0.500000  0.000000  0.013237  1
  Co  Co10  1  0.500000  0.333394  0.992170  1
  Co  Co11  1  0.500000  0.666606  0.992170  1
  Co  Co12  1  0.000000  0.166606  0.007830  1
  Co  Co13  1  0.000000  0.833394  0.007830  1
  Co  Co14  1  0.500000  0.297329  0.430895  1
  Co  Co15  1  0.500000  0.702671  0.430895  1
  Co  Co16  1  0.000000  0.202671  0.569105  1
  Co  Co17  1  0.000000  0.797329  0.569105  1
  Co  Co18  1  0.500000  0.878904  0.706365  1
  Co  Co19  1  0.500000  0.121096  0.706365  1
  Co  Co20  1  0.000000  0.621096  0.293635  1
  Co  Co21  1  0.000000  0.378904  0.293635  1
  Mo  Mo22  1  0.500000  0.500000  0.153654  1
  Mo  Mo23  1  0.000000  0.000000  0.846346  1
  As  As24  1  0.500000  0.500000  0.878939  1
  As  As25  1  0.000000  0.000000  0.121061  1
  As  As26  1  0.500000  0.500000  0.352160  1
  As  As27  1  0.000000  0.000000  0.647840  1
  As  As28  1  0.500000  0.312660  0.616507  1
  As  As29  1  0.500000  0.687340  0.616507  1
  As  As30  1  0.000000  0.187340  0.383493  1
  As  As31  1  0.000000  0.812660  0.383493  1
  As  As32  1  0.500000  0.842918  0.890346  1
  As  As33  1  0.500000  0.157082  0.890346  1
  As  As34  1  0.000000  0.657082  0.109654  1
  As  As35  1  0.000000  0.342918  0.109654  1
