# generated using pymatgen
data_Ti11Nb2MoP8
_symmetry_space_group_name_H-M   'P 1'
_cell_length_a   7.53918210
_cell_length_b   7.53918300
_cell_length_c   13.53820343
_cell_angle_alpha   75.74085318
_cell_angle_beta   75.74085088
_cell_angle_gamma   26.25966602
_symmetry_Int_Tables_number   1
_chemical_formula_structural   Ti11Nb2MoP8
_chemical_formula_sum   'Ti11 Nb2 Mo1 P8'
_cell_volume   329.38905466
_cell_formula_units_Z   1
loop_
 _symmetry_equiv_pos_site_id
 _symmetry_equiv_pos_as_xyz
  1  'x, y, z'
loop_
 _atom_site_type_symbol
 _atom_site_label
 _atom_site_symmetry_multiplicity
 _atom_site_fract_x
 _atom_site_fract_y
 _atom_site_fract_z
 _atom_site_occupancy
  Ti  Ti0  1  0.000000  0.000000  0.000000  1
  Ti  Ti1  1  0.197497  0.197497  0.689138  1
  Ti  Ti2  1  0.802503  0.802503  0.310862  1
  Ti  Ti3  1  0.206278  0.206278  0.207070  1
  Ti  Ti4  1  0.793722  0.793722  0.792930  1
  Ti  Ti5  1  0.339142  0.339142  0.968154  1
  Ti  Ti6  1  0.660858  0.660858  0.031846  1
  Ti  Ti7  1  0.003958  0.003958  0.340064  1
  Ti  Ti8  1  0.996042  0.996042  0.659936  1
  Ti  Ti9  1  0.176099  0.176099  0.459863  1
  Ti  Ti10  1  0.823901  0.823901  0.540137  1
  Nb  Nb11  1  0.427386  0.427386  0.173024  1
  Nb  Nb12  1  0.572614  0.572614  0.826976  1
  Mo  Mo13  1  0.500000  0.500000  0.500000  1
  P  P14  1  0.180365  0.180365  0.890892  1
  P  P15  1  0.819635  0.819635  0.109108  1
  P  P16  1  0.373117  0.373117  0.394574  1
  P  P17  1  0.626883  0.626883  0.605426  1
  P  P18  1  0.369001  0.369001  0.659008  1
  P  P19  1  0.630999  0.630999  0.340992  1
  P  P20  1  0.063282  0.063282  0.152004  1
  P  P21  1  0.936718  0.936718  0.847996  1
