# generated using pymatgen
data_La5Tb(CeRu)4
_symmetry_space_group_name_H-M   'P 1'
_cell_length_a   9.17580186
_cell_length_b   9.17580206
_cell_length_c   7.19313100
_cell_angle_alpha   86.12622265
_cell_angle_beta   86.12622882
_cell_angle_gamma   41.99011953
_symmetry_Int_Tables_number   1
_chemical_formula_structural   La5Tb(CeRu)4
_chemical_formula_sum   'La5 Tb1 Ce4 Ru4'
_cell_volume   404.10450212
_cell_formula_units_Z   1
loop_
 _symmetry_equiv_pos_site_id
 _symmetry_equiv_pos_as_xyz
  1  'x, y, z'
loop_
 _atom_site_type_symbol
 _atom_site_label
 _atom_site_symmetry_multiplicity
 _atom_site_fract_x
 _atom_site_fract_y
 _atom_site_fract_z
 _atom_site_occupancy
  La  La0  1  0.352509  0.216949  0.825579  1
  La  La1  1  0.783051  0.647491  0.674421  1
  La  La2  1  0.645245  0.782804  0.175188  1
  La  La3  1  0.217196  0.354755  0.324812  1
  La  La4  1  0.579069  0.420931  0.750000  1
  Tb  Tb5  1  0.422652  0.577348  0.250000  1
  Ce  Ce6  1  0.007430  0.813123  0.901326  1
  Ce  Ce7  1  0.186877  0.992570  0.598674  1
  Ce  Ce8  1  0.992976  0.185442  0.099478  1
  Ce  Ce9  1  0.814558  0.007024  0.400522  1
  Ru  Ru10  1  0.143576  0.643601  0.596929  1
  Ru  Ru11  1  0.356399  0.856424  0.903071  1
  Ru  Ru12  1  0.856126  0.357663  0.399425  1
  Ru  Ru13  1  0.642337  0.143874  0.100575  1
