# generated using pymatgen
data_YTh(BRu)4
_symmetry_space_group_name_H-M   'P 1'
_cell_length_a   6.74122748
_cell_length_b   5.98062960
_cell_length_c   5.57376662
_cell_angle_alpha   71.31659967
_cell_angle_beta   57.18895472
_cell_angle_gamma   51.57588154
_symmetry_Int_Tables_number   1
_chemical_formula_structural   YTh(BRu)4
_chemical_formula_sum   'Y1 Th1 B4 Ru4'
_cell_volume   147.91730494
_cell_formula_units_Z   1
loop_
 _symmetry_equiv_pos_site_id
 _symmetry_equiv_pos_as_xyz
  1  'x, y, z'
loop_
 _atom_site_type_symbol
 _atom_site_label
 _atom_site_symmetry_multiplicity
 _atom_site_fract_x
 _atom_site_fract_y
 _atom_site_fract_z
 _atom_site_occupancy
  Y  Y0  1  0.999983  0.999869  0.000118  1
  Th  Th1  1  0.249992  0.250075  0.249854  1
  B  B2  1  0.312789  0.687273  0.312778  1
  B  B3  1  0.687475  0.312567  0.687323  1
  B  B4  1  0.568199  0.931783  0.568427  1
  B  B5  1  0.931534  0.568346  0.931474  1
  Ru  Ru6  1  0.636881  0.636409  0.363405  1
  Ru  Ru7  1  0.363408  0.363418  0.636770  1
  Ru  Ru8  1  0.612159  0.612681  0.887674  1
  Ru  Ru9  1  0.887578  0.887579  0.612177  1
