# generated using pymatgen
data_La8Tm2OsRu3
_symmetry_space_group_name_H-M   'P 1'
_cell_length_a   6.68322715
_cell_length_b   7.26098904
_cell_length_c   8.97700458
_cell_angle_alpha   94.35615380
_cell_angle_beta   110.96474974
_cell_angle_gamma   90.08885030
_symmetry_Int_Tables_number   1
_chemical_formula_structural   La8Tm2OsRu3
_chemical_formula_sum   'La8 Tm2 Os1 Ru3'
_cell_volume   405.41931783
_cell_formula_units_Z   1
loop_
 _symmetry_equiv_pos_site_id
 _symmetry_equiv_pos_as_xyz
  1  'x, y, z'
loop_
 _atom_site_type_symbol
 _atom_site_label
 _atom_site_symmetry_multiplicity
 _atom_site_fract_x
 _atom_site_fract_y
 _atom_site_fract_z
 _atom_site_occupancy
  La  La0  1  0.798199  0.090256  0.818017  1
  La  La1  1  0.977140  0.406704  0.181244  1
  La  La2  1  0.204862  0.905796  0.181861  1
  La  La3  1  0.020656  0.591087  0.817095  1
  La  La4  1  0.213173  0.180593  0.579442  1
  La  La5  1  0.634955  0.319134  0.427533  1
  La  La6  1  0.788637  0.821420  0.420443  1
  La  La7  1  0.362588  0.683615  0.572385  1
  Tm  Tm8  1  0.436031  0.250507  0.000349  1
  Tm  Tm9  1  0.565385  0.746809  0.997703  1
  Os  Os10  1  0.600702  0.428125  0.785045  1
  Ru  Ru11  1  0.818332  0.076168  0.210737  1
  Ru  Ru12  1  0.395887  0.575377  0.217461  1
  Ru  Ru13  1  0.183454  0.924409  0.790685  1
