# generated using pymatgen
data_Ba2CaAs2
_symmetry_space_group_name_H-M   'P 1'
_cell_length_a   9.38032602
_cell_length_b   9.38032582
_cell_length_c   8.38422200
_cell_angle_alpha   90.00000000
_cell_angle_beta   90.00000000
_cell_angle_gamma   150.28274499
_symmetry_Int_Tables_number   1
_chemical_formula_structural   Ba2CaAs2
_chemical_formula_sum   'Ba4 Ca2 As4'
_cell_volume   365.70868747
_cell_formula_units_Z   2
loop_
 _symmetry_equiv_pos_site_id
 _symmetry_equiv_pos_as_xyz
  1  'x, y, z'
loop_
 _atom_site_type_symbol
 _atom_site_label
 _atom_site_symmetry_multiplicity
 _atom_site_fract_x
 _atom_site_fract_y
 _atom_site_fract_z
 _atom_site_occupancy
  Ba  Ba0  1  0.296319  0.703681  0.888289  1
  Ba  Ba1  1  0.703681  0.296319  0.388289  1
  Ba  Ba2  1  0.456621  0.543379  0.230372  1
  Ba  Ba3  1  0.543379  0.456621  0.730372  1
  Ca  Ca4  1  0.094251  0.905749  0.085073  1
  Ca  Ca5  1  0.905749  0.094251  0.585073  1
  As  As6  1  0.057760  0.942240  0.432212  1
  As  As7  1  0.942240  0.057760  0.932212  1
  As  As8  1  0.325587  0.674413  0.498075  1
  As  As9  1  0.674413  0.325587  0.998075  1
