# generated using pymatgen
data_Ho4Sc6Si20IrPt7
_symmetry_space_group_name_H-M   'P 1'
_cell_length_a   12.49809197
_cell_length_b   12.49599910
_cell_length_c   4.18650000
_cell_angle_alpha   90.00000000
_cell_angle_beta   90.00000000
_cell_angle_gamma   89.97525027
_symmetry_Int_Tables_number   1
_chemical_formula_structural   Ho4Sc6Si20IrPt7
_chemical_formula_sum   'Ho4 Sc6 Si20 Ir1 Pt7'
_cell_volume   653.83137440
_cell_formula_units_Z   1
loop_
 _symmetry_equiv_pos_site_id
 _symmetry_equiv_pos_as_xyz
  1  'x, y, z'
loop_
 _atom_site_type_symbol
 _atom_site_label
 _atom_site_symmetry_multiplicity
 _atom_site_fract_x
 _atom_site_fract_y
 _atom_site_fract_z
 _atom_site_occupancy
  Ho  Ho0  1  0.886871  0.386869  0.500000  1
  Ho  Ho1  1  0.112018  0.613829  0.500000  1
  Ho  Ho2  1  0.387083  0.112908  0.500000  1
  Ho  Ho3  1  0.613413  0.887400  0.500000  1
  Sc  Sc4  1  0.500004  0.500470  0.000000  1
  Sc  Sc5  1  0.999581  0.995943  0.000000  1
  Sc  Sc6  1  0.676391  0.176326  0.500000  1
  Sc  Sc7  1  0.324227  0.824060  0.500000  1
  Sc  Sc8  1  0.176021  0.323795  0.500000  1
  Sc  Sc9  1  0.825204  0.676284  0.500000  1
  Si  Si10  1  0.566363  0.066679  0.000000  1
  Si  Si11  1  0.433546  0.933650  0.000000  1
  Si  Si12  1  0.065672  0.433718  0.000000  1
  Si  Si13  1  0.933927  0.568659  0.000000  1
  Si  Si14  1  0.666336  0.704999  0.000000  1
  Si  Si15  1  0.334711  0.297141  0.000000  1
  Si  Si16  1  0.162408  0.797416  0.000000  1
  Si  Si17  1  0.835209  0.203133  0.000000  1
  Si  Si18  1  0.295886  0.666945  0.000000  1
  Si  Si19  1  0.703586  0.334945  0.000000  1
  Si  Si20  1  0.203225  0.164922  0.000000  1
  Si  Si21  1  0.800530  0.835244  0.000000  1
  Si  Si22  1  0.647544  0.506059  0.500000  1
  Si  Si23  1  0.352100  0.494411  0.500000  1
  Si  Si24  1  0.147291  0.992351  0.500000  1
  Si  Si25  1  0.851939  0.005358  0.500000  1
  Si  Si26  1  0.494580  0.647977  0.500000  1
  Si  Si27  1  0.505025  0.352490  0.500000  1
  Si  Si28  1  0.005791  0.146530  0.500000  1
  Si  Si29  1  0.993037  0.848146  0.500000  1
  Ir  Ir30  1  0.977133  0.757703  0.000000  1
  Pt  Pt31  1  0.741912  0.523252  0.000000  1
  Pt  Pt32  1  0.257641  0.477567  0.000000  1
  Pt  Pt33  1  0.242119  0.977014  0.000000  1
  Pt  Pt34  1  0.757776  0.023544  0.000000  1
  Pt  Pt35  1  0.477195  0.742154  0.000000  1
  Pt  Pt36  1  0.523267  0.258396  0.000000  1
  Pt  Pt37  1  0.023435  0.241714  0.000000  1
