# generated using pymatgen
data_LaPr5(Si2Rh3)2
_symmetry_space_group_name_H-M   'P 1'
_cell_length_a   5.77148500
_cell_length_b   7.80836641
_cell_length_c   15.04982600
_cell_angle_alpha   90.00000000
_cell_angle_beta   90.00000000
_cell_angle_gamma   90.07341413
_symmetry_Int_Tables_number   1
_chemical_formula_structural   LaPr5(Si2Rh3)2
_chemical_formula_sum   'La2 Pr10 Si8 Rh12'
_cell_volume   678.23293939
_cell_formula_units_Z   2
loop_
 _symmetry_equiv_pos_site_id
 _symmetry_equiv_pos_as_xyz
  1  'x, y, z'
loop_
 _atom_site_type_symbol
 _atom_site_label
 _atom_site_symmetry_multiplicity
 _atom_site_fract_x
 _atom_site_fract_y
 _atom_site_fract_z
 _atom_site_occupancy
  La  La0  1  0.883149  0.834173  0.750000  1
  La  La1  1  0.116851  0.165827  0.250000  1
  Pr  Pr2  1  0.140401  0.472397  0.890742  1
  Pr  Pr3  1  0.359549  0.973204  0.891414  1
  Pr  Pr4  1  0.615435  0.333130  0.750000  1
  Pr  Pr5  1  0.384565  0.666870  0.250000  1
  Pr  Pr6  1  0.640451  0.026796  0.391414  1
  Pr  Pr7  1  0.859599  0.527603  0.109258  1
  Pr  Pr8  1  0.859599  0.527603  0.390742  1
  Pr  Pr9  1  0.359549  0.973204  0.608586  1
  Pr  Pr10  1  0.140401  0.472397  0.609258  1
  Pr  Pr11  1  0.640451  0.026796  0.108586  1
  Si  Si12  1  0.366418  0.374206  0.096800  1
  Si  Si13  1  0.633582  0.625794  0.903200  1
  Si  Si14  1  0.865583  0.126869  0.902972  1
  Si  Si15  1  0.366418  0.374206  0.403200  1
  Si  Si16  1  0.865583  0.126869  0.597028  1
  Si  Si17  1  0.633582  0.625794  0.596800  1
  Si  Si18  1  0.134417  0.873131  0.402972  1
  Si  Si19  1  0.134417  0.873131  0.097028  1
  Rh  Rh20  1  0.603464  0.337605  0.962542  1
  Rh  Rh21  1  0.396536  0.662395  0.037458  1
  Rh  Rh22  1  0.569517  0.319004  0.250000  1
  Rh  Rh23  1  0.396536  0.662395  0.462542  1
  Rh  Rh24  1  0.071802  0.178183  0.750000  1
  Rh  Rh25  1  0.103077  0.162287  0.462279  1
  Rh  Rh26  1  0.430483  0.680996  0.750000  1
  Rh  Rh27  1  0.928198  0.821817  0.250000  1
  Rh  Rh28  1  0.103077  0.162287  0.037721  1
  Rh  Rh29  1  0.603464  0.337605  0.537458  1
  Rh  Rh30  1  0.896923  0.837713  0.537721  1
  Rh  Rh31  1  0.896923  0.837713  0.962279  1
