# generated using pymatgen
data_VInF7
_symmetry_space_group_name_H-M   'P 1'
_cell_length_a   7.72411661
_cell_length_b   7.72411767
_cell_length_c   7.72411766
_cell_angle_alpha   124.96086773
_cell_angle_beta   118.90571057
_cell_angle_gamma   86.76758294
_symmetry_Int_Tables_number   1
_chemical_formula_structural   VInF7
_chemical_formula_sum   'V2 In2 F14'
_cell_volume   314.60695747
_cell_formula_units_Z   2
loop_
 _symmetry_equiv_pos_site_id
 _symmetry_equiv_pos_as_xyz
  1  'x, y, z'
loop_
 _atom_site_type_symbol
 _atom_site_label
 _atom_site_symmetry_multiplicity
 _atom_site_fract_x
 _atom_site_fract_y
 _atom_site_fract_z
 _atom_site_occupancy
  V  V0  1  0.000000  0.500000  0.500000  1
  V  V1  1  0.500000  0.000000  0.500000  1
  In  In2  1  0.500000  0.500000  0.500000  1
  In  In3  1  0.000000  0.500000  0.000000  1
  F  F4  1  0.047847  0.784901  0.737055  1
  F  F5  1  0.559344  0.826468  0.620792  1
  F  F6  1  0.205676  0.826468  0.267125  1
  F  F7  1  0.547847  0.810793  0.262945  1
  F  F8  1  0.250000  0.396053  0.146053  1
  F  F9  1  0.059344  0.438551  0.732875  1
  F  F10  1  0.705676  0.438551  0.379208  1
  F  F11  1  0.294324  0.561449  0.620792  1
  F  F12  1  0.940656  0.561449  0.267125  1
  F  F13  1  0.750000  0.603947  0.853947  1
  F  F14  1  0.452153  0.189207  0.737055  1
  F  F15  1  0.794324  0.173532  0.732875  1
  F  F16  1  0.440656  0.173532  0.379208  1
  F  F17  1  0.952153  0.215099  0.262945  1
