# generated using pymatgen
data_Dy5Hg4IrPt
_symmetry_space_group_name_H-M   'P 1'
_cell_length_a   3.69960500
_cell_length_b   7.96089410
_cell_length_c   17.95589801
_cell_angle_alpha   89.66911496
_cell_angle_beta   90.00000000
_cell_angle_gamma   90.00000000
_symmetry_Int_Tables_number   1
_chemical_formula_structural   Dy5Hg4IrPt
_chemical_formula_sum   'Dy10 Hg8 Ir2 Pt2'
_cell_volume   528.83122768
_cell_formula_units_Z   2
loop_
 _symmetry_equiv_pos_site_id
 _symmetry_equiv_pos_as_xyz
  1  'x, y, z'
loop_
 _atom_site_type_symbol
 _atom_site_label
 _atom_site_symmetry_multiplicity
 _atom_site_fract_x
 _atom_site_fract_y
 _atom_site_fract_z
 _atom_site_occupancy
  Dy  Dy0  1  0.000000  0.110724  0.411527  1
  Dy  Dy1  1  0.000000  0.889276  0.588473  1
  Dy  Dy2  1  0.000000  0.389709  0.911722  1
  Dy  Dy3  1  0.000000  0.610291  0.088278  1
  Dy  Dy4  1  0.000000  0.229624  0.216987  1
  Dy  Dy5  1  0.000000  0.770376  0.783013  1
  Dy  Dy6  1  0.000000  0.252792  0.716667  1
  Dy  Dy7  1  0.000000  0.747208  0.283333  1
  Dy  Dy8  1  0.000000  0.000000  0.000000  1
  Dy  Dy9  1  0.000000  0.500000  0.500000  1
  Hg  Hg10  1  0.500000  0.417866  0.356080  1
  Hg  Hg11  1  0.500000  0.582134  0.643920  1
  Hg  Hg12  1  0.500000  0.080453  0.855523  1
  Hg  Hg13  1  0.500000  0.919547  0.144477  1
  Hg  Hg14  1  0.500000  0.289741  0.059623  1
  Hg  Hg15  1  0.500000  0.710259  0.940377  1
  Hg  Hg16  1  0.500000  0.210679  0.561708  1
  Hg  Hg17  1  0.500000  0.789321  0.438292  1
  Ir  Ir18  1  0.500000  0.026882  0.302573  1
  Ir  Ir19  1  0.500000  0.973118  0.697427  1
  Pt  Pt20  1  0.500000  0.476103  0.800643  1
  Pt  Pt21  1  0.500000  0.523897  0.199357  1
