# generated using pymatgen
data_Sr2BBrO3
_symmetry_space_group_name_H-M   'P 1'
_cell_length_a   9.20345900
_cell_length_b   4.33460324
_cell_length_c   13.24216198
_cell_angle_alpha   80.39904670
_cell_angle_beta   90.00000000
_cell_angle_gamma   90.00000000
_symmetry_Int_Tables_number   1
_chemical_formula_structural   Sr2BBrO3
_chemical_formula_sum   'Sr8 B4 Br4 O12'
_cell_volume   520.87471527
_cell_formula_units_Z   4
loop_
 _symmetry_equiv_pos_site_id
 _symmetry_equiv_pos_as_xyz
  1  'x, y, z'
loop_
 _atom_site_type_symbol
 _atom_site_label
 _atom_site_symmetry_multiplicity
 _atom_site_fract_x
 _atom_site_fract_y
 _atom_site_fract_z
 _atom_site_occupancy
  Sr  Sr0  1  0.615607  0.680890  0.883798  1
  Sr  Sr1  1  0.384393  0.319110  0.116202  1
  Sr  Sr2  1  0.125385  0.712936  0.856980  1
  Sr  Sr3  1  0.884393  0.680890  0.383798  1
  Sr  Sr4  1  0.625385  0.287064  0.643020  1
  Sr  Sr5  1  0.374615  0.712936  0.356980  1
  Sr  Sr6  1  0.874615  0.287064  0.143020  1
  Sr  Sr7  1  0.115607  0.319110  0.616202  1
  B  B8  1  0.632781  0.710647  0.156301  1
  B  B9  1  0.867219  0.710647  0.656301  1
  B  B10  1  0.367219  0.289353  0.843699  1
  B  B11  1  0.132781  0.289353  0.343699  1
  Br  Br12  1  0.871532  0.194899  0.908901  1
  Br  Br13  1  0.128468  0.805101  0.091099  1
  Br  Br14  1  0.371532  0.805101  0.591099  1
  Br  Br15  1  0.628468  0.194899  0.408901  1
  O  O16  1  0.495879  0.799133  0.186216  1
  O  O17  1  0.995879  0.200867  0.313784  1
  O  O18  1  0.762430  0.770902  0.203876  1
  O  O19  1  0.638700  0.534836  0.076234  1
  O  O20  1  0.004121  0.799133  0.686216  1
  O  O21  1  0.737570  0.770902  0.703876  1
  O  O22  1  0.504121  0.200867  0.813784  1
  O  O23  1  0.262430  0.229098  0.296124  1
  O  O24  1  0.361300  0.465164  0.923766  1
  O  O25  1  0.138700  0.465164  0.423766  1
  O  O26  1  0.861300  0.534836  0.576234  1
  O  O27  1  0.237570  0.229098  0.796124  1
