# generated using pymatgen
data_Tb7Er3IrRu3
_symmetry_space_group_name_H-M   'P 1'
_cell_length_a   6.36115360
_cell_length_b   7.29396614
_cell_length_c   8.46843313
_cell_angle_alpha   96.74931532
_cell_angle_beta   111.80455104
_cell_angle_gamma   90.08901196
_symmetry_Int_Tables_number   1
_chemical_formula_structural   Tb7Er3IrRu3
_chemical_formula_sum   'Tb7 Er3 Ir1 Ru3'
_cell_volume   361.84395022
_cell_formula_units_Z   1
loop_
 _symmetry_equiv_pos_site_id
 _symmetry_equiv_pos_as_xyz
  1  'x, y, z'
loop_
 _atom_site_type_symbol
 _atom_site_label
 _atom_site_symmetry_multiplicity
 _atom_site_fract_x
 _atom_site_fract_y
 _atom_site_fract_z
 _atom_site_occupancy
  Tb  Tb0  1  0.792036  0.582003  0.814789  1
  Tb  Tb1  1  0.978544  0.915100  0.186818  1
  Tb  Tb2  1  0.208194  0.415105  0.185996  1
  Tb  Tb3  1  0.024955  0.085903  0.815023  1
  Tb  Tb4  1  0.206019  0.684211  0.565341  1
  Tb  Tb5  1  0.641527  0.815977  0.433645  1
  Tb  Tb6  1  0.793051  0.314365  0.434030  1
  Er  Er7  1  0.357597  0.185235  0.564748  1
  Er  Er8  1  0.421426  0.750026  0.000192  1
  Er  Er9  1  0.578729  0.251010  0.000284  1
  Ir  Ir10  1  0.599801  0.925119  0.779732  1
  Ru  Ru11  1  0.822287  0.576393  0.218700  1
  Ru  Ru12  1  0.395999  0.075486  0.220541  1
  Ru  Ru13  1  0.179834  0.424066  0.780159  1
