# generated using pymatgen
data_Tb5Si12Ir17Os2
_symmetry_space_group_name_H-M   'P 1'
_cell_length_a   12.77596700
_cell_length_b   12.83295872
_cell_length_c   3.99273600
_cell_angle_alpha   90.00000000
_cell_angle_beta   90.00000000
_cell_angle_gamma   119.85319732
_symmetry_Int_Tables_number   1
_chemical_formula_structural   Tb5Si12Ir17Os2
_chemical_formula_sum   'Tb5 Si12 Ir17 Os2'
_cell_volume   567.75680817
_cell_formula_units_Z   1
loop_
 _symmetry_equiv_pos_site_id
 _symmetry_equiv_pos_as_xyz
  1  'x, y, z'
loop_
 _atom_site_type_symbol
 _atom_site_label
 _atom_site_symmetry_multiplicity
 _atom_site_fract_x
 _atom_site_fract_y
 _atom_site_fract_z
 _atom_site_occupancy
  Tb  Tb0  1  0.332356  0.664572  0.500000  1
  Tb  Tb1  1  0.667786  0.335428  0.500000  1
  Tb  Tb2  1  0.999349  0.813027  0.000000  1
  Tb  Tb3  1  0.186321  0.186973  0.000000  1
  Tb  Tb4  1  0.814370  0.000000  0.000000  1
  Si  Si5  1  0.000228  0.629039  0.500000  1
  Si  Si6  1  0.371190  0.370961  0.500000  1
  Si  Si7  1  0.631870  0.000000  0.500000  1
  Si  Si8  1  0.519211  0.685818  0.000000  1
  Si  Si9  1  0.311015  0.830679  0.000000  1
  Si  Si10  1  0.165156  0.478595  0.000000  1
  Si  Si11  1  0.480336  0.169321  0.000000  1
  Si  Si12  1  0.686561  0.521405  0.000000  1
  Si  Si13  1  0.833393  0.314182  0.000000  1
  Si  Si14  1  0.999713  0.180645  0.500000  1
  Si  Si15  1  0.819068  0.819355  0.500000  1
  Si  Si16  1  0.182566  0.000000  0.500000  1
  Ir  Ir17  1  0.511377  0.872651  0.000000  1
  Ir  Ir18  1  0.125909  0.638014  0.000000  1
  Ir  Ir19  1  0.360399  0.487704  0.000000  1
  Ir  Ir20  1  0.487896  0.361986  0.000000  1
  Ir  Ir21  1  0.872695  0.512296  0.000000  1
  Ir  Ir22  1  0.638726  0.127349  0.000000  1
  Ir  Ir23  1  0.447021  0.000000  0.500000  1
  Ir  Ir24  1  0.999169  0.280573  0.000000  1
  Ir  Ir25  1  0.718596  0.719427  0.000000  1
  Ir  Ir26  1  0.282660  0.000000  0.000000  1
  Ir  Ir27  1  0.622417  0.805439  0.500000  1
  Ir  Ir28  1  0.194301  0.817253  0.500000  1
  Ir  Ir29  1  0.181880  0.375640  0.500000  1
  Ir  Ir30  1  0.377047  0.182747  0.500000  1
  Ir  Ir31  1  0.806239  0.624360  0.500000  1
  Ir  Ir32  1  0.816976  0.194561  0.500000  1
  Ir  Ir33  1  0.000704  0.000000  0.500000  1
  Os  Os34  1  0.999716  0.443936  0.500000  1
  Os  Os35  1  0.555782  0.556064  0.500000  1
