# generated using pymatgen
data_Hf18Ti2ZnRe6Se
_symmetry_space_group_name_H-M   'P 1'
_cell_length_a   8.69028500
_cell_length_b   8.69028562
_cell_length_c   8.54902300
_cell_angle_alpha   90.00000000
_cell_angle_beta   90.00000000
_cell_angle_gamma   120.00000146
_symmetry_Int_Tables_number   1
_chemical_formula_structural   Hf18Ti2ZnRe6Se
_chemical_formula_sum   'Hf18 Ti2 Zn1 Re6 Se1'
_cell_volume   559.13307151
_cell_formula_units_Z   1
loop_
 _symmetry_equiv_pos_site_id
 _symmetry_equiv_pos_as_xyz
  1  'x, y, z'
loop_
 _atom_site_type_symbol
 _atom_site_label
 _atom_site_symmetry_multiplicity
 _atom_site_fract_x
 _atom_site_fract_y
 _atom_site_fract_z
 _atom_site_occupancy
  Hf  Hf0  1  0.194337  0.805663  0.447987  1
  Hf  Hf1  1  0.194337  0.388672  0.447987  1
  Hf  Hf2  1  0.611328  0.805663  0.447987  1
  Hf  Hf3  1  0.806966  0.193034  0.548174  1
  Hf  Hf4  1  0.806966  0.613931  0.548174  1
  Hf  Hf5  1  0.386069  0.193034  0.548174  1
  Hf  Hf6  1  0.806966  0.193034  0.951826  1
  Hf  Hf7  1  0.806966  0.613931  0.951826  1
  Hf  Hf8  1  0.386069  0.193034  0.951826  1
  Hf  Hf9  1  0.194337  0.805663  0.052013  1
  Hf  Hf10  1  0.194337  0.388672  0.052013  1
  Hf  Hf11  1  0.611328  0.805663  0.052013  1
  Hf  Hf12  1  0.542103  0.457897  0.250000  1
  Hf  Hf13  1  0.542103  0.084206  0.250000  1
  Hf  Hf14  1  0.915794  0.457897  0.250000  1
  Hf  Hf15  1  0.454260  0.545740  0.750000  1
  Hf  Hf16  1  0.454260  0.908521  0.750000  1
  Hf  Hf17  1  0.091479  0.545740  0.750000  1
  Ti  Ti18  1  0.000000  0.000000  0.500754  1
  Ti  Ti19  1  0.000000  0.000000  0.999246  1
  Zn  Zn20  1  0.333333  0.666667  0.250000  1
  Re  Re21  1  0.887973  0.112027  0.250000  1
  Re  Re22  1  0.887973  0.775946  0.250000  1
  Re  Re23  1  0.224054  0.112027  0.250000  1
  Re  Re24  1  0.112259  0.887741  0.750000  1
  Re  Re25  1  0.112259  0.224520  0.750000  1
  Re  Re26  1  0.775480  0.887741  0.750000  1
  Se  Se27  1  0.666667  0.333333  0.750000  1
