# generated using pymatgen
data_SrTbPt10
_symmetry_space_group_name_H-M   'P 1'
_cell_length_a   4.45390100
_cell_length_b   5.40981600
_cell_length_c   9.33567600
_cell_angle_alpha   90.00000000
_cell_angle_beta   90.00000000
_cell_angle_gamma   90.00000000
_symmetry_Int_Tables_number   1
_chemical_formula_structural   SrTbPt10
_chemical_formula_sum   'Sr1 Tb1 Pt10'
_cell_volume   224.94110504
_cell_formula_units_Z   1
loop_
 _symmetry_equiv_pos_site_id
 _symmetry_equiv_pos_as_xyz
  1  'x, y, z'
loop_
 _atom_site_type_symbol
 _atom_site_label
 _atom_site_symmetry_multiplicity
 _atom_site_fract_x
 _atom_site_fract_y
 _atom_site_fract_z
 _atom_site_occupancy
  Sr  Sr0  1  0.000000  0.500000  0.500000  1
  Tb  Tb1  1  0.000000  0.000000  0.000000  1
  Pt  Pt2  1  0.000000  0.000000  0.326762  1
  Pt  Pt3  1  0.000000  0.500000  0.838708  1
  Pt  Pt4  1  0.000000  0.500000  0.161292  1
  Pt  Pt5  1  0.000000  0.000000  0.673238  1
  Pt  Pt6  1  0.500000  0.000000  0.500000  1
  Pt  Pt7  1  0.500000  0.500000  0.000000  1
  Pt  Pt8  1  0.500000  0.246926  0.245381  1
  Pt  Pt9  1  0.500000  0.753074  0.754619  1
  Pt  Pt10  1  0.500000  0.753074  0.245381  1
  Pt  Pt11  1  0.500000  0.246926  0.754619  1
