# generated using pymatgen
data_Nd9PaIr8
_symmetry_space_group_name_H-M   'P 1'
_cell_length_a   7.63776200
_cell_length_b   7.68859042
_cell_length_c   14.92153898
_cell_angle_alpha   90.35197579
_cell_angle_beta   90.00000000
_cell_angle_gamma   90.00000000
_symmetry_Int_Tables_number   1
_chemical_formula_structural   Nd9PaIr8
_chemical_formula_sum   'Nd18 Pa2 Ir16'
_cell_volume   876.23030651
_cell_formula_units_Z   2
loop_
 _symmetry_equiv_pos_site_id
 _symmetry_equiv_pos_as_xyz
  1  'x, y, z'
loop_
 _atom_site_type_symbol
 _atom_site_label
 _atom_site_symmetry_multiplicity
 _atom_site_fract_x
 _atom_site_fract_y
 _atom_site_fract_z
 _atom_site_occupancy
  Nd  Nd0  1  0.340901  0.831065  0.120550  1
  Nd  Nd1  1  0.840901  0.668935  0.379450  1
  Nd  Nd2  1  0.339655  0.830698  0.378559  1
  Nd  Nd3  1  0.839655  0.669302  0.121441  1
  Nd  Nd4  1  0.659143  0.168648  0.879160  1
  Nd  Nd5  1  0.159143  0.331352  0.620840  1
  Nd  Nd6  1  0.514531  0.682032  0.593557  1
  Nd  Nd7  1  0.014531  0.817968  0.906443  1
  Nd  Nd8  1  0.487992  0.315689  0.095564  1
  Nd  Nd9  1  0.987992  0.184311  0.404436  1
  Nd  Nd10  1  0.486190  0.320040  0.407728  1
  Nd  Nd11  1  0.986190  0.179960  0.092272  1
  Nd  Nd12  1  0.511511  0.680687  0.907685  1
  Nd  Nd13  1  0.011511  0.819313  0.592315  1
  Nd  Nd14  1  0.821458  0.514578  0.749551  1
  Nd  Nd15  1  0.321458  0.985422  0.750449  1
  Nd  Nd16  1  0.174025  0.490857  0.249861  1
  Nd  Nd17  1  0.674025  0.009143  0.250139  1
  Pa  Pa18  1  0.658840  0.161640  0.624805  1
  Pa  Pa19  1  0.158840  0.338360  0.875195  1
  Ir  Ir20  1  0.689097  0.974758  0.472731  1
  Ir  Ir21  1  0.189097  0.525242  0.027269  1
  Ir  Ir22  1  0.302617  0.058616  0.957234  1
  Ir  Ir23  1  0.802617  0.441384  0.542766  1
  Ir  Ir24  1  0.342295  0.032177  0.547506  1
  Ir  Ir25  1  0.842295  0.467823  0.952494  1
  Ir  Ir26  1  0.667820  0.967838  0.041919  1
  Ir  Ir27  1  0.167820  0.532162  0.458081  1
  Ir  Ir28  1  0.458382  0.374455  0.747942  1
  Ir  Ir29  1  0.958382  0.125545  0.752058  1
  Ir  Ir30  1  0.544994  0.600164  0.251099  1
  Ir  Ir31  1  0.044994  0.899836  0.248901  1
  Ir  Ir32  1  0.703464  0.879186  0.741431  1
  Ir  Ir33  1  0.203464  0.620814  0.758569  1
  Ir  Ir34  1  0.297086  0.138519  0.250480  1
  Ir  Ir35  1  0.797086  0.361481  0.249520  1
