# generated using pymatgen
data_Gd7DyC10
_symmetry_space_group_name_H-M   'P 1'
_cell_length_a   3.72075500
_cell_length_b   6.67558090
_cell_length_c   12.13499300
_cell_angle_alpha   88.94674278
_cell_angle_beta   90.00000000
_cell_angle_gamma   90.00000000
_symmetry_Int_Tables_number   1
_chemical_formula_structural   Gd7DyC10
_chemical_formula_sum   'Gd7 Dy1 C10'
_cell_volume   301.36046922
_cell_formula_units_Z   1
loop_
 _symmetry_equiv_pos_site_id
 _symmetry_equiv_pos_as_xyz
  1  'x, y, z'
loop_
 _atom_site_type_symbol
 _atom_site_label
 _atom_site_symmetry_multiplicity
 _atom_site_fract_x
 _atom_site_fract_y
 _atom_site_fract_z
 _atom_site_occupancy
  Gd  Gd0  1  0.500000  0.390214  0.303229  1
  Gd  Gd1  1  0.500000  0.610419  0.696284  1
  Gd  Gd2  1  0.500000  0.105699  0.803779  1
  Gd  Gd3  1  0.000000  0.244440  0.042597  1
  Gd  Gd4  1  0.000000  0.753619  0.958391  1
  Gd  Gd5  1  0.000000  0.255016  0.543034  1
  Gd  Gd6  1  0.000000  0.745819  0.456748  1
  Dy  Dy7  1  0.500000  0.894975  0.196504  1
  C  C8  1  0.500000  0.998590  0.000949  1
  C  C9  1  0.500000  0.500119  0.499710  1
  C  C10  1  0.000000  0.134701  0.235240  1
  C  C11  1  0.000000  0.862669  0.764526  1
  C  C12  1  0.000000  0.357235  0.737925  1
  C  C13  1  0.000000  0.645866  0.261463  1
  C  C14  1  0.000000  0.108481  0.344542  1
  C  C15  1  0.000000  0.890557  0.655381  1
  C  C16  1  0.000000  0.419281  0.841257  1
  C  C17  1  0.000000  0.582304  0.158439  1
