# generated using pymatgen
data_Pa12Mn2Al9Re13
_symmetry_space_group_name_H-M   'P 1'
_cell_length_a   9.48394600
_cell_length_b   9.48394486
_cell_length_c   8.55991800
_cell_angle_alpha   90.00000000
_cell_angle_beta   90.00000000
_cell_angle_gamma   119.99999003
_symmetry_Int_Tables_number   1
_chemical_formula_structural   Pa12Mn2Al9Re13
_chemical_formula_sum   'Pa12 Mn2 Al9 Re13'
_cell_volume   666.77356348
_cell_formula_units_Z   1
loop_
 _symmetry_equiv_pos_site_id
 _symmetry_equiv_pos_as_xyz
  1  'x, y, z'
loop_
 _atom_site_type_symbol
 _atom_site_label
 _atom_site_symmetry_multiplicity
 _atom_site_fract_x
 _atom_site_fract_y
 _atom_site_fract_z
 _atom_site_occupancy
  Pa  Pa0  1  0.330326  0.997165  0.064101  1
  Pa  Pa1  1  0.666839  0.997165  0.935899  1
  Pa  Pa2  1  0.002835  0.333161  0.064101  1
  Pa  Pa3  1  0.669652  0.001176  0.564284  1
  Pa  Pa4  1  0.998824  0.330348  0.435716  1
  Pa  Pa5  1  0.002835  0.669674  0.935899  1
  Pa  Pa6  1  0.331525  0.001176  0.435716  1
  Pa  Pa7  1  0.998824  0.668475  0.564284  1
  Pa  Pa8  1  0.666839  0.669674  0.064101  1
  Pa  Pa9  1  0.330326  0.333161  0.935899  1
  Pa  Pa10  1  0.331525  0.330348  0.564284  1
  Pa  Pa11  1  0.669652  0.668475  0.435716  1
  Mn  Mn12  1  0.000000  0.000000  0.500000  1
  Mn  Mn13  1  0.000000  0.000000  0.000000  1
  Al  Al14  1  0.666667  0.333333  0.500000  1
  Al  Al15  1  0.666667  0.333333  0.000000  1
  Al  Al16  1  0.333333  0.666667  0.000000  1
  Al  Al17  1  0.166440  0.002099  0.750232  1
  Al  Al18  1  0.835658  0.002099  0.249768  1
  Al  Al19  1  0.997901  0.164342  0.750232  1
  Al  Al20  1  0.997901  0.833560  0.249768  1
  Al  Al21  1  0.835658  0.833560  0.750232  1
  Al  Al22  1  0.166440  0.164342  0.249768  1
  Re  Re23  1  0.165702  0.490302  0.752772  1
  Re  Re24  1  0.850851  0.504254  0.251185  1
  Re  Re25  1  0.509698  0.675401  0.752772  1
  Re  Re26  1  0.495746  0.149149  0.748815  1
  Re  Re27  1  0.495746  0.346596  0.251185  1
  Re  Re28  1  0.509698  0.834298  0.247228  1
  Re  Re29  1  0.324599  0.834298  0.752772  1
  Re  Re30  1  0.653404  0.504254  0.748815  1
  Re  Re31  1  0.653404  0.149149  0.251185  1
  Re  Re32  1  0.324599  0.490302  0.247228  1
  Re  Re33  1  0.850851  0.346596  0.748815  1
  Re  Re34  1  0.165702  0.675401  0.247228  1
  Re  Re35  1  0.333333  0.666667  0.500000  1
