# generated using pymatgen
data_Er19Tm(Ir3Rh)3
_symmetry_space_group_name_H-M   'P 1'
_cell_length_a   10.77822800
_cell_length_b   10.77797100
_cell_length_c   6.34243000
_cell_angle_alpha   90.00000000
_cell_angle_beta   90.00000000
_cell_angle_gamma   89.99840522
_symmetry_Int_Tables_number   1
_chemical_formula_structural   Er19Tm(Ir3Rh)3
_chemical_formula_sum   'Er19 Tm1 Ir9 Rh3'
_cell_volume   736.78378540
_cell_formula_units_Z   1
loop_
 _symmetry_equiv_pos_site_id
 _symmetry_equiv_pos_as_xyz
  1  'x, y, z'
loop_
 _atom_site_type_symbol
 _atom_site_label
 _atom_site_symmetry_multiplicity
 _atom_site_fract_x
 _atom_site_fract_y
 _atom_site_fract_z
 _atom_site_occupancy
  Er  Er0  1  0.290456  0.088098  0.377696  1
  Er  Er1  1  0.290396  0.911722  0.877602  1
  Er  Er2  1  0.709604  0.088278  0.877602  1
  Er  Er3  1  0.709544  0.911902  0.377696  1
  Er  Er4  1  0.588265  0.790372  0.877589  1
  Er  Er5  1  0.588071  0.209609  0.377713  1
  Er  Er6  1  0.411929  0.790391  0.377713  1
  Er  Er7  1  0.411735  0.209628  0.877589  1
  Er  Er8  1  0.208979  0.412000  0.621361  1
  Er  Er9  1  0.209194  0.588199  0.123498  1
  Er  Er10  1  0.790806  0.411801  0.123498  1
  Er  Er11  1  0.791021  0.588000  0.621361  1
  Er  Er12  1  0.911804  0.709160  0.123475  1
  Er  Er13  1  0.911970  0.291072  0.621391  1
  Er  Er14  1  0.088030  0.708928  0.621391  1
  Er  Er15  1  0.088196  0.290840  0.123475  1
  Er  Er16  1  0.000000  0.000000  0.500298  1
  Er  Er17  1  0.000000  0.000000  0.000128  1
  Er  Er18  1  0.500000  0.500000  0.000142  1
  Tm  Tm19  1  0.500000  0.500000  0.500279  1
  Ir  Ir20  1  0.845623  0.153463  0.249708  1
  Ir  Ir21  1  0.845751  0.846342  0.749961  1
  Ir  Ir22  1  0.154249  0.153658  0.749961  1
  Ir  Ir23  1  0.154377  0.846537  0.249708  1
  Ir  Ir24  1  0.653584  0.345820  0.749855  1
  Ir  Ir25  1  0.653392  0.654308  0.249813  1
  Ir  Ir26  1  0.346608  0.345692  0.249813  1
  Ir  Ir27  1  0.346416  0.654180  0.749855  1
  Ir  Ir28  1  0.000000  0.500000  0.377020  1
  Rh  Rh29  1  0.500000  0.000000  0.122570  1
  Rh  Rh30  1  0.500000  0.000000  0.622604  1
  Rh  Rh31  1  0.000000  0.500000  0.877634  1
