# generated using pymatgen
data_CeZn2Pt2Au
_symmetry_space_group_name_H-M   'P 1'
_cell_length_a   5.28695426
_cell_length_b   5.28695429
_cell_length_c   5.28695412
_cell_angle_alpha   119.74950518
_cell_angle_beta   116.54325019
_cell_angle_gamma   93.26291213
_symmetry_Int_Tables_number   1
_chemical_formula_structural   CeZn2Pt2Au
_chemical_formula_sum   'Ce1 Zn2 Pt2 Au1'
_cell_volume   107.13810559
_cell_formula_units_Z   1
loop_
 _symmetry_equiv_pos_site_id
 _symmetry_equiv_pos_as_xyz
  1  'x, y, z'
loop_
 _atom_site_type_symbol
 _atom_site_label
 _atom_site_symmetry_multiplicity
 _atom_site_fract_x
 _atom_site_fract_y
 _atom_site_fract_z
 _atom_site_occupancy
  Ce  Ce0  1  0.007364  0.007364  0.000000  1
  Zn  Zn1  1  0.615903  0.866760  0.250857  1
  Zn  Zn2  1  0.615903  0.365047  0.749143  1
  Pt  Pt3  1  0.121178  0.372299  0.748879  1
  Pt  Pt4  1  0.623420  0.372299  0.251121  1
  Au  Au5  1  0.266231  0.766231  0.500000  1
