# generated using pymatgen
data_K8TaAs5Pb
_symmetry_space_group_name_H-M   'P 1'
_cell_length_a   16.73683875
_cell_length_b   16.73684034
_cell_length_c   13.62018200
_cell_angle_alpha   85.13573713
_cell_angle_beta   85.13573667
_cell_angle_gamma   32.90499366
_symmetry_Int_Tables_number   1
_chemical_formula_structural   K8TaAs5Pb
_chemical_formula_sum   'K32 Ta4 As20 Pb4'
_cell_volume   2064.54081078
_cell_formula_units_Z   4
loop_
 _symmetry_equiv_pos_site_id
 _symmetry_equiv_pos_as_xyz
  1  'x, y, z'
loop_
 _atom_site_type_symbol
 _atom_site_label
 _atom_site_symmetry_multiplicity
 _atom_site_fract_x
 _atom_site_fract_y
 _atom_site_fract_z
 _atom_site_occupancy
  K  K0  1  0.638718  0.715320  0.281625  1
  K  K1  1  0.985969  0.933333  0.618378  1
  K  K2  1  0.392375  0.734909  0.289651  1
  K  K3  1  0.190757  0.277017  0.945078  1
  K  K4  1  0.598630  0.361936  0.392814  1
  K  K5  1  0.809243  0.722983  0.054922  1
  K  K6  1  0.361282  0.284680  0.718375  1
  K  K7  1  0.821274  0.477438  0.041384  1
  K  K8  1  0.284680  0.361282  0.218375  1
  K  K9  1  0.156362  0.072885  0.101383  1
  K  K10  1  0.477438  0.821274  0.541384  1
  K  K11  1  0.066667  0.014031  0.881622  1
  K  K12  1  0.843638  0.927115  0.898617  1
  K  K13  1  0.522562  0.178726  0.458616  1
  K  K14  1  0.178726  0.522562  0.958616  1
  K  K15  1  0.068918  0.378890  0.668971  1
  K  K16  1  0.927115  0.843638  0.398617  1
  K  K17  1  0.361936  0.598630  0.892814  1
  K  K18  1  0.638064  0.401370  0.107186  1
  K  K19  1  0.072885  0.156362  0.601383  1
  K  K20  1  0.378890  0.068918  0.168971  1
  K  K21  1  0.607625  0.265091  0.710349  1
  K  K22  1  0.621110  0.931082  0.831029  1
  K  K23  1  0.401370  0.638064  0.607186  1
  K  K24  1  0.722983  0.809243  0.554922  1
  K  K25  1  0.277017  0.190757  0.445078  1
  K  K26  1  0.933333  0.985969  0.118378  1
  K  K27  1  0.265091  0.607625  0.210349  1
  K  K28  1  0.931082  0.621110  0.331029  1
  K  K29  1  0.715320  0.638718  0.781625  1
  K  K30  1  0.014031  0.066667  0.381622  1
  K  K31  1  0.734909  0.392375  0.789651  1
  Ta  Ta32  1  0.682186  0.004233  0.182076  1
  Ta  Ta33  1  0.004233  0.682186  0.682076  1
  Ta  Ta34  1  0.317814  0.995767  0.817924  1
  Ta  Ta35  1  0.995767  0.317814  0.317924  1
  As  As36  1  0.236452  0.046962  0.349853  1
  As  As37  1  0.401806  0.027982  0.686220  1
  As  As38  1  0.531398  0.115834  0.027965  1
  As  As39  1  0.884166  0.468602  0.472035  1
  As  As40  1  0.197422  0.615639  0.737755  1
  As  As41  1  0.972018  0.598194  0.813780  1
  As  As42  1  0.729999  0.213343  0.922157  1
  As  As43  1  0.786657  0.270001  0.577843  1
  As  As44  1  0.213343  0.729999  0.422157  1
  As  As45  1  0.046962  0.236452  0.849853  1
  As  As46  1  0.615639  0.197422  0.237755  1
  As  As47  1  0.598194  0.972018  0.313780  1
  As  As48  1  0.027982  0.401806  0.186220  1
  As  As49  1  0.953038  0.763548  0.150147  1
  As  As50  1  0.270001  0.786657  0.077843  1
  As  As51  1  0.468602  0.884166  0.972035  1
  As  As52  1  0.115834  0.531398  0.527965  1
  As  As53  1  0.384361  0.802578  0.762245  1
  As  As54  1  0.763548  0.953038  0.650147  1
  As  As55  1  0.802578  0.384361  0.262245  1
  Pb  Pb56  1  0.475380  0.704725  0.964772  1
  Pb  Pb57  1  0.524620  0.295275  0.035228  1
  Pb  Pb58  1  0.704725  0.475380  0.464772  1
  Pb  Pb59  1  0.295275  0.524620  0.535228  1
