# generated using pymatgen
data_Nb12Al6PdPtN4
_symmetry_space_group_name_H-M   'P 1'
_cell_length_a   7.06029676
_cell_length_b   7.07583288
_cell_length_c   7.08050013
_cell_angle_alpha   89.97817848
_cell_angle_beta   90.00238752
_cell_angle_gamma   90.33533246
_symmetry_Int_Tables_number   1
_chemical_formula_structural   Nb12Al6PdPtN4
_chemical_formula_sum   'Nb12 Al6 Pd1 Pt1 N4'
_cell_volume   353.71785934
_cell_formula_units_Z   1
loop_
 _symmetry_equiv_pos_site_id
 _symmetry_equiv_pos_as_xyz
  1  'x, y, z'
loop_
 _atom_site_type_symbol
 _atom_site_label
 _atom_site_symmetry_multiplicity
 _atom_site_fract_x
 _atom_site_fract_y
 _atom_site_fract_z
 _atom_site_occupancy
  Nb  Nb0  1  0.789557  0.957588  0.378116  1
  Nb  Nb1  1  0.709876  0.042287  0.877256  1
  Nb  Nb2  1  0.206908  0.453042  0.125460  1
  Nb  Nb3  1  0.293220  0.545722  0.625746  1
  Nb  Nb4  1  0.955785  0.380561  0.790637  1
  Nb  Nb5  1  0.041638  0.869711  0.709611  1
  Nb  Nb6  1  0.459253  0.131186  0.208799  1
  Nb  Nb7  1  0.544794  0.618796  0.290588  1
  Nb  Nb8  1  0.380301  0.789010  0.954525  1
  Nb  Nb9  1  0.871960  0.707508  0.041923  1
  Nb  Nb10  1  0.119694  0.211361  0.455374  1
  Nb  Nb11  1  0.627866  0.292114  0.542853  1
  Al  Al12  1  0.823775  0.321208  0.176350  1
  Al  Al13  1  0.676077  0.678999  0.676320  1
  Al  Al14  1  0.563114  0.421603  0.926238  1
  Al  Al15  1  0.419758  0.933449  0.569780  1
  Al  Al16  1  0.937143  0.578983  0.426061  1
  Al  Al17  1  0.079821  0.066291  0.070421  1
  Pd  Pd18  1  0.182357  0.823373  0.317607  1
  Pt  Pt19  1  0.317664  0.176876  0.817684  1
  N  N20  1  0.878431  0.122300  0.629202  1
  N  N21  1  0.620914  0.877734  0.129104  1
  N  N22  1  0.127780  0.625029  0.880361  1
  N  N23  1  0.372313  0.375270  0.379982  1
