# generated using pymatgen
data_TbErTm8In8(PdPt)2
_symmetry_space_group_name_H-M   'P 1'
_cell_length_a   3.58608000
_cell_length_b   8.11195359
_cell_length_c   18.15395200
_cell_angle_alpha   89.97808311
_cell_angle_beta   90.00000000
_cell_angle_gamma   90.00000000
_symmetry_Int_Tables_number   1
_chemical_formula_structural   TbErTm8In8(PdPt)2
_chemical_formula_sum   'Tb1 Er1 Tm8 In8 Pd2 Pt2'
_cell_volume   528.10050444
_cell_formula_units_Z   1
loop_
 _symmetry_equiv_pos_site_id
 _symmetry_equiv_pos_as_xyz
  1  'x, y, z'
loop_
 _atom_site_type_symbol
 _atom_site_label
 _atom_site_symmetry_multiplicity
 _atom_site_fract_x
 _atom_site_fract_y
 _atom_site_fract_z
 _atom_site_occupancy
  Tb  Tb0  1  0.000000  0.000000  0.000000  1
  Er  Er1  1  0.000000  0.500000  0.500000  1
  Tm  Tm2  1  0.000000  0.117601  0.415534  1
  Tm  Tm3  1  0.000000  0.882399  0.584466  1
  Tm  Tm4  1  0.000000  0.382366  0.914578  1
  Tm  Tm5  1  0.000000  0.617634  0.085422  1
  Tm  Tm6  1  0.000000  0.247505  0.220558  1
  Tm  Tm7  1  0.000000  0.752495  0.779442  1
  Tm  Tm8  1  0.000000  0.260170  0.720913  1
  Tm  Tm9  1  0.000000  0.739830  0.279087  1
  In  In10  1  0.500000  0.422160  0.351943  1
  In  In11  1  0.500000  0.577840  0.648057  1
  In  In12  1  0.500000  0.075478  0.850106  1
  In  In13  1  0.500000  0.924522  0.149894  1
  In  In14  1  0.500000  0.293906  0.067149  1
  In  In15  1  0.500000  0.706094  0.932851  1
  In  In16  1  0.500000  0.206887  0.567303  1
  In  In17  1  0.500000  0.793113  0.432697  1
  Pd  Pd18  1  0.500000  0.025035  0.304156  1
  Pd  Pd19  1  0.500000  0.974965  0.695844  1
  Pt  Pt20  1  0.500000  0.474724  0.803513  1
  Pt  Pt21  1  0.500000  0.525276  0.196487  1
