# generated using pymatgen
data_YbNb8AlSe16
_symmetry_space_group_name_H-M   'P 1'
_cell_length_a   7.01442400
_cell_length_b   7.01442454
_cell_length_c   13.87521600
_cell_angle_alpha   90.00000000
_cell_angle_beta   90.00000000
_cell_angle_gamma   119.99999746
_symmetry_Int_Tables_number   1
_chemical_formula_structural   YbNb8AlSe16
_chemical_formula_sum   'Yb1 Nb8 Al1 Se16'
_cell_volume   591.22726951
_cell_formula_units_Z   1
loop_
 _symmetry_equiv_pos_site_id
 _symmetry_equiv_pos_as_xyz
  1  'x, y, z'
loop_
 _atom_site_type_symbol
 _atom_site_label
 _atom_site_symmetry_multiplicity
 _atom_site_fract_x
 _atom_site_fract_y
 _atom_site_fract_z
 _atom_site_occupancy
  Yb  Yb0  1  0.000000  0.000000  0.500000  1
  Nb  Nb1  1  0.000000  0.000000  0.235035  1
  Nb  Nb2  1  0.000000  0.000000  0.764965  1
  Nb  Nb3  1  0.506948  0.013898  0.232499  1
  Nb  Nb4  1  0.986102  0.493052  0.232499  1
  Nb  Nb5  1  0.506948  0.493052  0.232499  1
  Nb  Nb6  1  0.493052  0.986102  0.767501  1
  Nb  Nb7  1  0.013898  0.506948  0.767501  1
  Nb  Nb8  1  0.493052  0.506948  0.767501  1
  Al  Al9  1  0.000000  0.000000  0.000000  1
  Se  Se10  1  0.333333  0.666667  0.890331  1
  Se  Se11  1  0.666667  0.333333  0.109669  1
  Se  Se12  1  0.666667  0.333333  0.357771  1
  Se  Se13  1  0.333333  0.666667  0.642229  1
  Se  Se14  1  0.169414  0.830586  0.352716  1
  Se  Se15  1  0.169414  0.338829  0.352716  1
  Se  Se16  1  0.661171  0.830586  0.352716  1
  Se  Se17  1  0.830586  0.169414  0.647284  1
  Se  Se18  1  0.830586  0.661171  0.647284  1
  Se  Se19  1  0.338829  0.169414  0.647284  1
  Se  Se20  1  0.832158  0.167842  0.886888  1
  Se  Se21  1  0.832158  0.664317  0.886888  1
  Se  Se22  1  0.335683  0.167842  0.886888  1
  Se  Se23  1  0.167842  0.832158  0.113112  1
  Se  Se24  1  0.167842  0.335683  0.113112  1
  Se  Se25  1  0.664317  0.832158  0.113112  1
