# generated using pymatgen
data_AgSnBi2(Pt2O7)2
_symmetry_space_group_name_H-M   'P 1'
_cell_length_a   7.40589419
_cell_length_b   7.40589341
_cell_length_c   7.28085894
_cell_angle_alpha   58.83629948
_cell_angle_beta   58.83630556
_cell_angle_gamma   59.69905990
_symmetry_Int_Tables_number   1
_chemical_formula_structural   AgSnBi2(Pt2O7)2
_chemical_formula_sum   'Ag1 Sn1 Bi2 Pt4 O14'
_cell_volume   276.69041637
_cell_formula_units_Z   1
loop_
 _symmetry_equiv_pos_site_id
 _symmetry_equiv_pos_as_xyz
  1  'x, y, z'
loop_
 _atom_site_type_symbol
 _atom_site_label
 _atom_site_symmetry_multiplicity
 _atom_site_fract_x
 _atom_site_fract_y
 _atom_site_fract_z
 _atom_site_occupancy
  Ag  Ag0  1  0.125000  0.125000  0.625000  1
  Sn  Sn1  1  0.125000  0.125000  0.125000  1
  Bi  Bi2  1  0.125000  0.625000  0.125000  1
  Bi  Bi3  1  0.625000  0.125000  0.125000  1
  Pt  Pt4  1  0.625000  0.625000  0.125000  1
  Pt  Pt5  1  0.625000  0.125000  0.625000  1
  Pt  Pt6  1  0.125000  0.625000  0.625000  1
  Pt  Pt7  1  0.625000  0.625000  0.625000  1
  O  O8  1  0.237281  0.237281  0.236718  1
  O  O9  1  0.012719  0.012719  0.013282  1
  O  O10  1  0.544450  0.958859  0.540715  1
  O  O11  1  0.290049  0.721512  0.284591  1
  O  O12  1  0.539030  0.539030  0.965008  1
  O  O13  1  0.958859  0.544450  0.540715  1
  O  O14  1  0.528488  0.959951  0.965409  1
  O  O15  1  0.959926  0.959926  0.520506  1
  O  O16  1  0.959951  0.528488  0.965409  1
  O  O17  1  0.721512  0.290049  0.284591  1
  O  O18  1  0.291141  0.705550  0.709285  1
  O  O19  1  0.705550  0.291141  0.709285  1
  O  O20  1  0.290074  0.290074  0.729494  1
  O  O21  1  0.710970  0.710970  0.284992  1
