# generated using pymatgen
data_YbPr3Ga17GeIr6
_symmetry_space_group_name_H-M   'P 1'
_cell_length_a   7.65408068
_cell_length_b   7.65546560
_cell_length_c   9.63021226
_cell_angle_alpha   90.04358339
_cell_angle_beta   89.90783570
_cell_angle_gamma   119.79127251
_symmetry_Int_Tables_number   1
_chemical_formula_structural   YbPr3Ga17GeIr6
_chemical_formula_sum   'Yb1 Pr3 Ga17 Ge1 Ir6'
_cell_volume   489.71135991
_cell_formula_units_Z   1
loop_
 _symmetry_equiv_pos_site_id
 _symmetry_equiv_pos_as_xyz
  1  'x, y, z'
loop_
 _atom_site_type_symbol
 _atom_site_label
 _atom_site_symmetry_multiplicity
 _atom_site_fract_x
 _atom_site_fract_y
 _atom_site_fract_z
 _atom_site_occupancy
  Yb  Yb0  1  0.330797  0.003004  0.749537  1
  Pr  Pr1  1  0.997619  0.667318  0.249003  1
  Pr  Pr2  1  0.002226  0.331391  0.752320  1
  Pr  Pr3  1  0.670260  0.999574  0.248912  1
  Ga  Ga4  1  0.134286  0.128024  0.251077  1
  Ga  Ga5  1  0.873060  0.873192  0.749867  1
  Ga  Ga6  1  0.001185  0.674744  0.918230  1
  Ga  Ga7  1  0.001882  0.670273  0.579493  1
  Ga  Ga8  1  0.334471  0.000758  0.428171  1
  Ga  Ga9  1  0.002533  0.334274  0.425491  1
  Ga  Ga10  1  0.660588  0.997753  0.579673  1
  Ga  Ga11  1  0.655309  0.992629  0.918052  1
  Ga  Ga12  1  0.333814  0.000727  0.072631  1
  Ga  Ga13  1  0.334656  0.330949  0.562251  1
  Ga  Ga14  1  0.666695  0.666281  0.441010  1
  Ga  Ga15  1  0.666004  0.666554  0.060351  1
  Ga  Ga16  1  0.338913  0.331162  0.936420  1
  Ga  Ga17  1  0.343464  0.545612  0.251278  1
  Ga  Ga18  1  0.661017  0.453318  0.749633  1
  Ga  Ga19  1  0.542979  0.337051  0.249649  1
  Ga  Ga20  1  0.453614  0.661779  0.749616  1
  Ge  Ge21  1  0.000505  0.334174  0.078279  1
  Ir  Ir22  1  0.674548  0.329982  0.999923  1
  Ir  Ir23  1  0.321791  0.662885  0.000418  1
  Ir  Ir24  1  0.328005  0.669355  0.499645  1
  Ir  Ir25  1  0.671392  0.329672  0.499349  1
  Ir  Ir26  1  0.999341  0.006770  0.000270  1
  Ir  Ir27  1  0.999043  0.000794  0.499449  1
