# generated using pymatgen
data_Be7SiRu2
_symmetry_space_group_name_H-M   'P 1'
_cell_length_a   4.63413297
_cell_length_b   4.40716973
_cell_length_c   5.82714020
_cell_angle_alpha   104.80751727
_cell_angle_beta   90.04203123
_cell_angle_gamma   121.71450618
_symmetry_Int_Tables_number   1
_chemical_formula_structural   Be7SiRu2
_chemical_formula_sum   'Be7 Si1 Ru2'
_cell_volume   96.54777261
_cell_formula_units_Z   1
loop_
 _symmetry_equiv_pos_site_id
 _symmetry_equiv_pos_as_xyz
  1  'x, y, z'
loop_
 _atom_site_type_symbol
 _atom_site_label
 _atom_site_symmetry_multiplicity
 _atom_site_fract_x
 _atom_site_fract_y
 _atom_site_fract_z
 _atom_site_occupancy
  Be  Be0  1  0.388252  0.913426  0.593755  1
  Be  Be1  1  0.714898  0.061811  0.936509  1
  Be  Be2  1  0.808900  0.261377  0.345838  1
  Be  Be3  1  0.411000  0.468350  0.763827  1
  Be  Be4  1  0.207480  0.051711  0.926181  1
  Be  Be5  1  0.733521  0.603806  0.096424  1
  Be  Be6  1  0.908119  0.458692  0.754335  1
  Si  Si7  1  0.303704  0.260105  0.344880  1
  Ru  Ru8  1  0.268230  0.676411  0.157246  1
  Ru  Ru9  1  0.851942  0.845029  0.533267  1
