# generated using pymatgen
data_CsRb3(Bi2Pt)2
_symmetry_space_group_name_H-M   'P 1'
_cell_length_a   8.45768485
_cell_length_b   8.45768576
_cell_length_c   7.04605800
_cell_angle_alpha   90.00000000
_cell_angle_beta   90.00000000
_cell_angle_gamma   127.84938791
_symmetry_Int_Tables_number   1
_chemical_formula_structural   CsRb3(Bi2Pt)2
_chemical_formula_sum   'Cs1 Rb3 Bi4 Pt2'
_cell_volume   397.98886344
_cell_formula_units_Z   1
loop_
 _symmetry_equiv_pos_site_id
 _symmetry_equiv_pos_as_xyz
  1  'x, y, z'
loop_
 _atom_site_type_symbol
 _atom_site_label
 _atom_site_symmetry_multiplicity
 _atom_site_fract_x
 _atom_site_fract_y
 _atom_site_fract_z
 _atom_site_occupancy
  Cs  Cs0  1  0.607262  0.392739  0.250001  1
  Rb  Rb1  1  0.190158  0.809843  0.250001  1
  Rb  Rb2  1  0.810234  0.189767  0.750001  1
  Rb  Rb3  1  0.396511  0.603490  0.750001  1
  Bi  Bi4  1  0.101577  0.305817  0.250001  1
  Bi  Bi5  1  0.694183  0.898422  0.250001  1
  Bi  Bi6  1  0.304068  0.104393  0.750001  1
  Bi  Bi7  1  0.895606  0.695932  0.750001  1
  Pt  Pt8  1  0.000200  0.999800  0.001316  1
  Pt  Pt9  1  0.000200  0.999800  0.498684  1
