# generated using pymatgen
data_Dy5HoCo14(P3Ru)4
_symmetry_space_group_name_H-M   'P 1'
_cell_length_a   3.74325100
_cell_length_b   10.57900303
_cell_length_c   12.33682704
_cell_angle_alpha   89.99080398
_cell_angle_beta   90.00000000
_cell_angle_gamma   90.00000000
_symmetry_Int_Tables_number   1
_chemical_formula_structural   Dy5HoCo14(P3Ru)4
_chemical_formula_sum   'Dy5 Ho1 Co14 P12 Ru4'
_cell_volume   488.53666280
_cell_formula_units_Z   1
loop_
 _symmetry_equiv_pos_site_id
 _symmetry_equiv_pos_as_xyz
  1  'x, y, z'
loop_
 _atom_site_type_symbol
 _atom_site_label
 _atom_site_symmetry_multiplicity
 _atom_site_fract_x
 _atom_site_fract_y
 _atom_site_fract_z
 _atom_site_occupancy
  Dy  Dy0  1  0.000000  0.499967  0.528358  1
  Dy  Dy1  1  0.500000  0.000030  0.478417  1
  Dy  Dy2  1  0.500000  0.818140  0.202824  1
  Dy  Dy3  1  0.000000  0.683249  0.795890  1
  Dy  Dy4  1  0.000000  0.316731  0.795801  1
  Ho  Ho5  1  0.500000  0.181953  0.202821  1
  Co  Co6  1  0.000000  0.499869  0.985743  1
  Co  Co7  1  0.500000  0.000130  0.013655  1
  Co  Co8  1  0.000000  0.199994  0.573605  1
  Co  Co9  1  0.000000  0.800030  0.573690  1
  Co  Co10  1  0.500000  0.879955  0.710790  1
  Co  Co11  1  0.500000  0.120060  0.710729  1
  Co  Co12  1  0.000000  0.620738  0.286811  1
  Co  Co13  1  0.000000  0.378897  0.286661  1
  Co  Co14  1  0.500000  0.332254  0.990234  1
  Co  Co15  1  0.500000  0.667626  0.990119  1
  Co  Co16  1  0.000000  0.167136  0.008904  1
  Co  Co17  1  0.000000  0.833024  0.008720  1
  Co  Co18  1  0.500000  0.499967  0.705154  1
  Co  Co19  1  0.000000  0.000273  0.294241  1
  P  P20  1  0.500000  0.309267  0.621217  1
  P  P21  1  0.500000  0.690688  0.621344  1
  P  P22  1  0.000000  0.183717  0.381513  1
  P  P23  1  0.000000  0.816434  0.381909  1
  P  P24  1  0.500000  0.499936  0.882434  1
  P  P25  1  0.000000  0.000269  0.116888  1
  P  P26  1  0.500000  0.846666  0.894094  1
  P  P27  1  0.500000  0.153374  0.893995  1
  P  P28  1  0.000000  0.653637  0.104489  1
  P  P29  1  0.000000  0.346122  0.104723  1
  P  P30  1  0.500000  0.500011  0.344870  1
  P  P31  1  0.000000  0.000007  0.651518  1
  Ru  Ru32  1  0.500000  0.296003  0.430114  1
  Ru  Ru33  1  0.500000  0.703864  0.430303  1
  Ru  Ru34  1  0.500000  0.499946  0.156403  1
  Ru  Ru35  1  0.000000  0.000036  0.841020  1
