# generated using pymatgen
data_La3Dy3(Sn6Ru)2
_symmetry_space_group_name_H-M   'P 1'
_cell_length_a   8.60188838
_cell_length_b   8.60188698
_cell_length_c   13.50879809
_cell_angle_alpha   90.29989073
_cell_angle_beta   89.70010961
_cell_angle_gamma   148.24147770
_symmetry_Int_Tables_number   1
_chemical_formula_structural   La3Dy3(Sn6Ru)2
_chemical_formula_sum   'La3 Dy3 Sn12 Ru2'
_cell_volume   526.09542124
_cell_formula_units_Z   1
loop_
 _symmetry_equiv_pos_site_id
 _symmetry_equiv_pos_as_xyz
  1  'x, y, z'
loop_
 _atom_site_type_symbol
 _atom_site_label
 _atom_site_symmetry_multiplicity
 _atom_site_fract_x
 _atom_site_fract_y
 _atom_site_fract_z
 _atom_site_occupancy
  La  La0  1  0.598404  0.401596  0.594084  1
  La  La1  1  0.401229  0.598771  0.096732  1
  La  La2  1  0.598396  0.401604  0.904975  1
  Dy  Dy3  1  0.603717  0.396283  0.250919  1
  Dy  Dy4  1  0.396077  0.603923  0.749864  1
  Dy  Dy5  1  0.398261  0.601739  0.403082  1
  Sn  Sn6  1  0.924616  0.075384  0.919749  1
  Sn  Sn7  1  0.074248  0.925752  0.081248  1
  Sn  Sn8  1  0.925177  0.074823  0.574438  1
  Sn  Sn9  1  0.073198  0.926802  0.421566  1
  Sn  Sn10  1  0.960396  0.039604  0.254172  1
  Sn  Sn11  1  0.039133  0.960867  0.748826  1
  Sn  Sn12  1  0.747462  0.252539  0.433219  1
  Sn  Sn13  1  0.256147  0.743853  0.565724  1
  Sn  Sn14  1  0.746277  0.253724  0.067772  1
  Sn  Sn15  1  0.254348  0.745652  0.932540  1
  Sn  Sn16  1  0.231104  0.768896  0.251012  1
  Sn  Sn17  1  0.770358  0.229642  0.749984  1
  Ru  Ru18  1  0.800647  0.199353  0.250977  1
  Ru  Ru19  1  0.200807  0.799193  0.749118  1
