# generated using pymatgen
data_Tm2LuFe7Co2
_symmetry_space_group_name_H-M   'P 1'
_cell_length_a   5.04735821
_cell_length_b   5.04966349
_cell_length_c   8.58094710
_cell_angle_alpha   72.88820529
_cell_angle_beta   72.99506295
_cell_angle_gamma   59.98489696
_symmetry_Int_Tables_number   1
_chemical_formula_structural   Tm2LuFe7Co2
_chemical_formula_sum   'Tm2 Lu1 Fe7 Co2'
_cell_volume   178.18302609
_cell_formula_units_Z   1
loop_
 _symmetry_equiv_pos_site_id
 _symmetry_equiv_pos_as_xyz
  1  'x, y, z'
loop_
 _atom_site_type_symbol
 _atom_site_label
 _atom_site_symmetry_multiplicity
 _atom_site_fract_x
 _atom_site_fract_y
 _atom_site_fract_z
 _atom_site_occupancy
  Tm  Tm0  1  0.858250  0.857549  0.426654  1
  Tm  Tm1  1  0.999972  0.999813  0.000403  1
  Lu  Lu2  1  0.141407  0.141577  0.575438  1
  Fe  Fe3  1  0.582763  0.582640  0.752367  1
  Fe  Fe4  1  0.582763  0.082229  0.752367  1
  Fe  Fe5  1  0.918871  0.417126  0.246877  1
  Fe  Fe6  1  0.417293  0.417178  0.246821  1
  Fe  Fe7  1  0.417293  0.918711  0.246821  1
  Fe  Fe8  1  0.332776  0.333197  0.000830  1
  Fe  Fe9  1  0.667267  0.666917  0.998899  1
  Co  Co10  1  0.081022  0.582719  0.753538  1
  Co  Co11  1  0.500325  0.500346  0.498984  1
