# generated using pymatgen
data_CaPr6FeBr12
_symmetry_space_group_name_H-M   'P 1'
_cell_length_a   9.55247047
_cell_length_b   9.55247078
_cell_length_c   9.55247020
_cell_angle_alpha   106.91742236
_cell_angle_beta   106.91741183
_cell_angle_gamma   106.91741378
_symmetry_Int_Tables_number   1
_chemical_formula_structural   CaPr6FeBr12
_chemical_formula_sum   'Ca1 Pr6 Fe1 Br12'
_cell_volume   727.55595615
_cell_formula_units_Z   1
loop_
 _symmetry_equiv_pos_site_id
 _symmetry_equiv_pos_as_xyz
  1  'x, y, z'
loop_
 _atom_site_type_symbol
 _atom_site_label
 _atom_site_symmetry_multiplicity
 _atom_site_fract_x
 _atom_site_fract_y
 _atom_site_fract_z
 _atom_site_occupancy
  Ca  Ca0  1  0.500000  0.500000  0.500000  1
  Pr  Pr1  1  0.974273  0.897146  0.689627  1
  Pr  Pr2  1  0.025727  0.102854  0.310373  1
  Pr  Pr3  1  0.102854  0.310373  0.025727  1
  Pr  Pr4  1  0.310373  0.025727  0.102854  1
  Pr  Pr5  1  0.897146  0.689627  0.974273  1
  Pr  Pr6  1  0.689627  0.974273  0.897146  1
  Fe  Fe7  1  0.000000  0.000000  0.000000  1
  Br  Br8  1  0.542066  0.619318  0.833098  1
  Br  Br9  1  0.457934  0.380682  0.166902  1
  Br  Br10  1  0.315604  0.927597  0.777408  1
  Br  Br11  1  0.380682  0.166902  0.457934  1
  Br  Br12  1  0.927597  0.777408  0.315604  1
  Br  Br13  1  0.684396  0.072403  0.222592  1
  Br  Br14  1  0.072403  0.222592  0.684396  1
  Br  Br15  1  0.777408  0.315604  0.927597  1
  Br  Br16  1  0.222592  0.684396  0.072403  1
  Br  Br17  1  0.833098  0.542066  0.619318  1
  Br  Br18  1  0.166902  0.457934  0.380682  1
  Br  Br19  1  0.619318  0.833098  0.542066  1
