# generated using pymatgen
data_TbHo(MgRh)2
_symmetry_space_group_name_H-M   'P 1'
_cell_length_a   4.13238300
_cell_length_b   7.10078434
_cell_length_c   8.51290300
_cell_angle_alpha   89.90068309
_cell_angle_beta   90.00000000
_cell_angle_gamma   90.00000000
_symmetry_Int_Tables_number   1
_chemical_formula_structural   TbHo(MgRh)2
_chemical_formula_sum   'Tb2 Ho2 Mg4 Rh4'
_cell_volume   249.79510367
_cell_formula_units_Z   2
loop_
 _symmetry_equiv_pos_site_id
 _symmetry_equiv_pos_as_xyz
  1  'x, y, z'
loop_
 _atom_site_type_symbol
 _atom_site_label
 _atom_site_symmetry_multiplicity
 _atom_site_fract_x
 _atom_site_fract_y
 _atom_site_fract_z
 _atom_site_occupancy
  Tb  Tb0  1  0.250000  0.536128  0.177399  1
  Tb  Tb1  1  0.750000  0.463872  0.822601  1
  Ho  Ho2  1  0.750000  0.963086  0.675613  1
  Ho  Ho3  1  0.250000  0.036914  0.324387  1
  Mg  Mg4  1  0.250000  0.639100  0.559678  1
  Mg  Mg5  1  0.750000  0.360900  0.440322  1
  Mg  Mg6  1  0.750000  0.862475  0.060164  1
  Mg  Mg7  1  0.250000  0.137525  0.939836  1
  Rh  Rh8  1  0.250000  0.754193  0.870779  1
  Rh  Rh9  1  0.750000  0.245807  0.129221  1
  Rh  Rh10  1  0.750000  0.749874  0.372469  1
  Rh  Rh11  1  0.250000  0.250126  0.627531  1
