# generated using pymatgen
data_PrNd2Ho5(CdIr)2
_symmetry_space_group_name_H-M   'P 1'
_cell_length_a   9.73664515
_cell_length_b   9.73664581
_cell_length_c   9.73477400
_cell_angle_alpha   60.00635918
_cell_angle_beta   60.00635695
_cell_angle_gamma   59.98728408
_symmetry_Int_Tables_number   1
_chemical_formula_structural   PrNd2Ho5(CdIr)2
_chemical_formula_sum   'Pr2 Nd4 Ho10 Cd4 Ir4'
_cell_volume   652.57368830
_cell_formula_units_Z   2
loop_
 _symmetry_equiv_pos_site_id
 _symmetry_equiv_pos_as_xyz
  1  'x, y, z'
loop_
 _atom_site_type_symbol
 _atom_site_label
 _atom_site_symmetry_multiplicity
 _atom_site_fract_x
 _atom_site_fract_y
 _atom_site_fract_z
 _atom_site_occupancy
  Pr  Pr0  1  0.559335  0.559335  0.940665  1
  Pr  Pr1  1  0.940665  0.940665  0.559335  1
  Nd  Nd2  1  0.941098  0.558902  0.558902  1
  Nd  Nd3  1  0.558902  0.941098  0.941098  1
  Nd  Nd4  1  0.558902  0.941098  0.558902  1
  Nd  Nd5  1  0.941098  0.558902  0.941098  1
  Ho  Ho6  1  0.347008  0.347008  0.347138  1
  Ho  Ho7  1  0.347008  0.347008  0.958845  1
  Ho  Ho8  1  0.347138  0.958845  0.347008  1
  Ho  Ho9  1  0.958845  0.347138  0.347008  1
  Ho  Ho10  1  0.812785  0.187215  0.187215  1
  Ho  Ho11  1  0.187215  0.812785  0.812785  1
  Ho  Ho12  1  0.187215  0.812785  0.187215  1
  Ho  Ho13  1  0.812785  0.187215  0.812785  1
  Ho  Ho14  1  0.187306  0.187306  0.812694  1
  Ho  Ho15  1  0.812694  0.812694  0.187306  1
  Cd  Cd16  1  0.579436  0.579436  0.579038  1
  Cd  Cd17  1  0.579436  0.579436  0.262088  1
  Cd  Cd18  1  0.579038  0.262088  0.579436  1
  Cd  Cd19  1  0.262088  0.579038  0.579436  1
  Ir  Ir20  1  0.141426  0.141426  0.140864  1
  Ir  Ir21  1  0.141426  0.141426  0.576284  1
  Ir  Ir22  1  0.140864  0.576284  0.141426  1
  Ir  Ir23  1  0.576284  0.140864  0.141426  1
