# generated using pymatgen
data_Er3Ni8P6Rh
_symmetry_space_group_name_H-M   'P 1'
_cell_length_a   3.76144200
_cell_length_b   10.49166600
_cell_length_c   12.34295400
_cell_angle_alpha   90.00000000
_cell_angle_beta   90.00000000
_cell_angle_gamma   90.00000000
_symmetry_Int_Tables_number   1
_chemical_formula_structural   Er3Ni8P6Rh
_chemical_formula_sum   'Er6 Ni16 P12 Rh2'
_cell_volume   487.09978342
_cell_formula_units_Z   2
loop_
 _symmetry_equiv_pos_site_id
 _symmetry_equiv_pos_as_xyz
  1  'x, y, z'
loop_
 _atom_site_type_symbol
 _atom_site_label
 _atom_site_symmetry_multiplicity
 _atom_site_fract_x
 _atom_site_fract_y
 _atom_site_fract_z
 _atom_site_occupancy
  Er  Er0  1  0.000000  0.500000  0.524260  1
  Er  Er1  1  0.500000  0.000000  0.475740  1
  Er  Er2  1  0.500000  0.816312  0.207649  1
  Er  Er3  1  0.500000  0.183688  0.207649  1
  Er  Er4  1  0.000000  0.683688  0.792351  1
  Er  Er5  1  0.000000  0.316312  0.792351  1
  Ni  Ni6  1  0.000000  0.500000  0.983025  1
  Ni  Ni7  1  0.500000  0.000000  0.016975  1
  Ni  Ni8  1  0.500000  0.301693  0.429486  1
  Ni  Ni9  1  0.500000  0.698307  0.429486  1
  Ni  Ni10  1  0.000000  0.198307  0.570514  1
  Ni  Ni11  1  0.000000  0.801693  0.570514  1
  Ni  Ni12  1  0.500000  0.877490  0.708931  1
  Ni  Ni13  1  0.500000  0.122510  0.708931  1
  Ni  Ni14  1  0.000000  0.622510  0.291069  1
  Ni  Ni15  1  0.000000  0.377490  0.291069  1
  Ni  Ni16  1  0.500000  0.331416  0.990409  1
  Ni  Ni17  1  0.500000  0.668584  0.990409  1
  Ni  Ni18  1  0.000000  0.168584  0.009591  1
  Ni  Ni19  1  0.000000  0.831416  0.009591  1
  Ni  Ni20  1  0.500000  0.500000  0.699983  1
  Ni  Ni21  1  0.000000  0.000000  0.300017  1
  P  P22  1  0.500000  0.314399  0.614478  1
  P  P23  1  0.500000  0.685601  0.614478  1
  P  P24  1  0.000000  0.185601  0.385522  1
  P  P25  1  0.000000  0.814399  0.385522  1
  P  P26  1  0.500000  0.500000  0.875016  1
  P  P27  1  0.000000  0.000000  0.124984  1
  P  P28  1  0.500000  0.847238  0.892364  1
  P  P29  1  0.500000  0.152762  0.892364  1
  P  P30  1  0.000000  0.652762  0.107636  1
  P  P31  1  0.000000  0.347238  0.107636  1
  P  P32  1  0.500000  0.500000  0.351423  1
  P  P33  1  0.000000  0.000000  0.648577  1
  Rh  Rh34  1  0.500000  0.500000  0.159153  1
  Rh  Rh35  1  0.000000  0.000000  0.840847  1
