# generated using pymatgen
data_Nd2Sn5Rh3
_symmetry_space_group_name_H-M   'P 1'
_cell_length_a   13.62752971
_cell_length_b   13.62752995
_cell_length_c   7.27628500
_cell_angle_alpha   90.00000000
_cell_angle_beta   90.00000000
_cell_angle_gamma   160.83760204
_symmetry_Int_Tables_number   1
_chemical_formula_structural   Nd2Sn5Rh3
_chemical_formula_sum   'Nd4 Sn10 Rh6'
_cell_volume   443.55194386
_cell_formula_units_Z   2
loop_
 _symmetry_equiv_pos_site_id
 _symmetry_equiv_pos_as_xyz
  1  'x, y, z'
loop_
 _atom_site_type_symbol
 _atom_site_label
 _atom_site_symmetry_multiplicity
 _atom_site_fract_x
 _atom_site_fract_y
 _atom_site_fract_z
 _atom_site_occupancy
  Nd  Nd0  1  0.475971  0.524029  0.238618  1
  Nd  Nd1  1  0.172466  0.827534  0.254949  1
  Nd  Nd2  1  0.524029  0.475971  0.738618  1
  Nd  Nd3  1  0.827534  0.172466  0.754949  1
  Sn  Sn4  1  0.704604  0.295396  0.548706  1
  Sn  Sn5  1  0.596701  0.403299  0.110701  1
  Sn  Sn6  1  0.048277  0.951723  0.401495  1
  Sn  Sn7  1  0.951723  0.048277  0.901495  1
  Sn  Sn8  1  0.709809  0.290191  0.976357  1
  Sn  Sn9  1  0.290191  0.709809  0.476357  1
  Sn  Sn10  1  0.295396  0.704604  0.048706  1
  Sn  Sn11  1  0.878517  0.121483  0.233331  1
  Sn  Sn12  1  0.121483  0.878517  0.733331  1
  Sn  Sn13  1  0.403299  0.596701  0.610701  1
  Rh  Rh14  1  0.394532  0.605468  0.983555  1
  Rh  Rh15  1  0.777057  0.222943  0.264962  1
  Rh  Rh16  1  0.222943  0.777057  0.764962  1
  Rh  Rh17  1  0.051373  0.948627  0.019226  1
  Rh  Rh18  1  0.605468  0.394532  0.483555  1
  Rh  Rh19  1  0.948627  0.051373  0.519226  1
