# generated using pymatgen
data_YbEr3Sb6Rh7
_symmetry_space_group_name_H-M   'P 1'
_cell_length_a   7.58393525
_cell_length_b   7.58393619
_cell_length_c   7.57096418
_cell_angle_alpha   109.42407304
_cell_angle_beta   109.42407288
_cell_angle_gamma   109.51723690
_symmetry_Int_Tables_number   1
_chemical_formula_structural   YbEr3Sb6Rh7
_chemical_formula_sum   'Yb1 Er3 Sb6 Rh7'
_cell_volume   335.41060969
_cell_formula_units_Z   1
loop_
 _symmetry_equiv_pos_site_id
 _symmetry_equiv_pos_as_xyz
  1  'x, y, z'
loop_
 _atom_site_type_symbol
 _atom_site_label
 _atom_site_symmetry_multiplicity
 _atom_site_fract_x
 _atom_site_fract_y
 _atom_site_fract_z
 _atom_site_occupancy
  Yb  Yb0  1  0.000000  0.000000  0.500000  1
  Er  Er1  1  0.500000  0.000000  0.000000  1
  Er  Er2  1  0.000000  0.500000  0.000000  1
  Er  Er3  1  0.500000  0.500000  0.500000  1
  Sb  Sb4  1  0.316411  0.999984  0.317421  1
  Sb  Sb5  1  0.000016  0.683589  0.682579  1
  Sb  Sb6  1  0.683594  0.683594  0.001037  1
  Sb  Sb7  1  0.683589  0.000016  0.682579  1
  Sb  Sb8  1  0.999984  0.316411  0.317421  1
  Sb  Sb9  1  0.316406  0.316406  0.998963  1
  Rh  Rh10  1  0.251270  0.502541  0.751306  1
  Rh  Rh11  1  0.502541  0.251270  0.751306  1
  Rh  Rh12  1  0.748729  0.251271  0.500000  1
  Rh  Rh13  1  0.497459  0.748730  0.248694  1
  Rh  Rh14  1  0.000000  0.000000  0.000000  1
  Rh  Rh15  1  0.251271  0.748729  0.500000  1
  Rh  Rh16  1  0.748730  0.497459  0.248694  1
