# generated using pymatgen
data_MgMn3P6N13
_symmetry_space_group_name_H-M   'P 1'
_cell_length_a   7.05390312
_cell_length_b   7.05390424
_cell_length_c   7.07368100
_cell_angle_alpha   109.52802758
_cell_angle_beta   109.52803080
_cell_angle_gamma   109.41435164
_symmetry_Int_Tables_number   1
_chemical_formula_structural   MgMn3P6N13
_chemical_formula_sum   'Mg1 Mn3 P6 N13'
_cell_volume   270.75574003
_cell_formula_units_Z   1
loop_
 _symmetry_equiv_pos_site_id
 _symmetry_equiv_pos_as_xyz
  1  'x, y, z'
loop_
 _atom_site_type_symbol
 _atom_site_label
 _atom_site_symmetry_multiplicity
 _atom_site_fract_x
 _atom_site_fract_y
 _atom_site_fract_z
 _atom_site_occupancy
  Mg  Mg0  1  0.000000  0.000000  0.702478  1
  Mn  Mn1  1  0.285121  0.285121  0.290031  1
  Mn  Mn2  1  0.000000  0.714879  0.004910  1
  Mn  Mn3  1  0.714879  0.000000  0.004910  1
  P  P4  1  0.500144  0.250163  0.749689  1
  P  P5  1  0.499856  0.750019  0.249545  1
  P  P6  1  0.749837  0.249981  0.499526  1
  P  P7  1  0.250163  0.500144  0.749689  1
  P  P8  1  0.750019  0.499856  0.249545  1
  P  P9  1  0.249981  0.749837  0.499526  1
  N  N10  1  0.000000  0.000000  0.003552  1
  N  N11  1  0.000000  0.732403  0.454601  1
  N  N12  1  0.265707  0.721291  0.265715  1
  N  N13  1  0.278709  0.544415  0.544423  1
  N  N14  1  0.543587  0.543587  0.277361  1
  N  N15  1  0.544415  0.278709  0.544423  1
  N  N16  1  0.732403  0.000000  0.454601  1
  N  N17  1  0.456413  0.000000  0.733773  1
  N  N18  1  0.734293  0.455585  0.000008  1
  N  N19  1  0.267597  0.267597  0.722196  1
  N  N20  1  0.721291  0.265707  0.265715  1
  N  N21  1  0.000000  0.456413  0.733773  1
  N  N22  1  0.455585  0.734293  0.000008  1
