# generated using pymatgen
data_Li3Dy3Ho2(P3Ir4)4
_symmetry_space_group_name_H-M   'P 1'
_cell_length_a   12.69464700
_cell_length_b   12.69497082
_cell_length_c   3.97744000
_cell_angle_alpha   90.00000000
_cell_angle_beta   90.00000000
_cell_angle_gamma   119.99915360
_symmetry_Int_Tables_number   1
_chemical_formula_structural   Li3Dy3Ho2(P3Ir4)4
_chemical_formula_sum   'Li3 Dy3 Ho2 P12 Ir16'
_cell_volume   555.12438968
_cell_formula_units_Z   1
loop_
 _symmetry_equiv_pos_site_id
 _symmetry_equiv_pos_as_xyz
  1  'x, y, z'
loop_
 _atom_site_type_symbol
 _atom_site_label
 _atom_site_symmetry_multiplicity
 _atom_site_fract_x
 _atom_site_fract_y
 _atom_site_fract_z
 _atom_site_occupancy
  Li  Li0  1  0.000000  0.442228  0.500000  1
  Li  Li1  1  0.557772  0.557772  0.500000  1
  Li  Li2  1  0.442215  0.000000  0.500000  1
  Dy  Dy3  1  0.333338  0.666672  0.500000  1
  Dy  Dy4  1  0.666667  0.333328  0.500000  1
  Dy  Dy5  1  0.809217  0.000000  0.000000  1
  Ho  Ho6  1  0.000002  0.809172  0.000000  1
  Ho  Ho7  1  0.190831  0.190828  0.000000  1
  P  P8  1  0.999999  0.630240  0.500000  1
  P  P9  1  0.369759  0.369760  0.500000  1
  P  P10  1  0.630138  0.000000  0.500000  1
  P  P11  1  0.516292  0.687199  0.000000  1
  P  P12  1  0.312806  0.829086  0.000000  1
  P  P13  1  0.170921  0.483735  0.000000  1
  P  P14  1  0.483720  0.170914  0.000000  1
  P  P15  1  0.687186  0.516265  0.000000  1
  P  P16  1  0.829093  0.312801  0.000000  1
  P  P17  1  0.000067  0.179606  0.500000  1
  P  P18  1  0.820461  0.820394  0.500000  1
  P  P19  1  0.179551  0.000000  0.500000  1
  Ir  Ir20  1  0.509778  0.868392  0.000000  1
  Ir  Ir21  1  0.131604  0.641426  0.000000  1
  Ir  Ir22  1  0.358574  0.490184  0.000000  1
  Ir  Ir23  1  0.490179  0.358574  0.000000  1
  Ir  Ir24  1  0.868391  0.509816  0.000000  1
  Ir  Ir25  1  0.641387  0.131608  0.000000  1
  Ir  Ir26  1  0.000080  0.280422  0.000000  1
  Ir  Ir27  1  0.719658  0.719578  0.000000  1
  Ir  Ir28  1  0.280313  0.000000  0.000000  1
  Ir  Ir29  1  0.627023  0.807184  0.500000  1
  Ir  Ir30  1  0.192612  0.819827  0.500000  1
  Ir  Ir31  1  0.180178  0.372787  0.500000  1
  Ir  Ir32  1  0.372785  0.180173  0.500000  1
  Ir  Ir33  1  0.807391  0.627213  0.500000  1
  Ir  Ir34  1  0.819840  0.192816  0.500000  1
  Ir  Ir35  1  0.000175  0.000000  0.500000  1
