# generated using pymatgen
data_TbNd8HoSn6
_symmetry_space_group_name_H-M   'P 1'
_cell_length_a   9.24270900
_cell_length_b   9.24270806
_cell_length_c   6.78627900
_cell_angle_alpha   90.00000000
_cell_angle_beta   90.00000000
_cell_angle_gamma   119.99999978
_symmetry_Int_Tables_number   1
_chemical_formula_structural   TbNd8HoSn6
_chemical_formula_sum   'Tb1 Nd8 Ho1 Sn6'
_cell_volume   502.06605424
_cell_formula_units_Z   1
loop_
 _symmetry_equiv_pos_site_id
 _symmetry_equiv_pos_as_xyz
  1  'x, y, z'
loop_
 _atom_site_type_symbol
 _atom_site_label
 _atom_site_symmetry_multiplicity
 _atom_site_fract_x
 _atom_site_fract_y
 _atom_site_fract_z
 _atom_site_occupancy
  Tb  Tb0  1  0.666667  0.333333  0.500000  1
  Nd  Nd1  1  0.666667  0.333333  0.000000  1
  Nd  Nd2  1  0.333333  0.666667  0.000000  1
  Nd  Nd3  1  0.757985  0.758069  0.748513  1
  Nd  Nd4  1  0.241931  0.999916  0.748513  1
  Nd  Nd5  1  0.000084  0.242015  0.748513  1
  Nd  Nd6  1  0.241931  0.242015  0.251487  1
  Nd  Nd7  1  0.757985  0.999916  0.251487  1
  Nd  Nd8  1  0.000084  0.758069  0.251487  1
  Ho  Ho9  1  0.333333  0.666667  0.500000  1
  Sn  Sn10  1  0.396273  0.396613  0.743998  1
  Sn  Sn11  1  0.603387  0.999659  0.743998  1
  Sn  Sn12  1  0.000341  0.603727  0.743998  1
  Sn  Sn13  1  0.603387  0.603727  0.256002  1
  Sn  Sn14  1  0.396273  0.999659  0.256002  1
  Sn  Sn15  1  0.000341  0.396613  0.256002  1
