# generated using pymatgen
data_Li8B3HPd11Pt
_symmetry_space_group_name_H-M   'P 1'
_cell_length_a   6.78726131
_cell_length_b   6.77591931
_cell_length_c   6.78726148
_cell_angle_alpha   89.83742503
_cell_angle_beta   89.72159796
_cell_angle_gamma   90.16257644
_symmetry_Int_Tables_number   1
_chemical_formula_structural   Li8B3HPd11Pt
_chemical_formula_sum   'Li8 B3 H1 Pd11 Pt1'
_cell_volume   312.13950367
_cell_formula_units_Z   1
loop_
 _symmetry_equiv_pos_site_id
 _symmetry_equiv_pos_as_xyz
  1  'x, y, z'
loop_
 _atom_site_type_symbol
 _atom_site_label
 _atom_site_symmetry_multiplicity
 _atom_site_fract_x
 _atom_site_fract_y
 _atom_site_fract_z
 _atom_site_occupancy
  Li  Li0  1  0.308132  0.305840  0.308028  1
  Li  Li1  1  0.058028  0.444160  0.558132  1
  Li  Li2  1  0.555648  0.057012  0.444765  1
  Li  Li3  1  0.442018  0.556008  0.055216  1
  Li  Li4  1  0.194765  0.692988  0.805648  1
  Li  Li5  1  0.944135  0.941945  0.943577  1
  Li  Li6  1  0.805216  0.193992  0.692018  1
  Li  Li7  1  0.693577  0.808055  0.194135  1
  B  B8  1  0.376739  0.132771  0.879053  1
  B  B9  1  0.629053  0.617229  0.626739  1
  B  B10  1  0.120284  0.875000  0.370284  1
  H  H11  1  0.875024  0.375000  0.125024  1
  Pd  Pd12  1  0.193311  0.055366  0.624048  1
  Pd  Pd13  1  0.048077  0.618878  0.202176  1
  Pd  Pd14  1  0.952176  0.131122  0.298077  1
  Pd  Pd15  1  0.305192  0.945081  0.124125  1
  Pd  Pd16  1  0.701805  0.452475  0.367190  1
  Pd  Pd17  1  0.555906  0.875000  0.805906  1
  Pd  Pd18  1  0.633874  0.201058  0.047959  1
  Pd  Pd19  1  0.374048  0.694634  0.443311  1
  Pd  Pd20  1  0.874125  0.804919  0.555192  1
  Pd  Pd21  1  0.117190  0.297525  0.951805  1
  Pd  Pd22  1  0.797959  0.548942  0.883874  1
  Pt  Pt23  1  0.443719  0.375000  0.693719  1
