# generated using pymatgen
data_Dy5Y15(Cd3Tc)2
_symmetry_space_group_name_H-M   'P 1'
_cell_length_a   9.60295786
_cell_length_b   9.60003236
_cell_length_c   9.96805000
_cell_angle_alpha   89.99999710
_cell_angle_beta   89.95572834
_cell_angle_gamma   119.98992491
_symmetry_Int_Tables_number   1
_chemical_formula_structural   Dy5Y15(Cd3Tc)2
_chemical_formula_sum   'Dy5 Y15 Cd6 Tc2'
_cell_volume   795.90726409
_cell_formula_units_Z   1
loop_
 _symmetry_equiv_pos_site_id
 _symmetry_equiv_pos_as_xyz
  1  'x, y, z'
loop_
 _atom_site_type_symbol
 _atom_site_label
 _atom_site_symmetry_multiplicity
 _atom_site_fract_x
 _atom_site_fract_y
 _atom_site_fract_z
 _atom_site_occupancy
  Dy  Dy0  1  0.209930  0.789756  0.440910  1
  Dy  Dy1  1  0.209930  0.420174  0.440910  1
  Dy  Dy2  1  0.579590  0.789795  0.441022  1
  Dy  Dy3  1  0.789921  0.210124  0.559208  1
  Dy  Dy4  1  0.789921  0.579796  0.559208  1
  Y  Y5  1  0.999552  0.999776  0.499967  1
  Y  Y6  1  0.999840  0.999920  0.999980  1
  Y  Y7  1  0.419761  0.209881  0.558477  1
  Y  Y8  1  0.790206  0.209645  0.941269  1
  Y  Y9  1  0.790206  0.580561  0.941269  1
  Y  Y10  1  0.419644  0.209822  0.941463  1
  Y  Y11  1  0.209746  0.790213  0.058542  1
  Y  Y12  1  0.209746  0.419533  0.058542  1
  Y  Y13  1  0.580461  0.790231  0.058702  1
  Y  Y14  1  0.539768  0.460299  0.250092  1
  Y  Y15  1  0.539768  0.079470  0.250092  1
  Y  Y16  1  0.920315  0.460158  0.250194  1
  Y  Y17  1  0.460331  0.539873  0.749917  1
  Y  Y18  1  0.460331  0.920457  0.749917  1
  Y  Y19  1  0.079388  0.539694  0.749658  1
  Cd  Cd20  1  0.885746  0.114493  0.249818  1
  Cd  Cd21  1  0.885746  0.771254  0.249818  1
  Cd  Cd22  1  0.228763  0.114382  0.250033  1
  Cd  Cd23  1  0.114389  0.885639  0.750042  1
  Cd  Cd24  1  0.114389  0.228750  0.750042  1
  Cd  Cd25  1  0.771257  0.885628  0.750275  1
  Tc  Tc26  1  0.333549  0.666775  0.252325  1
  Tc  Tc27  1  0.667808  0.333904  0.748309  1
