# generated using pymatgen
data_Tb2DyHo(WO6)2
_symmetry_space_group_name_H-M   'P 1'
_cell_length_a   5.41247600
_cell_length_b   7.72261114
_cell_length_c   11.47706403
_cell_angle_alpha   75.55859487
_cell_angle_beta   90.00000000
_cell_angle_gamma   90.00000000
_symmetry_Int_Tables_number   1
_chemical_formula_structural   Tb2DyHo(WO6)2
_chemical_formula_sum   'Tb4 Dy2 Ho2 W4 O24'
_cell_volume   464.56572709
_cell_formula_units_Z   2
loop_
 _symmetry_equiv_pos_site_id
 _symmetry_equiv_pos_as_xyz
  1  'x, y, z'
loop_
 _atom_site_type_symbol
 _atom_site_label
 _atom_site_symmetry_multiplicity
 _atom_site_fract_x
 _atom_site_fract_y
 _atom_site_fract_z
 _atom_site_occupancy
  Tb  Tb0  1  0.739848  0.000152  0.749984  1
  Tb  Tb1  1  0.260152  0.000152  0.249984  1
  Tb  Tb2  1  0.683427  0.499867  0.750094  1
  Tb  Tb3  1  0.316573  0.499867  0.250094  1
  Dy  Dy4  1  0.185159  0.794887  0.577976  1
  Dy  Dy5  1  0.814841  0.794887  0.077976  1
  Ho  Ho6  1  0.185262  0.205487  0.921807  1
  Ho  Ho7  1  0.814738  0.205487  0.421807  1
  W  W8  1  0.254660  0.722957  0.885853  1
  W  W9  1  0.745340  0.722957  0.385853  1
  W  W10  1  0.254694  0.276656  0.614064  1
  W  W11  1  0.745306  0.276656  0.114064  1
  O  O12  1  0.044782  0.939725  0.896208  1
  O  O13  1  0.531145  0.846818  0.931441  1
  O  O14  1  0.955218  0.939725  0.396208  1
  O  O15  1  0.457696  0.789145  0.728062  1
  O  O16  1  0.468855  0.846818  0.431441  1
  O  O17  1  0.982103  0.710694  0.771920  1
  O  O18  1  0.542304  0.789145  0.228062  1
  O  O19  1  0.850561  0.634967  0.548390  1
  O  O20  1  0.359866  0.489881  0.886797  1
  O  O21  1  0.017897  0.710694  0.271920  1
  O  O22  1  0.360342  0.509655  0.613205  1
  O  O23  1  0.851488  0.364604  0.951582  1
  O  O24  1  0.149439  0.634967  0.048390  1
  O  O25  1  0.640134  0.489881  0.386797  1
  O  O26  1  0.982446  0.289275  0.728440  1
  O  O27  1  0.639658  0.509655  0.113205  1
  O  O28  1  0.148512  0.364604  0.451582  1
  O  O29  1  0.456989  0.210618  0.772341  1
  O  O30  1  0.017554  0.289275  0.228440  1
  O  O31  1  0.531776  0.153442  0.568215  1
  O  O32  1  0.543011  0.210618  0.272341  1
  O  O33  1  0.043964  0.061171  0.603622  1
  O  O34  1  0.468224  0.153442  0.068215  1
  O  O35  1  0.956036  0.061171  0.103622  1
