# generated using pymatgen
data_YHoAg2(Ir2O7)2
_symmetry_space_group_name_H-M   'P 1'
_cell_length_a   7.22402784
_cell_length_b   7.17231750
_cell_length_c   7.23237019
_cell_angle_alpha   60.27429931
_cell_angle_beta   61.16509778
_cell_angle_gamma   60.23652016
_symmetry_Int_Tables_number   1
_chemical_formula_structural   YHoAg2(Ir2O7)2
_chemical_formula_sum   'Y1 Ho1 Ag2 Ir4 O14'
_cell_volume   268.27420008
_cell_formula_units_Z   1
loop_
 _symmetry_equiv_pos_site_id
 _symmetry_equiv_pos_as_xyz
  1  'x, y, z'
loop_
 _atom_site_type_symbol
 _atom_site_label
 _atom_site_symmetry_multiplicity
 _atom_site_fract_x
 _atom_site_fract_y
 _atom_site_fract_z
 _atom_site_occupancy
  Y  Y0  1  0.625000  0.125000  0.125000  1
  Ho  Ho1  1  0.125000  0.125000  0.625000  1
  Ag  Ag2  1  0.125000  0.625000  0.125000  1
  Ag  Ag3  1  0.125000  0.125000  0.125000  1
  Ir  Ir4  1  0.125000  0.625000  0.625000  1
  Ir  Ir5  1  0.625000  0.125000  0.625000  1
  Ir  Ir6  1  0.625000  0.625000  0.125000  1
  Ir  Ir7  1  0.625000  0.625000  0.625000  1
  O  O8  1  0.694280  0.712682  0.298962  1
  O  O9  1  0.298197  0.294233  0.693065  1
  O  O10  1  0.714338  0.287063  0.711536  1
  O  O11  1  0.306473  0.693005  0.307517  1
  O  O12  1  0.298197  0.714504  0.693065  1
  O  O13  1  0.694280  0.294074  0.298962  1
  O  O14  1  0.555720  0.537318  0.951038  1
  O  O15  1  0.951803  0.955767  0.556935  1
  O  O16  1  0.535662  0.962937  0.538464  1
  O  O17  1  0.943527  0.556995  0.942483  1
  O  O18  1  0.951803  0.535496  0.556935  1
  O  O19  1  0.555720  0.955926  0.951038  1
  O  O20  1  0.244040  0.254693  0.246573  1
  O  O21  1  0.005960  0.995307  0.003427  1
