# generated using pymatgen
data_TbY2In3Ni2Au
_symmetry_space_group_name_H-M   'P 1'
_cell_length_a   7.70054042
_cell_length_b   7.69773029
_cell_length_c   3.72988600
_cell_angle_alpha   90.00000000
_cell_angle_beta   90.00000000
_cell_angle_gamma   119.97427481
_symmetry_Int_Tables_number   1
_chemical_formula_structural   TbY2In3Ni2Au
_chemical_formula_sum   'Tb1 Y2 In3 Ni2 Au1'
_cell_volume   191.52373673
_cell_formula_units_Z   1
loop_
 _symmetry_equiv_pos_site_id
 _symmetry_equiv_pos_as_xyz
  1  'x, y, z'
loop_
 _atom_site_type_symbol
 _atom_site_label
 _atom_site_symmetry_multiplicity
 _atom_site_fract_x
 _atom_site_fract_y
 _atom_site_fract_z
 _atom_site_occupancy
  Tb  Tb0  1  0.399463  0.418232  0.500000  1
  Y  Y1  1  0.018163  0.600848  0.500000  1
  Y  Y2  1  0.582491  0.981684  0.500000  1
  In  In3  1  0.747857  0.749520  0.000000  1
  In  In4  1  0.001154  0.252296  0.000000  1
  In  In5  1  0.251037  0.998176  0.000000  1
  Ni  Ni6  1  0.000253  0.000289  0.500000  1
  Ni  Ni7  1  0.333199  0.665708  0.000000  1
  Au  Au8  1  0.666385  0.333247  0.000000  1
