# generated using pymatgen
data_TlAgMo4(PO4)6
_symmetry_space_group_name_H-M   'P 1'
_cell_length_a   8.71571080
_cell_length_b   8.72481385
_cell_length_c   9.31345450
_cell_angle_alpha   62.22518953
_cell_angle_beta   62.56196233
_cell_angle_gamma   60.10171994
_symmetry_Int_Tables_number   1
_chemical_formula_structural   TlAgMo4(PO4)6
_chemical_formula_sum   'Tl1 Ag1 Mo4 P6 O24'
_cell_volume   518.56284374
_cell_formula_units_Z   1
loop_
 _symmetry_equiv_pos_site_id
 _symmetry_equiv_pos_as_xyz
  1  'x, y, z'
loop_
 _atom_site_type_symbol
 _atom_site_label
 _atom_site_symmetry_multiplicity
 _atom_site_fract_x
 _atom_site_fract_y
 _atom_site_fract_z
 _atom_site_occupancy
  Tl  Tl0  1  0.004428  0.496033  0.749736  1
  Ag  Ag1  1  0.541449  0.955589  0.246630  1
  Mo  Mo2  1  0.649523  0.147297  0.805691  1
  Mo  Mo3  1  0.855017  0.343870  0.200085  1
  Mo  Mo4  1  0.153736  0.642654  0.299985  1
  Mo  Mo5  1  0.355203  0.850405  0.694296  1
  P  P6  1  0.258070  0.456513  0.003109  1
  P  P7  1  0.470524  0.241566  0.497131  1
  P  P8  1  0.038177  0.963680  0.499704  1
  P  P9  1  0.966528  0.030385  0.000993  1
  P  P10  1  0.537328  0.747713  0.003533  1
  P  P11  1  0.751384  0.537244  0.495903  1
  O  O12  1  0.019802  0.142875  0.344851  1
  O  O13  1  0.757186  0.508015  0.342030  1
  O  O14  1  0.422447  0.276546  0.969960  1
  O  O15  1  0.284998  0.623313  0.842069  1
  O  O16  1  0.216597  0.915543  0.534493  1
  O  O17  1  0.647579  0.235327  0.347357  1
  O  O18  1  0.493636  0.217274  0.662603  1
  O  O19  1  0.074547  0.445649  0.034219  1
  O  O20  1  0.424445  0.076104  0.527757  1
  O  O21  1  0.307856  0.426498  0.460727  1
  O  O22  1  0.871027  0.988643  0.661993  1
  O  O23  1  0.054149  0.804930  0.457945  1
  O  O24  1  0.944871  0.192110  0.045841  1
  O  O25  1  0.130148  0.015955  0.838864  1
  O  O26  1  0.576875  0.911542  0.982853  1
  O  O27  1  0.699794  0.562995  0.043515  1
  O  O28  1  0.934100  0.559777  0.457232  1
  O  O29  1  0.519939  0.770342  0.835657  1
  O  O30  1  0.360939  0.740794  0.156652  1
  O  O31  1  0.785519  0.075130  0.970873  1
  O  O32  1  0.733972  0.374941  0.659718  1
  O  O33  1  0.586874  0.720561  0.515102  1
  O  O34  1  0.263764  0.468839  0.160232  1
  O  O35  1  0.990847  0.850071  0.150661  1
