# generated using pymatgen
data_La7Lu2MgSi8O3
_symmetry_space_group_name_H-M   'P 1'
_cell_length_a   10.70313521
_cell_length_b   10.70313532
_cell_length_c   4.47488400
_cell_angle_alpha   90.00000000
_cell_angle_beta   90.00000000
_cell_angle_gamma   120.59692293
_symmetry_Int_Tables_number   1
_chemical_formula_structural   La7Lu2MgSi8O3
_chemical_formula_sum   'La7 Lu2 Mg1 Si8 O3'
_cell_volume   441.25598744
_cell_formula_units_Z   1
loop_
 _symmetry_equiv_pos_site_id
 _symmetry_equiv_pos_as_xyz
  1  'x, y, z'
loop_
 _atom_site_type_symbol
 _atom_site_label
 _atom_site_symmetry_multiplicity
 _atom_site_fract_x
 _atom_site_fract_y
 _atom_site_fract_z
 _atom_site_occupancy
  La  La0  1  0.212172  0.787828  0.000000  1
  La  La1  1  0.572436  0.777611  0.000000  1
  La  La2  1  0.777611  0.572436  0.000000  1
  La  La3  1  0.000000  0.000000  0.000000  1
  La  La4  1  0.222389  0.427564  0.000000  1
  La  La5  1  0.427564  0.222389  0.000000  1
  La  La6  1  0.787828  0.212172  0.000000  1
  Lu  Lu7  1  0.000000  0.500000  0.500000  1
  Lu  Lu8  1  0.500000  0.000000  0.500000  1
  Mg  Mg9  1  0.500000  0.500000  0.500000  1
  Si  Si10  1  0.999272  0.775356  0.500000  1
  Si  Si11  1  0.000728  0.224644  0.500000  1
  Si  Si12  1  0.222494  0.222494  0.500000  1
  Si  Si13  1  0.775356  0.999272  0.500000  1
  Si  Si14  1  0.332319  0.667681  0.500000  1
  Si  Si15  1  0.224644  0.000728  0.500000  1
  Si  Si16  1  0.667681  0.332319  0.500000  1
  Si  Si17  1  0.777506  0.777506  0.500000  1
  O  O18  1  0.000000  0.500000  0.000000  1
  O  O19  1  0.500000  0.500000  0.000000  1
  O  O20  1  0.500000  0.000000  0.000000  1
