# generated using pymatgen
data_Li3HfSc5Ir3
_symmetry_space_group_name_H-M   'P 1'
_cell_length_a   4.67019100
_cell_length_b   6.57417300
_cell_length_c   13.71696801
_cell_angle_alpha   90.00000000
_cell_angle_beta   89.99560215
_cell_angle_gamma   90.00000000
_symmetry_Int_Tables_number   1
_chemical_formula_structural   Li3HfSc5Ir3
_chemical_formula_sum   'Li6 Hf2 Sc10 Ir6'
_cell_volume   421.14717884
_cell_formula_units_Z   2
loop_
 _symmetry_equiv_pos_site_id
 _symmetry_equiv_pos_as_xyz
  1  'x, y, z'
loop_
 _atom_site_type_symbol
 _atom_site_label
 _atom_site_symmetry_multiplicity
 _atom_site_fract_x
 _atom_site_fract_y
 _atom_site_fract_z
 _atom_site_occupancy
  Li  Li0  1  0.000000  0.000000  0.000000  1
  Li  Li1  1  0.499378  0.500000  0.167339  1
  Li  Li2  1  0.999382  0.000000  0.333094  1
  Li  Li3  1  0.500000  0.500000  0.500000  1
  Li  Li4  1  0.000620  0.000000  0.666906  1
  Li  Li5  1  0.500621  0.500000  0.832661  1
  Hf  Hf6  1  0.500000  0.249157  0.000000  1
  Hf  Hf7  1  0.500000  0.750844  0.000000  1
  Sc  Sc8  1  0.999587  0.251934  0.168111  1
  Sc  Sc9  1  0.999587  0.748067  0.168111  1
  Sc  Sc10  1  0.499566  0.248980  0.334191  1
  Sc  Sc11  1  0.499566  0.751021  0.334191  1
  Sc  Sc12  1  0.000000  0.252060  0.500000  1
  Sc  Sc13  1  0.000000  0.747941  0.500000  1
  Sc  Sc14  1  0.500433  0.248980  0.665809  1
  Sc  Sc15  1  0.500433  0.751021  0.665809  1
  Sc  Sc16  1  0.000412  0.251934  0.831889  1
  Sc  Sc17  1  0.000412  0.748067  0.831889  1
  Ir  Ir18  1  0.000000  0.500000  0.000000  1
  Ir  Ir19  1  0.499608  0.000000  0.159408  1
  Ir  Ir20  1  0.999547  0.500000  0.333353  1
  Ir  Ir21  1  0.500000  0.000000  0.500000  1
  Ir  Ir22  1  0.000453  0.500000  0.666647  1
  Ir  Ir23  1  0.500394  0.000000  0.840592  1
