# generated using pymatgen
data_Pr2Nd6UPd24
_symmetry_space_group_name_H-M   'P 1'
_cell_length_a   8.48538803
_cell_length_b   8.48538805
_cell_length_c   8.48538800
_cell_angle_alpha   89.99555699
_cell_angle_beta   89.99555699
_cell_angle_gamma   89.99555665
_symmetry_Int_Tables_number   1
_chemical_formula_structural   Pr2Nd6UPd24
_chemical_formula_sum   'Pr2 Nd6 U1 Pd24'
_cell_volume   610.96329040
_cell_formula_units_Z   1
loop_
 _symmetry_equiv_pos_site_id
 _symmetry_equiv_pos_as_xyz
  1  'x, y, z'
loop_
 _atom_site_type_symbol
 _atom_site_label
 _atom_site_symmetry_multiplicity
 _atom_site_fract_x
 _atom_site_fract_y
 _atom_site_fract_z
 _atom_site_occupancy
  Pr  Pr0  1  0.253635  0.253635  0.253635  1
  Pr  Pr1  1  0.746365  0.746365  0.746365  1
  Nd  Nd2  1  0.746233  0.746233  0.253793  1
  Nd  Nd3  1  0.746233  0.253793  0.746233  1
  Nd  Nd4  1  0.253767  0.253767  0.746207  1
  Nd  Nd5  1  0.253767  0.746207  0.253767  1
  Nd  Nd6  1  0.253793  0.746233  0.746233  1
  Nd  Nd7  1  0.746207  0.253767  0.253767  1
  U  U8  1  0.000000  0.000000  0.000000  1
  Pd  Pd9  1  0.266652  0.500306  0.999357  1
  Pd  Pd10  1  0.733348  0.499694  0.000643  1
  Pd  Pd11  1  0.999357  0.266652  0.500306  1
  Pd  Pd12  1  0.500306  0.266652  0.999357  1
  Pd  Pd13  1  0.000643  0.733348  0.499694  1
  Pd  Pd14  1  0.499694  0.733348  0.000643  1
  Pd  Pd15  1  0.500306  0.999357  0.266652  1
  Pd  Pd16  1  0.266652  0.999357  0.500306  1
  Pd  Pd17  1  0.499694  0.000643  0.733348  1
  Pd  Pd18  1  0.733348  0.000643  0.499694  1
  Pd  Pd19  1  0.999357  0.500306  0.266652  1
  Pd  Pd20  1  0.000643  0.499694  0.733348  1
  Pd  Pd21  1  0.253657  0.500448  0.500448  1
  Pd  Pd22  1  0.746343  0.499552  0.499552  1
  Pd  Pd23  1  0.500448  0.253657  0.500448  1
  Pd  Pd24  1  0.499552  0.746343  0.499552  1
  Pd  Pd25  1  0.500448  0.500448  0.253657  1
  Pd  Pd26  1  0.499552  0.499552  0.746343  1
  Pd  Pd27  1  0.313537  0.999555  0.999555  1
  Pd  Pd28  1  0.686463  0.000445  0.000445  1
  Pd  Pd29  1  0.999555  0.313537  0.999555  1
  Pd  Pd30  1  0.000445  0.686463  0.000445  1
  Pd  Pd31  1  0.999555  0.999555  0.313537  1
  Pd  Pd32  1  0.000445  0.000445  0.686463  1
