# generated using pymatgen
data_HoEr15(InNi)4
_symmetry_space_group_name_H-M   'P 1'
_cell_length_a   9.51874034
_cell_length_b   9.51873939
_cell_length_c   9.51874081
_cell_angle_alpha   59.81394117
_cell_angle_beta   59.81394727
_cell_angle_gamma   59.81394580
_symmetry_Int_Tables_number   1
_chemical_formula_structural   HoEr15(InNi)4
_chemical_formula_sum   'Ho1 Er15 In4 Ni4'
_cell_volume   607.27500069
_cell_formula_units_Z   1
loop_
 _symmetry_equiv_pos_site_id
 _symmetry_equiv_pos_as_xyz
  1  'x, y, z'
loop_
 _atom_site_type_symbol
 _atom_site_label
 _atom_site_symmetry_multiplicity
 _atom_site_fract_x
 _atom_site_fract_y
 _atom_site_fract_z
 _atom_site_occupancy
  Ho  Ho0  1  0.347416  0.347416  0.347416  1
  Er  Er1  1  0.347177  0.347177  0.956305  1
  Er  Er2  1  0.347177  0.956305  0.347177  1
  Er  Er3  1  0.956305  0.347177  0.347177  1
  Er  Er4  1  0.813228  0.187647  0.187647  1
  Er  Er5  1  0.188468  0.811998  0.811998  1
  Er  Er6  1  0.187647  0.813228  0.187647  1
  Er  Er7  1  0.811998  0.188468  0.811998  1
  Er  Er8  1  0.187647  0.187647  0.813228  1
  Er  Er9  1  0.811998  0.811998  0.188468  1
  Er  Er10  1  0.937229  0.562692  0.562692  1
  Er  Er11  1  0.562177  0.937992  0.937992  1
  Er  Er12  1  0.562692  0.937229  0.562692  1
  Er  Er13  1  0.937992  0.562177  0.937992  1
  Er  Er14  1  0.562692  0.562692  0.937229  1
  Er  Er15  1  0.937992  0.937992  0.562177  1
  In  In16  1  0.582993  0.582993  0.582993  1
  In  In17  1  0.582595  0.582595  0.252428  1
  In  In18  1  0.582595  0.252428  0.582595  1
  In  In19  1  0.252428  0.582595  0.582595  1
  Ni  Ni20  1  0.142659  0.142659  0.142659  1
  Ni  Ni21  1  0.141963  0.141963  0.572970  1
  Ni  Ni22  1  0.141963  0.572970  0.141963  1
  Ni  Ni23  1  0.572970  0.141963  0.141963  1
