# generated using pymatgen
data_Ho3Zn3Ni2Pd
_symmetry_space_group_name_H-M   'P 1'
_cell_length_a   7.09877100
_cell_length_b   7.09877073
_cell_length_c   3.78017100
_cell_angle_alpha   90.00000000
_cell_angle_beta   90.00000000
_cell_angle_gamma   119.99999659
_symmetry_Int_Tables_number   1
_chemical_formula_structural   Ho3Zn3Ni2Pd
_chemical_formula_sum   'Ho3 Zn3 Ni2 Pd1'
_cell_volume   164.97130471
_cell_formula_units_Z   1
loop_
 _symmetry_equiv_pos_site_id
 _symmetry_equiv_pos_as_xyz
  1  'x, y, z'
loop_
 _atom_site_type_symbol
 _atom_site_label
 _atom_site_symmetry_multiplicity
 _atom_site_fract_x
 _atom_site_fract_y
 _atom_site_fract_z
 _atom_site_occupancy
  Ho  Ho0  1  0.409092  0.397488  0.000000  1
  Ho  Ho1  1  0.602512  0.011604  0.000000  1
  Ho  Ho2  1  0.988396  0.590908  0.000000  1
  Zn  Zn3  1  0.761076  0.755581  0.500000  1
  Zn  Zn4  1  0.244419  0.005494  0.500000  1
  Zn  Zn5  1  0.994506  0.238924  0.500000  1
  Ni  Ni6  1  0.000000  0.000000  0.000000  1
  Ni  Ni7  1  0.666667  0.333333  0.500000  1
  Pd  Pd8  1  0.333333  0.666667  0.500000  1
