# generated using pymatgen
data_Dy3Ho4Zn(Sn11Ru3)2
_symmetry_space_group_name_H-M   'P 1'
_cell_length_a   9.83375358
_cell_length_b   9.80923075
_cell_length_c   10.06009293
_cell_angle_alpha   90.01177264
_cell_angle_beta   90.10510858
_cell_angle_gamma   119.92445344
_symmetry_Int_Tables_number   1
_chemical_formula_structural   Dy3Ho4Zn(Sn11Ru3)2
_chemical_formula_sum   'Dy3 Ho4 Zn1 Sn22 Ru6'
_cell_volume   841.03856281
_cell_formula_units_Z   1
loop_
 _symmetry_equiv_pos_site_id
 _symmetry_equiv_pos_as_xyz
  1  'x, y, z'
loop_
 _atom_site_type_symbol
 _atom_site_label
 _atom_site_symmetry_multiplicity
 _atom_site_fract_x
 _atom_site_fract_y
 _atom_site_fract_z
 _atom_site_occupancy
  Dy  Dy0  1  0.999768  0.999867  0.000280  1
  Dy  Dy1  1  0.516608  0.482777  0.694066  1
  Dy  Dy2  1  0.516699  0.033911  0.693929  1
  Ho  Ho3  1  0.966920  0.483409  0.694514  1
  Ho  Ho4  1  0.033084  0.516586  0.305419  1
  Ho  Ho5  1  0.483577  0.966803  0.305846  1
  Ho  Ho6  1  0.483629  0.516753  0.305671  1
  Zn  Zn7  1  0.999901  0.999941  0.499885  1
  Sn  Sn8  1  0.666729  0.333302  0.178336  1
  Sn  Sn9  1  0.667454  0.333761  0.873087  1
  Sn  Sn10  1  0.333504  0.666778  0.127630  1
  Sn  Sn11  1  0.348347  0.348521  0.999765  1
  Sn  Sn12  1  0.999963  0.651364  0.000039  1
  Sn  Sn13  1  0.651493  0.000075  0.000063  1
  Sn  Sn14  1  0.651471  0.651470  0.000120  1
  Sn  Sn15  1  0.333281  0.666760  0.822002  1
  Sn  Sn16  1  0.439347  0.219581  0.462035  1
  Sn  Sn17  1  0.219898  0.780287  0.537664  1
  Sn  Sn18  1  0.219859  0.439789  0.537688  1
  Sn  Sn19  1  0.560409  0.780358  0.537401  1
  Sn  Sn20  1  0.120004  0.880787  0.273427  1
  Sn  Sn21  1  0.780036  0.560141  0.462074  1
  Sn  Sn22  1  0.780065  0.219682  0.462122  1
  Sn  Sn23  1  0.348421  0.999828  0.999777  1
  Sn  Sn24  1  0.120105  0.239430  0.273357  1
  Sn  Sn25  1  0.760934  0.880459  0.273542  1
  Sn  Sn26  1  0.238245  0.119125  0.726706  1
  Sn  Sn27  1  0.880130  0.760734  0.726758  1
  Sn  Sn28  1  0.880301  0.119234  0.726647  1
  Sn  Sn29  1  0.999964  0.348585  0.000026  1
  Ru  Ru30  1  0.168232  0.830343  0.795337  1
  Ru  Ru31  1  0.168264  0.337817  0.795340  1
  Ru  Ru32  1  0.661999  0.830921  0.795716  1
  Ru  Ru33  1  0.338320  0.169215  0.204309  1
  Ru  Ru34  1  0.831514  0.662265  0.204701  1
  Ru  Ru35  1  0.831526  0.169342  0.204720  1
