# generated using pymatgen
data_Tb2Sc3Tl3Sn
_symmetry_space_group_name_H-M   'P 1'
_cell_length_a   7.71254614
_cell_length_b   8.10090937
_cell_length_c   15.37684100
_cell_angle_alpha   90.00654230
_cell_angle_beta   89.66972387
_cell_angle_gamma   89.90012246
_symmetry_Int_Tables_number   1
_chemical_formula_structural   Tb2Sc3Tl3Sn
_chemical_formula_sum   'Tb8 Sc12 Tl12 Sn4'
_cell_volume   960.70664261
_cell_formula_units_Z   4
loop_
 _symmetry_equiv_pos_site_id
 _symmetry_equiv_pos_as_xyz
  1  'x, y, z'
loop_
 _atom_site_type_symbol
 _atom_site_label
 _atom_site_symmetry_multiplicity
 _atom_site_fract_x
 _atom_site_fract_y
 _atom_site_fract_z
 _atom_site_occupancy
  Tb  Tb0  1  0.003662  0.182046  0.092624  1
  Tb  Tb1  1  0.996815  0.818459  0.906308  1
  Tb  Tb2  1  0.495924  0.681568  0.907890  1
  Tb  Tb3  1  0.998377  0.816870  0.593938  1
  Tb  Tb4  1  0.503541  0.318108  0.093032  1
  Tb  Tb5  1  0.000983  0.182500  0.405068  1
  Tb  Tb6  1  0.500754  0.318160  0.406409  1
  Tb  Tb7  1  0.498740  0.681727  0.594200  1
  Sc  Sc8  1  0.164383  0.500236  0.750442  1
  Sc  Sc9  1  0.834926  0.500953  0.248636  1
  Sc  Sc10  1  0.333304  0.000372  0.249617  1
  Sc  Sc11  1  0.665764  0.998010  0.751431  1
  Sc  Sc12  1  0.333549  0.163600  0.625875  1
  Sc  Sc13  1  0.669640  0.837913  0.374496  1
  Sc  Sc14  1  0.166831  0.665190  0.374835  1
  Sc  Sc15  1  0.668432  0.837414  0.123653  1
  Sc  Sc16  1  0.830037  0.334926  0.625329  1
  Sc  Sc17  1  0.329074  0.163564  0.876151  1
  Sc  Sc18  1  0.830623  0.333127  0.875903  1
  Sc  Sc19  1  0.171868  0.664800  0.123833  1
  Tl  Tl20  1  0.025088  0.124266  0.748652  1
  Tl  Tl21  1  0.974136  0.874450  0.247821  1
  Tl  Tl22  1  0.475400  0.625725  0.250729  1
  Tl  Tl23  1  0.523962  0.375995  0.752862  1
  Tl  Tl24  1  0.298342  0.858157  0.750445  1
  Tl  Tl25  1  0.702312  0.143053  0.249486  1
  Tl  Tl26  1  0.201631  0.359548  0.249817  1
  Tl  Tl27  1  0.798658  0.639420  0.750428  1
  Tl  Tl28  1  0.678111  0.041568  0.542821  1
  Tl  Tl29  1  0.175457  0.459226  0.956918  1
  Tl  Tl30  1  0.676568  0.039724  0.957259  1
  Tl  Tl31  1  0.324080  0.958673  0.042512  1
  Sn  Sn32  1  0.177355  0.459566  0.542840  1
  Sn  Sn33  1  0.822963  0.541396  0.457630  1
  Sn  Sn34  1  0.323580  0.959432  0.458068  1
  Sn  Sn35  1  0.825126  0.540259  0.042042  1
