# generated using pymatgen
data_CdSb2PbO7
_symmetry_space_group_name_H-M   'P 1'
_cell_length_a   7.52085621
_cell_length_b   7.52085617
_cell_length_c   7.52085679
_cell_angle_alpha   120.57071976
_cell_angle_beta   119.86890204
_cell_angle_gamma   89.62078301
_symmetry_Int_Tables_number   1
_chemical_formula_structural   CdSb2PbO7
_chemical_formula_sum   'Cd2 Sb4 Pb2 O14'
_cell_volume   299.78556087
_cell_formula_units_Z   2
loop_
 _symmetry_equiv_pos_site_id
 _symmetry_equiv_pos_as_xyz
  1  'x, y, z'
loop_
 _atom_site_type_symbol
 _atom_site_label
 _atom_site_symmetry_multiplicity
 _atom_site_fract_x
 _atom_site_fract_y
 _atom_site_fract_z
 _atom_site_occupancy
  Cd  Cd0  1  0.000000  0.000000  0.000000  1
  Cd  Cd1  1  0.500000  0.500000  0.000000  1
  Sb  Sb2  1  0.500000  0.000000  0.000000  1
  Sb  Sb3  1  0.500000  0.500000  0.500000  1
  Sb  Sb4  1  0.500000  0.000000  0.500000  1
  Sb  Sb5  1  0.000000  0.500000  0.500000  1
  Pb  Pb6  1  0.000000  0.000000  0.500000  1
  Pb  Pb7  1  0.000000  0.500000  0.000000  1
  O  O8  1  0.443228  0.085604  0.767152  1
  O  O9  1  0.556772  0.323925  0.642376  1
  O  O10  1  0.181549  0.414396  0.357624  1
  O  O11  1  0.818451  0.176075  0.232848  1
  O  O12  1  0.556772  0.914396  0.232848  1
  O  O13  1  0.443228  0.676075  0.357624  1
  O  O14  1  0.818451  0.585604  0.642376  1
  O  O15  1  0.181549  0.823925  0.767152  1
  O  O16  1  0.597753  0.750000  0.847753  1
  O  O17  1  0.402247  0.250000  0.152247  1
  O  O18  1  0.181460  0.917561  0.263899  1
  O  O19  1  0.818540  0.082439  0.736101  1
  O  O20  1  0.846337  0.582439  0.263899  1
  O  O21  1  0.153663  0.417561  0.736101  1
