# generated using pymatgen
data_DyTm6Lu9(In3Co)2
_symmetry_space_group_name_H-M   'P 1'
_cell_length_a   10.17949100
_cell_length_b   10.17949192
_cell_length_c   6.90759400
_cell_angle_alpha   90.00000000
_cell_angle_beta   90.00000000
_cell_angle_gamma   120.00000676
_symmetry_Int_Tables_number   1
_chemical_formula_structural   DyTm6Lu9(In3Co)2
_chemical_formula_sum   'Dy1 Tm6 Lu9 In6 Co2'
_cell_volume   619.88277769
_cell_formula_units_Z   1
loop_
 _symmetry_equiv_pos_site_id
 _symmetry_equiv_pos_as_xyz
  1  'x, y, z'
loop_
 _atom_site_type_symbol
 _atom_site_label
 _atom_site_symmetry_multiplicity
 _atom_site_fract_x
 _atom_site_fract_y
 _atom_site_fract_z
 _atom_site_occupancy
  Dy  Dy0  1  0.000000  0.000000  0.000992  1
  Tm  Tm1  1  0.534247  0.068494  0.512484  1
  Tm  Tm2  1  0.931506  0.465753  0.512484  1
  Tm  Tm3  1  0.534247  0.465753  0.512484  1
  Tm  Tm4  1  0.465669  0.931337  0.012652  1
  Tm  Tm5  1  0.068663  0.534331  0.012652  1
  Tm  Tm6  1  0.465669  0.534331  0.012652  1
  Lu  Lu7  1  0.179190  0.358380  0.718881  1
  Lu  Lu8  1  0.641620  0.820810  0.718881  1
  Lu  Lu9  1  0.179190  0.820810  0.718881  1
  Lu  Lu10  1  0.820787  0.641575  0.220228  1
  Lu  Lu11  1  0.358425  0.179213  0.220228  1
  Lu  Lu12  1  0.820787  0.179213  0.220228  1
  Lu  Lu13  1  0.666667  0.333333  0.903861  1
  Lu  Lu14  1  0.333333  0.666667  0.404744  1
  Lu  Lu15  1  0.000000  0.000000  0.500566  1
  In  In16  1  0.836904  0.673807  0.759293  1
  In  In17  1  0.326193  0.163096  0.759293  1
  In  In18  1  0.836904  0.163096  0.759293  1
  In  In19  1  0.163078  0.326156  0.262594  1
  In  In20  1  0.673844  0.836922  0.262594  1
  In  In21  1  0.163078  0.836922  0.262594  1
  Co  Co22  1  0.666667  0.333333  0.287014  1
  Co  Co23  1  0.333333  0.666667  0.788624  1
