# generated using pymatgen
data_CeHo5TcOs
_symmetry_space_group_name_H-M   'P 1'
_cell_length_a   6.34728900
_cell_length_b   7.28411600
_cell_length_c   9.24395400
_cell_angle_alpha   90.00000000
_cell_angle_beta   90.00000000
_cell_angle_gamma   90.00000000
_symmetry_Int_Tables_number   1
_chemical_formula_structural   CeHo5TcOs
_chemical_formula_sum   'Ce2 Ho10 Tc2 Os2'
_cell_volume   427.38856848
_cell_formula_units_Z   2
loop_
 _symmetry_equiv_pos_site_id
 _symmetry_equiv_pos_as_xyz
  1  'x, y, z'
loop_
 _atom_site_type_symbol
 _atom_site_label
 _atom_site_symmetry_multiplicity
 _atom_site_fract_x
 _atom_site_fract_y
 _atom_site_fract_z
 _atom_site_occupancy
  Ce  Ce0  1  0.872361  0.557879  0.250000  1
  Ce  Ce1  1  0.627639  0.057879  0.250000  1
  Ho  Ho2  1  0.337333  0.678004  0.059122  1
  Ho  Ho3  1  0.162667  0.178004  0.440878  1
  Ho  Ho4  1  0.671088  0.323843  0.568248  1
  Ho  Ho5  1  0.828912  0.823843  0.931752  1
  Ho  Ho6  1  0.671088  0.323843  0.931752  1
  Ho  Ho7  1  0.828912  0.823843  0.568248  1
  Ho  Ho8  1  0.337333  0.678004  0.440878  1
  Ho  Ho9  1  0.162667  0.178004  0.059122  1
  Ho  Ho10  1  0.132362  0.462116  0.750000  1
  Ho  Ho11  1  0.367638  0.962116  0.750000  1
  Tc  Tc12  1  0.004963  0.860472  0.250000  1
  Tc  Tc13  1  0.495037  0.360472  0.250000  1
  Os  Os14  1  0.961562  0.115839  0.750000  1
  Os  Os15  1  0.538438  0.615839  0.750000  1
