# generated using pymatgen
data_Ti6AlTc3Ru2
_symmetry_space_group_name_H-M   'P 1'
_cell_length_a   4.37635300
_cell_length_b   6.25945500
_cell_length_c   13.19760700
_cell_angle_alpha   90.00000000
_cell_angle_beta   90.00000000
_cell_angle_gamma   90.00000000
_symmetry_Int_Tables_number   1
_chemical_formula_structural   Ti6AlTc3Ru2
_chemical_formula_sum   'Ti12 Al2 Tc6 Ru4'
_cell_volume   361.52976476
_cell_formula_units_Z   2
loop_
 _symmetry_equiv_pos_site_id
 _symmetry_equiv_pos_as_xyz
  1  'x, y, z'
loop_
 _atom_site_type_symbol
 _atom_site_label
 _atom_site_symmetry_multiplicity
 _atom_site_fract_x
 _atom_site_fract_y
 _atom_site_fract_z
 _atom_site_occupancy
  Ti  Ti0  1  0.499938  0.245490  0.004824  1
  Ti  Ti1  1  0.499938  0.754510  0.004824  1
  Ti  Ti2  1  0.999713  0.250477  0.167556  1
  Ti  Ti3  1  0.999713  0.749523  0.167556  1
  Ti  Ti4  1  0.499715  0.249523  0.332444  1
  Ti  Ti5  1  0.499715  0.750477  0.332444  1
  Ti  Ti6  1  0.999937  0.254509  0.495176  1
  Ti  Ti7  1  0.999937  0.745491  0.495176  1
  Ti  Ti8  1  0.500337  0.257586  0.661574  1
  Ti  Ti9  1  0.500337  0.742414  0.661574  1
  Ti  Ti10  1  0.000338  0.242414  0.838427  1
  Ti  Ti11  1  0.000338  0.757586  0.838427  1
  Al  Al12  1  0.000475  0.000000  0.665460  1
  Al  Al13  1  0.500473  0.499999  0.834539  1
  Tc  Tc14  1  0.999899  0.499999  0.995384  1
  Tc  Tc15  1  0.499735  0.000000  0.167644  1
  Tc  Tc16  1  0.999736  0.499999  0.332355  1
  Tc  Tc17  1  0.499900  0.000000  0.504616  1
  Tc  Tc18  1  0.000247  0.499999  0.670778  1
  Tc  Tc19  1  0.500246  0.000000  0.829221  1
  Ru  Ru20  1  0.999952  0.000000  0.000489  1
  Ru  Ru21  1  0.499711  0.499999  0.165595  1
  Ru  Ru22  1  0.999712  0.000000  0.334405  1
  Ru  Ru23  1  0.499953  0.499999  0.499511  1
