# generated using pymatgen
data_Y3ThNi2C5
_symmetry_space_group_name_H-M   'P 1'
_cell_length_a   3.72536400
_cell_length_b   3.72953400
_cell_length_c   11.72185000
_cell_angle_alpha   90.00000000
_cell_angle_beta   90.00000000
_cell_angle_gamma   90.00000000
_symmetry_Int_Tables_number   1
_chemical_formula_structural   Y3ThNi2C5
_chemical_formula_sum   'Y3 Th1 Ni2 C5'
_cell_volume   162.86187999
_cell_formula_units_Z   1
loop_
 _symmetry_equiv_pos_site_id
 _symmetry_equiv_pos_as_xyz
  1  'x, y, z'
loop_
 _atom_site_type_symbol
 _atom_site_label
 _atom_site_symmetry_multiplicity
 _atom_site_fract_x
 _atom_site_fract_y
 _atom_site_fract_z
 _atom_site_occupancy
  Y  Y0  1  0.500000  0.504245  0.209565  1
  Y  Y1  1  0.500000  0.504245  0.790435  1
  Y  Y2  1  0.500000  0.203335  0.500000  1
  Th  Th3  1  0.000000  0.998892  0.000000  1
  Ni  Ni4  1  0.000000  0.696920  0.385307  1
  Ni  Ni5  1  0.000000  0.696920  0.614693  1
  C  C6  1  0.000000  0.006203  0.232235  1
  C  C7  1  0.000000  0.006203  0.767765  1
  C  C8  1  0.000000  0.195177  0.335214  1
  C  C9  1  0.000000  0.195177  0.664786  1
  C  C10  1  0.500000  0.494182  0.000000  1
