# generated using pymatgen
data_Eu4Sn4PdRh3
_symmetry_space_group_name_H-M   'P 1'
_cell_length_a   4.60868400
_cell_length_b   7.54297362
_cell_length_c   8.10660471
_cell_angle_alpha   89.92532239
_cell_angle_beta   90.00000000
_cell_angle_gamma   90.00000000
_symmetry_Int_Tables_number   1
_chemical_formula_structural   Eu4Sn4PdRh3
_chemical_formula_sum   'Eu4 Sn4 Pd1 Rh3'
_cell_volume   281.81113395
_cell_formula_units_Z   1
loop_
 _symmetry_equiv_pos_site_id
 _symmetry_equiv_pos_as_xyz
  1  'x, y, z'
loop_
 _atom_site_type_symbol
 _atom_site_label
 _atom_site_symmetry_multiplicity
 _atom_site_fract_x
 _atom_site_fract_y
 _atom_site_fract_z
 _atom_site_occupancy
  Eu  Eu0  1  0.250000  0.522518  0.185234  1
  Eu  Eu1  1  0.750000  0.472521  0.816964  1
  Eu  Eu2  1  0.250000  0.027040  0.317716  1
  Eu  Eu3  1  0.750000  0.975059  0.680611  1
  Sn  Sn4  1  0.250000  0.164370  0.926692  1
  Sn  Sn5  1  0.750000  0.340949  0.426785  1
  Sn  Sn6  1  0.250000  0.657532  0.569281  1
  Sn  Sn7  1  0.750000  0.841801  0.076984  1
  Pd  Pd8  1  0.250000  0.788678  0.890731  1
  Rh  Rh9  1  0.750000  0.210523  0.107890  1
  Rh  Rh10  1  0.250000  0.288331  0.608635  1
  Rh  Rh11  1  0.750000  0.710677  0.392477  1
