# generated using pymatgen
data_Eu3Ga24TcPd8
_symmetry_space_group_name_H-M   'P 1'
_cell_length_a   8.54713935
_cell_length_b   8.54713922
_cell_length_c   8.54713949
_cell_angle_alpha   90.14574525
_cell_angle_beta   90.14574424
_cell_angle_gamma   90.14575281
_symmetry_Int_Tables_number   1
_chemical_formula_structural   Eu3Ga24TcPd8
_chemical_formula_sum   'Eu3 Ga24 Tc1 Pd8'
_cell_volume   624.39315247
_cell_formula_units_Z   1
loop_
 _symmetry_equiv_pos_site_id
 _symmetry_equiv_pos_as_xyz
  1  'x, y, z'
loop_
 _atom_site_type_symbol
 _atom_site_label
 _atom_site_symmetry_multiplicity
 _atom_site_fract_x
 _atom_site_fract_y
 _atom_site_fract_z
 _atom_site_occupancy
  Eu  Eu0  1  0.000000  0.500000  0.000000  1
  Eu  Eu1  1  0.500000  0.000000  0.000000  1
  Eu  Eu2  1  0.000000  0.000000  0.500000  1
  Ga  Ga3  1  0.989913  0.642926  0.642926  1
  Ga  Ga4  1  0.642926  0.642926  0.989913  1
  Ga  Ga5  1  0.642926  0.989913  0.642926  1
  Ga  Ga6  1  0.010087  0.357074  0.357074  1
  Ga  Ga7  1  0.357074  0.357074  0.010087  1
  Ga  Ga8  1  0.357074  0.010087  0.357074  1
  Ga  Ga9  1  0.735487  0.500000  0.264513  1
  Ga  Ga10  1  0.264513  0.500000  0.735487  1
  Ga  Ga11  1  0.500000  0.264513  0.735487  1
  Ga  Ga12  1  0.500000  0.735487  0.264513  1
  Ga  Ga13  1  0.264513  0.735487  0.500000  1
  Ga  Ga14  1  0.735487  0.264513  0.500000  1
  Ga  Ga15  1  0.839667  0.142546  0.839667  1
  Ga  Ga16  1  0.142546  0.839667  0.839667  1
  Ga  Ga17  1  0.839667  0.839667  0.142546  1
  Ga  Ga18  1  0.160333  0.857454  0.160333  1
  Ga  Ga19  1  0.857454  0.160333  0.160333  1
  Ga  Ga20  1  0.160333  0.160333  0.857454  1
  Ga  Ga21  1  0.727134  0.487765  0.727134  1
  Ga  Ga22  1  0.487765  0.727134  0.727134  1
  Ga  Ga23  1  0.727134  0.727134  0.487765  1
  Ga  Ga24  1  0.272866  0.512235  0.272866  1
  Ga  Ga25  1  0.512235  0.272866  0.272866  1
  Ga  Ga26  1  0.272866  0.272866  0.512235  1
  Tc  Tc27  1  0.500000  0.500000  0.500000  1
  Pd  Pd28  1  0.835444  0.835444  0.835444  1
  Pd  Pd29  1  0.164556  0.164556  0.164556  1
  Pd  Pd30  1  0.662802  0.337198  0.000000  1
  Pd  Pd31  1  0.000000  0.337198  0.662802  1
  Pd  Pd32  1  0.337198  0.000000  0.662802  1
  Pd  Pd33  1  0.337198  0.662802  0.000000  1
  Pd  Pd34  1  0.000000  0.662802  0.337198  1
  Pd  Pd35  1  0.662802  0.000000  0.337198  1
