# generated using pymatgen
data_La2PrRhBr3
_symmetry_space_group_name_H-M   'P 1'
_cell_length_a   10.59974077
_cell_length_b   10.59932712
_cell_length_c   10.59974015
_cell_angle_alpha   108.82025703
_cell_angle_beta   108.81859202
_cell_angle_gamma   110.78444550
_symmetry_Int_Tables_number   1
_chemical_formula_structural   La2PrRhBr3
_chemical_formula_sum   'La8 Pr4 Rh4 Br12'
_cell_volume   916.36146485
_cell_formula_units_Z   4
loop_
 _symmetry_equiv_pos_site_id
 _symmetry_equiv_pos_as_xyz
  1  'x, y, z'
loop_
 _atom_site_type_symbol
 _atom_site_label
 _atom_site_symmetry_multiplicity
 _atom_site_fract_x
 _atom_site_fract_y
 _atom_site_fract_z
 _atom_site_occupancy
  La  La0  1  0.469507  0.481549  0.236329  1
  La  La1  1  0.745310  0.233158  0.263701  1
  La  La2  1  0.754780  0.018451  0.487959  1
  La  La3  1  0.232946  0.469418  0.487576  1
  La  La4  1  0.266871  0.754565  0.236091  1
  La  La5  1  0.030544  0.266842  0.012152  1
  La  La6  1  0.018157  0.030582  0.263527  1
  La  La7  1  0.481526  0.745435  0.012306  1
  Pr  Pr8  1  0.485352  0.235297  0.470504  1
  Pr  Pr9  1  0.014846  0.485283  0.750069  1
  Pr  Pr10  1  0.264786  0.014717  0.029564  1
  Pr  Pr11  1  0.235208  0.264703  0.750054  1
  Rh  Rh12  1  0.248641  0.251461  0.250049  1
  Rh  Rh13  1  0.501433  0.998623  0.250031  1
  Rh  Rh14  1  0.998588  0.248539  0.497180  1
  Rh  Rh15  1  0.251408  0.501377  0.002810  1
  Br  Br16  1  0.248345  0.756414  0.745385  1
  Br  Br17  1  0.511013  0.502943  0.754630  1
  Br  Br18  1  0.988972  0.743586  0.991931  1
  Br  Br19  1  0.743615  0.251689  0.754656  1
  Br  Br20  1  0.997067  0.988947  0.745402  1
  Br  Br21  1  0.251688  0.997057  0.508071  1
  Br  Br22  1  0.756456  0.511053  0.508121  1
  Br  Br23  1  0.502967  0.248311  0.991926  1
  Br  Br24  1  0.754934  0.745097  0.250038  1
  Br  Br25  1  0.745044  0.995054  0.990109  1
  Br  Br26  1  0.995054  0.504946  0.249990  1
  Br  Br27  1  0.504941  0.754903  0.509836  1
