# generated using pymatgen
data_LaPr3Os5Br2
_symmetry_space_group_name_H-M   'P 1'
_cell_length_a   11.54483932
_cell_length_b   11.57422968
_cell_length_c   4.28135200
_cell_angle_alpha   90.00000000
_cell_angle_beta   90.00000000
_cell_angle_gamma   91.94078396
_symmetry_Int_Tables_number   1
_chemical_formula_structural   LaPr3Os5Br2
_chemical_formula_sum   'La2 Pr6 Os10 Br4'
_cell_volume   571.75730991
_cell_formula_units_Z   2
loop_
 _symmetry_equiv_pos_site_id
 _symmetry_equiv_pos_as_xyz
  1  'x, y, z'
loop_
 _atom_site_type_symbol
 _atom_site_label
 _atom_site_symmetry_multiplicity
 _atom_site_fract_x
 _atom_site_fract_y
 _atom_site_fract_z
 _atom_site_occupancy
  La  La0  1  0.669621  0.038352  0.500000  1
  La  La1  1  0.330379  0.961648  0.500000  1
  Pr  Pr2  1  0.727125  0.726727  0.000000  1
  Pr  Pr3  1  0.036158  0.666439  0.500000  1
  Pr  Pr4  1  0.377652  0.622270  0.000000  1
  Pr  Pr5  1  0.963842  0.333561  0.500000  1
  Pr  Pr6  1  0.272875  0.273273  0.000000  1
  Pr  Pr7  1  0.622348  0.377730  0.000000  1
  Os  Os8  1  0.576764  0.576985  0.500000  1
  Os  Os9  1  0.423236  0.423015  0.500000  1
  Os  Os10  1  0.214249  0.473067  0.500000  1
  Os  Os11  1  0.785751  0.526933  0.500000  1
  Os  Os12  1  0.522130  0.895103  0.000000  1
  Os  Os13  1  0.526880  0.785795  0.500000  1
  Os  Os14  1  0.477870  0.104897  0.000000  1
  Os  Os15  1  0.105725  0.477506  0.000000  1
  Os  Os16  1  0.473120  0.214205  0.500000  1
  Os  Os17  1  0.894275  0.522494  0.000000  1
  Br  Br18  1  0.881065  0.878776  0.500000  1
  Br  Br19  1  0.169211  0.827189  0.000000  1
  Br  Br20  1  0.118935  0.121224  0.500000  1
  Br  Br21  1  0.830789  0.172811  0.000000  1
