# generated using pymatgen
data_Dy2Ho3Sc3(Co4P3)4
_symmetry_space_group_name_H-M   'P 1'
_cell_length_a   12.23933500
_cell_length_b   12.23933435
_cell_length_c   3.72096600
_cell_angle_alpha   90.00000000
_cell_angle_beta   90.00000000
_cell_angle_gamma   120.00000445
_symmetry_Int_Tables_number   1
_chemical_formula_structural   Dy2Ho3Sc3(Co4P3)4
_chemical_formula_sum   'Dy2 Ho3 Sc3 Co16 P12'
_cell_volume   482.72738266
_cell_formula_units_Z   1
loop_
 _symmetry_equiv_pos_site_id
 _symmetry_equiv_pos_as_xyz
  1  'x, y, z'
loop_
 _atom_site_type_symbol
 _atom_site_label
 _atom_site_symmetry_multiplicity
 _atom_site_fract_x
 _atom_site_fract_y
 _atom_site_fract_z
 _atom_site_occupancy
  Dy  Dy0  1  0.666667  0.333333  0.000000  1
  Dy  Dy1  1  0.333333  0.666667  0.000000  1
  Ho  Ho2  1  0.815751  0.815751  0.500000  1
  Ho  Ho3  1  0.184249  0.000000  0.500000  1
  Ho  Ho4  1  0.000000  0.184249  0.500000  1
  Sc  Sc5  1  0.439885  0.439885  0.000000  1
  Sc  Sc6  1  0.560115  0.000000  0.000000  1
  Sc  Sc7  1  0.000000  0.560115  0.000000  1
  Co  Co8  1  0.875558  0.355123  0.500000  1
  Co  Co9  1  0.644877  0.520435  0.500000  1
  Co  Co10  1  0.479565  0.124442  0.500000  1
  Co  Co11  1  0.355123  0.875558  0.500000  1
  Co  Co12  1  0.520435  0.644877  0.500000  1
  Co  Co13  1  0.124442  0.479565  0.500000  1
  Co  Co14  1  0.804947  0.178989  0.000000  1
  Co  Co15  1  0.821011  0.625958  0.000000  1
  Co  Co16  1  0.374042  0.195053  0.000000  1
  Co  Co17  1  0.178989  0.804947  0.000000  1
  Co  Co18  1  0.625958  0.821011  0.000000  1
  Co  Co19  1  0.195053  0.374042  0.000000  1
  Co  Co20  1  0.278297  0.278297  0.500000  1
  Co  Co21  1  0.721703  0.000000  0.500000  1
  Co  Co22  1  0.000000  0.721703  0.500000  1
  Co  Co23  1  0.000000  0.000000  0.000000  1
  P  P24  1  0.692508  0.170910  0.500000  1
  P  P25  1  0.829090  0.521598  0.500000  1
  P  P26  1  0.478402  0.307492  0.500000  1
  P  P27  1  0.170910  0.692508  0.500000  1
  P  P28  1  0.521598  0.829090  0.500000  1
  P  P29  1  0.307492  0.478402  0.500000  1
  P  P30  1  0.179301  0.179301  0.000000  1
  P  P31  1  0.820699  0.000000  0.000000  1
  P  P32  1  0.000000  0.820699  0.000000  1
  P  P33  1  0.645355  0.645355  0.000000  1
  P  P34  1  0.354645  0.000000  0.000000  1
  P  P35  1  0.000000  0.354645  0.000000  1
