# generated using pymatgen
data_SrCr2Sb12OsPt
_symmetry_space_group_name_H-M   'P 1'
_cell_length_a   8.24167411
_cell_length_b   8.25539867
_cell_length_c   8.21620935
_cell_angle_alpha   109.48641018
_cell_angle_beta   109.48929440
_cell_angle_gamma   109.79053782
_symmetry_Int_Tables_number   1
_chemical_formula_structural   SrCr2Sb12OsPt
_chemical_formula_sum   'Sr1 Cr2 Sb12 Os1 Pt1'
_cell_volume   428.44573334
_cell_formula_units_Z   1
loop_
 _symmetry_equiv_pos_site_id
 _symmetry_equiv_pos_as_xyz
  1  'x, y, z'
loop_
 _atom_site_type_symbol
 _atom_site_label
 _atom_site_symmetry_multiplicity
 _atom_site_fract_x
 _atom_site_fract_y
 _atom_site_fract_z
 _atom_site_occupancy
  Sr  Sr0  1  0.000000  0.000000  0.000000  1
  Cr  Cr1  1  0.000000  0.000000  0.500000  1
  Cr  Cr2  1  0.500000  0.500000  0.500000  1
  Sb  Sb3  1  0.340083  0.180044  0.843865  1
  Sb  Sb4  1  0.659917  0.819956  0.156135  1
  Sb  Sb5  1  0.654437  0.502839  0.843855  1
  Sb  Sb6  1  0.345563  0.497161  0.156145  1
  Sb  Sb7  1  0.190213  0.850023  0.346516  1
  Sb  Sb8  1  0.809787  0.149977  0.653484  1
  Sb  Sb9  1  0.504459  0.843120  0.662991  1
  Sb  Sb10  1  0.495541  0.156880  0.337009  1
  Sb  Sb11  1  0.842372  0.339476  0.190068  1
  Sb  Sb12  1  0.157628  0.660524  0.809932  1
  Sb  Sb13  1  0.841744  0.660297  0.502225  1
  Sb  Sb14  1  0.158256  0.339703  0.497775  1
  Os  Os15  1  0.500000  0.000000  0.000000  1
  Pt  Pt16  1  0.000000  0.500000  0.000000  1
