# generated using pymatgen
data_K5(ZnAg2)2
_symmetry_space_group_name_H-M   'P 1'
_cell_length_a   16.59551658
_cell_length_b   16.59551438
_cell_length_c   5.34743300
_cell_angle_alpha   90.00000000
_cell_angle_beta   90.00000000
_cell_angle_gamma   164.16988186
_symmetry_Int_Tables_number   1
_chemical_formula_structural   K5(ZnAg2)2
_chemical_formula_sum   'K5 Zn2 Ag4'
_cell_volume   401.74357324
_cell_formula_units_Z   1
loop_
 _symmetry_equiv_pos_site_id
 _symmetry_equiv_pos_as_xyz
  1  'x, y, z'
loop_
 _atom_site_type_symbol
 _atom_site_label
 _atom_site_symmetry_multiplicity
 _atom_site_fract_x
 _atom_site_fract_y
 _atom_site_fract_z
 _atom_site_occupancy
  K  K0  1  0.001903  0.998097  0.000000  1
  K  K1  1  0.618795  0.381205  0.000000  1
  K  K2  1  0.381820  0.618180  0.000000  1
  K  K3  1  0.798267  0.201732  0.500000  1
  K  K4  1  0.198136  0.801863  0.500000  1
  Zn  Zn5  1  0.924441  0.075559  0.500000  1
  Zn  Zn6  1  0.541618  0.458381  0.500000  1
  Ag  Ag7  1  0.727194  0.272806  0.000000  1
  Ag  Ag8  1  0.272521  0.727479  0.000000  1
  Ag  Ag9  1  0.458557  0.541442  0.500000  1
  Ag  Ag10  1  0.076747  0.923253  0.500000  1
