# generated using pymatgen
data_YbDy3(ZnRh)4
_symmetry_space_group_name_H-M   'P 1'
_cell_length_a   4.06920800
_cell_length_b   6.92947517
_cell_length_c   8.06110146
_cell_angle_alpha   90.21593178
_cell_angle_beta   90.00000000
_cell_angle_gamma   90.00000000
_symmetry_Int_Tables_number   1
_chemical_formula_structural   YbDy3(ZnRh)4
_chemical_formula_sum   'Yb1 Dy3 Zn4 Rh4'
_cell_volume   227.30109930
_cell_formula_units_Z   1
loop_
 _symmetry_equiv_pos_site_id
 _symmetry_equiv_pos_as_xyz
  1  'x, y, z'
loop_
 _atom_site_type_symbol
 _atom_site_label
 _atom_site_symmetry_multiplicity
 _atom_site_fract_x
 _atom_site_fract_y
 _atom_site_fract_z
 _atom_site_occupancy
  Yb  Yb0  1  0.250000  0.536178  0.183929  1
  Dy  Dy1  1  0.750000  0.462910  0.818305  1
  Dy  Dy2  1  0.250000  0.035654  0.315052  1
  Dy  Dy3  1  0.750000  0.961919  0.683133  1
  Zn  Zn4  1  0.250000  0.137810  0.937578  1
  Zn  Zn5  1  0.750000  0.861293  0.064758  1
  Zn  Zn6  1  0.250000  0.638040  0.562631  1
  Zn  Zn7  1  0.750000  0.364462  0.434026  1
  Rh  Rh8  1  0.750000  0.743910  0.377901  1
  Rh  Rh9  1  0.250000  0.259776  0.624244  1
  Rh  Rh10  1  0.750000  0.239359  0.123999  1
  Rh  Rh11  1  0.250000  0.758687  0.874445  1
