# generated using pymatgen
data_Ta3Ti(VGe)4
_symmetry_space_group_name_H-M   'P 1'
_cell_length_a   3.41531500
_cell_length_b   6.66926464
_cell_length_c   8.07567881
_cell_angle_alpha   90.21190277
_cell_angle_beta   90.00000000
_cell_angle_gamma   90.00000000
_symmetry_Int_Tables_number   1
_chemical_formula_structural   Ta3Ti(VGe)4
_chemical_formula_sum   'Ta3 Ti1 V4 Ge4'
_cell_volume   183.94364321
_cell_formula_units_Z   1
loop_
 _symmetry_equiv_pos_site_id
 _symmetry_equiv_pos_as_xyz
  1  'x, y, z'
loop_
 _atom_site_type_symbol
 _atom_site_label
 _atom_site_symmetry_multiplicity
 _atom_site_fract_x
 _atom_site_fract_y
 _atom_site_fract_z
 _atom_site_occupancy
  Ta  Ta0  1  0.250000  0.550550  0.165992  1
  Ta  Ta1  1  0.750000  0.446306  0.834595  1
  Ta  Ta2  1  0.750000  0.948213  0.667437  1
  Ti  Ti3  1  0.250000  0.050411  0.333961  1
  V  V4  1  0.250000  0.628046  0.560578  1
  V  V5  1  0.750000  0.376441  0.438306  1
  V  V6  1  0.750000  0.870770  0.060566  1
  V  V7  1  0.250000  0.130216  0.937814  1
  Ge  Ge8  1  0.250000  0.750263  0.861362  1
  Ge  Ge9  1  0.750000  0.243764  0.143186  1
  Ge  Ge10  1  0.750000  0.755800  0.360755  1
  Ge  Ge11  1  0.250000  0.249219  0.635446  1
