# generated using pymatgen
data_Cs3Fe4As3O16
_symmetry_space_group_name_H-M   'P 1'
_cell_length_a   7.98318663
_cell_length_b   7.98364347
_cell_length_c   7.98447468
_cell_angle_alpha   90.18082232
_cell_angle_beta   90.22133149
_cell_angle_gamma   89.78830902
_symmetry_Int_Tables_number   1
_chemical_formula_structural   Cs3Fe4As3O16
_chemical_formula_sum   'Cs3 Fe4 As3 O16'
_cell_volume   508.88003953
_cell_formula_units_Z   1
loop_
 _symmetry_equiv_pos_site_id
 _symmetry_equiv_pos_as_xyz
  1  'x, y, z'
loop_
 _atom_site_type_symbol
 _atom_site_label
 _atom_site_symmetry_multiplicity
 _atom_site_fract_x
 _atom_site_fract_y
 _atom_site_fract_z
 _atom_site_occupancy
  Cs  Cs0  1  0.000332  0.499105  0.999842  1
  Cs  Cs1  1  0.000321  0.000199  0.500950  1
  Cs  Cs2  1  0.499206  0.000190  0.999856  1
  Fe  Fe3  1  0.362758  0.362946  0.368303  1
  Fe  Fe4  1  0.627297  0.627464  0.372521  1
  Fe  Fe5  1  0.631558  0.362759  0.637265  1
  Fe  Fe6  1  0.362810  0.631579  0.637063  1
  As  As7  1  0.499301  0.994800  0.500851  1
  As  As8  1  0.499321  0.499192  0.005197  1
  As  As9  1  0.994643  0.499129  0.500903  1
  O  O10  1  0.368602  0.368706  0.113612  1
  O  O11  1  0.873795  0.628349  0.371622  1
  O  O12  1  0.622809  0.622780  0.606023  1
  O  O13  1  0.622838  0.393892  0.377156  1
  O  O14  1  0.111681  0.377328  0.366090  1
  O  O15  1  0.377533  0.634029  0.887984  1
  O  O16  1  0.628370  0.628512  0.126038  1
  O  O17  1  0.382424  0.382357  0.617613  1
  O  O18  1  0.628312  0.874014  0.371498  1
  O  O19  1  0.886288  0.368454  0.631522  1
  O  O20  1  0.377405  0.111982  0.366079  1
  O  O21  1  0.634234  0.377353  0.888342  1
  O  O22  1  0.393664  0.623024  0.376954  1
  O  O23  1  0.368611  0.886276  0.631275  1
  O  O24  1  0.111720  0.633940  0.622676  1
  O  O25  1  0.634166  0.111642  0.622764  1
