# generated using pymatgen
data_TbNpReB6
_symmetry_space_group_name_H-M   'P 1'
_cell_length_a   3.63519700
_cell_length_b   9.27728400
_cell_length_c   11.35714300
_cell_angle_alpha   90.00000000
_cell_angle_beta   90.00000000
_cell_angle_gamma   90.00000000
_symmetry_Int_Tables_number   1
_chemical_formula_structural   TbNpReB6
_chemical_formula_sum   'Tb4 Np4 Re4 B24'
_cell_volume   383.01686478
_cell_formula_units_Z   4
loop_
 _symmetry_equiv_pos_site_id
 _symmetry_equiv_pos_as_xyz
  1  'x, y, z'
loop_
 _atom_site_type_symbol
 _atom_site_label
 _atom_site_symmetry_multiplicity
 _atom_site_fract_x
 _atom_site_fract_y
 _atom_site_fract_z
 _atom_site_occupancy
  Tb  Tb0  1  0.000000  0.337036  0.406892  1
  Tb  Tb1  1  0.000000  0.662964  0.593108  1
  Tb  Tb2  1  0.000000  0.837036  0.093108  1
  Tb  Tb3  1  0.000000  0.162964  0.906892  1
  Np  Np4  1  0.000000  0.958896  0.400764  1
  Np  Np5  1  0.000000  0.041104  0.599236  1
  Np  Np6  1  0.000000  0.458896  0.099236  1
  Np  Np7  1  0.000000  0.541104  0.900764  1
  Re  Re8  1  0.000000  0.646464  0.318086  1
  Re  Re9  1  0.000000  0.353536  0.681914  1
  Re  Re10  1  0.000000  0.146464  0.181914  1
  Re  Re11  1  0.000000  0.853536  0.818086  1
  B  B12  1  0.500000  0.552683  0.430793  1
  B  B13  1  0.500000  0.447317  0.569207  1
  B  B14  1  0.500000  0.052683  0.069207  1
  B  B15  1  0.500000  0.947317  0.930793  1
  B  B16  1  0.500000  0.744901  0.422480  1
  B  B17  1  0.500000  0.255099  0.577520  1
  B  B18  1  0.500000  0.244901  0.077520  1
  B  B19  1  0.500000  0.755099  0.922480  1
  B  B20  1  0.500000  0.803971  0.274907  1
  B  B21  1  0.500000  0.196029  0.725093  1
  B  B22  1  0.500000  0.303971  0.225093  1
  B  B23  1  0.500000  0.696029  0.774907  1
  B  B24  1  0.500000  0.643679  0.187988  1
  B  B25  1  0.500000  0.356321  0.812012  1
  B  B26  1  0.500000  0.143679  0.312012  1
  B  B27  1  0.500000  0.856321  0.687988  1
  B  B28  1  0.500000  0.988934  0.220605  1
  B  B29  1  0.500000  0.011066  0.779395  1
  B  B30  1  0.500000  0.488934  0.279395  1
  B  B31  1  0.500000  0.511066  0.720605  1
  B  B32  1  0.500000  0.638338  0.038178  1
  B  B33  1  0.500000  0.361662  0.961822  1
  B  B34  1  0.500000  0.138338  0.461822  1
  B  B35  1  0.500000  0.861662  0.538178  1
