# generated using pymatgen
data_HoPa3Pt4
_symmetry_space_group_name_H-M   'P 1'
_cell_length_a   4.38122000
_cell_length_b   5.69505557
_cell_length_c   7.20829221
_cell_angle_alpha   89.45308224
_cell_angle_beta   90.00000000
_cell_angle_gamma   90.00000000
_symmetry_Int_Tables_number   1
_chemical_formula_structural   HoPa3Pt4
_chemical_formula_sum   'Ho1 Pa3 Pt4'
_cell_volume   179.84800530
_cell_formula_units_Z   1
loop_
 _symmetry_equiv_pos_site_id
 _symmetry_equiv_pos_as_xyz
  1  'x, y, z'
loop_
 _atom_site_type_symbol
 _atom_site_label
 _atom_site_symmetry_multiplicity
 _atom_site_fract_x
 _atom_site_fract_y
 _atom_site_fract_z
 _atom_site_occupancy
  Ho  Ho0  1  0.750000  0.850755  0.819255  1
  Pa  Pa1  1  0.250000  0.352492  0.684876  1
  Pa  Pa2  1  0.250000  0.143085  0.176879  1
  Pa  Pa3  1  0.750000  0.652344  0.320230  1
  Pt  Pt4  1  0.250000  0.836389  0.545361  1
  Pt  Pt5  1  0.250000  0.656316  0.052915  1
  Pt  Pt6  1  0.750000  0.175664  0.447858  1
  Pt  Pt7  1  0.750000  0.332956  0.952627  1
