# generated using pymatgen
data_LuZr2ScFe8
_symmetry_space_group_name_H-M   'P 1'
_cell_length_a   8.66801583
_cell_length_b   8.66801712
_cell_length_c   8.66801613
_cell_angle_alpha   33.43900941
_cell_angle_beta   33.43901028
_cell_angle_gamma   33.43900670
_symmetry_Int_Tables_number   1
_chemical_formula_structural   LuZr2ScFe8
_chemical_formula_sum   'Lu1 Zr2 Sc1 Fe8'
_cell_volume   176.11574627
_cell_formula_units_Z   1
loop_
 _symmetry_equiv_pos_site_id
 _symmetry_equiv_pos_as_xyz
  1  'x, y, z'
loop_
 _atom_site_type_symbol
 _atom_site_label
 _atom_site_symmetry_multiplicity
 _atom_site_fract_x
 _atom_site_fract_y
 _atom_site_fract_z
 _atom_site_occupancy
  Lu  Lu0  1  0.124969  0.124969  0.124969  1
  Zr  Zr1  1  0.998764  0.998764  0.998764  1
  Zr  Zr2  1  0.501389  0.501389  0.501389  1
  Sc  Sc3  1  0.625001  0.625001  0.625001  1
  Fe  Fe4  1  0.562148  0.060964  0.562148  1
  Fe  Fe5  1  0.063296  0.563245  0.063296  1
  Fe  Fe6  1  0.060964  0.562148  0.562148  1
  Fe  Fe7  1  0.563245  0.063296  0.063296  1
  Fe  Fe8  1  0.812472  0.812472  0.812472  1
  Fe  Fe9  1  0.312306  0.312306  0.312306  1
  Fe  Fe10  1  0.562148  0.562148  0.060964  1
  Fe  Fe11  1  0.063296  0.063296  0.563245  1
