# generated using pymatgen
data_Tb2Be3Re14C3
_symmetry_space_group_name_H-M   'P 1'
_cell_length_a   6.87545265
_cell_length_b   6.87545329
_cell_length_c   6.87545256
_cell_angle_alpha   82.60062613
_cell_angle_beta   82.60062999
_cell_angle_gamma   82.60062783
_symmetry_Int_Tables_number   1
_chemical_formula_structural   Tb2Be3Re14C3
_chemical_formula_sum   'Tb2 Be3 Re14 C3'
_cell_volume   317.53777088
_cell_formula_units_Z   1
loop_
 _symmetry_equiv_pos_site_id
 _symmetry_equiv_pos_as_xyz
  1  'x, y, z'
loop_
 _atom_site_type_symbol
 _atom_site_label
 _atom_site_symmetry_multiplicity
 _atom_site_fract_x
 _atom_site_fract_y
 _atom_site_fract_z
 _atom_site_occupancy
  Tb  Tb0  1  0.653584  0.653584  0.653584  1
  Tb  Tb1  1  0.346416  0.346416  0.346416  1
  Be  Be2  1  0.000000  0.000000  0.500000  1
  Be  Be3  1  0.500000  0.000000  0.000000  1
  Be  Be4  1  0.000000  0.500000  0.000000  1
  Re  Re5  1  0.721289  0.278711  0.000000  1
  Re  Re6  1  0.000000  0.721289  0.278711  1
  Re  Re7  1  0.278711  0.000000  0.721289  1
  Re  Re8  1  0.000000  0.278711  0.721289  1
  Re  Re9  1  0.721289  0.000000  0.278711  1
  Re  Re10  1  0.278711  0.721289  0.000000  1
  Re  Re11  1  0.343280  0.343280  0.860236  1
  Re  Re12  1  0.860236  0.343280  0.343280  1
  Re  Re13  1  0.343280  0.860236  0.343280  1
  Re  Re14  1  0.656720  0.656720  0.139764  1
  Re  Re15  1  0.139764  0.656720  0.656720  1
  Re  Re16  1  0.656720  0.139764  0.656720  1
  Re  Re17  1  0.899779  0.899779  0.899779  1
  Re  Re18  1  0.100221  0.100221  0.100221  1
  C  C19  1  0.500000  0.500000  0.000000  1
  C  C20  1  0.000000  0.500000  0.500000  1
  C  C21  1  0.500000  0.000000  0.500000  1
