# generated using pymatgen
data_Tb3YAl4(CoO5)4
_symmetry_space_group_name_H-M   'P 1'
_cell_length_a   5.65256300
_cell_length_b   7.23559501
_cell_length_c   8.35062801
_cell_angle_alpha   89.99383161
_cell_angle_beta   90.00243789
_cell_angle_gamma   89.99726175
_symmetry_Int_Tables_number   1
_chemical_formula_structural   Tb3YAl4(CoO5)4
_chemical_formula_sum   'Tb3 Y1 Al4 Co4 O20'
_cell_volume   341.53781609
_cell_formula_units_Z   1
loop_
 _symmetry_equiv_pos_site_id
 _symmetry_equiv_pos_as_xyz
  1  'x, y, z'
loop_
 _atom_site_type_symbol
 _atom_site_label
 _atom_site_symmetry_multiplicity
 _atom_site_fract_x
 _atom_site_fract_y
 _atom_site_fract_z
 _atom_site_occupancy
  Tb  Tb0  1  0.499958  0.364711  0.330092  1
  Tb  Tb1  1  0.499968  0.635266  0.669875  1
  Tb  Tb2  1  0.500009  0.135004  0.830182  1
  Y  Y3  1  0.500057  0.864399  0.169917  1
  Al  Al4  1  0.000032  0.108399  0.142707  1
  Al  Al5  1  0.000026  0.891336  0.857457  1
  Al  Al6  1  0.999993  0.391424  0.642610  1
  Al  Al7  1  0.999975  0.608691  0.357283  1
  Co  Co8  1  0.245460  0.999927  0.499953  1
  Co  Co9  1  0.754545  0.999945  0.499943  1
  Co  Co10  1  0.754606  0.500129  0.000041  1
  Co  Co11  1  0.245388  0.500173  0.000065  1
  O  O12  1  0.499928  0.341079  0.054218  1
  O  O13  1  0.500046  0.659593  0.945871  1
  O  O14  1  0.499976  0.159125  0.554192  1
  O  O15  1  0.500048  0.840624  0.445297  1
  O  O16  1  0.219789  0.999734  0.000194  1
  O  O17  1  0.780280  0.999736  0.000201  1
  O  O18  1  0.780425  0.499984  0.499877  1
  O  O19  1  0.219493  0.499979  0.499870  1
  O  O20  1  0.249233  0.102921  0.291352  1
  O  O21  1  0.751017  0.896735  0.708611  1
  O  O22  1  0.248998  0.896739  0.708556  1
  O  O23  1  0.750929  0.396907  0.791569  1
  O  O24  1  0.750805  0.102914  0.291310  1
  O  O25  1  0.249036  0.603798  0.208394  1
  O  O26  1  0.750916  0.603803  0.208353  1
  O  O27  1  0.249066  0.396912  0.791490  1
  O  O28  1  0.999959  0.345610  0.069975  1
  O  O29  1  0.000063  0.654274  0.930383  1
  O  O30  1  0.999950  0.154568  0.569547  1
  O  O31  1  0.000024  0.845558  0.430617  1
