# generated using pymatgen
data_ZrPaV12P7
_symmetry_space_group_name_H-M   'P 1'
_cell_length_a   10.04119200
_cell_length_b   10.04119183
_cell_length_c   3.31865500
_cell_angle_alpha   90.00000000
_cell_angle_beta   90.00000000
_cell_angle_gamma   120.00001375
_symmetry_Int_Tables_number   1
_chemical_formula_structural   ZrPaV12P7
_chemical_formula_sum   'Zr1 Pa1 V12 P7'
_cell_volume   289.77653379
_cell_formula_units_Z   1
loop_
 _symmetry_equiv_pos_site_id
 _symmetry_equiv_pos_as_xyz
  1  'x, y, z'
loop_
 _atom_site_type_symbol
 _atom_site_label
 _atom_site_symmetry_multiplicity
 _atom_site_fract_x
 _atom_site_fract_y
 _atom_site_fract_z
 _atom_site_occupancy
  Zr  Zr0  1  0.333333  0.666667  0.000000  1
  Pa  Pa1  1  0.666667  0.333333  0.500000  1
  V  V2  1  0.435824  0.049929  0.000000  1
  V  V3  1  0.950071  0.385895  0.000000  1
  V  V4  1  0.614105  0.564176  0.000000  1
  V  V5  1  0.382028  0.431881  0.500000  1
  V  V6  1  0.568119  0.950147  0.500000  1
  V  V7  1  0.049853  0.617972  0.500000  1
  V  V8  1  0.163060  0.277530  0.000000  1
  V  V9  1  0.722470  0.885530  0.000000  1
  V  V10  1  0.114470  0.836940  0.000000  1
  V  V11  1  0.213186  0.084029  0.500000  1
  V  V12  1  0.915971  0.129156  0.500000  1
  V  V13  1  0.870844  0.786814  0.500000  1
  P  P14  1  0.134710  0.429697  0.500000  1
  P  P15  1  0.570303  0.705012  0.500000  1
  P  P16  1  0.294988  0.865290  0.500000  1
  P  P17  1  0.000000  0.000000  0.000000  1
  P  P18  1  0.408673  0.276227  0.000000  1
  P  P19  1  0.723773  0.132448  0.000000  1
  P  P20  1  0.867552  0.591327  0.000000  1
