# generated using pymatgen
data_Sr20In3PtAu8
_symmetry_space_group_name_H-M   'P 1'
_cell_length_a   8.50169102
_cell_length_b   8.48298524
_cell_length_c   15.77339500
_cell_angle_alpha   89.92600772
_cell_angle_beta   90.00427274
_cell_angle_gamma   90.10470919
_symmetry_Int_Tables_number   1
_chemical_formula_structural   Sr20In3PtAu8
_chemical_formula_sum   'Sr20 In3 Pt1 Au8'
_cell_volume   1137.56997101
_cell_formula_units_Z   1
loop_
 _symmetry_equiv_pos_site_id
 _symmetry_equiv_pos_as_xyz
  1  'x, y, z'
loop_
 _atom_site_type_symbol
 _atom_site_label
 _atom_site_symmetry_multiplicity
 _atom_site_fract_x
 _atom_site_fract_y
 _atom_site_fract_z
 _atom_site_occupancy
  Sr  Sr0  1  0.000761  0.999218  0.757574  1
  Sr  Sr1  1  0.502108  0.495300  0.254483  1
  Sr  Sr2  1  0.994932  0.003324  0.243797  1
  Sr  Sr3  1  0.499947  0.500990  0.744150  1
  Sr  Sr4  1  0.176950  0.660814  0.108541  1
  Sr  Sr5  1  0.672405  0.169688  0.610986  1
  Sr  Sr6  1  0.815213  0.331355  0.111125  1
  Sr  Sr7  1  0.328504  0.831192  0.609933  1
  Sr  Sr8  1  0.345473  0.175137  0.111044  1
  Sr  Sr9  1  0.830488  0.671497  0.609178  1
  Sr  Sr10  1  0.662111  0.832088  0.111240  1
  Sr  Sr11  1  0.169849  0.328128  0.609248  1
  Sr  Sr12  1  0.340133  0.822954  0.894023  1
  Sr  Sr13  1  0.823130  0.321879  0.384503  1
  Sr  Sr14  1  0.661908  0.178321  0.892776  1
  Sr  Sr15  1  0.168562  0.669448  0.387572  1
  Sr  Sr16  1  0.179438  0.338316  0.894486  1
  Sr  Sr17  1  0.669933  0.837776  0.384928  1
  Sr  Sr18  1  0.821454  0.661016  0.894956  1
  Sr  Sr19  1  0.336041  0.168069  0.385366  1
  In  In20  1  0.001140  0.999645  0.499471  1
  In  In21  1  0.001635  0.000240  0.999991  1
  In  In22  1  0.499703  0.500661  0.500237  1
  Pt  Pt23  1  0.624862  0.128796  0.247173  1
  Au  Au24  1  0.127187  0.625228  0.753135  1
  Au  Au25  1  0.872544  0.374930  0.752720  1
  Au  Au26  1  0.374365  0.873088  0.247310  1
  Au  Au27  1  0.374809  0.128000  0.752955  1
  Au  Au28  1  0.871762  0.625485  0.246650  1
  Au  Au29  1  0.128084  0.374664  0.246926  1
  Au  Au30  1  0.626097  0.872346  0.753055  1
  Au  Au31  1  0.498471  0.500414  0.000471  1
