# generated using pymatgen
data_Sc2NiP2Pt
_symmetry_space_group_name_H-M   'P 1'
_cell_length_a   3.79699000
_cell_length_b   6.49463500
_cell_length_c   7.32427000
_cell_angle_alpha   90.00000000
_cell_angle_beta   90.00000000
_cell_angle_gamma   90.00000000
_symmetry_Int_Tables_number   1
_chemical_formula_structural   Sc2NiP2Pt
_chemical_formula_sum   'Sc4 Ni2 P4 Pt2'
_cell_volume   180.61696804
_cell_formula_units_Z   2
loop_
 _symmetry_equiv_pos_site_id
 _symmetry_equiv_pos_as_xyz
  1  'x, y, z'
loop_
 _atom_site_type_symbol
 _atom_site_label
 _atom_site_symmetry_multiplicity
 _atom_site_fract_x
 _atom_site_fract_y
 _atom_site_fract_z
 _atom_site_occupancy
  Sc  Sc0  1  0.750000  0.470310  0.823635  1
  Sc  Sc1  1  0.250000  0.025717  0.313582  1
  Sc  Sc2  1  0.750000  0.970310  0.676365  1
  Sc  Sc3  1  0.250000  0.525717  0.186418  1
  Ni  Ni4  1  0.750000  0.852897  0.056293  1
  Ni  Ni5  1  0.750000  0.352897  0.443707  1
  P  P6  1  0.250000  0.758214  0.890755  1
  P  P7  1  0.250000  0.258214  0.609245  1
  P  P8  1  0.750000  0.246765  0.139354  1
  P  P9  1  0.750000  0.746765  0.360646  1
  Pt  Pt10  1  0.250000  0.646097  0.567661  1
  Pt  Pt11  1  0.250000  0.146097  0.932339  1
