# generated using pymatgen
data_Li3Zn8IrRh4
_symmetry_space_group_name_H-M   'P 1'
_cell_length_a   6.02369444
_cell_length_b   6.03304145
_cell_length_c   6.11052800
_cell_angle_alpha   89.99657579
_cell_angle_beta   89.99739496
_cell_angle_gamma   90.10311273
_symmetry_Int_Tables_number   1
_chemical_formula_structural   Li3Zn8IrRh4
_chemical_formula_sum   'Li3 Zn8 Ir1 Rh4'
_cell_volume   222.06354914
_cell_formula_units_Z   1
loop_
 _symmetry_equiv_pos_site_id
 _symmetry_equiv_pos_as_xyz
  1  'x, y, z'
loop_
 _atom_site_type_symbol
 _atom_site_label
 _atom_site_symmetry_multiplicity
 _atom_site_fract_x
 _atom_site_fract_y
 _atom_site_fract_z
 _atom_site_occupancy
  Li  Li0  1  0.749369  0.750005  0.999994  1
  Li  Li1  1  0.249422  0.249997  0.499960  1
  Li  Li2  1  0.750553  0.749998  0.500033  1
  Zn  Zn3  1  0.002602  0.002657  0.249711  1
  Zn  Zn4  1  0.002506  0.497455  0.249928  1
  Zn  Zn5  1  0.497557  0.002452  0.250965  1
  Zn  Zn6  1  0.497463  0.497465  0.250781  1
  Zn  Zn7  1  0.497521  0.002449  0.749034  1
  Zn  Zn8  1  0.497436  0.497442  0.749248  1
  Zn  Zn9  1  0.002601  0.002655  0.750261  1
  Zn  Zn10  1  0.002501  0.497428  0.750070  1
  Ir  Ir11  1  0.250265  0.250007  0.000018  1
  Rh  Rh12  1  0.749771  0.249996  0.999999  1
  Rh  Rh13  1  0.250486  0.749991  0.000004  1
  Rh  Rh14  1  0.750396  0.250001  0.500002  1
  Rh  Rh15  1  0.249548  0.750013  0.499990  1
