# generated using pymatgen
data_MgZr3Ge6Ir7
_symmetry_space_group_name_H-M   'P 1'
_cell_length_a   7.10467979
_cell_length_b   7.10467991
_cell_length_c   7.10467901
_cell_angle_alpha   109.20237963
_cell_angle_beta   109.20238871
_cell_angle_gamma   109.20238448
_symmetry_Int_Tables_number   1
_chemical_formula_structural   MgZr3Ge6Ir7
_chemical_formula_sum   'Mg1 Zr3 Ge6 Ir7'
_cell_volume   278.77908476
_cell_formula_units_Z   1
loop_
 _symmetry_equiv_pos_site_id
 _symmetry_equiv_pos_as_xyz
  1  'x, y, z'
loop_
 _atom_site_type_symbol
 _atom_site_label
 _atom_site_symmetry_multiplicity
 _atom_site_fract_x
 _atom_site_fract_y
 _atom_site_fract_z
 _atom_site_occupancy
  Mg  Mg0  1  0.500000  0.500000  0.500000  1
  Zr  Zr1  1  0.000000  0.000000  0.500000  1
  Zr  Zr2  1  0.000000  0.500000  0.000000  1
  Zr  Zr3  1  0.500000  0.000000  0.000000  1
  Ge  Ge4  1  0.007106  0.316498  0.316498  1
  Ge  Ge5  1  0.992894  0.683502  0.683502  1
  Ge  Ge6  1  0.316498  0.007106  0.316498  1
  Ge  Ge7  1  0.683502  0.992894  0.683502  1
  Ge  Ge8  1  0.316498  0.316498  0.007106  1
  Ge  Ge9  1  0.683502  0.683502  0.992894  1
  Ir  Ir10  1  0.500000  0.750603  0.249397  1
  Ir  Ir11  1  0.500000  0.249397  0.750603  1
  Ir  Ir12  1  0.249397  0.500000  0.750603  1
  Ir  Ir13  1  0.750603  0.500000  0.249397  1
  Ir  Ir14  1  0.750603  0.249397  0.500000  1
  Ir  Ir15  1  0.249397  0.750603  0.500000  1
  Ir  Ir16  1  0.000000  0.000000  0.000000  1
