# generated using pymatgen
data_Tb6Ho10Cd4RuPt3
_symmetry_space_group_name_H-M   'P 1'
_cell_length_a   9.68428814
_cell_length_b   9.68428802
_cell_length_c   9.68428836
_cell_angle_alpha   59.72084525
_cell_angle_beta   59.72085333
_cell_angle_gamma   59.72084449
_symmetry_Int_Tables_number   1
_chemical_formula_structural   Tb6Ho10Cd4RuPt3
_chemical_formula_sum   'Tb6 Ho10 Cd4 Ru1 Pt3'
_cell_volume   638.15456219
_cell_formula_units_Z   1
loop_
 _symmetry_equiv_pos_site_id
 _symmetry_equiv_pos_as_xyz
  1  'x, y, z'
loop_
 _atom_site_type_symbol
 _atom_site_label
 _atom_site_symmetry_multiplicity
 _atom_site_fract_x
 _atom_site_fract_y
 _atom_site_fract_z
 _atom_site_occupancy
  Tb  Tb0  1  0.935875  0.565085  0.565085  1
  Tb  Tb1  1  0.560469  0.936773  0.936773  1
  Tb  Tb2  1  0.565085  0.935875  0.565085  1
  Tb  Tb3  1  0.936773  0.560469  0.936773  1
  Tb  Tb4  1  0.565085  0.565085  0.935875  1
  Tb  Tb5  1  0.936773  0.936773  0.560469  1
  Ho  Ho6  1  0.351402  0.351402  0.351402  1
  Ho  Ho7  1  0.349120  0.349120  0.949466  1
  Ho  Ho8  1  0.349120  0.949466  0.349120  1
  Ho  Ho9  1  0.949466  0.349120  0.349120  1
  Ho  Ho10  1  0.815433  0.188536  0.188536  1
  Ho  Ho11  1  0.188542  0.810207  0.810207  1
  Ho  Ho12  1  0.188536  0.815433  0.188536  1
  Ho  Ho13  1  0.810207  0.188542  0.810207  1
  Ho  Ho14  1  0.188536  0.188536  0.815433  1
  Ho  Ho15  1  0.810207  0.810207  0.188542  1
  Cd  Cd16  1  0.580521  0.580521  0.580521  1
  Cd  Cd17  1  0.580974  0.580974  0.255000  1
  Cd  Cd18  1  0.580974  0.255000  0.580974  1
  Cd  Cd19  1  0.255000  0.580974  0.580974  1
  Ru  Ru20  1  0.142785  0.142785  0.142785  1
  Pt  Pt21  1  0.143352  0.143352  0.572413  1
  Pt  Pt22  1  0.143352  0.572413  0.143352  1
  Pt  Pt23  1  0.572413  0.143352  0.143352  1
