# generated using pymatgen
data_CeSm2Cd3Pt2Au
_symmetry_space_group_name_H-M   'P 1'
_cell_length_a   7.83105891
_cell_length_b   7.92849841
_cell_length_c   3.89805000
_cell_angle_alpha   90.00000000
_cell_angle_beta   90.00000000
_cell_angle_gamma   120.41247774
_symmetry_Int_Tables_number   1
_chemical_formula_structural   CeSm2Cd3Pt2Au
_chemical_formula_sum   'Ce1 Sm2 Cd3 Pt2 Au1'
_cell_volume   208.72252660
_cell_formula_units_Z   1
loop_
 _symmetry_equiv_pos_site_id
 _symmetry_equiv_pos_as_xyz
  1  'x, y, z'
loop_
 _atom_site_type_symbol
 _atom_site_label
 _atom_site_symmetry_multiplicity
 _atom_site_fract_x
 _atom_site_fract_y
 _atom_site_fract_z
 _atom_site_occupancy
  Ce  Ce0  1  0.000000  0.413001  0.000000  1
  Sm  Sm1  1  0.592590  0.590398  0.000000  1
  Sm  Sm2  1  0.407410  0.997808  0.000000  1
  Cd  Cd3  1  0.000000  0.742342  0.500000  1
  Cd  Cd4  1  0.266606  0.263073  0.500000  1
  Cd  Cd5  1  0.733394  0.996467  0.500000  1
  Pt  Pt6  1  0.323183  0.658581  0.500000  1
  Pt  Pt7  1  0.676817  0.335397  0.500000  1
  Au  Au8  1  0.000000  0.002932  0.000000  1
