# generated using pymatgen
data_LiLa8(ZnSi4)3
_symmetry_space_group_name_H-M   'P 1'
_cell_length_a   11.35387973
_cell_length_b   9.70760038
_cell_length_c   8.31432720
_cell_angle_alpha   77.73375026
_cell_angle_beta   56.59734823
_cell_angle_gamma   45.70924047
_symmetry_Int_Tables_number   1
_chemical_formula_structural   LiLa8(ZnSi4)3
_chemical_formula_sum   'Li1 La8 Zn3 Si12'
_cell_volume   524.44425809
_cell_formula_units_Z   1
loop_
 _symmetry_equiv_pos_site_id
 _symmetry_equiv_pos_as_xyz
  1  'x, y, z'
loop_
 _atom_site_type_symbol
 _atom_site_label
 _atom_site_symmetry_multiplicity
 _atom_site_fract_x
 _atom_site_fract_y
 _atom_site_fract_z
 _atom_site_occupancy
  Li  Li0  1  0.416932  0.082213  0.417773  1
  La  La1  1  0.124458  0.124639  0.875944  1
  La  La2  1  0.876652  0.874405  0.123968  1
  La  La3  1  0.125994  0.126696  0.373372  1
  La  La4  1  0.372853  0.374428  0.126238  1
  La  La5  1  0.623875  0.621806  0.376454  1
  La  La6  1  0.376180  0.377880  0.624189  1
  La  La7  1  0.627055  0.627503  0.873084  1
  La  La8  1  0.873130  0.872342  0.627110  1
  Zn  Zn9  1  0.083219  0.417877  0.082049  1
  Zn  Zn10  1  0.833283  0.167796  0.832362  1
  Zn  Zn11  1  0.166547  0.832485  0.167704  1
  Si  Si12  1  0.916239  0.588056  0.418031  1
  Si  Si13  1  0.082093  0.414365  0.585234  1
  Si  Si14  1  0.416529  0.076759  0.918033  1
  Si  Si15  1  0.586514  0.919374  0.080609  1
  Si  Si16  1  0.331511  0.661985  0.835105  1
  Si  Si17  1  0.659837  0.328329  0.173846  1
  Si  Si18  1  0.837096  0.172272  0.329421  1
  Si  Si19  1  0.172193  0.837067  0.661228  1
  Si  Si20  1  0.914468  0.584526  0.915929  1
  Si  Si21  1  0.583073  0.917577  0.582546  1
  Si  Si22  1  0.334397  0.666688  0.332539  1
  Si  Si23  1  0.665877  0.332936  0.667228  1
