# generated using pymatgen
data_HoEr4SiBi2
_symmetry_space_group_name_H-M   'P 1'
_cell_length_a   8.00639300
_cell_length_b   9.12811700
_cell_length_c   11.96403800
_cell_angle_alpha   90.00000000
_cell_angle_beta   90.00000000
_cell_angle_gamma   90.00000000
_symmetry_Int_Tables_number   1
_chemical_formula_structural   HoEr4SiBi2
_chemical_formula_sum   'Ho4 Er16 Si4 Bi8'
_cell_volume   874.37128327
_cell_formula_units_Z   4
loop_
 _symmetry_equiv_pos_site_id
 _symmetry_equiv_pos_as_xyz
  1  'x, y, z'
loop_
 _atom_site_type_symbol
 _atom_site_label
 _atom_site_symmetry_multiplicity
 _atom_site_fract_x
 _atom_site_fract_y
 _atom_site_fract_z
 _atom_site_occupancy
  Ho  Ho0  1  0.637076  0.750000  0.295303  1
  Ho  Ho1  1  0.862924  0.750000  0.795303  1
  Ho  Ho2  1  0.362924  0.250000  0.704697  1
  Ho  Ho3  1  0.137076  0.250000  0.204697  1
  Er  Er4  1  0.820902  0.553478  0.062666  1
  Er  Er5  1  0.679098  0.946522  0.562666  1
  Er  Er6  1  0.179098  0.053478  0.937334  1
  Er  Er7  1  0.320902  0.446522  0.437334  1
  Er  Er8  1  0.179098  0.446522  0.937334  1
  Er  Er9  1  0.320902  0.053478  0.437334  1
  Er  Er10  1  0.820902  0.946522  0.062666  1
  Er  Er11  1  0.679098  0.553478  0.562666  1
  Er  Er12  1  0.166521  0.750000  0.211523  1
  Er  Er13  1  0.333479  0.750000  0.711523  1
  Er  Er14  1  0.833479  0.250000  0.788477  1
  Er  Er15  1  0.666521  0.250000  0.288477  1
  Er  Er16  1  0.461164  0.750000  0.001514  1
  Er  Er17  1  0.038836  0.750000  0.501514  1
  Er  Er18  1  0.538836  0.250000  0.998486  1
  Er  Er19  1  0.961164  0.250000  0.498486  1
  Si  Si20  1  0.411444  0.750000  0.479011  1
  Si  Si21  1  0.088556  0.750000  0.979011  1
  Si  Si22  1  0.588556  0.250000  0.520989  1
  Si  Si23  1  0.911444  0.250000  0.020989  1
  Bi  Bi24  1  0.933201  0.511103  0.325468  1
  Bi  Bi25  1  0.566799  0.988897  0.825468  1
  Bi  Bi26  1  0.066799  0.011103  0.674532  1
  Bi  Bi27  1  0.433201  0.488897  0.174532  1
  Bi  Bi28  1  0.066799  0.488897  0.674532  1
  Bi  Bi29  1  0.433201  0.011103  0.174532  1
  Bi  Bi30  1  0.933201  0.988897  0.325468  1
  Bi  Bi31  1  0.566799  0.511103  0.825468  1
