# generated using pymatgen
data_Th4Cd5Hg3
_symmetry_space_group_name_H-M   'P 1'
_cell_length_a   5.07740600
_cell_length_b   6.92212240
_cell_length_c   8.85138779
_cell_angle_alpha   89.92701257
_cell_angle_beta   90.00000000
_cell_angle_gamma   90.00000000
_symmetry_Int_Tables_number   1
_chemical_formula_structural   Th4Cd5Hg3
_chemical_formula_sum   'Th4 Cd5 Hg3'
_cell_volume   311.09439171
_cell_formula_units_Z   1
loop_
 _symmetry_equiv_pos_site_id
 _symmetry_equiv_pos_as_xyz
  1  'x, y, z'
loop_
 _atom_site_type_symbol
 _atom_site_label
 _atom_site_symmetry_multiplicity
 _atom_site_fract_x
 _atom_site_fract_y
 _atom_site_fract_z
 _atom_site_occupancy
  Th  Th0  1  0.000000  0.250379  0.496868  1
  Th  Th1  1  0.499999  0.752810  0.009552  1
  Th  Th2  1  0.499999  0.245439  0.002282  1
  Th  Th3  1  0.000000  0.750096  0.491547  1
  Cd  Cd4  1  0.000000  0.507636  0.830005  1
  Cd  Cd5  1  0.000000  0.992781  0.830916  1
  Cd  Cd6  1  0.499999  0.005018  0.337336  1
  Cd  Cd7  1  0.499999  0.503339  0.670757  1
  Cd  Cd8  1  0.000000  0.491770  0.160963  1
  Hg  Hg9  1  0.000000  0.007162  0.165289  1
  Hg  Hg10  1  0.499999  0.996427  0.669388  1
  Hg  Hg11  1  0.499999  0.497144  0.335095  1
