# generated using pymatgen
data_Dy(Y2Ir)2
_symmetry_space_group_name_H-M   'P 1'
_cell_length_a   6.51887853
_cell_length_b   7.24698131
_cell_length_c   8.55851018
_cell_angle_alpha   96.63313436
_cell_angle_beta   112.38584382
_cell_angle_gamma   90.00000188
_symmetry_Int_Tables_number   1
_chemical_formula_structural   Dy(Y2Ir)2
_chemical_formula_sum   'Dy2 Y8 Ir4'
_cell_volume   370.92432855
_cell_formula_units_Z   2
loop_
 _symmetry_equiv_pos_site_id
 _symmetry_equiv_pos_as_xyz
  1  'x, y, z'
loop_
 _atom_site_type_symbol
 _atom_site_label
 _atom_site_symmetry_multiplicity
 _atom_site_fract_x
 _atom_site_fract_y
 _atom_site_fract_z
 _atom_site_occupancy
  Dy  Dy0  1  0.428527  0.750000  0.000000  1
  Dy  Dy1  1  0.571473  0.250000  0.000000  1
  Y  Y2  1  0.971330  0.917602  0.182034  1
  Y  Y3  1  0.789297  0.582398  0.817966  1
  Y  Y4  1  0.028670  0.082398  0.817966  1
  Y  Y5  1  0.210703  0.417602  0.182034  1
  Y  Y6  1  0.653557  0.817632  0.441298  1
  Y  Y7  1  0.212259  0.682368  0.558702  1
  Y  Y8  1  0.346443  0.182368  0.558702  1
  Y  Y9  1  0.787741  0.317632  0.441298  1
  Ir  Ir10  1  0.822799  0.572522  0.217418  1
  Ir  Ir11  1  0.605382  0.927478  0.782582  1
  Ir  Ir12  1  0.177201  0.427478  0.782582  1
  Ir  Ir13  1  0.394618  0.072522  0.217418  1
