# generated using pymatgen
data_Dy7ErTa10(TiSi8)2
_symmetry_space_group_name_H-M   'P 1'
_cell_length_a   7.04472003
_cell_length_b   7.04368124
_cell_length_c   12.97201429
_cell_angle_alpha   89.96772827
_cell_angle_beta   90.04997152
_cell_angle_gamma   90.00733795
_symmetry_Int_Tables_number   1
_chemical_formula_structural   Dy7ErTa10(TiSi8)2
_chemical_formula_sum   'Dy7 Er1 Ta10 Ti2 Si16'
_cell_volume   643.68088598
_cell_formula_units_Z   1
loop_
 _symmetry_equiv_pos_site_id
 _symmetry_equiv_pos_as_xyz
  1  'x, y, z'
loop_
 _atom_site_type_symbol
 _atom_site_label
 _atom_site_symmetry_multiplicity
 _atom_site_fract_x
 _atom_site_fract_y
 _atom_site_fract_z
 _atom_site_occupancy
  Dy  Dy0  1  0.001937  0.341214  0.531990  1
  Dy  Dy1  1  0.658107  0.998362  0.967524  1
  Dy  Dy2  1  0.159396  0.503090  0.782454  1
  Dy  Dy3  1  0.841451  0.498036  0.281813  1
  Dy  Dy4  1  0.502977  0.159553  0.217685  1
  Dy  Dy5  1  0.498014  0.841387  0.718109  1
  Dy  Dy6  1  0.341221  0.001940  0.468025  1
  Er  Er7  1  0.999134  0.657692  0.032528  1
  Ta  Ta8  1  0.346355  0.508527  0.376016  1
  Ta  Ta9  1  0.847260  0.992241  0.374468  1
  Ta  Ta10  1  0.008093  0.152763  0.126292  1
  Ta  Ta11  1  0.992304  0.847219  0.625503  1
  Ta  Ta12  1  0.508528  0.346378  0.623973  1
  Ta  Ta13  1  0.152793  0.007973  0.873847  1
  Ta  Ta14  1  0.672098  0.672113  0.499978  1
  Ta  Ta15  1  0.829430  0.170272  0.750117  1
  Ta  Ta16  1  0.170158  0.829263  0.249717  1
  Ta  Ta17  1  0.326097  0.326581  0.000026  1
  Ti  Ti18  1  0.492666  0.652957  0.123938  1
  Ti  Ti19  1  0.653088  0.492828  0.876149  1
  Si  Si20  1  0.045602  0.705697  0.436024  1
  Si  Si21  1  0.952697  0.295763  0.936090  1
  Si  Si22  1  0.705733  0.045609  0.563993  1
  Si  Si23  1  0.207695  0.455779  0.185022  1
  Si  Si24  1  0.793676  0.545286  0.687349  1
  Si  Si25  1  0.455308  0.208075  0.814642  1
  Si  Si26  1  0.545354  0.793586  0.312644  1
  Si  Si27  1  0.294557  0.952190  0.064115  1
  Si  Si28  1  0.795381  0.864855  0.181198  1
  Si  Si29  1  0.296577  0.633302  0.568480  1
  Si  Si30  1  0.701876  0.368927  0.066359  1
  Si  Si31  1  0.633329  0.296580  0.431507  1
  Si  Si32  1  0.367748  0.701341  0.933795  1
  Si  Si33  1  0.133568  0.204317  0.317853  1
  Si  Si34  1  0.204306  0.133600  0.682168  1
  Si  Si35  1  0.865488  0.794708  0.818610  1
