# generated using pymatgen
data_Dy7Ho9MgAg3Ir4
_symmetry_space_group_name_H-M   'P 1'
_cell_length_a   9.55988116
_cell_length_b   9.55527684
_cell_length_c   9.56817200
_cell_angle_alpha   59.95534777
_cell_angle_beta   59.97130735
_cell_angle_gamma   59.94753176
_symmetry_Int_Tables_number   1
_chemical_formula_structural   Dy7Ho9MgAg3Ir4
_chemical_formula_sum   'Dy7 Ho9 Mg1 Ag3 Ir4'
_cell_volume   617.44241283
_cell_formula_units_Z   1
loop_
 _symmetry_equiv_pos_site_id
 _symmetry_equiv_pos_as_xyz
  1  'x, y, z'
loop_
 _atom_site_type_symbol
 _atom_site_label
 _atom_site_symmetry_multiplicity
 _atom_site_fract_x
 _atom_site_fract_y
 _atom_site_fract_z
 _atom_site_occupancy
  Dy  Dy0  1  0.809853  0.811524  0.189312  1
  Dy  Dy1  1  0.935025  0.562864  0.563214  1
  Dy  Dy2  1  0.562476  0.937203  0.936962  1
  Dy  Dy3  1  0.562476  0.937203  0.563359  1
  Dy  Dy4  1  0.935025  0.562864  0.938898  1
  Dy  Dy5  1  0.562836  0.562898  0.937133  1
  Dy  Dy6  1  0.934746  0.939130  0.563063  1
  Ho  Ho7  1  0.350268  0.348566  0.348865  1
  Ho  Ho8  1  0.350268  0.348566  0.952300  1
  Ho  Ho9  1  0.350049  0.952544  0.348702  1
  Ho  Ho10  1  0.940841  0.352694  0.353231  1
  Ho  Ho11  1  0.809913  0.189782  0.189120  1
  Ho  Ho12  1  0.186312  0.813327  0.812924  1
  Ho  Ho13  1  0.186312  0.813327  0.187437  1
  Ho  Ho14  1  0.809913  0.189782  0.811185  1
  Ho  Ho15  1  0.185970  0.187773  0.813129  1
  Mg  Mg16  1  0.285582  0.571482  0.571468  1
  Ag  Ag17  1  0.582200  0.583545  0.583817  1
  Ag  Ag18  1  0.582200  0.583545  0.250439  1
  Ag  Ag19  1  0.582236  0.250357  0.583704  1
  Ir  Ir20  1  0.140556  0.142892  0.143442  1
  Ir  Ir21  1  0.140556  0.142892  0.573111  1
  Ir  Ir22  1  0.140818  0.572990  0.143096  1
  Ir  Ir23  1  0.573571  0.142252  0.142088  1
