# generated using pymatgen
data_Zr8PbS16
_symmetry_space_group_name_H-M   'P 1'
_cell_length_a   7.33857900
_cell_length_b   7.33857889
_cell_length_c   14.18975900
_cell_angle_alpha   90.00000000
_cell_angle_beta   90.00000000
_cell_angle_gamma   119.99999600
_symmetry_Int_Tables_number   1
_chemical_formula_structural   Zr8PbS16
_chemical_formula_sum   'Zr8 Pb1 S16'
_cell_volume   661.80433794
_cell_formula_units_Z   1
loop_
 _symmetry_equiv_pos_site_id
 _symmetry_equiv_pos_as_xyz
  1  'x, y, z'
loop_
 _atom_site_type_symbol
 _atom_site_label
 _atom_site_symmetry_multiplicity
 _atom_site_fract_x
 _atom_site_fract_y
 _atom_site_fract_z
 _atom_site_occupancy
  Zr  Zr0  1  0.501742  0.498258  0.742712  1
  Zr  Zr1  1  0.498258  0.501742  0.257288  1
  Zr  Zr2  1  0.501742  0.003483  0.742712  1
  Zr  Zr3  1  0.498258  0.996517  0.257288  1
  Zr  Zr4  1  0.996517  0.498258  0.742712  1
  Zr  Zr5  1  0.003483  0.501742  0.257288  1
  Zr  Zr6  1  0.000000  0.000000  0.733788  1
  Zr  Zr7  1  0.000000  0.000000  0.266212  1
  Pb  Pb8  1  0.000000  0.000000  0.000000  1
  S  S9  1  0.835567  0.671136  0.151709  1
  S  S10  1  0.831395  0.662791  0.636804  1
  S  S11  1  0.835567  0.164433  0.151709  1
  S  S12  1  0.831395  0.168605  0.636804  1
  S  S13  1  0.333333  0.666667  0.151671  1
  S  S14  1  0.333333  0.666667  0.641764  1
  S  S15  1  0.328864  0.164433  0.151709  1
  S  S16  1  0.337209  0.168605  0.636804  1
  S  S17  1  0.671136  0.835567  0.848291  1
  S  S18  1  0.662791  0.831395  0.363196  1
  S  S19  1  0.666667  0.333333  0.848329  1
  S  S20  1  0.666667  0.333333  0.358236  1
  S  S21  1  0.164433  0.835567  0.848291  1
  S  S22  1  0.168605  0.831395  0.363196  1
  S  S23  1  0.164433  0.328864  0.848291  1
  S  S24  1  0.168605  0.337209  0.363196  1
