# generated using pymatgen
data_TbPa3(AsSe)4
_symmetry_space_group_name_H-M   'P 1'
_cell_length_a   4.00678400
_cell_length_b   4.01126801
_cell_length_c   16.91200503
_cell_angle_alpha   89.99210205
_cell_angle_beta   90.00000000
_cell_angle_gamma   90.00000000
_symmetry_Int_Tables_number   1
_chemical_formula_structural   TbPa3(AsSe)4
_chemical_formula_sum   'Tb1 Pa3 As4 Se4'
_cell_volume   271.81455360
_cell_formula_units_Z   1
loop_
 _symmetry_equiv_pos_site_id
 _symmetry_equiv_pos_as_xyz
  1  'x, y, z'
loop_
 _atom_site_type_symbol
 _atom_site_label
 _atom_site_symmetry_multiplicity
 _atom_site_fract_x
 _atom_site_fract_y
 _atom_site_fract_z
 _atom_site_occupancy
  Tb  Tb0  1  0.250000  0.242968  0.865590  1
  Pa  Pa1  1  0.750000  0.743743  0.634312  1
  Pa  Pa2  1  0.250000  0.255911  0.365841  1
  Pa  Pa3  1  0.750000  0.755938  0.134513  1
  As  As4  1  0.250000  0.750662  0.002861  1
  As  As5  1  0.750000  0.252468  0.002850  1
  As  As6  1  0.250000  0.751281  0.499642  1
  As  As7  1  0.750000  0.248315  0.499635  1
  Se  Se8  1  0.750000  0.743045  0.813158  1
  Se  Se9  1  0.250000  0.256042  0.183604  1
  Se  Se10  1  0.750000  0.756071  0.318122  1
  Se  Se11  1  0.250000  0.243557  0.679871  1
