# generated using pymatgen
data_La5Zn2Rh3
_symmetry_space_group_name_H-M   'P 1'
_cell_length_a   8.62108477
_cell_length_b   8.62108411
_cell_length_c   8.62108400
_cell_angle_alpha   109.47121568
_cell_angle_beta   109.47121412
_cell_angle_gamma   109.47122539
_symmetry_Int_Tables_number   1
_chemical_formula_structural   La5Zn2Rh3
_chemical_formula_sum   'La10 Zn4 Rh6'
_cell_volume   493.24628146
_cell_formula_units_Z   2
loop_
 _symmetry_equiv_pos_site_id
 _symmetry_equiv_pos_as_xyz
  1  'x, y, z'
loop_
 _atom_site_type_symbol
 _atom_site_label
 _atom_site_symmetry_multiplicity
 _atom_site_fract_x
 _atom_site_fract_y
 _atom_site_fract_z
 _atom_site_occupancy
  La  La0  1  0.250000  0.688122  0.438122  1
  La  La1  1  0.750000  0.811878  0.061878  1
  La  La2  1  0.438122  0.250000  0.688122  1
  La  La3  1  0.688122  0.438122  0.250000  1
  La  La4  1  0.061878  0.750000  0.811878  1
  La  La5  1  0.811878  0.061878  0.750000  1
  La  La6  1  0.222967  0.222967  0.222967  1
  La  La7  1  0.500000  0.000000  0.277033  1
  La  La8  1  0.277033  0.500000  0.000000  1
  La  La9  1  0.000000  0.277033  0.500000  1
  Zn  Zn10  1  0.593839  0.593839  0.593839  1
  Zn  Zn11  1  0.500000  0.000000  0.906161  1
  Zn  Zn12  1  0.906161  0.500000  0.000000  1
  Zn  Zn13  1  0.000000  0.906161  0.500000  1
  Rh  Rh14  1  0.250000  0.130442  0.880442  1
  Rh  Rh15  1  0.750000  0.369558  0.619558  1
  Rh  Rh16  1  0.880441  0.250000  0.130442  1
  Rh  Rh17  1  0.130442  0.880441  0.250000  1
  Rh  Rh18  1  0.619558  0.750000  0.369558  1
  Rh  Rh19  1  0.369558  0.619558  0.750000  1
