# generated using pymatgen
data_PrUSn5
_symmetry_space_group_name_H-M   'P 1'
_cell_length_a   17.40390752
_cell_length_b   17.40390682
_cell_length_c   4.56965100
_cell_angle_alpha   90.00000000
_cell_angle_beta   90.00000000
_cell_angle_gamma   164.41101135
_symmetry_Int_Tables_number   1
_chemical_formula_structural   PrUSn5
_chemical_formula_sum   'Pr2 U2 Sn10'
_cell_volume   371.96349062
_cell_formula_units_Z   2
loop_
 _symmetry_equiv_pos_site_id
 _symmetry_equiv_pos_as_xyz
  1  'x, y, z'
loop_
 _atom_site_type_symbol
 _atom_site_label
 _atom_site_symmetry_multiplicity
 _atom_site_fract_x
 _atom_site_fract_y
 _atom_site_fract_z
 _atom_site_occupancy
  Pr  Pr0  1  0.799030  0.200970  0.500000  1
  Pr  Pr1  1  0.200970  0.799030  0.500000  1
  U  U2  1  0.932913  0.067087  0.500000  1
  U  U3  1  0.067087  0.932913  0.500000  1
  Sn  Sn4  1  0.635292  0.364708  0.500000  1
  Sn  Sn5  1  0.364708  0.635292  0.500000  1
  Sn  Sn6  1  0.720209  0.279791  0.000000  1
  Sn  Sn7  1  0.279791  0.720209  0.000000  1
  Sn  Sn8  1  0.500000  0.500000  0.500000  1
  Sn  Sn9  1  0.568721  0.431279  0.000000  1
  Sn  Sn10  1  0.431279  0.568721  0.000000  1
  Sn  Sn11  1  0.865732  0.134268  0.000000  1
  Sn  Sn12  1  0.134268  0.865732  0.000000  1
  Sn  Sn13  1  0.000000  0.000000  0.000000  1
