# generated using pymatgen
data_Ho5Tm2Th(InAu2)4
_symmetry_space_group_name_H-M   'P 1'
_cell_length_a   8.00716458
_cell_length_b   8.00716465
_cell_length_c   7.37891800
_cell_angle_alpha   90.00000000
_cell_angle_beta   90.00000000
_cell_angle_gamma   89.87580063
_symmetry_Int_Tables_number   1
_chemical_formula_structural   Ho5Tm2Th(InAu2)4
_chemical_formula_sum   'Ho5 Tm2 Th1 In4 Au8'
_cell_volume   473.09589285
_cell_formula_units_Z   1
loop_
 _symmetry_equiv_pos_site_id
 _symmetry_equiv_pos_as_xyz
  1  'x, y, z'
loop_
 _atom_site_type_symbol
 _atom_site_label
 _atom_site_symmetry_multiplicity
 _atom_site_fract_x
 _atom_site_fract_y
 _atom_site_fract_z
 _atom_site_occupancy
  Ho  Ho0  1  0.159992  0.840008  0.500000  1
  Ho  Ho1  1  0.340054  0.343048  0.000000  1
  Ho  Ho2  1  0.656952  0.659946  0.000000  1
  Ho  Ho3  1  0.680227  0.681296  0.500000  1
  Ho  Ho4  1  0.318704  0.319773  0.500000  1
  Tm  Tm5  1  0.182594  0.817406  0.000000  1
  Tm  Tm6  1  0.819896  0.180104  0.000000  1
  Th  Th7  1  0.841057  0.158943  0.500000  1
  In  In8  1  0.497326  0.997849  0.250174  1
  In  In9  1  0.002151  0.502674  0.749826  1
  In  In10  1  0.497326  0.997849  0.749826  1
  In  In11  1  0.002151  0.502674  0.250174  1
  Au  Au12  1  0.626576  0.373424  0.266562  1
  Au  Au13  1  0.369843  0.630157  0.272510  1
  Au  Au14  1  0.131247  0.126882  0.777781  1
  Au  Au15  1  0.873118  0.868753  0.777781  1
  Au  Au16  1  0.369843  0.630157  0.727490  1
  Au  Au17  1  0.626576  0.373424  0.733438  1
  Au  Au18  1  0.873118  0.868753  0.222219  1
  Au  Au19  1  0.131247  0.126882  0.222219  1
