# generated using pymatgen
data_La16Mg3HgOs4
_symmetry_space_group_name_H-M   'P 1'
_cell_length_a   10.13506271
_cell_length_b   10.13506306
_cell_length_c   10.13506208
_cell_angle_alpha   60.01158887
_cell_angle_beta   60.01158659
_cell_angle_gamma   60.01158965
_symmetry_Int_Tables_number   1
_chemical_formula_structural   La16Mg3HgOs4
_chemical_formula_sum   'La16 Mg3 Hg1 Os4'
_cell_volume   736.33999893
_cell_formula_units_Z   1
loop_
 _symmetry_equiv_pos_site_id
 _symmetry_equiv_pos_as_xyz
  1  'x, y, z'
loop_
 _atom_site_type_symbol
 _atom_site_label
 _atom_site_symmetry_multiplicity
 _atom_site_fract_x
 _atom_site_fract_y
 _atom_site_fract_z
 _atom_site_occupancy
  La  La0  1  0.558716  0.938376  0.558716  1
  La  La1  1  0.187830  0.187830  0.812169  1
  La  La2  1  0.558716  0.558716  0.938376  1
  La  La3  1  0.966319  0.344184  0.344184  1
  La  La4  1  0.810952  0.190402  0.810952  1
  La  La5  1  0.187830  0.812169  0.187830  1
  La  La6  1  0.344184  0.344184  0.966319  1
  La  La7  1  0.344184  0.966319  0.344184  1
  La  La8  1  0.941845  0.941845  0.558857  1
  La  La9  1  0.938376  0.558716  0.558716  1
  La  La10  1  0.343404  0.343404  0.343404  1
  La  La11  1  0.810952  0.810952  0.190402  1
  La  La12  1  0.812169  0.187830  0.187830  1
  La  La13  1  0.558857  0.941845  0.941845  1
  La  La14  1  0.941845  0.558857  0.941845  1
  La  La15  1  0.190402  0.810952  0.810952  1
  Mg  Mg16  1  0.577913  0.269032  0.577913  1
  Mg  Mg17  1  0.577913  0.577913  0.269032  1
  Mg  Mg18  1  0.269032  0.577913  0.577913  1
  Hg  Hg19  1  0.579948  0.579948  0.579948  1
  Os  Os20  1  0.136983  0.586984  0.136983  1
  Os  Os21  1  0.586984  0.136983  0.136983  1
  Os  Os22  1  0.136983  0.136983  0.586984  1
  Os  Os23  1  0.137667  0.137667  0.137667  1
