# generated using pymatgen
data_Lu12Fe2TcSb2
_symmetry_space_group_name_H-M   'P 1'
_cell_length_a   8.22761959
_cell_length_b   8.22762006
_cell_length_c   8.22761990
_cell_angle_alpha   108.57315078
_cell_angle_beta   108.57314422
_cell_angle_gamma   111.28268986
_symmetry_Int_Tables_number   1
_chemical_formula_structural   Lu12Fe2TcSb2
_chemical_formula_sum   'Lu12 Fe2 Tc1 Sb2'
_cell_volume   428.42413412
_cell_formula_units_Z   1
loop_
 _symmetry_equiv_pos_site_id
 _symmetry_equiv_pos_as_xyz
  1  'x, y, z'
loop_
 _atom_site_type_symbol
 _atom_site_label
 _atom_site_symmetry_multiplicity
 _atom_site_fract_x
 _atom_site_fract_y
 _atom_site_fract_z
 _atom_site_occupancy
  Lu  Lu0  1  0.308056  0.308056  0.616113  1
  Lu  Lu1  1  0.691944  0.691944  0.383887  1
  Lu  Lu2  1  0.691944  0.308056  0.000000  1
  Lu  Lu3  1  0.308056  0.691944  0.000000  1
  Lu  Lu4  1  0.194695  0.430034  0.235339  1
  Lu  Lu5  1  0.805305  0.569966  0.764661  1
  Lu  Lu6  1  0.194695  0.959355  0.764661  1
  Lu  Lu7  1  0.959355  0.194695  0.764661  1
  Lu  Lu8  1  0.805305  0.040645  0.235339  1
  Lu  Lu9  1  0.040645  0.805305  0.235339  1
  Lu  Lu10  1  0.430034  0.194695  0.235339  1
  Lu  Lu11  1  0.569966  0.805305  0.764661  1
  Fe  Fe12  1  0.382735  0.382735  0.000000  1
  Fe  Fe13  1  0.617265  0.617265  0.000000  1
  Tc  Tc14  1  0.000000  0.000000  0.000000  1
  Sb  Sb15  1  0.000000  0.500000  0.500000  1
  Sb  Sb16  1  0.500000  0.000000  0.500000  1
