# generated using pymatgen
data_La2Pr(AlPt)4
_symmetry_space_group_name_H-M   'P 1'
_cell_length_a   8.38880109
_cell_length_b   8.38880143
_cell_length_c   8.38880155
_cell_angle_alpha   150.65080310
_cell_angle_beta   127.62707416
_cell_angle_gamma   61.17288782
_symmetry_Int_Tables_number   1
_chemical_formula_structural   La2Pr(AlPt)4
_chemical_formula_sum   'La2 Pr1 Al4 Pt4'
_cell_volume   227.25132335
_cell_formula_units_Z   1
loop_
 _symmetry_equiv_pos_site_id
 _symmetry_equiv_pos_as_xyz
  1  'x, y, z'
loop_
 _atom_site_type_symbol
 _atom_site_label
 _atom_site_symmetry_multiplicity
 _atom_site_fract_x
 _atom_site_fract_y
 _atom_site_fract_z
 _atom_site_occupancy
  La  La0  1  0.500404  0.000404  0.500000  1
  La  La1  1  0.119439  0.119439  0.000000  1
  Pr  Pr2  1  0.878046  0.878046  0.000000  1
  Al  Al3  1  0.486915  0.679007  0.807907  1
  Al  Al4  1  0.871100  0.679007  0.192093  1
  Al  Al5  1  0.127696  0.321308  0.806387  1
  Al  Al6  1  0.514921  0.321308  0.193613  1
  Pt  Pt7  1  0.280630  0.780630  0.500000  1
  Pt  Pt8  1  0.719843  0.219843  0.500000  1
  Pt  Pt9  1  0.787929  0.500503  0.287425  1
  Pt  Pt10  1  0.213078  0.500503  0.712575  1
