# generated using pymatgen
data_Ta4Te8C
_symmetry_space_group_name_H-M   'P 1'
_cell_length_a   3.56507000
_cell_length_b   11.52897300
_cell_length_c   17.03241100
_cell_angle_alpha   90.00000000
_cell_angle_beta   90.00000000
_cell_angle_gamma   90.00000000
_symmetry_Int_Tables_number   1
_chemical_formula_structural   Ta4Te8C
_chemical_formula_sum   'Ta8 Te16 C2'
_cell_volume   700.05927196
_cell_formula_units_Z   2
loop_
 _symmetry_equiv_pos_site_id
 _symmetry_equiv_pos_as_xyz
  1  'x, y, z'
loop_
 _atom_site_type_symbol
 _atom_site_label
 _atom_site_symmetry_multiplicity
 _atom_site_fract_x
 _atom_site_fract_y
 _atom_site_fract_z
 _atom_site_occupancy
  Ta  Ta0  1  0.500000  0.074534  0.069132  1
  Ta  Ta1  1  0.500000  0.925465  0.930868  1
  Ta  Ta2  1  0.500000  0.574535  0.430868  1
  Ta  Ta3  1  0.500000  0.425465  0.569132  1
  Ta  Ta4  1  0.000000  0.346444  0.426246  1
  Ta  Ta5  1  0.000000  0.653556  0.573754  1
  Ta  Ta6  1  0.000000  0.846444  0.073754  1
  Ta  Ta7  1  0.000000  0.153556  0.926246  1
  Te  Te8  1  0.500000  0.300630  0.007163  1
  Te  Te9  1  0.500000  0.699370  0.992837  1
  Te  Te10  1  0.500000  0.800630  0.492837  1
  Te  Te11  1  0.500000  0.199370  0.507163  1
  Te  Te12  1  0.500000  0.416626  0.309198  1
  Te  Te13  1  0.500000  0.583374  0.690802  1
  Te  Te14  1  0.500000  0.916626  0.190802  1
  Te  Te15  1  0.500000  0.083374  0.809198  1
  Te  Te16  1  0.000000  0.129981  0.329624  1
  Te  Te17  1  0.000000  0.870019  0.670376  1
  Te  Te18  1  0.000000  0.629981  0.170376  1
  Te  Te19  1  0.000000  0.370019  0.829624  1
  Te  Te20  1  0.000000  0.206111  0.171400  1
  Te  Te21  1  0.000000  0.793889  0.828600  1
  Te  Te22  1  0.000000  0.706111  0.328600  1
  Te  Te23  1  0.000000  0.293889  0.671400  1
  C  C24  1  0.000000  0.000000  0.000000  1
  C  C25  1  0.000000  0.500000  0.500000  1
