# generated using pymatgen
data_La3NdRe4F28
_symmetry_space_group_name_H-M   'P 1'
_cell_length_a   5.82052716
_cell_length_b   9.31891622
_cell_length_c   12.50858036
_cell_angle_alpha   62.07789219
_cell_angle_beta   90.02407724
_cell_angle_gamma   90.02252164
_symmetry_Int_Tables_number   1
_chemical_formula_structural   La3NdRe4F28
_chemical_formula_sum   'La3 Nd1 Re4 F28'
_cell_volume   599.49289715
_cell_formula_units_Z   1
loop_
 _symmetry_equiv_pos_site_id
 _symmetry_equiv_pos_as_xyz
  1  'x, y, z'
loop_
 _atom_site_type_symbol
 _atom_site_label
 _atom_site_symmetry_multiplicity
 _atom_site_fract_x
 _atom_site_fract_y
 _atom_site_fract_z
 _atom_site_occupancy
  La  La0  1  0.258580  0.187341  0.235078  1
  La  La1  1  0.241968  0.189741  0.734601  1
  La  La2  1  0.741806  0.810534  0.765050  1
  Nd  Nd3  1  0.758314  0.810217  0.264984  1
  Re  Re4  1  0.243639  0.726270  0.541950  1
  Re  Re5  1  0.743972  0.272862  0.957542  1
  Re  Re6  1  0.756201  0.275476  0.455925  1
  Re  Re7  1  0.256223  0.726033  0.044679  1
  F  F8  1  0.962326  0.716368  0.454439  1
  F  F9  1  0.463573  0.284694  0.043374  1
  F  F10  1  0.036607  0.285513  0.542760  1
  F  F11  1  0.534974  0.714785  0.957551  1
  F  F12  1  0.056275  0.708490  0.923335  1
  F  F13  1  0.555406  0.291825  0.577457  1
  F  F14  1  0.944673  0.291018  0.078117  1
  F  F15  1  0.447337  0.709832  0.420951  1
  F  F16  1  0.735376  0.512638  0.860952  1
  F  F17  1  0.235335  0.486916  0.638849  1
  F  F18  1  0.264476  0.486442  0.139755  1
  F  F19  1  0.764429  0.516177  0.359957  1
  F  F20  1  0.740355  0.032766  0.053160  1
  F  F21  1  0.240250  0.965705  0.448882  1
  F  F22  1  0.259797  0.965261  0.949623  1
  F  F23  1  0.759703  0.035643  0.550175  1
  F  F24  1  0.048599  0.742529  0.666104  1
  F  F25  1  0.548386  0.257306  0.833268  1
  F  F26  1  0.951949  0.257557  0.332849  1
  F  F27  1  0.454968  0.743573  0.167779  1
  F  F28  1  0.016477  0.268882  0.864341  1
  F  F29  1  0.515412  0.730984  0.635382  1
  F  F30  1  0.982713  0.731965  0.137556  1
  F  F31  1  0.483359  0.268975  0.363869  1
  F  F32  1  0.082135  0.966493  0.232522  1
  F  F33  1  0.588622  0.028441  0.267901  1
  F  F34  1  0.912560  0.032148  0.767627  1
  F  F35  1  0.413227  0.968602  0.731655  1
