# generated using pymatgen
data_TmPa(Al3Ir)3
_symmetry_space_group_name_H-M   'P 1'
_cell_length_a   7.58728098
_cell_length_b   7.59323528
_cell_length_c   9.34883000
_cell_angle_alpha   90.00000000
_cell_angle_beta   90.00000000
_cell_angle_gamma   119.71825765
_symmetry_Int_Tables_number   1
_chemical_formula_structural   TmPa(Al3Ir)3
_chemical_formula_sum   'Tm2 Pa2 Al18 Ir6'
_cell_volume   467.76411686
_cell_formula_units_Z   2
loop_
 _symmetry_equiv_pos_site_id
 _symmetry_equiv_pos_as_xyz
  1  'x, y, z'
loop_
 _atom_site_type_symbol
 _atom_site_label
 _atom_site_symmetry_multiplicity
 _atom_site_fract_x
 _atom_site_fract_y
 _atom_site_fract_z
 _atom_site_occupancy
  Tm  Tm0  1  0.669417  0.993663  0.250000  1
  Tm  Tm1  1  0.330583  0.006337  0.750000  1
  Pa  Pa2  1  0.997356  0.670922  0.250000  1
  Pa  Pa3  1  0.002644  0.329078  0.750000  1
  Al  Al4  1  0.129826  0.127187  0.250000  1
  Al  Al5  1  0.870174  0.872813  0.750000  1
  Al  Al6  1  0.000046  0.331195  0.078045  1
  Al  Al7  1  0.999954  0.668805  0.921955  1
  Al  Al8  1  0.999954  0.668805  0.578045  1
  Al  Al9  1  0.338289  0.003095  0.425469  1
  Al  Al10  1  0.000046  0.331195  0.421955  1
  Al  Al11  1  0.661711  0.996905  0.574531  1
  Al  Al12  1  0.661711  0.996905  0.925469  1
  Al  Al13  1  0.338289  0.003095  0.074531  1
  Al  Al14  1  0.335260  0.332910  0.554418  1
  Al  Al15  1  0.664740  0.667090  0.445582  1
  Al  Al16  1  0.664740  0.667090  0.054418  1
  Al  Al17  1  0.335260  0.332910  0.945582  1
  Al  Al18  1  0.341047  0.548423  0.250000  1
  Al  Al19  1  0.658953  0.451577  0.750000  1
  Al  Al20  1  0.548016  0.339881  0.250000  1
  Al  Al21  1  0.451984  0.660119  0.750000  1
  Ir  Ir22  1  0.675947  0.329562  0.999729  1
  Ir  Ir23  1  0.324053  0.670438  0.000271  1
  Ir  Ir24  1  0.324053  0.670438  0.499729  1
  Ir  Ir25  1  0.675947  0.329562  0.500271  1
  Ir  Ir26  1  0.000000  0.000000  0.000000  1
  Ir  Ir27  1  0.000000  0.000000  0.500000  1
