# generated using pymatgen
data_Nb4SiP3Ru4
_symmetry_space_group_name_H-M   'P 1'
_cell_length_a   3.77684500
_cell_length_b   6.38368142
_cell_length_c   7.23709147
_cell_angle_alpha   89.95854825
_cell_angle_beta   90.00000000
_cell_angle_gamma   90.00000000
_symmetry_Int_Tables_number   1
_chemical_formula_structural   Nb4SiP3Ru4
_chemical_formula_sum   'Nb4 Si1 P3 Ru4'
_cell_volume   174.48749802
_cell_formula_units_Z   1
loop_
 _symmetry_equiv_pos_site_id
 _symmetry_equiv_pos_as_xyz
  1  'x, y, z'
loop_
 _atom_site_type_symbol
 _atom_site_label
 _atom_site_symmetry_multiplicity
 _atom_site_fract_x
 _atom_site_fract_y
 _atom_site_fract_z
 _atom_site_occupancy
  Nb  Nb0  1  0.250000  0.022697  0.825240  1
  Nb  Nb1  1  0.250000  0.523555  0.674006  1
  Nb  Nb2  1  0.750000  0.974284  0.174623  1
  Nb  Nb3  1  0.750000  0.476140  0.327457  1
  Si  Si4  1  0.250000  0.272136  0.123590  1
  P  P5  1  0.250000  0.770657  0.376757  1
  P  P6  1  0.750000  0.727925  0.876889  1
  P  P7  1  0.750000  0.228238  0.623361  1
  Ru  Ru8  1  0.250000  0.145580  0.443281  1
  Ru  Ru9  1  0.250000  0.651684  0.060732  1
  Ru  Ru10  1  0.750000  0.851286  0.561820  1
  Ru  Ru11  1  0.750000  0.355818  0.932242  1
