# generated using pymatgen
data_Zr3C2Se
_symmetry_space_group_name_H-M   'P 1'
_cell_length_a   3.44648700
_cell_length_b   3.44648736
_cell_length_c   18.06440000
_cell_angle_alpha   90.00000000
_cell_angle_beta   90.00000000
_cell_angle_gamma   119.99998695
_symmetry_Int_Tables_number   1
_chemical_formula_structural   Zr3C2Se
_chemical_formula_sum   'Zr6 C4 Se2'
_cell_volume   185.82646478
_cell_formula_units_Z   2
loop_
 _symmetry_equiv_pos_site_id
 _symmetry_equiv_pos_as_xyz
  1  'x, y, z'
loop_
 _atom_site_type_symbol
 _atom_site_label
 _atom_site_symmetry_multiplicity
 _atom_site_fract_x
 _atom_site_fract_y
 _atom_site_fract_z
 _atom_site_occupancy
  Zr  Zr0  1  0.000000  0.000000  0.000000  1
  Zr  Zr1  1  0.333333  0.666667  0.140130  1
  Zr  Zr2  1  0.333333  0.666667  0.359870  1
  Zr  Zr3  1  0.000000  0.000000  0.500000  1
  Zr  Zr4  1  0.666667  0.333335  0.640130  1
  Zr  Zr5  1  0.666667  0.333335  0.859870  1
  C  C6  1  0.666667  0.333335  0.076929  1
  C  C7  1  0.666667  0.333335  0.423071  1
  C  C8  1  0.333333  0.666667  0.576929  1
  C  C9  1  0.333333  0.666667  0.923071  1
  Se  Se10  1  0.000000  0.000000  0.250000  1
  Se  Se11  1  0.000000  0.000000  0.750000  1
