# generated using pymatgen
data_CeLuScAlIr2
_symmetry_space_group_name_H-M   'P 1'
_cell_length_a   6.88838200
_cell_length_b   4.34576000
_cell_length_c   8.17429400
_cell_angle_alpha   90.00000000
_cell_angle_beta   90.00000000
_cell_angle_gamma   90.00000000
_symmetry_Int_Tables_number   1
_chemical_formula_structural   CeLuScAlIr2
_chemical_formula_sum   'Ce2 Lu2 Sc2 Al2 Ir4'
_cell_volume   244.69957501
_cell_formula_units_Z   2
loop_
 _symmetry_equiv_pos_site_id
 _symmetry_equiv_pos_as_xyz
  1  'x, y, z'
loop_
 _atom_site_type_symbol
 _atom_site_label
 _atom_site_symmetry_multiplicity
 _atom_site_fract_x
 _atom_site_fract_y
 _atom_site_fract_z
 _atom_site_occupancy
  Ce  Ce0  1  0.034290  0.750000  0.820785  1
  Ce  Ce1  1  0.534290  0.750000  0.679215  1
  Lu  Lu2  1  0.969846  0.250000  0.178287  1
  Lu  Lu3  1  0.469846  0.250000  0.321713  1
  Sc  Sc4  1  0.135797  0.750000  0.433463  1
  Sc  Sc5  1  0.635797  0.750000  0.066537  1
  Al  Al6  1  0.861655  0.250000  0.554136  1
  Al  Al7  1  0.361655  0.250000  0.945864  1
  Ir  Ir8  1  0.744660  0.250000  0.875610  1
  Ir  Ir9  1  0.244660  0.250000  0.624390  1
  Ir  Ir10  1  0.253752  0.750000  0.110664  1
  Ir  Ir11  1  0.753752  0.750000  0.389336  1
