# generated using pymatgen
data_Y4Al2(ReOs)3
_symmetry_space_group_name_H-M   'P 1'
_cell_length_a   5.36389127
_cell_length_b   5.36620287
_cell_length_c   8.97581500
_cell_angle_alpha   90.00000000
_cell_angle_beta   90.00000000
_cell_angle_gamma   120.01425619
_symmetry_Int_Tables_number   1
_chemical_formula_structural   Y4Al2(ReOs)3
_chemical_formula_sum   'Y4 Al2 Re3 Os3'
_cell_volume   223.71194327
_cell_formula_units_Z   1
loop_
 _symmetry_equiv_pos_site_id
 _symmetry_equiv_pos_as_xyz
  1  'x, y, z'
loop_
 _atom_site_type_symbol
 _atom_site_label
 _atom_site_symmetry_multiplicity
 _atom_site_fract_x
 _atom_site_fract_y
 _atom_site_fract_z
 _atom_site_occupancy
  Y  Y0  1  0.329733  0.664867  0.436403  1
  Y  Y1  1  0.660257  0.330129  0.557573  1
  Y  Y2  1  0.660257  0.330129  0.942427  1
  Y  Y3  1  0.329733  0.664867  0.063597  1
  Al  Al4  1  0.181735  0.838319  0.750000  1
  Al  Al5  1  0.181735  0.343415  0.750000  1
  Re  Re6  1  0.830915  0.168889  0.250000  1
  Re  Re7  1  0.830915  0.662026  0.250000  1
  Re  Re8  1  0.344813  0.172406  0.250000  1
  Os  Os9  1  0.985343  0.992672  0.504712  1
  Os  Os10  1  0.985343  0.992672  0.995288  1
  Os  Os11  1  0.679220  0.839610  0.750000  1
