# generated using pymatgen
data_Nd16In3AgIr4
_symmetry_space_group_name_H-M   'P 1'
_cell_length_a   9.95756099
_cell_length_b   9.95756147
_cell_length_c   9.95756200
_cell_angle_alpha   60.03869240
_cell_angle_beta   60.03868576
_cell_angle_gamma   60.03869173
_symmetry_Int_Tables_number   1
_chemical_formula_structural   Nd16In3AgIr4
_chemical_formula_sum   'Nd16 In3 Ag1 Ir4'
_cell_volume   698.75462391
_cell_formula_units_Z   1
loop_
 _symmetry_equiv_pos_site_id
 _symmetry_equiv_pos_as_xyz
  1  'x, y, z'
loop_
 _atom_site_type_symbol
 _atom_site_label
 _atom_site_symmetry_multiplicity
 _atom_site_fract_x
 _atom_site_fract_y
 _atom_site_fract_z
 _atom_site_occupancy
  Nd  Nd0  1  0.809080  0.188702  0.809080  1
  Nd  Nd1  1  0.940800  0.559706  0.559706  1
  Nd  Nd2  1  0.559706  0.940800  0.559706  1
  Nd  Nd3  1  0.807800  0.191482  0.191482  1
  Nd  Nd4  1  0.191482  0.807800  0.191482  1
  Nd  Nd5  1  0.349584  0.952712  0.349584  1
  Nd  Nd6  1  0.941482  0.941482  0.557019  1
  Nd  Nd7  1  0.557019  0.941482  0.941482  1
  Nd  Nd8  1  0.188702  0.809080  0.809080  1
  Nd  Nd9  1  0.349584  0.349584  0.952712  1
  Nd  Nd10  1  0.559706  0.559706  0.940800  1
  Nd  Nd11  1  0.348290  0.348290  0.348290  1
  Nd  Nd12  1  0.191482  0.191482  0.807800  1
  Nd  Nd13  1  0.809080  0.809080  0.188702  1
  Nd  Nd14  1  0.941482  0.557019  0.941482  1
  Nd  Nd15  1  0.952712  0.349584  0.349584  1
  In  In16  1  0.580938  0.257719  0.580938  1
  In  In17  1  0.580938  0.580938  0.257719  1
  In  In18  1  0.257719  0.580938  0.580938  1
  Ag  Ag19  1  0.581136  0.581136  0.581136  1
  Ir  Ir20  1  0.141879  0.141879  0.575270  1
  Ir  Ir21  1  0.575270  0.141879  0.141879  1
  Ir  Ir22  1  0.141879  0.575270  0.141879  1
  Ir  Ir23  1  0.142251  0.142251  0.142251  1
