# generated using pymatgen
data_Pr5(TcO6)2
_symmetry_space_group_name_H-M   'P 1'
_cell_length_a   7.12083688
_cell_length_b   7.12083755
_cell_length_c   7.90267143
_cell_angle_alpha   73.74594881
_cell_angle_beta   73.74594788
_cell_angle_gamma   48.23416548
_symmetry_Int_Tables_number   1
_chemical_formula_structural   Pr5(TcO6)2
_chemical_formula_sum   'Pr5 Tc2 O12'
_cell_volume   284.48201291
_cell_formula_units_Z   1
loop_
 _symmetry_equiv_pos_site_id
 _symmetry_equiv_pos_as_xyz
  1  'x, y, z'
loop_
 _atom_site_type_symbol
 _atom_site_label
 _atom_site_symmetry_multiplicity
 _atom_site_fract_x
 _atom_site_fract_y
 _atom_site_fract_z
 _atom_site_occupancy
  Pr  Pr0  1  0.308473  0.308473  0.354786  1
  Pr  Pr1  1  0.691527  0.691527  0.645214  1
  Pr  Pr2  1  0.685042  0.685042  0.170187  1
  Pr  Pr3  1  0.314958  0.314958  0.829813  1
  Pr  Pr4  1  0.000000  0.000000  0.500000  1
  Tc  Tc5  1  0.787452  0.212548  0.000000  1
  Tc  Tc6  1  0.212548  0.787452  0.000000  1
  O  O7  1  0.095806  0.593039  0.577628  1
  O  O8  1  0.999224  0.999224  0.196705  1
  O  O9  1  0.406961  0.904194  0.422372  1
  O  O10  1  0.498819  0.498819  0.166083  1
  O  O11  1  0.086953  0.596440  0.077729  1
  O  O12  1  0.904194  0.406961  0.422372  1
  O  O13  1  0.000776  0.000776  0.803295  1
  O  O14  1  0.593039  0.095805  0.577628  1
  O  O15  1  0.501181  0.501181  0.833917  1
  O  O16  1  0.596440  0.086953  0.077729  1
  O  O17  1  0.403560  0.913047  0.922271  1
  O  O18  1  0.913047  0.403560  0.922271  1
