# generated using pymatgen
data_Hf3Zn3PtAu2
_symmetry_space_group_name_H-M   'P 1'
_cell_length_a   7.33080100
_cell_length_b   7.33079997
_cell_length_c   6.91967200
_cell_angle_alpha   90.00000000
_cell_angle_beta   90.00000000
_cell_angle_gamma   120.00000012
_symmetry_Int_Tables_number   1
_chemical_formula_structural   Hf3Zn3PtAu2
_chemical_formula_sum   'Hf6 Zn6 Pt2 Au4'
_cell_volume   322.04676439
_cell_formula_units_Z   2
loop_
 _symmetry_equiv_pos_site_id
 _symmetry_equiv_pos_as_xyz
  1  'x, y, z'
loop_
 _atom_site_type_symbol
 _atom_site_label
 _atom_site_symmetry_multiplicity
 _atom_site_fract_x
 _atom_site_fract_y
 _atom_site_fract_z
 _atom_site_occupancy
  Hf  Hf0  1  0.746255  0.051473  0.000000  1
  Hf  Hf1  1  0.305218  0.253745  0.000000  1
  Hf  Hf2  1  0.948527  0.694782  0.000000  1
  Hf  Hf3  1  0.341311  0.270173  0.500000  1
  Hf  Hf4  1  0.729827  0.071138  0.500000  1
  Hf  Hf5  1  0.928862  0.658689  0.500000  1
  Zn  Zn6  1  0.605427  0.665044  0.749021  1
  Zn  Zn7  1  0.059616  0.394573  0.749021  1
  Zn  Zn8  1  0.334956  0.940384  0.749021  1
  Zn  Zn9  1  0.605427  0.665044  0.250979  1
  Zn  Zn10  1  0.059616  0.394573  0.250979  1
  Zn  Zn11  1  0.334956  0.940384  0.250979  1
  Pt  Pt12  1  0.000000  0.000000  0.271393  1
  Pt  Pt13  1  0.000000  0.000000  0.728607  1
  Au  Au14  1  0.333333  0.666667  0.000000  1
  Au  Au15  1  0.333333  0.666667  0.500000  1
  Au  Au16  1  0.666667  0.333333  0.778471  1
  Au  Au17  1  0.666667  0.333333  0.221529  1
