# generated using pymatgen
data_Ta2Fe5P6Ru5
_symmetry_space_group_name_H-M   'P 1'
_cell_length_a   3.70388500
_cell_length_b   10.28704900
_cell_length_c   11.87642000
_cell_angle_alpha   90.00000000
_cell_angle_beta   90.00000000
_cell_angle_gamma   90.00000000
_symmetry_Int_Tables_number   1
_chemical_formula_structural   Ta2Fe5P6Ru5
_chemical_formula_sum   'Ta4 Fe10 P12 Ru10'
_cell_volume   452.51590692
_cell_formula_units_Z   2
loop_
 _symmetry_equiv_pos_site_id
 _symmetry_equiv_pos_as_xyz
  1  'x, y, z'
loop_
 _atom_site_type_symbol
 _atom_site_label
 _atom_site_symmetry_multiplicity
 _atom_site_fract_x
 _atom_site_fract_y
 _atom_site_fract_z
 _atom_site_occupancy
  Ta  Ta0  1  0.250000  0.582935  0.713244  1
  Ta  Ta1  1  0.250000  0.917065  0.213244  1
  Ta  Ta2  1  0.750000  0.427110  0.290130  1
  Ta  Ta3  1  0.750000  0.072890  0.790130  1
  Fe  Fe4  1  0.750000  0.769806  0.824255  1
  Fe  Fe5  1  0.750000  0.730194  0.324255  1
  Fe  Fe6  1  0.250000  0.878375  0.701721  1
  Fe  Fe7  1  0.250000  0.621625  0.201721  1
  Fe  Fe8  1  0.750000  0.108968  0.296637  1
  Fe  Fe9  1  0.750000  0.391032  0.796637  1
  Fe  Fe10  1  0.250000  0.463727  0.931156  1
  Fe  Fe11  1  0.250000  0.036273  0.431156  1
  Fe  Fe12  1  0.750000  0.537689  0.068823  1
  Fe  Fe13  1  0.750000  0.962311  0.568823  1
  P  P14  1  0.250000  0.435828  0.114664  1
  P  P15  1  0.250000  0.064172  0.614664  1
  P  P16  1  0.750000  0.574763  0.884849  1
  P  P17  1  0.750000  0.925237  0.384849  1
  P  P18  1  0.250000  0.267946  0.865345  1
  P  P19  1  0.250000  0.232054  0.365345  1
  P  P20  1  0.750000  0.731451  0.142797  1
  P  P21  1  0.750000  0.768549  0.642797  1
  P  P22  1  0.250000  0.605022  0.381857  1
  P  P23  1  0.250000  0.894978  0.881857  1
  P  P24  1  0.750000  0.403221  0.615116  1
  P  P25  1  0.750000  0.096779  0.115116  1
  Ru  Ru26  1  0.250000  0.706174  0.986072  1
  Ru  Ru27  1  0.250000  0.793826  0.486072  1
  Ru  Ru28  1  0.750000  0.290947  0.006270  1
  Ru  Ru29  1  0.750000  0.209053  0.506270  1
  Ru  Ru30  1  0.250000  0.410074  0.476143  1
  Ru  Ru31  1  0.250000  0.089926  0.976143  1
  Ru  Ru32  1  0.750000  0.598040  0.523258  1
  Ru  Ru33  1  0.750000  0.901960  0.023258  1
  Ru  Ru34  1  0.250000  0.233038  0.177665  1
  Ru  Ru35  1  0.250000  0.266962  0.677665  1
