# generated using pymatgen
data_Sr3Li4LaAu4
_symmetry_space_group_name_H-M   'P 1'
_cell_length_a   4.40791500
_cell_length_b   7.68375000
_cell_length_c   9.08559100
_cell_angle_alpha   89.99878455
_cell_angle_beta   90.00000000
_cell_angle_gamma   90.00000000
_symmetry_Int_Tables_number   1
_chemical_formula_structural   Sr3Li4LaAu4
_chemical_formula_sum   'Sr3 Li4 La1 Au4'
_cell_volume   307.72276063
_cell_formula_units_Z   1
loop_
 _symmetry_equiv_pos_site_id
 _symmetry_equiv_pos_as_xyz
  1  'x, y, z'
loop_
 _atom_site_type_symbol
 _atom_site_label
 _atom_site_symmetry_multiplicity
 _atom_site_fract_x
 _atom_site_fract_y
 _atom_site_fract_z
 _atom_site_occupancy
  Sr  Sr0  1  0.250000  0.458731  0.817058  1
  Sr  Sr1  1  0.750000  0.532911  0.184670  1
  Sr  Sr2  1  0.250000  0.966632  0.686917  1
  Li  Li3  1  0.250000  0.863277  0.057222  1
  Li  Li4  1  0.250000  0.376145  0.441041  1
  Li  Li5  1  0.750000  0.636119  0.554735  1
  Li  Li6  1  0.750000  0.120245  0.950957  1
  La  La7  1  0.750000  0.039166  0.319140  1
  Au  Au8  1  0.250000  0.751301  0.377976  1
  Au  Au9  1  0.750000  0.271300  0.599265  1
  Au  Au10  1  0.750000  0.764416  0.886866  1
  Au  Au11  1  0.250000  0.219755  0.124154  1
