# generated using pymatgen
data_Dy4Tc3B8Os
_symmetry_space_group_name_H-M   'P 1'
_cell_length_a   5.94458636
_cell_length_b   5.30098700
_cell_length_c   6.43617972
_cell_angle_alpha   90.00000000
_cell_angle_beta   90.35995948
_cell_angle_gamma   90.00000000
_symmetry_Int_Tables_number   1
_chemical_formula_structural   Dy4Tc3B8Os
_chemical_formula_sum   'Dy4 Tc3 B8 Os1'
_cell_volume   202.81401922
_cell_formula_units_Z   1
loop_
 _symmetry_equiv_pos_site_id
 _symmetry_equiv_pos_as_xyz
  1  'x, y, z'
loop_
 _atom_site_type_symbol
 _atom_site_label
 _atom_site_symmetry_multiplicity
 _atom_site_fract_x
 _atom_site_fract_y
 _atom_site_fract_z
 _atom_site_occupancy
  Dy  Dy0  1  0.013473  0.250000  0.339344  1
  Dy  Dy1  1  0.513201  0.250000  0.160226  1
  Dy  Dy2  1  0.985581  0.750000  0.662508  1
  Dy  Dy3  1  0.485619  0.750000  0.837513  1
  Tc  Tc4  1  0.181505  0.250000  0.814198  1
  Tc  Tc5  1  0.679405  0.250000  0.683998  1
  Tc  Tc6  1  0.819621  0.750000  0.185719  1
  B  B7  1  0.369749  0.078432  0.536549  1
  B  B8  1  0.871614  0.421099  0.963671  1
  B  B9  1  0.629971  0.580408  0.463572  1
  B  B10  1  0.131168  0.920521  0.037255  1
  B  B11  1  0.629971  0.919592  0.463572  1
  B  B12  1  0.131168  0.579479  0.037255  1
  B  B13  1  0.369749  0.421568  0.536549  1
  B  B14  1  0.871614  0.078901  0.963671  1
  Os  Os15  1  0.316591  0.750000  0.314399  1
