# generated using pymatgen
data_Na6Hf2ZrCl18
_symmetry_space_group_name_H-M   'P 1'
_cell_length_a   11.73979900
_cell_length_b   11.73979947
_cell_length_c   6.08609300
_cell_angle_alpha   90.00000000
_cell_angle_beta   90.00000000
_cell_angle_gamma   119.99999586
_symmetry_Int_Tables_number   1
_chemical_formula_structural   Na6Hf2ZrCl18
_chemical_formula_sum   'Na6 Hf2 Zr1 Cl18'
_cell_volume   726.42465234
_cell_formula_units_Z   1
loop_
 _symmetry_equiv_pos_site_id
 _symmetry_equiv_pos_as_xyz
  1  'x, y, z'
loop_
 _atom_site_type_symbol
 _atom_site_label
 _atom_site_symmetry_multiplicity
 _atom_site_fract_x
 _atom_site_fract_y
 _atom_site_fract_z
 _atom_site_occupancy
  Na  Na0  1  0.663008  0.002330  0.999424  1
  Na  Na1  1  0.339322  0.002330  0.999424  1
  Na  Na2  1  0.997670  0.660678  0.999424  1
  Na  Na3  1  0.663008  0.660678  0.999424  1
  Na  Na4  1  0.339322  0.336992  0.999424  1
  Na  Na5  1  0.997670  0.336992  0.999424  1
  Hf  Hf6  1  0.666667  0.333333  0.503521  1
  Hf  Hf7  1  0.000000  0.000000  0.001220  1
  Zr  Zr8  1  0.333333  0.666667  0.496720  1
  Cl  Cl9  1  0.567021  0.134045  0.736700  1
  Cl  Cl10  1  0.766871  0.233129  0.278156  1
  Cl  Cl11  1  0.800384  0.900192  0.229998  1
  Cl  Cl12  1  0.434501  0.565499  0.260703  1
  Cl  Cl13  1  0.766871  0.533741  0.278156  1
  Cl  Cl14  1  0.099808  0.199616  0.229998  1
  Cl  Cl15  1  0.231581  0.768419  0.725481  1
  Cl  Cl16  1  0.567021  0.432979  0.736700  1
  Cl  Cl17  1  0.231581  0.463162  0.725481  1
  Cl  Cl18  1  0.130998  0.565499  0.260703  1
  Cl  Cl19  1  0.199287  0.099644  0.769624  1
  Cl  Cl20  1  0.099808  0.900192  0.229998  1
  Cl  Cl21  1  0.536838  0.768419  0.725481  1
  Cl  Cl22  1  0.434501  0.869002  0.260703  1
  Cl  Cl23  1  0.900356  0.099644  0.769624  1
  Cl  Cl24  1  0.865955  0.432979  0.736700  1
  Cl  Cl25  1  0.466259  0.233129  0.278156  1
  Cl  Cl26  1  0.900356  0.800713  0.769624  1
