# generated using pymatgen
data_Ce2Dy3TcBi2
_symmetry_space_group_name_H-M   'P 1'
_cell_length_a   7.96143000
_cell_length_b   9.06317300
_cell_length_c   12.24515500
_cell_angle_alpha   90.00000000
_cell_angle_beta   90.00000000
_cell_angle_gamma   90.00000000
_symmetry_Int_Tables_number   1
_chemical_formula_structural   Ce2Dy3TcBi2
_chemical_formula_sum   'Ce8 Dy12 Tc4 Bi8'
_cell_volume   883.55916843
_cell_formula_units_Z   4
loop_
 _symmetry_equiv_pos_site_id
 _symmetry_equiv_pos_as_xyz
  1  'x, y, z'
loop_
 _atom_site_type_symbol
 _atom_site_label
 _atom_site_symmetry_multiplicity
 _atom_site_fract_x
 _atom_site_fract_y
 _atom_site_fract_z
 _atom_site_occupancy
  Ce  Ce0  1  0.663753  0.028264  0.555300  1
  Ce  Ce1  1  0.336247  0.971736  0.444700  1
  Ce  Ce2  1  0.163753  0.971736  0.944700  1
  Ce  Ce3  1  0.336247  0.528264  0.444700  1
  Ce  Ce4  1  0.836247  0.028264  0.055300  1
  Ce  Ce5  1  0.663753  0.471736  0.555300  1
  Ce  Ce6  1  0.836247  0.471736  0.055300  1
  Ce  Ce7  1  0.163753  0.528264  0.944700  1
  Dy  Dy8  1  0.827667  0.750000  0.785551  1
  Dy  Dy9  1  0.172333  0.250000  0.214449  1
  Dy  Dy10  1  0.327667  0.250000  0.714449  1
  Dy  Dy11  1  0.672333  0.750000  0.285551  1
  Dy  Dy12  1  0.360478  0.750000  0.708859  1
  Dy  Dy13  1  0.639522  0.250000  0.291141  1
  Dy  Dy14  1  0.860478  0.250000  0.791141  1
  Dy  Dy15  1  0.139522  0.750000  0.208859  1
  Dy  Dy16  1  0.968198  0.750000  0.498901  1
  Dy  Dy17  1  0.031802  0.250000  0.501099  1
  Dy  Dy18  1  0.468198  0.250000  0.001099  1
  Dy  Dy19  1  0.531802  0.750000  0.998901  1
  Tc  Tc20  1  0.594020  0.750000  0.524824  1
  Tc  Tc21  1  0.405980  0.250000  0.475176  1
  Tc  Tc22  1  0.094020  0.250000  0.975176  1
  Tc  Tc23  1  0.905980  0.750000  0.024824  1
  Bi  Bi24  1  0.565424  0.490730  0.826867  1
  Bi  Bi25  1  0.434576  0.509270  0.173133  1
  Bi  Bi26  1  0.065424  0.509270  0.673133  1
  Bi  Bi27  1  0.434576  0.990730  0.173133  1
  Bi  Bi28  1  0.934576  0.490730  0.326867  1
  Bi  Bi29  1  0.565424  0.009270  0.826867  1
  Bi  Bi30  1  0.934576  0.009270  0.326867  1
  Bi  Bi31  1  0.065424  0.990730  0.673133  1
