# generated using pymatgen
data_HoEr11Tc3Ru
_symmetry_space_group_name_H-M   'P 1'
_cell_length_a   6.22048108
_cell_length_b   7.33367411
_cell_length_c   9.05261400
_cell_angle_alpha   90.00000000
_cell_angle_beta   90.00000000
_cell_angle_gamma   90.01921807
_symmetry_Int_Tables_number   1
_chemical_formula_structural   HoEr11Tc3Ru
_chemical_formula_sum   'Ho1 Er11 Tc3 Ru1'
_cell_volume   412.97100340
_cell_formula_units_Z   1
loop_
 _symmetry_equiv_pos_site_id
 _symmetry_equiv_pos_as_xyz
  1  'x, y, z'
loop_
 _atom_site_type_symbol
 _atom_site_label
 _atom_site_symmetry_multiplicity
 _atom_site_fract_x
 _atom_site_fract_y
 _atom_site_fract_z
 _atom_site_occupancy
  Ho  Ho0  1  0.129991  0.458822  0.750000  1
  Er  Er1  1  0.336471  0.676773  0.062704  1
  Er  Er2  1  0.161019  0.175949  0.438036  1
  Er  Er3  1  0.661226  0.324055  0.562218  1
  Er  Er4  1  0.837869  0.823614  0.937970  1
  Er  Er5  1  0.661226  0.324055  0.937782  1
  Er  Er6  1  0.837869  0.823614  0.562030  1
  Er  Er7  1  0.336471  0.676773  0.437296  1
  Er  Er8  1  0.161019  0.175949  0.061964  1
  Er  Er9  1  0.873562  0.540151  0.250000  1
  Er  Er10  1  0.626678  0.039426  0.250000  1
  Er  Er11  1  0.374102  0.958140  0.750000  1
  Tc  Tc12  1  0.041095  0.884388  0.250000  1
  Tc  Tc13  1  0.460671  0.386387  0.250000  1
  Tc  Tc14  1  0.960711  0.115475  0.750000  1
  Ru  Ru15  1  0.540021  0.616429  0.750000  1
