# generated using pymatgen
data_Ca3TbSn2Sb4Rh7
_symmetry_space_group_name_H-M   'P 1'
_cell_length_a   7.62659656
_cell_length_b   7.62659898
_cell_length_c   7.62060648
_cell_angle_alpha   109.46977453
_cell_angle_beta   109.46977522
_cell_angle_gamma   109.40281360
_symmetry_Int_Tables_number   1
_chemical_formula_structural   Ca3TbSn2Sb4Rh7
_chemical_formula_sum   'Ca3 Tb1 Sn2 Sb4 Rh7'
_cell_volume   341.51575075
_cell_formula_units_Z   1
loop_
 _symmetry_equiv_pos_site_id
 _symmetry_equiv_pos_as_xyz
  1  'x, y, z'
loop_
 _atom_site_type_symbol
 _atom_site_label
 _atom_site_symmetry_multiplicity
 _atom_site_fract_x
 _atom_site_fract_y
 _atom_site_fract_z
 _atom_site_occupancy
  Ca  Ca0  1  0.492655  0.999354  0.999716  1
  Ca  Ca1  1  0.000646  0.507345  0.000284  1
  Ca  Ca2  1  0.999885  0.000115  0.500000  1
  Tb  Tb3  1  0.499189  0.500811  0.500000  1
  Sn  Sn4  1  0.992275  0.310141  0.307296  1
  Sn  Sn5  1  0.689859  0.007725  0.692704  1
  Sb  Sb6  1  0.682565  0.687562  0.003674  1
  Sb  Sb7  1  0.000262  0.676621  0.673550  1
  Sb  Sb8  1  0.323379  0.999738  0.326450  1
  Sb  Sb9  1  0.312438  0.317435  0.996326  1
  Rh  Rh10  1  0.005668  0.994332  0.000000  1
  Rh  Rh11  1  0.501726  0.748693  0.255281  1
  Rh  Rh12  1  0.743537  0.498585  0.246921  1
  Rh  Rh13  1  0.254209  0.745791  0.500000  1
  Rh  Rh14  1  0.251307  0.498274  0.744719  1
  Rh  Rh15  1  0.501415  0.256463  0.753079  1
  Rh  Rh16  1  0.748986  0.251014  0.500000  1
