# generated using pymatgen
data_AgIOF4
_symmetry_space_group_name_H-M   'P 1'
_cell_length_a   5.46987500
_cell_length_b   6.62187113
_cell_length_c   15.11330345
_cell_angle_alpha   80.24621058
_cell_angle_beta   90.00000000
_cell_angle_gamma   90.00000000
_symmetry_Int_Tables_number   1
_chemical_formula_structural   AgIOF4
_chemical_formula_sum   'Ag4 I4 O4 F16'
_cell_volume   539.50307518
_cell_formula_units_Z   4
loop_
 _symmetry_equiv_pos_site_id
 _symmetry_equiv_pos_as_xyz
  1  'x, y, z'
loop_
 _atom_site_type_symbol
 _atom_site_label
 _atom_site_symmetry_multiplicity
 _atom_site_fract_x
 _atom_site_fract_y
 _atom_site_fract_z
 _atom_site_occupancy
  Ag  Ag0  1  0.332506  0.626484  0.133286  1
  Ag  Ag1  1  0.832506  0.373516  0.366714  1
  Ag  Ag2  1  0.667494  0.373516  0.866714  1
  Ag  Ag3  1  0.167494  0.626484  0.633286  1
  I  I4  1  0.888391  0.187275  0.146531  1
  I  I5  1  0.388391  0.812725  0.353469  1
  I  I6  1  0.111609  0.812725  0.853469  1
  I  I7  1  0.611609  0.187275  0.646531  1
  O  O8  1  0.135611  0.341439  0.099316  1
  O  O9  1  0.635611  0.658561  0.400684  1
  O  O10  1  0.864389  0.658561  0.900684  1
  O  O11  1  0.364389  0.341439  0.599316  1
  F  F12  1  0.057397  0.935092  0.121067  1
  F  F13  1  0.557397  0.064908  0.378933  1
  F  F14  1  0.942603  0.064908  0.878933  1
  F  F15  1  0.442603  0.935092  0.621067  1
  F  F16  1  0.720290  0.434361  0.186560  1
  F  F17  1  0.220290  0.565639  0.313440  1
  F  F18  1  0.279710  0.565639  0.813440  1
  F  F19  1  0.779710  0.434361  0.686560  1
  F  F20  1  0.704147  0.233123  0.030416  1
  F  F21  1  0.204147  0.766877  0.469584  1
  F  F22  1  0.295853  0.766877  0.969584  1
  F  F23  1  0.795853  0.233123  0.530416  1
  F  F24  1  0.048088  0.147924  0.272086  1
  F  F25  1  0.548088  0.852076  0.227914  1
  F  F26  1  0.951912  0.852076  0.727914  1
  F  F27  1  0.451912  0.147924  0.772086  1
