# generated using pymatgen
data_EuLu2Co8P6Ru
_symmetry_space_group_name_H-M   'P 1'
_cell_length_a   3.72813600
_cell_length_b   10.56350900
_cell_length_c   12.28106600
_cell_angle_alpha   90.00000000
_cell_angle_beta   90.00000000
_cell_angle_gamma   90.00000000
_symmetry_Int_Tables_number   1
_chemical_formula_structural   EuLu2Co8P6Ru
_chemical_formula_sum   'Eu2 Lu4 Co16 P12 Ru2'
_cell_volume   483.65537519
_cell_formula_units_Z   2
loop_
 _symmetry_equiv_pos_site_id
 _symmetry_equiv_pos_as_xyz
  1  'x, y, z'
loop_
 _atom_site_type_symbol
 _atom_site_label
 _atom_site_symmetry_multiplicity
 _atom_site_fract_x
 _atom_site_fract_y
 _atom_site_fract_z
 _atom_site_occupancy
  Eu  Eu0  1  0.000000  0.500000  0.526269  1
  Eu  Eu1  1  0.500000  0.000000  0.473731  1
  Lu  Lu2  1  0.500000  0.817192  0.205280  1
  Lu  Lu3  1  0.500000  0.182808  0.205280  1
  Lu  Lu4  1  0.000000  0.682808  0.794720  1
  Lu  Lu5  1  0.000000  0.317192  0.794720  1
  Co  Co6  1  0.500000  0.500000  0.706071  1
  Co  Co7  1  0.000000  0.000000  0.293929  1
  Co  Co8  1  0.000000  0.500000  0.985239  1
  Co  Co9  1  0.500000  0.000000  0.014761  1
  Co  Co10  1  0.500000  0.332286  0.989675  1
  Co  Co11  1  0.500000  0.667714  0.989675  1
  Co  Co12  1  0.000000  0.167714  0.010325  1
  Co  Co13  1  0.000000  0.832286  0.010325  1
  Co  Co14  1  0.500000  0.296031  0.429368  1
  Co  Co15  1  0.500000  0.703969  0.429368  1
  Co  Co16  1  0.000000  0.203969  0.570632  1
  Co  Co17  1  0.000000  0.796031  0.570632  1
  Co  Co18  1  0.500000  0.878291  0.710203  1
  Co  Co19  1  0.500000  0.121709  0.710203  1
  Co  Co20  1  0.000000  0.621709  0.289797  1
  Co  Co21  1  0.000000  0.378291  0.289797  1
  P  P22  1  0.500000  0.500000  0.881497  1
  P  P23  1  0.000000  0.000000  0.118503  1
  P  P24  1  0.500000  0.500000  0.347258  1
  P  P25  1  0.000000  0.000000  0.652742  1
  P  P26  1  0.500000  0.308721  0.618190  1
  P  P27  1  0.500000  0.691279  0.618190  1
  P  P28  1  0.000000  0.191279  0.381810  1
  P  P29  1  0.000000  0.808721  0.381810  1
  P  P30  1  0.500000  0.846309  0.893768  1
  P  P31  1  0.500000  0.153691  0.893768  1
  P  P32  1  0.000000  0.653691  0.106232  1
  P  P33  1  0.000000  0.346309  0.106232  1
  Ru  Ru34  1  0.500000  0.500000  0.157929  1
  Ru  Ru35  1  0.000000  0.000000  0.842071  1
