# generated using pymatgen
data_Yb3HoLu4(B6Os)4
_symmetry_space_group_name_H-M   'P 1'
_cell_length_a   3.60750600
_cell_length_b   9.08159598
_cell_length_c   11.47155924
_cell_angle_alpha   89.94683659
_cell_angle_beta   90.00000000
_cell_angle_gamma   90.00000000
_symmetry_Int_Tables_number   1
_chemical_formula_structural   Yb3HoLu4(B6Os)4
_chemical_formula_sum   'Yb3 Ho1 Lu4 B24 Os4'
_cell_volume   375.83005211
_cell_formula_units_Z   1
loop_
 _symmetry_equiv_pos_site_id
 _symmetry_equiv_pos_as_xyz
  1  'x, y, z'
loop_
 _atom_site_type_symbol
 _atom_site_label
 _atom_site_symmetry_multiplicity
 _atom_site_fract_x
 _atom_site_fract_y
 _atom_site_fract_z
 _atom_site_occupancy
  Yb  Yb0  1  0.000000  0.324348  0.414258  1
  Yb  Yb1  1  0.000000  0.675854  0.585240  1
  Yb  Yb2  1  0.000000  0.822865  0.086391  1
  Ho  Ho3  1  0.000000  0.176295  0.914704  1
  Lu  Lu4  1  0.000000  0.941737  0.368385  1
  Lu  Lu5  1  0.000000  0.057415  0.630268  1
  Lu  Lu6  1  0.000000  0.443581  0.131537  1
  Lu  Lu7  1  0.000000  0.557914  0.869185  1
  B  B8  1  0.500000  0.553404  0.432915  1
  B  B9  1  0.500000  0.446118  0.567653  1
  B  B10  1  0.500000  0.053752  0.067031  1
  B  B11  1  0.500000  0.945720  0.933260  1
  B  B12  1  0.500000  0.749664  0.417695  1
  B  B13  1  0.500000  0.250156  0.582215  1
  B  B14  1  0.500000  0.250051  0.081841  1
  B  B15  1  0.500000  0.750405  0.918074  1
  B  B16  1  0.500000  0.791793  0.264235  1
  B  B17  1  0.500000  0.207872  0.735779  1
  B  B18  1  0.500000  0.292079  0.234955  1
  B  B19  1  0.500000  0.708901  0.764890  1
  B  B20  1  0.500000  0.630576  0.185329  1
  B  B21  1  0.500000  0.369432  0.815509  1
  B  B22  1  0.500000  0.130623  0.314345  1
  B  B23  1  0.500000  0.869683  0.684626  1
  B  B24  1  0.500000  0.982218  0.211416  1
  B  B25  1  0.500000  0.017564  0.787913  1
  B  B26  1  0.500000  0.482945  0.288333  1
  B  B27  1  0.500000  0.516993  0.712246  1
  B  B28  1  0.500000  0.598078  0.027085  1
  B  B29  1  0.500000  0.401374  0.973005  1
  B  B30  1  0.500000  0.096401  0.473066  1
  B  B31  1  0.500000  0.903554  0.526200  1
  Os  Os32  1  0.000000  0.639191  0.320264  1
  Os  Os33  1  0.000000  0.359818  0.680828  1
  Os  Os34  1  0.000000  0.139205  0.179494  1
  Os  Os35  1  0.000000  0.862421  0.819830  1
