# generated using pymatgen
data_Tm7UNb12(Si3Ge)4
_symmetry_space_group_name_H-M   'P 1'
_cell_length_a   7.04939284
_cell_length_b   7.06919972
_cell_length_c   13.03331301
_cell_angle_alpha   89.99084431
_cell_angle_beta   89.96449624
_cell_angle_gamma   90.01396014
_symmetry_Int_Tables_number   1
_chemical_formula_structural   Tm7UNb12(Si3Ge)4
_chemical_formula_sum   'Tm7 U1 Nb12 Si12 Ge4'
_cell_volume   649.49631016
_cell_formula_units_Z   1
loop_
 _symmetry_equiv_pos_site_id
 _symmetry_equiv_pos_as_xyz
  1  'x, y, z'
loop_
 _atom_site_type_symbol
 _atom_site_label
 _atom_site_symmetry_multiplicity
 _atom_site_fract_x
 _atom_site_fract_y
 _atom_site_fract_z
 _atom_site_occupancy
  Tm  Tm0  1  0.996453  0.339137  0.219138  1
  Tm  Tm1  1  0.000853  0.657751  0.718181  1
  Tm  Tm2  1  0.158070  0.500771  0.468715  1
  Tm  Tm3  1  0.502762  0.839904  0.029935  1
  Tm  Tm4  1  0.841240  0.500595  0.967113  1
  Tm  Tm5  1  0.497688  0.162371  0.531343  1
  Tm  Tm6  1  0.340691  0.998236  0.782430  1
  U  U7  1  0.664576  0.001643  0.282799  1
  Nb  Nb8  1  0.169165  0.169098  0.996972  1
  Nb  Nb9  1  0.831817  0.831211  0.496987  1
  Nb  Nb10  1  0.333517  0.670491  0.250934  1
  Nb  Nb11  1  0.671087  0.333029  0.750110  1
  Nb  Nb12  1  0.148389  0.994691  0.377448  1
  Nb  Nb13  1  0.847549  0.006491  0.877511  1
  Nb  Nb14  1  0.504431  0.648782  0.628023  1
  Nb  Nb15  1  0.347106  0.492893  0.872808  1
  Nb  Nb16  1  0.500604  0.343581  0.127883  1
  Nb  Nb17  1  0.656025  0.500945  0.373224  1
  Nb  Nb18  1  0.996267  0.157520  0.623419  1
  Nb  Nb19  1  0.996680  0.849045  0.124405  1
  Si  Si20  1  0.544465  0.206049  0.935927  1
  Si  Si21  1  0.795330  0.458039  0.563374  1
  Si  Si22  1  0.043952  0.295613  0.813066  1
  Si  Si23  1  0.957415  0.702519  0.313296  1
  Si  Si24  1  0.366789  0.295756  0.320119  1
  Si  Si25  1  0.634163  0.701595  0.819658  1
  Si  Si26  1  0.201375  0.866920  0.570974  1
  Si  Si27  1  0.132413  0.797592  0.930348  1
  Si  Si28  1  0.794420  0.134936  0.068108  1
  Si  Si29  1  0.866324  0.207650  0.432687  1
  Si  Si30  1  0.294508  0.365628  0.681820  1
  Si  Si31  1  0.703500  0.633938  0.180964  1
  Ge  Ge32  1  0.294542  0.040460  0.183142  1
  Ge  Ge33  1  0.704345  0.957924  0.684623  1
  Ge  Ge34  1  0.457038  0.795259  0.437257  1
  Ge  Ge35  1  0.204451  0.541937  0.065260  1
