# generated using pymatgen
data_Dy2ReB8Mo
_symmetry_space_group_name_H-M   'P 1'
_cell_length_a   3.61999100
_cell_length_b   6.00416018
_cell_length_c   11.61471334
_cell_angle_alpha   90.02776155
_cell_angle_beta   90.00000000
_cell_angle_gamma   90.00000000
_symmetry_Int_Tables_number   1
_chemical_formula_structural   Dy2ReB8Mo
_chemical_formula_sum   'Dy4 Re2 B16 Mo2'
_cell_volume   252.44583220
_cell_formula_units_Z   2
loop_
 _symmetry_equiv_pos_site_id
 _symmetry_equiv_pos_as_xyz
  1  'x, y, z'
loop_
 _atom_site_type_symbol
 _atom_site_label
 _atom_site_symmetry_multiplicity
 _atom_site_fract_x
 _atom_site_fract_y
 _atom_site_fract_z
 _atom_site_occupancy
  Dy  Dy0  1  0.000000  0.628035  0.350672  1
  Dy  Dy1  1  0.000000  0.371965  0.649328  1
  Dy  Dy2  1  0.000000  0.126519  0.150747  1
  Dy  Dy3  1  0.000000  0.873481  0.849253  1
  Re  Re4  1  0.000000  0.134662  0.413124  1
  Re  Re5  1  0.000000  0.865338  0.586876  1
  B  B6  1  0.500000  0.789101  0.186442  1
  B  B7  1  0.500000  0.210899  0.813558  1
  B  B8  1  0.500000  0.285184  0.315506  1
  B  B9  1  0.500000  0.714816  0.684494  1
  B  B10  1  0.500000  0.867207  0.032398  1
  B  B11  1  0.500000  0.132793  0.967602  1
  B  B12  1  0.500000  0.363194  0.469191  1
  B  B13  1  0.500000  0.636806  0.530809  1
  B  B14  1  0.500000  0.886982  0.452814  1
  B  B15  1  0.500000  0.113018  0.547186  1
  B  B16  1  0.500000  0.384999  0.047652  1
  B  B17  1  0.500000  0.615001  0.952348  1
  B  B18  1  0.500000  0.976795  0.308547  1
  B  B19  1  0.500000  0.023205  0.691453  1
  B  B20  1  0.500000  0.476001  0.194250  1
  B  B21  1  0.500000  0.523999  0.805750  1
  Mo  Mo22  1  0.000000  0.629266  0.084571  1
  Mo  Mo23  1  0.000000  0.370734  0.915429  1
