# generated using pymatgen
data_La3(H6Ru)2
_symmetry_space_group_name_H-M   'P 1'
_cell_length_a   4.95476800
_cell_length_b   4.95476804
_cell_length_c   8.67499600
_cell_angle_alpha   90.00000000
_cell_angle_beta   90.00000000
_cell_angle_gamma   119.99999976
_symmetry_Int_Tables_number   1
_chemical_formula_structural   La3(H6Ru)2
_chemical_formula_sum   'La3 H12 Ru2'
_cell_volume   184.43637055
_cell_formula_units_Z   1
loop_
 _symmetry_equiv_pos_site_id
 _symmetry_equiv_pos_as_xyz
  1  'x, y, z'
loop_
 _atom_site_type_symbol
 _atom_site_label
 _atom_site_symmetry_multiplicity
 _atom_site_fract_x
 _atom_site_fract_y
 _atom_site_fract_z
 _atom_site_occupancy
  La  La0  1  0.000000  0.000000  0.000000  1
  La  La1  1  0.666667  0.333333  0.360633  1
  La  La2  1  0.333333  0.666667  0.639367  1
  H  H3  1  0.173850  0.826150  0.363155  1
  H  H4  1  0.652299  0.826150  0.363155  1
  H  H5  1  0.173850  0.347701  0.363155  1
  H  H6  1  0.826150  0.173850  0.636845  1
  H  H7  1  0.347701  0.173850  0.636845  1
  H  H8  1  0.826150  0.652299  0.636845  1
  H  H9  1  0.504068  0.008136  0.876014  1
  H  H10  1  0.504068  0.495932  0.876014  1
  H  H11  1  0.991864  0.495932  0.876014  1
  H  H12  1  0.495932  0.991864  0.123986  1
  H  H13  1  0.495932  0.504068  0.123986  1
  H  H14  1  0.008136  0.504068  0.123986  1
  Ru  Ru15  1  0.666667  0.333333  0.760098  1
  Ru  Ru16  1  0.333333  0.666667  0.239902  1
