# generated using pymatgen
data_Ce4Al6ZnOs
_symmetry_space_group_name_H-M   'P 1'
_cell_length_a   5.69517900
_cell_length_b   5.69517988
_cell_length_c   8.56759400
_cell_angle_alpha   90.00000000
_cell_angle_beta   90.00000000
_cell_angle_gamma   119.99998907
_symmetry_Int_Tables_number   1
_chemical_formula_structural   Ce4Al6ZnOs
_chemical_formula_sum   'Ce4 Al6 Zn1 Os1'
_cell_volume   240.66026018
_cell_formula_units_Z   1
loop_
 _symmetry_equiv_pos_site_id
 _symmetry_equiv_pos_as_xyz
  1  'x, y, z'
loop_
 _atom_site_type_symbol
 _atom_site_label
 _atom_site_symmetry_multiplicity
 _atom_site_fract_x
 _atom_site_fract_y
 _atom_site_fract_z
 _atom_site_occupancy
  Ce  Ce0  1  0.333333  0.666667  0.917927  1
  Ce  Ce1  1  0.666667  0.333333  0.082073  1
  Ce  Ce2  1  0.666667  0.333333  0.412157  1
  Ce  Ce3  1  0.333333  0.666667  0.587843  1
  Al  Al4  1  0.834556  0.165444  0.741545  1
  Al  Al5  1  0.834556  0.669111  0.741545  1
  Al  Al6  1  0.330889  0.165444  0.741545  1
  Al  Al7  1  0.165444  0.834556  0.258455  1
  Al  Al8  1  0.165444  0.330889  0.258455  1
  Al  Al9  1  0.669111  0.834556  0.258455  1
  Zn  Zn10  1  0.000000  0.000000  0.000000  1
  Os  Os11  1  0.000000  0.000000  0.500000  1
