# generated using pymatgen
data_TbU(FeSi)2
_symmetry_space_group_name_H-M   'P 1'
_cell_length_a   4.24351200
_cell_length_b   7.09549107
_cell_length_c   6.77468097
_cell_angle_alpha   94.90585914
_cell_angle_beta   90.00000000
_cell_angle_gamma   90.00000000
_symmetry_Int_Tables_number   1
_chemical_formula_structural   TbU(FeSi)2
_chemical_formula_sum   'Tb2 U2 Fe4 Si4'
_cell_volume   203.23701418
_cell_formula_units_Z   2
loop_
 _symmetry_equiv_pos_site_id
 _symmetry_equiv_pos_as_xyz
  1  'x, y, z'
loop_
 _atom_site_type_symbol
 _atom_site_label
 _atom_site_symmetry_multiplicity
 _atom_site_fract_x
 _atom_site_fract_y
 _atom_site_fract_z
 _atom_site_occupancy
  Tb  Tb0  1  0.250000  0.977403  0.774486  1
  Tb  Tb1  1  0.750000  0.022597  0.225514  1
  U  U2  1  0.250000  0.484711  0.696816  1
  U  U3  1  0.750000  0.515289  0.303184  1
  Fe  Fe4  1  0.750000  0.732783  0.544098  1
  Fe  Fe5  1  0.250000  0.267217  0.455902  1
  Fe  Fe6  1  0.750000  0.368333  0.961395  1
  Fe  Fe7  1  0.250000  0.631667  0.038605  1
  Si  Si8  1  0.250000  0.298167  0.097300  1
  Si  Si9  1  0.750000  0.701833  0.902700  1
  Si  Si10  1  0.250000  0.791615  0.384898  1
  Si  Si11  1  0.750000  0.208385  0.615102  1
