# generated using pymatgen
data_Nd2ThCo2
_symmetry_space_group_name_H-M   'P 1'
_cell_length_a   6.24739161
_cell_length_b   6.24739177
_cell_length_c   6.24739062
_cell_angle_alpha   145.12251377
_cell_angle_beta   119.72764240
_cell_angle_gamma   71.56345948
_symmetry_Int_Tables_number   1
_chemical_formula_structural   Nd2ThCo2
_chemical_formula_sum   'Nd2 Th1 Co2'
_cell_volume   119.05026947
_cell_formula_units_Z   1
loop_
 _symmetry_equiv_pos_site_id
 _symmetry_equiv_pos_as_xyz
  1  'x, y, z'
loop_
 _atom_site_type_symbol
 _atom_site_label
 _atom_site_symmetry_multiplicity
 _atom_site_fract_x
 _atom_site_fract_y
 _atom_site_fract_z
 _atom_site_occupancy
  Nd  Nd0  1  0.687954  0.187954  0.500000  1
  Nd  Nd1  1  0.312046  0.812045  0.500000  1
  Th  Th2  1  0.000000  0.000000  0.000000  1
  Co  Co3  1  0.698623  0.500000  0.198624  1
  Co  Co4  1  0.301376  0.500000  0.801376  1
