# generated using pymatgen
data_Tm2Sc2Si7Pt9W
_symmetry_space_group_name_H-M   'P 1'
_cell_length_a   9.92669939
_cell_length_b   9.94852726
_cell_length_c   3.96202100
_cell_angle_alpha   90.00000000
_cell_angle_beta   90.00000000
_cell_angle_gamma   119.59756922
_symmetry_Int_Tables_number   1
_chemical_formula_structural   Tm2Sc2Si7Pt9W
_chemical_formula_sum   'Tm2 Sc2 Si7 Pt9 W1'
_cell_volume   340.21852552
_cell_formula_units_Z   1
loop_
 _symmetry_equiv_pos_site_id
 _symmetry_equiv_pos_as_xyz
  1  'x, y, z'
loop_
 _atom_site_type_symbol
 _atom_site_label
 _atom_site_symmetry_multiplicity
 _atom_site_fract_x
 _atom_site_fract_y
 _atom_site_fract_z
 _atom_site_occupancy
  Tm  Tm0  1  0.001399  0.994997  0.000000  1
  Tm  Tm1  1  0.332153  0.668815  0.500000  1
  Sc  Sc2  1  0.567095  0.110200  0.500000  1
  Sc  Sc3  1  0.546921  0.438915  0.500000  1
  Si  Si4  1  0.245718  0.200233  0.500000  1
  Si  Si5  1  0.805704  0.045865  0.500000  1
  Si  Si6  1  0.951826  0.734977  0.500000  1
  Si  Si7  1  0.551900  0.643572  0.000000  1
  Si  Si8  1  0.356084  0.911795  0.000000  1
  Si  Si9  1  0.080443  0.448393  0.000000  1
  Si  Si10  1  0.679761  0.339060  0.000000  1
  Pt  Pt11  1  0.217770  0.939816  0.500000  1
  Pt  Pt12  1  0.059194  0.285522  0.500000  1
  Pt  Pt13  1  0.719746  0.778345  0.500000  1
  Pt  Pt14  1  0.306437  0.412982  0.000000  1
  Pt  Pt15  1  0.587723  0.899446  0.000000  1
  Pt  Pt16  1  0.099260  0.692389  0.000000  1
  Pt  Pt17  1  0.392360  0.177539  0.000000  1
  Pt  Pt18  1  0.829661  0.207374  0.000000  1
  Pt  Pt19  1  0.785415  0.614309  0.000000  1
  W  W20  1  0.883429  0.455457  0.500000  1
