# generated using pymatgen
data_FeSb12PtRh2
_symmetry_space_group_name_H-M   'P 1'
_cell_length_a   8.08946103
_cell_length_b   8.08984340
_cell_length_c   9.34983447
_cell_angle_alpha   54.92264956
_cell_angle_beta   54.72400264
_cell_angle_gamma   70.64331453
_symmetry_Int_Tables_number   1
_chemical_formula_structural   FeSb12PtRh2
_chemical_formula_sum   'Fe1 Sb12 Pt1 Rh2'
_cell_volume   408.79828517
_cell_formula_units_Z   1
loop_
 _symmetry_equiv_pos_site_id
 _symmetry_equiv_pos_as_xyz
  1  'x, y, z'
loop_
 _atom_site_type_symbol
 _atom_site_label
 _atom_site_symmetry_multiplicity
 _atom_site_fract_x
 _atom_site_fract_y
 _atom_site_fract_z
 _atom_site_occupancy
  Fe  Fe0  1  0.000000  0.500000  0.500000  1
  Sb  Sb1  1  0.674566  0.654036  0.491149  1
  Sb  Sb2  1  0.325434  0.345964  0.508851  1
  Sb  Sb3  1  0.657992  0.658090  0.186300  1
  Sb  Sb4  1  0.342008  0.341910  0.813700  1
  Sb  Sb5  1  0.149141  0.843553  0.659206  1
  Sb  Sb6  1  0.850859  0.156447  0.340794  1
  Sb  Sb7  1  0.848527  0.164707  0.660569  1
  Sb  Sb8  1  0.151473  0.835293  0.339431  1
  Sb  Sb9  1  0.825165  0.491329  0.834631  1
  Sb  Sb10  1  0.174835  0.508671  0.165369  1
  Sb  Sb11  1  0.502497  0.191550  0.150013  1
  Sb  Sb12  1  0.497503  0.808450  0.849987  1
  Pt  Pt13  1  0.500000  0.000000  0.500000  1
  Rh  Rh14  1  0.000000  0.500000  0.000000  1
  Rh  Rh15  1  0.500000  0.000000  0.000000  1
