# generated using pymatgen
data_Hf5Sc3(Si4Mo3)4
_symmetry_space_group_name_H-M   'P 1'
_cell_length_a   6.56192736
_cell_length_b   6.76581529
_cell_length_c   12.68974638
_cell_angle_alpha   89.98883554
_cell_angle_beta   90.04963844
_cell_angle_gamma   89.97098302
_symmetry_Int_Tables_number   1
_chemical_formula_structural   Hf5Sc3(Si4Mo3)4
_chemical_formula_sum   'Hf5 Sc3 Si16 Mo12'
_cell_volume   563.38369057
_cell_formula_units_Z   1
loop_
 _symmetry_equiv_pos_site_id
 _symmetry_equiv_pos_as_xyz
  1  'x, y, z'
loop_
 _atom_site_type_symbol
 _atom_site_label
 _atom_site_symmetry_multiplicity
 _atom_site_fract_x
 _atom_site_fract_y
 _atom_site_fract_z
 _atom_site_occupancy
  Hf  Hf0  1  0.496266  0.670137  0.592603  1
  Hf  Hf1  1  0.995831  0.828000  0.906251  1
  Hf  Hf2  1  0.504738  0.327987  0.093365  1
  Hf  Hf3  1  0.004827  0.172461  0.406642  1
  Hf  Hf4  1  0.505187  0.329809  0.407499  1
  Sc  Sc5  1  0.005353  0.169487  0.091886  1
  Sc  Sc6  1  0.494787  0.670121  0.908388  1
  Sc  Sc7  1  0.994836  0.830551  0.591973  1
  Si  Si8  1  0.668071  0.960105  0.457574  1
  Si  Si9  1  0.167197  0.538690  0.043366  1
  Si  Si10  1  0.332824  0.038567  0.956750  1
  Si  Si11  1  0.832671  0.460688  0.543290  1
  Si  Si12  1  0.330911  0.039233  0.542762  1
  Si  Si13  1  0.831579  0.460271  0.956924  1
  Si  Si14  1  0.668736  0.960231  0.043221  1
  Si  Si15  1  0.167677  0.541385  0.457559  1
  Si  Si16  1  0.464776  0.377146  0.750726  1
  Si  Si17  1  0.964791  0.124022  0.749707  1
  Si  Si18  1  0.535173  0.623875  0.249520  1
  Si  Si19  1  0.034520  0.876334  0.250237  1
  Si  Si20  1  0.697121  0.860993  0.749926  1
  Si  Si21  1  0.197833  0.639171  0.749850  1
  Si  Si22  1  0.301063  0.138137  0.249296  1
  Si  Si23  1  0.803092  0.361324  0.249324  1
  Mo  Mo24  1  0.664363  0.166390  0.623055  1
  Mo  Mo25  1  0.166112  0.334704  0.876343  1
  Mo  Mo26  1  0.334059  0.834422  0.123568  1
  Mo  Mo27  1  0.832275  0.663862  0.376834  1
  Mo  Mo28  1  0.335380  0.835485  0.376870  1
  Mo  Mo29  1  0.834271  0.664213  0.123653  1
  Mo  Mo30  1  0.665780  0.164429  0.876563  1
  Mo  Mo31  1  0.167102  0.335485  0.622803  1
  Mo  Mo32  1  0.831254  0.510526  0.750579  1
  Mo  Mo33  1  0.330791  0.990221  0.749753  1
  Mo  Mo34  1  0.169805  0.488495  0.251318  1
  Mo  Mo35  1  0.668952  0.013044  0.250021  1
