# generated using pymatgen
data_Er3Tm7(ZnIn3)2
_symmetry_space_group_name_H-M   'P 1'
_cell_length_a   9.04962119
_cell_length_b   9.05292163
_cell_length_c   6.63612200
_cell_angle_alpha   90.00000000
_cell_angle_beta   90.00000000
_cell_angle_gamma   119.96474898
_symmetry_Int_Tables_number   1
_chemical_formula_structural   Er3Tm7(ZnIn3)2
_chemical_formula_sum   'Er3 Tm7 Zn2 In6'
_cell_volume   470.99718523
_cell_formula_units_Z   1
loop_
 _symmetry_equiv_pos_site_id
 _symmetry_equiv_pos_as_xyz
  1  'x, y, z'
loop_
 _atom_site_type_symbol
 _atom_site_label
 _atom_site_symmetry_multiplicity
 _atom_site_fract_x
 _atom_site_fract_y
 _atom_site_fract_z
 _atom_site_occupancy
  Er  Er0  1  0.275864  0.000044  0.750000  1
  Er  Er1  1  0.724147  0.999969  0.250000  1
  Er  Er2  1  0.000099  0.275663  0.750000  1
  Tm  Tm3  1  0.333330  0.666584  0.499955  1
  Tm  Tm4  1  0.666663  0.333599  0.499963  1
  Tm  Tm5  1  0.666663  0.333599  0.000037  1
  Tm  Tm6  1  0.333330  0.666584  0.000045  1
  Tm  Tm7  1  0.999912  0.724031  0.250000  1
  Tm  Tm8  1  0.724325  0.724309  0.750000  1
  Tm  Tm9  1  0.275700  0.275757  0.250000  1
  Zn  Zn10  1  0.999990  0.999846  0.499940  1
  Zn  Zn11  1  0.999990  0.999846  0.000060  1
  In  In12  1  0.621939  0.999731  0.750000  1
  In  In13  1  0.377778  0.999994  0.250000  1
  In  In14  1  0.999759  0.622082  0.750000  1
  In  In15  1  0.000234  0.378320  0.250000  1
  In  In16  1  0.378219  0.378226  0.750000  1
  In  In17  1  0.622055  0.621814  0.250000  1
