# generated using pymatgen
data_Sc2Si2Ni3P5Ru9
_symmetry_space_group_name_H-M   'P 1'
_cell_length_a   9.36317917
_cell_length_b   9.34514663
_cell_length_c   3.77722400
_cell_angle_alpha   90.00000000
_cell_angle_beta   90.00000000
_cell_angle_gamma   119.92179181
_symmetry_Int_Tables_number   1
_chemical_formula_structural   Sc2Si2Ni3P5Ru9
_chemical_formula_sum   'Sc2 Si2 Ni3 P5 Ru9'
_cell_volume   286.45377186
_cell_formula_units_Z   1
loop_
 _symmetry_equiv_pos_site_id
 _symmetry_equiv_pos_as_xyz
  1  'x, y, z'
loop_
 _atom_site_type_symbol
 _atom_site_label
 _atom_site_symmetry_multiplicity
 _atom_site_fract_x
 _atom_site_fract_y
 _atom_site_fract_z
 _atom_site_occupancy
  Sc  Sc0  1  0.666596  0.335032  0.500000  1
  Sc  Sc1  1  0.333211  0.666605  0.000000  1
  Si  Si2  1  0.593527  0.711656  0.500000  1
  Si  Si3  1  0.998658  0.997785  0.000000  1
  Ni  Ni4  1  0.720906  0.883260  0.000000  1
  Ni  Ni5  1  0.119401  0.836461  0.000000  1
  Ni  Ni6  1  0.160147  0.278151  0.000000  1
  P  P7  1  0.289625  0.883245  0.500000  1
  P  P8  1  0.117014  0.405171  0.500000  1
  P  P9  1  0.886474  0.587997  0.000000  1
  P  P10  1  0.413070  0.300563  0.000000  1
  P  P11  1  0.700153  0.114710  0.000000  1
  Ru  Ru12  1  0.564803  0.952593  0.500000  1
  Ru  Ru13  1  0.378415  0.431566  0.500000  1
  Ru  Ru14  1  0.914577  0.123107  0.500000  1
  Ru  Ru15  1  0.205774  0.082415  0.500000  1
  Ru  Ru16  1  0.882433  0.791595  0.500000  1
  Ru  Ru17  1  0.430242  0.067786  0.000000  1
  Ru  Ru18  1  0.933787  0.366040  0.000000  1
  Ru  Ru19  1  0.634924  0.567298  0.000000  1
  Ru  Ru20  1  0.056265  0.616961  0.500000  1
