# generated using pymatgen
data_CsRb2AgGe4
_symmetry_space_group_name_H-M   'P 1'
_cell_length_a   6.38031600
_cell_length_b   7.20889800
_cell_length_c   12.58155900
_cell_angle_alpha   90.00000000
_cell_angle_beta   90.00000000
_cell_angle_gamma   90.00000000
_symmetry_Int_Tables_number   1
_chemical_formula_structural   CsRb2AgGe4
_chemical_formula_sum   'Cs2 Rb4 Ag2 Ge8'
_cell_volume   578.68940071
_cell_formula_units_Z   2
loop_
 _symmetry_equiv_pos_site_id
 _symmetry_equiv_pos_as_xyz
  1  'x, y, z'
loop_
 _atom_site_type_symbol
 _atom_site_label
 _atom_site_symmetry_multiplicity
 _atom_site_fract_x
 _atom_site_fract_y
 _atom_site_fract_z
 _atom_site_occupancy
  Cs  Cs0  1  0.423753  0.500000  0.500000  1
  Cs  Cs1  1  0.576247  0.000000  0.000000  1
  Rb  Rb2  1  0.841806  0.500000  0.264910  1
  Rb  Rb3  1  0.841806  0.500000  0.735090  1
  Rb  Rb4  1  0.158194  0.000000  0.235090  1
  Rb  Rb5  1  0.158194  0.000000  0.764910  1
  Ag  Ag6  1  0.700115  0.500000  0.000000  1
  Ag  Ag7  1  0.299885  0.000000  0.500000  1
  Ge  Ge8  1  0.069015  0.308852  0.000000  1
  Ge  Ge9  1  0.332543  0.500000  0.109328  1
  Ge  Ge10  1  0.667457  0.000000  0.609328  1
  Ge  Ge11  1  0.069015  0.691148  0.000000  1
  Ge  Ge12  1  0.930985  0.808852  0.500000  1
  Ge  Ge13  1  0.667457  0.000000  0.390672  1
  Ge  Ge14  1  0.332543  0.500000  0.890672  1
  Ge  Ge15  1  0.930985  0.191148  0.500000  1
