# generated using pymatgen
data_NaCe(SbAu)2
_symmetry_space_group_name_H-M   'P 1'
_cell_length_a   4.74104400
_cell_length_b   4.74104353
_cell_length_c   7.68837400
_cell_angle_alpha   90.00000000
_cell_angle_beta   90.00000000
_cell_angle_gamma   120.00000329
_symmetry_Int_Tables_number   1
_chemical_formula_structural   NaCe(SbAu)2
_chemical_formula_sum   'Na1 Ce1 Sb2 Au2'
_cell_volume   149.66251782
_cell_formula_units_Z   1
loop_
 _symmetry_equiv_pos_site_id
 _symmetry_equiv_pos_as_xyz
  1  'x, y, z'
loop_
 _atom_site_type_symbol
 _atom_site_label
 _atom_site_symmetry_multiplicity
 _atom_site_fract_x
 _atom_site_fract_y
 _atom_site_fract_z
 _atom_site_occupancy
  Na  Na0  1  0.000000  0.000000  0.746359  1
  Ce  Ce1  1  0.000000  0.000000  0.250149  1
  Sb  Sb2  1  0.666667  0.333333  0.963932  1
  Sb  Sb3  1  0.333333  0.666667  0.473791  1
  Au  Au4  1  0.333333  0.666667  0.058052  1
  Au  Au5  1  0.666667  0.333333  0.555717  1
