# generated using pymatgen
data_NpS27
_symmetry_space_group_name_H-M   'P 1'
_cell_length_a   15.59682408
_cell_length_b   15.48378194
_cell_length_c   15.60843700
_cell_angle_alpha   119.02161151
_cell_angle_beta   119.77535460
_cell_angle_gamma   118.94266891
_symmetry_Int_Tables_number   1
_chemical_formula_structural   NpS27
_chemical_formula_sum   'Np1 S27'
_cell_volume   848.37304040
_cell_formula_units_Z   1
loop_
 _symmetry_equiv_pos_site_id
 _symmetry_equiv_pos_as_xyz
  1  'x, y, z'
loop_
 _atom_site_type_symbol
 _atom_site_label
 _atom_site_symmetry_multiplicity
 _atom_site_fract_x
 _atom_site_fract_y
 _atom_site_fract_z
 _atom_site_occupancy
  Np  Np0  1  0.563058  0.566987  0.562656  1
  S  S1  1  0.805545  0.527698  0.527157  1
  S  S2  1  0.527496  0.527927  0.806123  1
  S  S3  1  0.527696  0.803349  0.527619  1
  S  S4  1  0.212564  0.339805  0.597855  1
  S  S5  1  0.398425  0.986892  0.398512  1
  S  S6  1  0.399287  0.398531  0.986733  1
  S  S7  1  0.986670  0.398317  0.399156  1
  S  S8  1  0.122388  0.725192  0.247128  1
  S  S9  1  0.247061  0.120966  0.724710  1
  S  S10  1  0.725499  0.248480  0.123176  1
  S  S11  1  0.724767  0.120983  0.247023  1
  S  S12  1  0.247308  0.725345  0.122636  1
  S  S13  1  0.123013  0.248444  0.725376  1
  S  S14  1  0.377958  0.897948  0.554041  1
  S  S15  1  0.553892  0.375778  0.898558  1
  S  S16  1  0.898225  0.555110  0.377686  1
  S  S17  1  0.898594  0.375960  0.553864  1
  S  S18  1  0.554226  0.898015  0.378172  1
  S  S19  1  0.377423  0.555053  0.898212  1
  S  S20  1  0.213523  0.597017  0.339530  1
  S  S21  1  0.339549  0.212912  0.599025  1
  S  S22  1  0.597582  0.339715  0.212467  1
  S  S23  1  0.598836  0.212919  0.339404  1
  S  S24  1  0.339645  0.596995  0.213523  1
  S  S25  1  0.979700  0.093142  0.093666  1
  S  S26  1  0.093378  0.093213  0.979230  1
  S  S27  1  0.091991  0.982603  0.092059  1
