# generated using pymatgen
data_Dy7ErTi11Si16Rh
_symmetry_space_group_name_H-M   'P 1'
_cell_length_a   7.04111781
_cell_length_b   7.04003735
_cell_length_c   12.87951314
_cell_angle_alpha   89.90526334
_cell_angle_beta   90.10048694
_cell_angle_gamma   89.81284453
_symmetry_Int_Tables_number   1
_chemical_formula_structural   Dy7ErTi11Si16Rh
_chemical_formula_sum   'Dy7 Er1 Ti11 Si16 Rh1'
_cell_volume   638.42875288
_cell_formula_units_Z   1
loop_
 _symmetry_equiv_pos_site_id
 _symmetry_equiv_pos_as_xyz
  1  'x, y, z'
loop_
 _atom_site_type_symbol
 _atom_site_label
 _atom_site_symmetry_multiplicity
 _atom_site_fract_x
 _atom_site_fract_y
 _atom_site_fract_z
 _atom_site_occupancy
  Dy  Dy0  1  0.001846  0.342374  0.531971  1
  Dy  Dy1  1  0.660084  0.995635  0.967255  1
  Dy  Dy2  1  0.158442  0.503612  0.782233  1
  Dy  Dy3  1  0.840985  0.499067  0.285000  1
  Dy  Dy4  1  0.503534  0.158591  0.217872  1
  Dy  Dy5  1  0.498998  0.840904  0.714942  1
  Dy  Dy6  1  0.342362  0.001807  0.468032  1
  Er  Er7  1  0.996418  0.659652  0.032849  1
  Ti  Ti8  1  0.344270  0.506024  0.374807  1
  Ti  Ti9  1  0.850225  0.996193  0.376308  1
  Ti  Ti10  1  0.006050  0.151091  0.124861  1
  Ti  Ti11  1  0.996340  0.850136  0.623728  1
  Ti  Ti12  1  0.506023  0.344358  0.625155  1
  Ti  Ti13  1  0.151156  0.005898  0.875170  1
  Ti  Ti14  1  0.824510  0.173096  0.748728  1
  Ti  Ti15  1  0.173022  0.824391  0.251208  1
  Ti  Ti16  1  0.326290  0.326747  0.999990  1
  Ti  Ti17  1  0.493247  0.651003  0.127646  1
  Ti  Ti18  1  0.651106  0.493427  0.872394  1
  Si  Si19  1  0.049677  0.713280  0.435908  1
  Si  Si20  1  0.952153  0.292121  0.934644  1
  Si  Si21  1  0.713268  0.049651  0.564081  1
  Si  Si22  1  0.207568  0.453522  0.184042  1
  Si  Si23  1  0.790126  0.550722  0.682762  1
  Si  Si24  1  0.452984  0.207990  0.815655  1
  Si  Si25  1  0.550733  0.790104  0.317252  1
  Si  Si26  1  0.290962  0.951530  0.065509  1
  Si  Si27  1  0.798179  0.867338  0.185038  1
  Si  Si28  1  0.297059  0.627658  0.565781  1
  Si  Si29  1  0.704901  0.369887  0.065770  1
  Si  Si30  1  0.627676  0.297032  0.434224  1
  Si  Si31  1  0.368654  0.704351  0.934331  1
  Si  Si32  1  0.130878  0.203210  0.315888  1
  Si  Si33  1  0.203234  0.130886  0.684155  1
  Si  Si34  1  0.867886  0.797559  0.814822  1
  Rh  Rh35  1  0.669156  0.669153  0.499991  1
