# generated using pymatgen
data_La8Ho12Si15Ge
_symmetry_space_group_name_H-M   'P 1'
_cell_length_a   7.57263376
_cell_length_b   7.85161516
_cell_length_c   14.91525637
_cell_angle_alpha   90.01446511
_cell_angle_beta   89.90387097
_cell_angle_gamma   90.01849006
_symmetry_Int_Tables_number   1
_chemical_formula_structural   La8Ho12Si15Ge
_chemical_formula_sum   'La8 Ho12 Si15 Ge1'
_cell_volume   886.82113225
_cell_formula_units_Z   1
loop_
 _symmetry_equiv_pos_site_id
 _symmetry_equiv_pos_as_xyz
  1  'x, y, z'
loop_
 _atom_site_type_symbol
 _atom_site_label
 _atom_site_symmetry_multiplicity
 _atom_site_fract_x
 _atom_site_fract_y
 _atom_site_fract_z
 _atom_site_occupancy
  La  La0  1  0.977328  0.822723  0.098654  1
  La  La1  1  0.476630  0.678060  0.401792  1
  La  La2  1  0.521602  0.321075  0.901535  1
  La  La3  1  0.023421  0.177957  0.598186  1
  La  La4  1  0.024114  0.176972  0.901658  1
  La  La5  1  0.523239  0.321851  0.598194  1
  La  La6  1  0.476387  0.678408  0.098488  1
  La  La7  1  0.976575  0.821908  0.401826  1
  Ho  Ho8  1  0.649676  0.990817  0.250080  1
  Ho  Ho9  1  0.149853  0.509189  0.250006  1
  Ho  Ho10  1  0.850216  0.490667  0.748978  1
  Ho  Ho11  1  0.350204  0.009208  0.749821  1
  Ho  Ho12  1  0.680104  0.824087  0.876021  1
  Ho  Ho13  1  0.181266  0.677495  0.623467  1
  Ho  Ho14  1  0.819332  0.321837  0.123908  1
  Ho  Ho15  1  0.318870  0.177461  0.376596  1
  Ho  Ho16  1  0.319115  0.177187  0.123606  1
  Ho  Ho17  1  0.818837  0.322524  0.376547  1
  Ho  Ho18  1  0.182226  0.677682  0.876456  1
  Ho  Ho19  1  0.681146  0.822652  0.623454  1
  Si  Si20  1  0.770206  0.619178  0.249969  1
  Si  Si21  1  0.270169  0.880767  0.250061  1
  Si  Si22  1  0.729840  0.119530  0.749993  1
  Si  Si23  1  0.229484  0.380757  0.750088  1
  Si  Si24  1  0.023922  0.115436  0.250139  1
  Si  Si25  1  0.524012  0.384438  0.250043  1
  Si  Si26  1  0.476356  0.615539  0.750012  1
  Si  Si27  1  0.976148  0.884239  0.750025  1
  Si  Si28  1  0.357370  0.969037  0.540026  1
  Si  Si29  1  0.642954  0.031008  0.039984  1
  Si  Si30  1  0.142626  0.469094  0.460011  1
  Si  Si31  1  0.146878  0.468300  0.040978  1
  Si  Si32  1  0.642616  0.030938  0.459962  1
  Si  Si33  1  0.357201  0.968913  0.959969  1
  Si  Si34  1  0.857350  0.530895  0.540012  1
  Ge  Ge35  1  0.852726  0.532171  0.959454  1
