# generated using pymatgen
data_Ac3(NiGe)4
_symmetry_space_group_name_H-M   'P 1'
_cell_length_a   4.22209712
_cell_length_b   4.35031141
_cell_length_c   12.83929227
_cell_angle_alpha   80.24625926
_cell_angle_beta   80.53639662
_cell_angle_gamma   89.99999800
_symmetry_Int_Tables_number   1
_chemical_formula_structural   Ac3(NiGe)4
_chemical_formula_sum   'Ac3 Ni4 Ge4'
_cell_volume   229.15879056
_cell_formula_units_Z   1
loop_
 _symmetry_equiv_pos_site_id
 _symmetry_equiv_pos_as_xyz
  1  'x, y, z'
loop_
 _atom_site_type_symbol
 _atom_site_label
 _atom_site_symmetry_multiplicity
 _atom_site_fract_x
 _atom_site_fract_y
 _atom_site_fract_z
 _atom_site_occupancy
  Ac  Ac0  1  0.348899  0.848899  0.302201  1
  Ac  Ac1  1  0.651101  0.151101  0.697799  1
  Ac  Ac2  1  0.000000  0.000000  0.000000  1
  Ni  Ni3  1  0.248894  0.248894  0.502214  1
  Ni  Ni4  1  0.751106  0.751106  0.497786  1
  Ni  Ni5  1  0.099717  0.599717  0.800566  1
  Ni  Ni6  1  0.900283  0.400283  0.199434  1
  Ge  Ge7  1  0.200234  0.700234  0.599533  1
  Ge  Ge8  1  0.799766  0.299766  0.400467  1
  Ge  Ge9  1  0.446433  0.446433  0.107133  1
  Ge  Ge10  1  0.553567  0.553567  0.892867  1
