# generated using pymatgen
data_PrTm2Lu(WO6)2
_symmetry_space_group_name_H-M   'P 1'
_cell_length_a   5.40644700
_cell_length_b   7.71929208
_cell_length_c   11.45560610
_cell_angle_alpha   75.50490133
_cell_angle_beta   90.00000000
_cell_angle_gamma   90.00000000
_symmetry_Int_Tables_number   1
_chemical_formula_structural   PrTm2Lu(WO6)2
_chemical_formula_sum   'Pr2 Tm4 Lu2 W4 O24'
_cell_volume   462.86963746
_cell_formula_units_Z   2
loop_
 _symmetry_equiv_pos_site_id
 _symmetry_equiv_pos_as_xyz
  1  'x, y, z'
loop_
 _atom_site_type_symbol
 _atom_site_label
 _atom_site_symmetry_multiplicity
 _atom_site_fract_x
 _atom_site_fract_y
 _atom_site_fract_z
 _atom_site_occupancy
  Pr  Pr0  1  0.313678  0.500000  0.750000  1
  Pr  Pr1  1  0.686678  0.500000  0.250000  1
  Tm  Tm2  1  0.255953  0.000000  0.750000  1
  Tm  Tm3  1  0.184677  0.798077  0.077084  1
  Tm  Tm4  1  0.184677  0.201923  0.422916  1
  Tm  Tm5  1  0.744454  0.000000  0.250000  1
  Lu  Lu6  1  0.815340  0.202580  0.922385  1
  Lu  Lu7  1  0.815340  0.797420  0.577615  1
  W  W8  1  0.745762  0.729698  0.883554  1
  W  W9  1  0.254519  0.729904  0.384414  1
  W  W10  1  0.745762  0.270302  0.616446  1
  W  W11  1  0.254519  0.270096  0.115586  1
  O  O12  1  0.541119  0.156420  0.068252  1
  O  O13  1  0.041994  0.056787  0.103482  1
  O  O14  1  0.014844  0.724471  0.767420  1
  O  O15  1  0.459420  0.156273  0.570146  1
  O  O16  1  0.344046  0.492852  0.387413  1
  O  O17  1  0.956169  0.055344  0.603769  1
  O  O18  1  0.545675  0.799069  0.724165  1
  O  O19  1  0.455691  0.799403  0.225439  1
  O  O20  1  0.141045  0.643617  0.546246  1
  O  O21  1  0.041994  0.943213  0.396518  1
  O  O22  1  0.459420  0.843727  0.929854  1
  O  O23  1  0.455691  0.200597  0.274561  1
  O  O24  1  0.856824  0.356960  0.454311  1
  O  O25  1  0.656866  0.492121  0.886927  1
  O  O26  1  0.344046  0.507148  0.112587  1
  O  O27  1  0.956169  0.944656  0.896231  1
  O  O28  1  0.541119  0.843580  0.431748  1
  O  O29  1  0.985629  0.276161  0.232047  1
  O  O30  1  0.545675  0.200931  0.775835  1
  O  O31  1  0.856824  0.643040  0.045689  1
  O  O32  1  0.014844  0.275529  0.732580  1
  O  O33  1  0.141045  0.356383  0.953754  1
  O  O34  1  0.985629  0.723839  0.267953  1
  O  O35  1  0.656866  0.507879  0.613073  1
