# generated using pymatgen
data_Zr2FeNiP2
_symmetry_space_group_name_H-M   'P 1'
_cell_length_a   3.71154800
_cell_length_b   6.35593758
_cell_length_c   7.20241083
_cell_angle_alpha   89.30746858
_cell_angle_beta   90.00000000
_cell_angle_gamma   90.00000000
_symmetry_Int_Tables_number   1
_chemical_formula_structural   Zr2FeNiP2
_chemical_formula_sum   'Zr4 Fe2 Ni2 P4'
_cell_volume   169.89510660
_cell_formula_units_Z   2
loop_
 _symmetry_equiv_pos_site_id
 _symmetry_equiv_pos_as_xyz
  1  'x, y, z'
loop_
 _atom_site_type_symbol
 _atom_site_label
 _atom_site_symmetry_multiplicity
 _atom_site_fract_x
 _atom_site_fract_y
 _atom_site_fract_z
 _atom_site_occupancy
  Zr  Zr0  1  0.250000  0.518805  0.686233  1
  Zr  Zr1  1  0.750000  0.481195  0.313767  1
  Zr  Zr2  1  0.250000  0.017441  0.821751  1
  Zr  Zr3  1  0.750000  0.982559  0.178249  1
  Fe  Fe4  1  0.750000  0.361758  0.938715  1
  Fe  Fe5  1  0.250000  0.638242  0.061285  1
  Ni  Ni6  1  0.750000  0.859037  0.559596  1
  Ni  Ni7  1  0.250000  0.140963  0.440404  1
  P  P8  1  0.250000  0.281614  0.102338  1
  P  P9  1  0.750000  0.718386  0.897662  1
  P  P10  1  0.250000  0.770444  0.377227  1
  P  P11  1  0.750000  0.229556  0.622773  1
