# generated using pymatgen
data_LiTb3YbAl17Pd6
_symmetry_space_group_name_H-M   'P 1'
_cell_length_a   7.63773225
_cell_length_b   7.63054549
_cell_length_c   9.48843000
_cell_angle_alpha   90.00000000
_cell_angle_beta   90.00000000
_cell_angle_gamma   119.25868252
_symmetry_Int_Tables_number   1
_chemical_formula_structural   LiTb3YbAl17Pd6
_chemical_formula_sum   'Li1 Tb3 Yb1 Al17 Pd6'
_cell_volume   482.43738903
_cell_formula_units_Z   1
loop_
 _symmetry_equiv_pos_site_id
 _symmetry_equiv_pos_as_xyz
  1  'x, y, z'
loop_
 _atom_site_type_symbol
 _atom_site_label
 _atom_site_symmetry_multiplicity
 _atom_site_fract_x
 _atom_site_fract_y
 _atom_site_fract_z
 _atom_site_occupancy
  Li  Li0  1  0.128624  0.129649  0.250000  1
  Tb  Tb1  1  0.005969  0.330244  0.750000  1
  Tb  Tb2  1  0.665550  0.995458  0.250000  1
  Tb  Tb3  1  0.327748  0.004735  0.750000  1
  Yb  Yb4  1  0.995344  0.667363  0.250000  1
  Al  Al5  1  0.866676  0.867021  0.750000  1
  Al  Al6  1  0.002110  0.329255  0.082485  1
  Al  Al7  1  0.999500  0.664797  0.925107  1
  Al  Al8  1  0.999500  0.664797  0.574893  1
  Al  Al9  1  0.329152  0.001557  0.418885  1
  Al  Al10  1  0.002110  0.329255  0.417515  1
  Al  Al11  1  0.665110  0.000248  0.575572  1
  Al  Al12  1  0.665110  0.000248  0.924428  1
  Al  Al13  1  0.329152  0.001557  0.081115  1
  Al  Al14  1  0.334724  0.334656  0.545768  1
  Al  Al15  1  0.671335  0.671337  0.441449  1
  Al  Al16  1  0.671335  0.671337  0.058551  1
  Al  Al17  1  0.334724  0.334656  0.954232  1
  Al  Al18  1  0.342996  0.542766  0.250000  1
  Al  Al19  1  0.658869  0.452118  0.750000  1
  Al  Al20  1  0.540461  0.337798  0.250000  1
  Al  Al21  1  0.453673  0.658784  0.750000  1
  Pd  Pd22  1  0.675075  0.329517  0.999466  1
  Pd  Pd23  1  0.329475  0.674822  0.999187  1
  Pd  Pd24  1  0.329475  0.674822  0.500813  1
  Pd  Pd25  1  0.675075  0.329517  0.500534  1
  Pd  Pd26  1  0.000563  0.000842  0.992306  1
  Pd  Pd27  1  0.000563  0.000842  0.507694  1
