# generated using pymatgen
data_Ho8LuSc11Si15Os
_symmetry_space_group_name_H-M   'P 1'
_cell_length_a   7.08057361
_cell_length_b   7.44901466
_cell_length_c   13.96478006
_cell_angle_alpha   89.94062729
_cell_angle_beta   90.06433086
_cell_angle_gamma   90.26197040
_symmetry_Int_Tables_number   1
_chemical_formula_structural   Ho8LuSc11Si15Os
_chemical_formula_sum   'Ho8 Lu1 Sc11 Si15 Os1'
_cell_volume   736.53998223
_cell_formula_units_Z   1
loop_
 _symmetry_equiv_pos_site_id
 _symmetry_equiv_pos_as_xyz
  1  'x, y, z'
loop_
 _atom_site_type_symbol
 _atom_site_label
 _atom_site_symmetry_multiplicity
 _atom_site_fract_x
 _atom_site_fract_y
 _atom_site_fract_z
 _atom_site_occupancy
  Ho  Ho0  1  0.011800  0.179844  0.096031  1
  Ho  Ho1  1  0.989927  0.827583  0.905321  1
  Ho  Ho2  1  0.488461  0.676994  0.905698  1
  Ho  Ho3  1  0.989079  0.826188  0.596390  1
  Ho  Ho4  1  0.511540  0.322796  0.096059  1
  Ho  Ho5  1  0.012089  0.179441  0.403334  1
  Ho  Ho6  1  0.512523  0.322528  0.402069  1
  Ho  Ho7  1  0.488431  0.677602  0.595715  1
  Lu  Lu8  1  0.317530  0.172362  0.626351  1
  Sc  Sc9  1  0.155252  0.500464  0.751626  1
  Sc  Sc10  1  0.839232  0.495309  0.249728  1
  Sc  Sc11  1  0.340075  0.006149  0.249198  1
  Sc  Sc12  1  0.668783  0.995880  0.751083  1
  Sc  Sc13  1  0.673426  0.825451  0.372338  1
  Sc  Sc14  1  0.171890  0.677575  0.372671  1
  Sc  Sc15  1  0.672815  0.825960  0.126294  1
  Sc  Sc16  1  0.836562  0.318776  0.628422  1
  Sc  Sc17  1  0.315966  0.171679  0.873048  1
  Sc  Sc18  1  0.836914  0.318483  0.873091  1
  Sc  Sc19  1  0.171916  0.678114  0.125949  1
  Si  Si20  1  0.970286  0.886357  0.249316  1
  Si  Si21  1  0.470716  0.613001  0.249294  1
  Si  Si22  1  0.529352  0.392614  0.751900  1
  Si  Si23  1  0.284333  0.863385  0.751647  1
  Si  Si24  1  0.714434  0.131310  0.249510  1
  Si  Si25  1  0.214380  0.370331  0.249458  1
  Si  Si26  1  0.778433  0.627409  0.750966  1
  Si  Si27  1  0.155735  0.473740  0.536277  1
  Si  Si28  1  0.843270  0.536239  0.460989  1
  Si  Si29  1  0.346964  0.963617  0.456700  1
  Si  Si30  1  0.844066  0.535572  0.038867  1
  Si  Si31  1  0.660400  0.033239  0.536235  1
  Si  Si32  1  0.159947  0.468814  0.963449  1
  Si  Si33  1  0.654496  0.034125  0.962043  1
  Si  Si34  1  0.344603  0.966347  0.040330  1
  Os  Os35  1  0.024375  0.104724  0.752604  1
