# generated using pymatgen
data_HoLu2Ga2Co9B4
_symmetry_space_group_name_H-M   'P 1'
_cell_length_a   5.11231328
_cell_length_b   5.11510158
_cell_length_c   9.54937600
_cell_angle_alpha   89.99954597
_cell_angle_beta   90.00044425
_cell_angle_gamma   119.81728672
_symmetry_Int_Tables_number   1
_chemical_formula_structural   HoLu2Ga2Co9B4
_chemical_formula_sum   'Ho1 Lu2 Ga2 Co9 B4'
_cell_volume   216.65763756
_cell_formula_units_Z   1
loop_
 _symmetry_equiv_pos_site_id
 _symmetry_equiv_pos_as_xyz
  1  'x, y, z'
loop_
 _atom_site_type_symbol
 _atom_site_label
 _atom_site_symmetry_multiplicity
 _atom_site_fract_x
 _atom_site_fract_y
 _atom_site_fract_z
 _atom_site_occupancy
  Ho  Ho0  1  0.999988  0.999996  0.999759  1
  Lu  Lu1  1  0.999984  0.999980  0.339968  1
  Lu  Lu2  1  0.999986  0.000004  0.660228  1
  Ga  Ga3  1  0.333565  0.666392  0.000263  1
  Ga  Ga4  1  0.666421  0.333608  0.000260  1
  Co  Co5  1  0.499991  0.999994  0.500004  1
  Co  Co6  1  0.499993  0.500004  0.500000  1
  Co  Co7  1  0.999995  0.499998  0.500003  1
  Co  Co8  1  0.500000  0.000006  0.207971  1
  Co  Co9  1  0.499990  0.499997  0.207971  1
  Co  Co10  1  0.999989  0.500002  0.208000  1
  Co  Co11  1  0.500000  0.000012  0.791908  1
  Co  Co12  1  0.500006  0.499996  0.791940  1
  Co  Co13  1  0.999987  0.499997  0.791896  1
  B  B14  1  0.333366  0.666848  0.349456  1
  B  B15  1  0.666629  0.333159  0.349449  1
  B  B16  1  0.666617  0.333229  0.650466  1
  B  B17  1  0.333393  0.666779  0.650456  1
