# generated using pymatgen
data_NaLa2Si2(AsPd5)4
_symmetry_space_group_name_H-M   'P 1'
_cell_length_a   8.93250209
_cell_length_b   8.85678969
_cell_length_c   8.85678942
_cell_angle_alpha   60.56636086
_cell_angle_beta   59.71681590
_cell_angle_gamma   59.71681693
_symmetry_Int_Tables_number   1
_chemical_formula_structural   NaLa2Si2(AsPd5)4
_chemical_formula_sum   'Na1 La2 Si2 As4 Pd20'
_cell_volume   495.38942871
_cell_formula_units_Z   1
loop_
 _symmetry_equiv_pos_site_id
 _symmetry_equiv_pos_as_xyz
  1  'x, y, z'
loop_
 _atom_site_type_symbol
 _atom_site_label
 _atom_site_symmetry_multiplicity
 _atom_site_fract_x
 _atom_site_fract_y
 _atom_site_fract_z
 _atom_site_occupancy
  Na  Na0  1  0.000000  0.000000  0.000000  1
  La  La1  1  0.750000  0.750000  0.750000  1
  La  La2  1  0.250000  0.250000  0.250000  1
  Si  Si3  1  0.264755  0.735245  0.735245  1
  Si  Si4  1  0.735245  0.264755  0.264755  1
  As  As5  1  0.738243  0.738243  0.261757  1
  As  As6  1  0.261757  0.261757  0.738243  1
  As  As7  1  0.738243  0.261757  0.738243  1
  As  As8  1  0.261757  0.738243  0.261757  1
  Pd  Pd9  1  0.610234  0.617077  0.617077  1
  Pd  Pd10  1  0.389766  0.382923  0.382923  1
  Pd  Pd11  1  0.155610  0.617077  0.617077  1
  Pd  Pd12  1  0.617077  0.155610  0.610234  1
  Pd  Pd13  1  0.844390  0.382923  0.382923  1
  Pd  Pd14  1  0.382923  0.844390  0.389766  1
  Pd  Pd15  1  0.617077  0.610234  0.155610  1
  Pd  Pd16  1  0.382923  0.389766  0.844390  1
  Pd  Pd17  1  0.008262  0.991738  0.651690  1
  Pd  Pd18  1  0.991738  0.008262  0.348310  1
  Pd  Pd19  1  0.348310  0.651690  0.991738  1
  Pd  Pd20  1  0.651690  0.348310  0.008262  1
  Pd  Pd21  1  0.008262  0.651690  0.991738  1
  Pd  Pd22  1  0.651690  0.008262  0.348310  1
  Pd  Pd23  1  0.991738  0.348310  0.008262  1
  Pd  Pd24  1  0.348310  0.991738  0.651690  1
  Pd  Pd25  1  0.651034  0.000000  0.000000  1
  Pd  Pd26  1  0.348966  0.000000  0.000000  1
  Pd  Pd27  1  0.000000  0.651034  0.348966  1
  Pd  Pd28  1  0.000000  0.348966  0.651034  1
