# generated using pymatgen
data_Eu4Cu3AgSn4
_symmetry_space_group_name_H-M   'P 1'
_cell_length_a   4.69660100
_cell_length_b   7.60832691
_cell_length_c   7.93493400
_cell_angle_alpha   89.80313291
_cell_angle_beta   90.00000000
_cell_angle_gamma   90.00000000
_symmetry_Int_Tables_number   1
_chemical_formula_structural   Eu4Cu3AgSn4
_chemical_formula_sum   'Eu4 Cu3 Ag1 Sn4'
_cell_volume   283.53951120
_cell_formula_units_Z   1
loop_
 _symmetry_equiv_pos_site_id
 _symmetry_equiv_pos_as_xyz
  1  'x, y, z'
loop_
 _atom_site_type_symbol
 _atom_site_label
 _atom_site_symmetry_multiplicity
 _atom_site_fract_x
 _atom_site_fract_y
 _atom_site_fract_z
 _atom_site_occupancy
  Eu  Eu0  1  0.250000  0.492528  0.200359  1
  Eu  Eu1  1  0.750000  0.515730  0.797262  1
  Eu  Eu2  1  0.250000  0.991634  0.296769  1
  Eu  Eu3  1  0.750000  0.005558  0.706011  1
  Cu  Cu4  1  0.250000  0.184066  0.920075  1
  Cu  Cu5  1  0.750000  0.813597  0.081463  1
  Cu  Cu6  1  0.250000  0.684039  0.580609  1
  Ag  Ag7  1  0.750000  0.306096  0.415362  1
  Sn  Sn8  1  0.250000  0.307987  0.604317  1
  Sn  Sn9  1  0.750000  0.188578  0.079122  1
  Sn  Sn10  1  0.250000  0.807656  0.909644  1
  Sn  Sn11  1  0.750000  0.702530  0.409010  1
