# generated using pymatgen
data_La2Dy3Pt4
_symmetry_space_group_name_H-M   'P 1'
_cell_length_a   7.64571502
_cell_length_b   7.79535221
_cell_length_c   14.82148800
_cell_angle_alpha   89.80846619
_cell_angle_beta   89.90272989
_cell_angle_gamma   90.11450368
_symmetry_Int_Tables_number   1
_chemical_formula_structural   La2Dy3Pt4
_chemical_formula_sum   'La8 Dy12 Pt16'
_cell_volume   883.36813810
_cell_formula_units_Z   4
loop_
 _symmetry_equiv_pos_site_id
 _symmetry_equiv_pos_as_xyz
  1  'x, y, z'
loop_
 _atom_site_type_symbol
 _atom_site_label
 _atom_site_symmetry_multiplicity
 _atom_site_fract_x
 _atom_site_fract_y
 _atom_site_fract_z
 _atom_site_occupancy
  La  La0  1  0.996699  0.176347  0.597675  1
  La  La1  1  0.503421  0.676579  0.402490  1
  La  La2  1  0.003428  0.823877  0.097965  1
  La  La3  1  0.503745  0.676337  0.097685  1
  La  La4  1  0.003402  0.823539  0.402474  1
  La  La5  1  0.496625  0.323474  0.597665  1
  La  La6  1  0.996778  0.176044  0.902343  1
  La  La7  1  0.496656  0.323495  0.902025  1
  Dy  Dy8  1  0.338993  0.831994  0.877396  1
  Dy  Dy9  1  0.838727  0.667417  0.622966  1
  Dy  Dy10  1  0.661111  0.167373  0.377346  1
  Dy  Dy11  1  0.160693  0.332811  0.122689  1
  Dy  Dy12  1  0.661012  0.167896  0.122591  1
  Dy  Dy13  1  0.160976  0.332782  0.377266  1
  Dy  Dy14  1  0.339085  0.832408  0.622845  1
  Dy  Dy15  1  0.839334  0.667861  0.877457  1
  Dy  Dy16  1  0.174652  0.494527  0.749920  1
  Dy  Dy17  1  0.675125  0.004818  0.749915  1
  Dy  Dy18  1  0.824975  0.505326  0.250154  1
  Dy  Dy19  1  0.325177  0.995281  0.250043  1
  Pt  Pt20  1  0.323893  0.035109  0.044477  1
  Pt  Pt21  1  0.823857  0.465567  0.455504  1
  Pt  Pt22  1  0.675802  0.965540  0.544996  1
  Pt  Pt23  1  0.175552  0.533512  0.954651  1
  Pt  Pt24  1  0.675756  0.965914  0.954829  1
  Pt  Pt25  1  0.175628  0.534270  0.545019  1
  Pt  Pt26  1  0.324022  0.034509  0.455340  1
  Pt  Pt27  1  0.824626  0.465480  0.044497  1
  Pt  Pt28  1  0.542727  0.628331  0.750174  1
  Pt  Pt29  1  0.042911  0.871434  0.749924  1
  Pt  Pt30  1  0.457505  0.371874  0.249930  1
  Pt  Pt31  1  0.957469  0.128486  0.250187  1
  Pt  Pt32  1  0.306579  0.136540  0.749816  1
  Pt  Pt33  1  0.806195  0.363004  0.749966  1
  Pt  Pt34  1  0.693301  0.863048  0.249861  1
  Pt  Pt35  1  0.193562  0.637195  0.249916  1
