# generated using pymatgen
data_Sc12Re3Si12Os
_symmetry_space_group_name_H-M   'P 1'
_cell_length_a   3.91639500
_cell_length_b   10.51318104
_cell_length_c   11.81059667
_cell_angle_alpha   90.08074565
_cell_angle_beta   90.00000000
_cell_angle_gamma   90.00000000
_symmetry_Int_Tables_number   1
_chemical_formula_structural   Sc12Re3Si12Os
_chemical_formula_sum   'Sc12 Re3 Si12 Os1'
_cell_volume   486.28630408
_cell_formula_units_Z   1
loop_
 _symmetry_equiv_pos_site_id
 _symmetry_equiv_pos_as_xyz
  1  'x, y, z'
loop_
 _atom_site_type_symbol
 _atom_site_label
 _atom_site_symmetry_multiplicity
 _atom_site_fract_x
 _atom_site_fract_y
 _atom_site_fract_z
 _atom_site_occupancy
  Sc  Sc0  1  0.250000  0.876397  0.017233  1
  Sc  Sc1  1  0.250000  0.624517  0.517062  1
  Sc  Sc2  1  0.750000  0.123393  0.983672  1
  Sc  Sc3  1  0.750000  0.376712  0.484313  1
  Sc  Sc4  1  0.250000  0.924305  0.605751  1
  Sc  Sc5  1  0.250000  0.576090  0.106746  1
  Sc  Sc6  1  0.750000  0.076136  0.392287  1
  Sc  Sc7  1  0.750000  0.423558  0.891358  1
  Sc  Sc8  1  0.250000  0.662695  0.797775  1
  Sc  Sc9  1  0.250000  0.838397  0.298124  1
  Sc  Sc10  1  0.750000  0.339098  0.201984  1
  Sc  Sc11  1  0.750000  0.157702  0.702387  1
  Re  Re12  1  0.250000  0.386850  0.677423  1
  Re  Re13  1  0.250000  0.113739  0.175964  1
  Re  Re14  1  0.750000  0.614492  0.323480  1
  Si  Si15  1  0.250000  0.016355  0.822489  1
  Si  Si16  1  0.250000  0.478480  0.322450  1
  Si  Si17  1  0.750000  0.977906  0.177683  1
  Si  Si18  1  0.750000  0.523438  0.678085  1
  Si  Si19  1  0.250000  0.249426  0.845165  1
  Si  Si20  1  0.250000  0.248141  0.345952  1
  Si  Si21  1  0.750000  0.748052  0.153837  1
  Si  Si22  1  0.750000  0.754165  0.656154  1
  Si  Si23  1  0.250000  0.191481  0.544046  1
  Si  Si24  1  0.250000  0.308701  0.042924  1
  Si  Si25  1  0.750000  0.809297  0.456730  1
  Si  Si26  1  0.750000  0.693348  0.955111  1
  Os  Os27  1  0.750000  0.887132  0.823816  1
