# generated using pymatgen
data_Ho4Lu6In8CoPt3
_symmetry_space_group_name_H-M   'P 1'
_cell_length_a   3.58630100
_cell_length_b   8.02034653
_cell_length_c   17.95391013
_cell_angle_alpha   89.75583462
_cell_angle_beta   90.00000000
_cell_angle_gamma   90.00000000
_symmetry_Int_Tables_number   1
_chemical_formula_structural   Ho4Lu6In8CoPt3
_chemical_formula_sum   'Ho4 Lu6 In8 Co1 Pt3'
_cell_volume   516.41039282
_cell_formula_units_Z   1
loop_
 _symmetry_equiv_pos_site_id
 _symmetry_equiv_pos_as_xyz
  1  'x, y, z'
loop_
 _atom_site_type_symbol
 _atom_site_label
 _atom_site_symmetry_multiplicity
 _atom_site_fract_x
 _atom_site_fract_y
 _atom_site_fract_z
 _atom_site_occupancy
  Ho  Ho0  1  0.000000  0.258036  0.720722  1
  Ho  Ho1  1  0.000000  0.754825  0.279275  1
  Ho  Ho2  1  0.000000  0.000679  0.001386  1
  Ho  Ho3  1  0.000000  0.500853  0.498522  1
  Lu  Lu4  1  0.000000  0.111792  0.408025  1
  Lu  Lu5  1  0.000000  0.883596  0.584250  1
  Lu  Lu6  1  0.000000  0.384335  0.915054  1
  Lu  Lu7  1  0.000000  0.617059  0.088268  1
  Lu  Lu8  1  0.000000  0.232501  0.224886  1
  Lu  Lu9  1  0.000000  0.758569  0.778444  1
  In  In10  1  0.500000  0.419734  0.350831  1
  In  In11  1  0.500000  0.578250  0.647739  1
  In  In12  1  0.500000  0.076611  0.852095  1
  In  In13  1  0.500000  0.929692  0.152145  1
  In  In14  1  0.500000  0.293365  0.068578  1
  In  In15  1  0.500000  0.707855  0.934504  1
  In  In16  1  0.500000  0.205785  0.563966  1
  In  In17  1  0.500000  0.796799  0.429527  1
  Co  Co18  1  0.500000  0.019404  0.305259  1
  Pt  Pt19  1  0.500000  0.972895  0.694805  1
  Pt  Pt20  1  0.500000  0.479528  0.805507  1
  Pt  Pt21  1  0.500000  0.517833  0.196213  1
