# generated using pymatgen
data_Ho4Mg2CoCu3
_symmetry_space_group_name_H-M   'P 1'
_cell_length_a   7.51427475
_cell_length_b   7.51427475
_cell_length_c   3.68594600
_cell_angle_alpha   90.00000000
_cell_angle_beta   90.00000000
_cell_angle_gamma   90.66558342
_symmetry_Int_Tables_number   1
_chemical_formula_structural   Ho4Mg2CoCu3
_chemical_formula_sum   'Ho4 Mg2 Co1 Cu3'
_cell_volume   208.11041045
_cell_formula_units_Z   1
loop_
 _symmetry_equiv_pos_site_id
 _symmetry_equiv_pos_as_xyz
  1  'x, y, z'
loop_
 _atom_site_type_symbol
 _atom_site_label
 _atom_site_symmetry_multiplicity
 _atom_site_fract_x
 _atom_site_fract_y
 _atom_site_fract_z
 _atom_site_occupancy
  Ho  Ho0  1  0.669321  0.169321  0.500000  1
  Ho  Ho1  1  0.312031  0.812031  0.500000  1
  Ho  Ho2  1  0.177132  0.345355  0.500000  1
  Ho  Ho3  1  0.845355  0.677132  0.500000  1
  Mg  Mg4  1  0.002418  0.000522  0.000000  1
  Mg  Mg5  1  0.500522  0.502418  0.000000  1
  Co  Co6  1  0.117339  0.617339  0.000000  1
  Cu  Cu7  1  0.879636  0.379636  0.000000  1
  Cu  Cu8  1  0.619113  0.877132  0.000000  1
  Cu  Cu9  1  0.377132  0.119113  0.000000  1
