# generated using pymatgen
data_Sc12Fe2OsPb2
_symmetry_space_group_name_H-M   'P 1'
_cell_length_a   7.86853788
_cell_length_b   7.86853639
_cell_length_c   7.86853690
_cell_angle_alpha   108.42038890
_cell_angle_beta   108.42038320
_cell_angle_gamma   111.59396513
_symmetry_Int_Tables_number   1
_chemical_formula_structural   Sc12Fe2OsPb2
_chemical_formula_sum   'Sc12 Fe2 Os1 Pb2'
_cell_volume   374.63725619
_cell_formula_units_Z   1
loop_
 _symmetry_equiv_pos_site_id
 _symmetry_equiv_pos_as_xyz
  1  'x, y, z'
loop_
 _atom_site_type_symbol
 _atom_site_label
 _atom_site_symmetry_multiplicity
 _atom_site_fract_x
 _atom_site_fract_y
 _atom_site_fract_z
 _atom_site_occupancy
  Sc  Sc0  1  0.304830  0.304830  0.609659  1
  Sc  Sc1  1  0.695170  0.695170  0.390341  1
  Sc  Sc2  1  0.304830  0.695170  0.000000  1
  Sc  Sc3  1  0.695170  0.304830  0.000000  1
  Sc  Sc4  1  0.431386  0.197868  0.233520  1
  Sc  Sc5  1  0.568614  0.802132  0.766480  1
  Sc  Sc6  1  0.964348  0.197868  0.766480  1
  Sc  Sc7  1  0.197868  0.964348  0.766480  1
  Sc  Sc8  1  0.035652  0.802132  0.233520  1
  Sc  Sc9  1  0.802132  0.035652  0.233520  1
  Sc  Sc10  1  0.197868  0.431386  0.233520  1
  Sc  Sc11  1  0.802132  0.568614  0.766480  1
  Fe  Fe12  1  0.381905  0.381905  0.000000  1
  Fe  Fe13  1  0.618095  0.618095  0.000000  1
  Os  Os14  1  0.000000  0.000000  0.000000  1
  Pb  Pb15  1  0.500000  0.000000  0.500000  1
  Pb  Pb16  1  0.000000  0.500000  0.500000  1
