# generated using pymatgen
data_RbLaGdB18
_symmetry_space_group_name_H-M   'P 1'
_cell_length_a   4.16750300
_cell_length_b   4.16750300
_cell_length_c   12.55860300
_cell_angle_alpha   90.00000000
_cell_angle_beta   90.00000000
_cell_angle_gamma   90.00000000
_symmetry_Int_Tables_number   1
_chemical_formula_structural   RbLaGdB18
_chemical_formula_sum   'Rb1 La1 Gd1 B18'
_cell_volume   218.11883735
_cell_formula_units_Z   1
loop_
 _symmetry_equiv_pos_site_id
 _symmetry_equiv_pos_as_xyz
  1  'x, y, z'
loop_
 _atom_site_type_symbol
 _atom_site_label
 _atom_site_symmetry_multiplicity
 _atom_site_fract_x
 _atom_site_fract_y
 _atom_site_fract_z
 _atom_site_occupancy
  Rb  Rb0  1  0.000000  0.000000  0.665970  1
  La  La1  1  0.000000  0.000000  0.996340  1
  Gd  Gd2  1  0.000000  0.000000  0.340764  1
  B  B3  1  0.200190  0.500000  0.167757  1
  B  B4  1  0.201941  0.500000  0.494330  1
  B  B5  1  0.202351  0.500000  0.837461  1
  B  B6  1  0.500000  0.500000  0.265268  1
  B  B7  1  0.500000  0.500000  0.595301  1
  B  B8  1  0.500000  0.500000  0.935900  1
  B  B9  1  0.500000  0.200190  0.167757  1
  B  B10  1  0.500000  0.201941  0.494330  1
  B  B11  1  0.500000  0.202351  0.837461  1
  B  B12  1  0.500000  0.500000  0.069104  1
  B  B13  1  0.500000  0.500000  0.396575  1
  B  B14  1  0.500000  0.500000  0.736587  1
  B  B15  1  0.500000  0.799810  0.167757  1
  B  B16  1  0.500000  0.798059  0.494330  1
  B  B17  1  0.500000  0.797649  0.837461  1
  B  B18  1  0.799810  0.500000  0.167757  1
  B  B19  1  0.798059  0.500000  0.494330  1
  B  B20  1  0.797649  0.500000  0.837461  1
