# generated using pymatgen
data_SrDy5HoPtI12
_symmetry_space_group_name_H-M   'P 1'
_cell_length_a   9.81524728
_cell_length_b   9.80816191
_cell_length_c   9.81156960
_cell_angle_alpha   106.39183439
_cell_angle_beta   106.41531983
_cell_angle_gamma   106.39653714
_symmetry_Int_Tables_number   1
_chemical_formula_structural   SrDy5HoPtI12
_chemical_formula_sum   'Sr1 Dy5 Ho1 Pt1 I12'
_cell_volume   799.13528655
_cell_formula_units_Z   1
loop_
 _symmetry_equiv_pos_site_id
 _symmetry_equiv_pos_as_xyz
  1  'x, y, z'
loop_
 _atom_site_type_symbol
 _atom_site_label
 _atom_site_symmetry_multiplicity
 _atom_site_fract_x
 _atom_site_fract_y
 _atom_site_fract_z
 _atom_site_occupancy
  Sr  Sr0  1  0.999997  0.000011  0.999995  1
  Dy  Dy1  1  0.404259  0.477132  0.201450  1
  Dy  Dy2  1  0.201493  0.404512  0.477024  1
  Dy  Dy3  1  0.476928  0.201409  0.404273  1
  Dy  Dy4  1  0.595725  0.523233  0.798633  1
  Dy  Dy5  1  0.798569  0.595914  0.523115  1
  Ho  Ho6  1  0.523144  0.797555  0.595389  1
  Pt  Pt7  1  0.500010  0.500115  0.500041  1
  I  I8  1  0.048671  0.363380  0.128242  1
  I  I9  1  0.128272  0.048694  0.363382  1
  I  I10  1  0.363365  0.128280  0.048688  1
  I  I11  1  0.951311  0.636623  0.871737  1
  I  I12  1  0.871301  0.951327  0.636622  1
  I  I13  1  0.636437  0.871818  0.950785  1
  I  I14  1  0.722273  0.573902  0.176252  1
  I  I15  1  0.176730  0.722564  0.573984  1
  I  I16  1  0.573804  0.175817  0.722101  1
  I  I17  1  0.277722  0.426115  0.823743  1
  I  I18  1  0.823688  0.277735  0.426111  1
  I  I19  1  0.426300  0.823861  0.278433  1
