# generated using pymatgen
data_Nd5Dy11Cd4RuPt3
_symmetry_space_group_name_H-M   'P 1'
_cell_length_a   9.77470490
_cell_length_b   9.75389900
_cell_length_c   9.75389896
_cell_angle_alpha   59.93125632
_cell_angle_beta   59.84276876
_cell_angle_gamma   59.84276873
_symmetry_Int_Tables_number   1
_chemical_formula_structural   Nd5Dy11Cd4RuPt3
_chemical_formula_sum   'Nd5 Dy11 Cd4 Ru1 Pt3'
_cell_volume   655.66784097
_cell_formula_units_Z   1
loop_
 _symmetry_equiv_pos_site_id
 _symmetry_equiv_pos_as_xyz
  1  'x, y, z'
loop_
 _atom_site_type_symbol
 _atom_site_label
 _atom_site_symmetry_multiplicity
 _atom_site_fract_x
 _atom_site_fract_y
 _atom_site_fract_z
 _atom_site_occupancy
  Nd  Nd0  1  0.557071  0.940124  0.940124  1
  Nd  Nd1  1  0.565488  0.935400  0.563239  1
  Nd  Nd2  1  0.938511  0.559147  0.935093  1
  Nd  Nd3  1  0.565488  0.563239  0.935400  1
  Nd  Nd4  1  0.938511  0.935093  0.559147  1
  Dy  Dy5  1  0.352161  0.351535  0.351535  1
  Dy  Dy6  1  0.345989  0.350252  0.953403  1
  Dy  Dy7  1  0.345989  0.953403  0.350252  1
  Dy  Dy8  1  0.951649  0.348132  0.348132  1
  Dy  Dy9  1  0.817249  0.186538  0.186538  1
  Dy  Dy10  1  0.186292  0.811708  0.811708  1
  Dy  Dy11  1  0.186241  0.816148  0.188839  1
  Dy  Dy12  1  0.811476  0.186302  0.811262  1
  Dy  Dy13  1  0.186241  0.188839  0.816148  1
  Dy  Dy14  1  0.811476  0.811262  0.186302  1
  Dy  Dy15  1  0.941659  0.558352  0.558352  1
  Cd  Cd16  1  0.582752  0.578358  0.578358  1
  Cd  Cd17  1  0.579464  0.580596  0.259570  1
  Cd  Cd18  1  0.579464  0.259570  0.580596  1
  Cd  Cd19  1  0.257440  0.579164  0.579164  1
  Ru  Ru20  1  0.142693  0.142388  0.142388  1
  Pt  Pt21  1  0.142332  0.147170  0.573188  1
  Pt  Pt22  1  0.142332  0.573188  0.147170  1
  Pt  Pt23  1  0.572031  0.144090  0.144090  1
