# generated using pymatgen
data_Dy9Th7(CdTc)4
_symmetry_space_group_name_H-M   'P 1'
_cell_length_a   9.75068874
_cell_length_b   9.73029650
_cell_length_c   9.83288162
_cell_angle_alpha   59.54154246
_cell_angle_beta   60.22904418
_cell_angle_gamma   60.61887915
_symmetry_Int_Tables_number   1
_chemical_formula_structural   Dy9Th7(CdTc)4
_chemical_formula_sum   'Dy9 Th7 Cd4 Tc4'
_cell_volume   661.49162268
_cell_formula_units_Z   1
loop_
 _symmetry_equiv_pos_site_id
 _symmetry_equiv_pos_as_xyz
  1  'x, y, z'
loop_
 _atom_site_type_symbol
 _atom_site_label
 _atom_site_symmetry_multiplicity
 _atom_site_fract_x
 _atom_site_fract_y
 _atom_site_fract_z
 _atom_site_occupancy
  Dy  Dy0  1  0.058600  0.440051  0.058864  1
  Dy  Dy1  1  0.441493  0.445002  0.054531  1
  Dy  Dy2  1  0.053751  0.058880  0.439680  1
  Dy  Dy3  1  0.185236  0.815030  0.815221  1
  Dy  Dy4  1  0.814391  0.185962  0.185516  1
  Dy  Dy5  1  0.812355  0.186972  0.815006  1
  Dy  Dy6  1  0.187305  0.811504  0.188826  1
  Dy  Dy7  1  0.810932  0.809835  0.189326  1
  Dy  Dy8  1  0.188608  0.190670  0.810787  1
  Th  Th9  1  0.596083  0.594461  0.600839  1
  Th  Th10  1  0.599442  0.594362  0.207146  1
  Th  Th11  1  0.602415  0.206055  0.595865  1
  Th  Th12  1  0.207796  0.599227  0.598606  1
  Th  Th13  1  0.061432  0.438248  0.435183  1
  Th  Th14  1  0.432391  0.066793  0.062166  1
  Th  Th15  1  0.437046  0.063333  0.436647  1
  Cd  Cd16  1  0.834601  0.830534  0.830757  1
  Cd  Cd17  1  0.832377  0.831917  0.503544  1
  Cd  Cd18  1  0.830183  0.504953  0.833340  1
  Cd  Cd19  1  0.504236  0.829222  0.833180  1
  Tc  Tc20  1  0.382274  0.381513  0.400404  1
  Tc  Tc21  1  0.397663  0.375793  0.826726  1
  Tc  Tc22  1  0.402040  0.837200  0.381297  1
  Tc  Tc23  1  0.827353  0.402485  0.396546  1
