# generated using pymatgen
data_Ce5FeB6Mo
_symmetry_space_group_name_H-M   'P 1'
_cell_length_a   5.42888924
_cell_length_b   5.42889069
_cell_length_c   8.42479624
_cell_angle_alpha   71.20413449
_cell_angle_beta   71.20416132
_cell_angle_gamma   59.99999391
_symmetry_Int_Tables_number   1
_chemical_formula_structural   Ce5FeB6Mo
_chemical_formula_sum   'Ce5 Fe1 B6 Mo1'
_cell_volume   199.60032147
_cell_formula_units_Z   1
loop_
 _symmetry_equiv_pos_site_id
 _symmetry_equiv_pos_as_xyz
  1  'x, y, z'
loop_
 _atom_site_type_symbol
 _atom_site_label
 _atom_site_symmetry_multiplicity
 _atom_site_fract_x
 _atom_site_fract_y
 _atom_site_fract_z
 _atom_site_occupancy
  Ce  Ce0  1  0.002839  0.002839  0.991483  1
  Ce  Ce1  1  0.746714  0.746714  0.759858  1
  Ce  Ce2  1  0.253279  0.253279  0.240163  1
  Ce  Ce3  1  0.585782  0.585782  0.242654  1
  Ce  Ce4  1  0.412680  0.412680  0.761962  1
  Fe  Fe5  1  0.113149  0.113149  0.660553  1
  B  B6  1  0.495579  0.168834  0.503746  1
  B  B7  1  0.831840  0.495579  0.503746  1
  B  B8  1  0.168834  0.831840  0.503746  1
  B  B9  1  0.168834  0.495579  0.503746  1
  B  B10  1  0.831840  0.168834  0.503746  1
  B  B11  1  0.495579  0.831840  0.503746  1
  Mo  Mo12  1  0.893049  0.893049  0.320854  1
