# generated using pymatgen
data_Ac3Al2Ga2Cl
_symmetry_space_group_name_H-M   'P 1'
_cell_length_a   8.47672345
_cell_length_b   8.45167341
_cell_length_c   8.51663313
_cell_angle_alpha   119.60679300
_cell_angle_beta   119.79224566
_cell_angle_gamma   90.33518292
_symmetry_Int_Tables_number   1
_chemical_formula_structural   Ac3Al2Ga2Cl
_chemical_formula_sum   'Ac6 Al4 Ga4 Cl2'
_cell_volume   434.08720135
_cell_formula_units_Z   2
loop_
 _symmetry_equiv_pos_site_id
 _symmetry_equiv_pos_as_xyz
  1  'x, y, z'
loop_
 _atom_site_type_symbol
 _atom_site_label
 _atom_site_symmetry_multiplicity
 _atom_site_fract_x
 _atom_site_fract_y
 _atom_site_fract_z
 _atom_site_occupancy
  Ac  Ac0  1  0.840181  0.662595  0.500732  1
  Ac  Ac1  1  0.662311  0.161618  0.820507  1
  Ac  Ac2  1  0.339353  0.838617  0.177143  1
  Ac  Ac3  1  0.160437  0.340555  0.500672  1
  Ac  Ac4  1  0.246415  0.250358  0.997029  1
  Ac  Ac5  1  0.751378  0.749677  0.001336  1
  Al  Al6  1  0.162853  0.932034  0.500776  1
  Al  Al7  1  0.432812  0.660641  0.500706  1
  Al  Al8  1  0.560951  0.346893  0.500258  1
  Al  Al9  1  0.657728  0.157077  0.218216  1
  Ga  Ga10  1  0.842874  0.057764  0.498965  1
  Ga  Ga11  1  0.053516  0.553319  0.210231  1
  Ga  Ga12  1  0.347226  0.847028  0.794405  1
  Ga  Ga13  1  0.941150  0.441846  0.778368  1
  Cl  Cl14  1  0.000483  0.999547  0.999925  1
  Cl  Cl15  1  0.500332  0.500432  0.000730  1
