# generated using pymatgen
data_TmSc19Bi12
_symmetry_space_group_name_H-M   'P 1'
_cell_length_a   7.80292208
_cell_length_b   9.00402700
_cell_length_c   11.42180411
_cell_angle_alpha   90.00000000
_cell_angle_beta   89.98390207
_cell_angle_gamma   90.00000000
_symmetry_Int_Tables_number   1
_chemical_formula_structural   TmSc19Bi12
_chemical_formula_sum   'Tm1 Sc19 Bi12'
_cell_volume   802.46989568
_cell_formula_units_Z   1
loop_
 _symmetry_equiv_pos_site_id
 _symmetry_equiv_pos_as_xyz
  1  'x, y, z'
loop_
 _atom_site_type_symbol
 _atom_site_label
 _atom_site_symmetry_multiplicity
 _atom_site_fract_x
 _atom_site_fract_y
 _atom_site_fract_z
 _atom_site_occupancy
  Tm  Tm0  1  0.685931  0.250000  0.719315  1
  Sc  Sc1  1  0.022002  0.250000  0.510917  1
  Sc  Sc2  1  0.977582  0.750000  0.487567  1
  Sc  Sc3  1  0.476770  0.750000  0.012059  1
  Sc  Sc4  1  0.522155  0.250000  0.989736  1
  Sc  Sc5  1  0.353410  0.250000  0.280335  1
  Sc  Sc6  1  0.646219  0.750000  0.718216  1
  Sc  Sc7  1  0.147629  0.750000  0.782424  1
  Sc  Sc8  1  0.853639  0.250000  0.218697  1
  Sc  Sc9  1  0.186988  0.250000  0.781508  1
  Sc  Sc10  1  0.812827  0.750000  0.218763  1
  Sc  Sc11  1  0.313028  0.750000  0.281317  1
  Sc  Sc12  1  0.195726  0.066803  0.061048  1
  Sc  Sc13  1  0.804381  0.932437  0.939812  1
  Sc  Sc14  1  0.305514  0.932388  0.560550  1
  Sc  Sc15  1  0.804381  0.567563  0.939812  1
  Sc  Sc16  1  0.695137  0.067208  0.438662  1
  Sc  Sc17  1  0.195726  0.433197  0.061048  1
  Sc  Sc18  1  0.695137  0.432792  0.438662  1
  Sc  Sc19  1  0.305514  0.567612  0.560550  1
  Bi  Bi20  1  0.403111  0.250000  0.536873  1
  Bi  Bi21  1  0.592524  0.750000  0.459524  1
  Bi  Bi22  1  0.091967  0.750000  0.040656  1
  Bi  Bi23  1  0.908991  0.250000  0.961390  1
  Bi  Bi24  1  0.066765  0.003960  0.325732  1
  Bi  Bi25  1  0.937172  0.992556  0.673275  1
  Bi  Bi26  1  0.430825  0.994109  0.827332  1
  Bi  Bi27  1  0.937172  0.507444  0.673275  1
  Bi  Bi28  1  0.567093  0.004063  0.173941  1
  Bi  Bi29  1  0.066765  0.496040  0.325732  1
  Bi  Bi30  1  0.567093  0.495937  0.173941  1
  Bi  Bi31  1  0.430825  0.505891  0.827332  1
