# generated using pymatgen
data_YbDy2NpNi14
_symmetry_space_group_name_H-M   'P 1'
_cell_length_a   4.92194636
_cell_length_b   4.92194506
_cell_length_c   12.26010652
_cell_angle_alpha   78.42032906
_cell_angle_beta   78.42033319
_cell_angle_gamma   59.99999275
_symmetry_Int_Tables_number   1
_chemical_formula_structural   YbDy2NpNi14
_chemical_formula_sum   'Yb1 Dy2 Np1 Ni14'
_cell_volume   250.21163421
_cell_formula_units_Z   1
loop_
 _symmetry_equiv_pos_site_id
 _symmetry_equiv_pos_as_xyz
  1  'x, y, z'
loop_
 _atom_site_type_symbol
 _atom_site_label
 _atom_site_symmetry_multiplicity
 _atom_site_fract_x
 _atom_site_fract_y
 _atom_site_fract_z
 _atom_site_occupancy
  Yb  Yb0  1  0.147210  0.147210  0.558371  1
  Dy  Dy1  1  0.949224  0.949224  0.152329  1
  Dy  Dy2  1  0.051897  0.051897  0.844306  1
  Np  Np3  1  0.850977  0.850977  0.447068  1
  Ni  Ni4  1  0.499730  0.499730  0.500809  1
  Ni  Ni5  1  0.722401  0.722401  0.832796  1
  Ni  Ni6  1  0.278021  0.278021  0.165939  1
  Ni  Ni7  1  0.611377  0.611377  0.165870  1
  Ni  Ni8  1  0.388849  0.388849  0.833453  1
  Ni  Ni9  1  0.999869  0.500336  0.999458  1
  Ni  Ni10  1  0.500336  0.999869  0.999458  1
  Ni  Ni11  1  0.500336  0.500336  0.999458  1
  Ni  Ni12  1  0.388075  0.388075  0.332519  1
  Ni  Ni13  1  0.891331  0.388075  0.332519  1
  Ni  Ni14  1  0.388075  0.891331  0.332519  1
  Ni  Ni15  1  0.611918  0.611918  0.667709  1
  Ni  Ni16  1  0.108454  0.611918  0.667709  1
  Ni  Ni17  1  0.611918  0.108454  0.667709  1
