# generated using pymatgen
data_Ba6InNi4O15
_symmetry_space_group_name_H-M   'P 1'
_cell_length_a   7.25390877
_cell_length_b   7.30857442
_cell_length_c   7.25919887
_cell_angle_alpha   87.65094896
_cell_angle_beta   88.20024241
_cell_angle_gamma   88.15674225
_symmetry_Int_Tables_number   1
_chemical_formula_structural   Ba6InNi4O15
_chemical_formula_sum   'Ba6 In1 Ni4 O15'
_cell_volume   384.15489197
_cell_formula_units_Z   1
loop_
 _symmetry_equiv_pos_site_id
 _symmetry_equiv_pos_as_xyz
  1  'x, y, z'
loop_
 _atom_site_type_symbol
 _atom_site_label
 _atom_site_symmetry_multiplicity
 _atom_site_fract_x
 _atom_site_fract_y
 _atom_site_fract_z
 _atom_site_occupancy
  Ba  Ba0  1  0.332810  0.667959  0.010468  1
  Ba  Ba1  1  0.006161  0.340652  0.661176  1
  Ba  Ba2  1  0.661079  0.001708  0.333751  1
  Ba  Ba3  1  0.146451  0.864869  0.502056  1
  Ba  Ba4  1  0.501048  0.143653  0.858737  1
  Ba  Ba5  1  0.861200  0.498344  0.146074  1
  In  In6  1  0.492564  0.503786  0.499625  1
  Ni  Ni7  1  0.288583  0.285773  0.285915  1
  Ni  Ni8  1  0.712059  0.713657  0.713720  1
  Ni  Ni9  1  0.096581  0.089219  0.092053  1
  Ni  Ni10  1  0.904131  0.905412  0.904419  1
  O  O11  1  0.139911  0.998993  0.854892  1
  O  O12  1  0.856889  0.141013  0.997073  1
  O  O13  1  0.995690  0.856136  0.140667  1
  O  O14  1  0.037521  0.188277  0.324993  1
  O  O15  1  0.330251  0.010747  0.180203  1
  O  O16  1  0.194687  0.322172  0.031795  1
  O  O17  1  0.804603  0.960375  0.670825  1
  O  O18  1  0.672510  0.804655  0.960936  1
  O  O19  1  0.960986  0.672496  0.807778  1
  O  O20  1  0.371073  0.225679  0.531834  1
  O  O21  1  0.534150  0.369348  0.228538  1
  O  O22  1  0.224559  0.547593  0.378820  1
  O  O23  1  0.767909  0.635330  0.473416  1
  O  O24  1  0.474362  0.776667  0.637745  1
  O  O25  1  0.632229  0.475490  0.772493  1
