# generated using pymatgen
data_ScMnCo4P3
_symmetry_space_group_name_H-M   'P 1'
_cell_length_a   3.58342100
_cell_length_b   10.18739200
_cell_length_c   11.65191900
_cell_angle_alpha   90.00000000
_cell_angle_beta   90.00000000
_cell_angle_gamma   90.00000000
_symmetry_Int_Tables_number   1
_chemical_formula_structural   ScMnCo4P3
_chemical_formula_sum   'Sc4 Mn4 Co16 P12'
_cell_volume   425.36162755
_cell_formula_units_Z   4
loop_
 _symmetry_equiv_pos_site_id
 _symmetry_equiv_pos_as_xyz
  1  'x, y, z'
loop_
 _atom_site_type_symbol
 _atom_site_label
 _atom_site_symmetry_multiplicity
 _atom_site_fract_x
 _atom_site_fract_y
 _atom_site_fract_z
 _atom_site_occupancy
  Sc  Sc0  1  0.250000  0.581488  0.704947  1
  Sc  Sc1  1  0.250000  0.918512  0.204947  1
  Sc  Sc2  1  0.750000  0.418512  0.295053  1
  Sc  Sc3  1  0.750000  0.081488  0.795053  1
  Mn  Mn4  1  0.250000  0.713139  0.989040  1
  Mn  Mn5  1  0.250000  0.786861  0.489040  1
  Mn  Mn6  1  0.750000  0.286861  0.010960  1
  Mn  Mn7  1  0.750000  0.213139  0.510960  1
  Co  Co8  1  0.250000  0.407574  0.485516  1
  Co  Co9  1  0.250000  0.092426  0.985516  1
  Co  Co10  1  0.750000  0.592426  0.514484  1
  Co  Co11  1  0.750000  0.907574  0.014484  1
  Co  Co12  1  0.250000  0.220811  0.177046  1
  Co  Co13  1  0.250000  0.279190  0.677046  1
  Co  Co14  1  0.750000  0.779190  0.822954  1
  Co  Co15  1  0.750000  0.720810  0.322954  1
  Co  Co16  1  0.250000  0.884514  0.699758  1
  Co  Co17  1  0.250000  0.615486  0.199758  1
  Co  Co18  1  0.750000  0.115486  0.300242  1
  Co  Co19  1  0.750000  0.384514  0.800242  1
  Co  Co20  1  0.250000  0.465373  0.931350  1
  Co  Co21  1  0.250000  0.034627  0.431350  1
  Co  Co22  1  0.750000  0.534627  0.068650  1
  Co  Co23  1  0.750000  0.965373  0.568650  1
  P  P24  1  0.250000  0.418396  0.115059  1
  P  P25  1  0.250000  0.081604  0.615059  1
  P  P26  1  0.750000  0.581604  0.884941  1
  P  P27  1  0.750000  0.918396  0.384941  1
  P  P28  1  0.250000  0.264999  0.867349  1
  P  P29  1  0.250000  0.235001  0.367349  1
  P  P30  1  0.750000  0.735001  0.132651  1
  P  P31  1  0.750000  0.764999  0.632651  1
  P  P32  1  0.250000  0.597166  0.389448  1
  P  P33  1  0.250000  0.902834  0.889448  1
  P  P34  1  0.750000  0.402834  0.610552  1
  P  P35  1  0.750000  0.097166  0.110552  1
