# generated using pymatgen
data_Ba7Ca4In(TcN4)4
_symmetry_space_group_name_H-M   'P 1'
_cell_length_a   10.80038089
_cell_length_b   10.51547028
_cell_length_c   8.07186275
_cell_angle_alpha   70.95274513
_cell_angle_beta   65.88841126
_cell_angle_gamma   44.47871665
_symmetry_Int_Tables_number   1
_chemical_formula_structural   Ba7Ca4In(TcN4)4
_chemical_formula_sum   'Ba7 Ca4 In1 Tc4 N16'
_cell_volume   585.38990095
_cell_formula_units_Z   1
loop_
 _symmetry_equiv_pos_site_id
 _symmetry_equiv_pos_as_xyz
  1  'x, y, z'
loop_
 _atom_site_type_symbol
 _atom_site_label
 _atom_site_symmetry_multiplicity
 _atom_site_fract_x
 _atom_site_fract_y
 _atom_site_fract_z
 _atom_site_occupancy
  Ba  Ba0  1  0.922546  0.577454  0.577454  1
  Ba  Ba1  1  0.319489  0.680511  0.680511  1
  Ba  Ba2  1  0.125598  0.106319  0.890892  1
  Ba  Ba3  1  0.140371  0.131594  0.362387  1
  Ba  Ba4  1  0.365647  0.362387  0.131594  1
  Ba  Ba5  1  0.679206  0.320794  0.320794  1
  Ba  Ba6  1  0.877192  0.890892  0.106319  1
  Ca  Ca7  1  0.353321  0.318491  0.664565  1
  Ca  Ca8  1  0.873326  0.929417  0.617951  1
  Ca  Ca9  1  0.663624  0.664565  0.318491  1
  Ca  Ca10  1  0.579306  0.617951  0.929417  1
  In  In11  1  0.540189  0.959811  0.959811  1
  Tc  Tc12  1  0.489176  0.006769  0.482476  1
  Tc  Tc13  1  0.021579  0.482476  0.006769  1
  Tc  Tc14  1  0.759093  0.257054  0.750029  1
  Tc  Tc15  1  0.233824  0.750029  0.257054  1
  N  N16  1  0.041425  0.627316  0.818411  1
  N  N17  1  0.695362  0.305124  0.985701  1
  N  N18  1  0.652997  0.018295  0.479404  1
  N  N19  1  0.512848  0.818411  0.627316  1
  N  N20  1  0.239044  0.575644  0.414783  1
  N  N21  1  0.770531  0.414783  0.575644  1
  N  N22  1  0.986926  0.022346  0.709288  1
  N  N23  1  0.535667  0.974259  0.242495  1
  N  N24  1  0.417471  0.723958  0.270216  1
  N  N25  1  0.974469  0.551673  0.224574  1
  N  N26  1  0.281441  0.709288  0.022346  1
  N  N27  1  0.849304  0.479404  0.018295  1
  N  N28  1  0.247578  0.242495  0.974259  1
  N  N29  1  0.588356  0.270216  0.723958  1
  N  N30  1  0.249282  0.224574  0.551673  1
  N  N31  1  0.013813  0.985701  0.305124  1
