# generated using pymatgen
data_Eu4CdSb3O14
_symmetry_space_group_name_H-M   'P 1'
_cell_length_a   7.57783488
_cell_length_b   7.57783430
_cell_length_c   7.57783464
_cell_angle_alpha   60.68152215
_cell_angle_beta   60.68153319
_cell_angle_gamma   60.68153315
_symmetry_Int_Tables_number   1
_chemical_formula_structural   Eu4CdSb3O14
_chemical_formula_sum   'Eu4 Cd1 Sb3 O14'
_cell_volume   312.42856689
_cell_formula_units_Z   1
loop_
 _symmetry_equiv_pos_site_id
 _symmetry_equiv_pos_as_xyz
  1  'x, y, z'
loop_
 _atom_site_type_symbol
 _atom_site_label
 _atom_site_symmetry_multiplicity
 _atom_site_fract_x
 _atom_site_fract_y
 _atom_site_fract_z
 _atom_site_occupancy
  Eu  Eu0  1  0.500000  0.000000  0.500000  1
  Eu  Eu1  1  0.000000  0.500000  0.500000  1
  Eu  Eu2  1  0.500000  0.500000  0.000000  1
  Eu  Eu3  1  0.500000  0.500000  0.500000  1
  Cd  Cd4  1  0.000000  0.000000  0.000000  1
  Sb  Sb5  1  0.000000  0.000000  0.500000  1
  Sb  Sb6  1  0.500000  0.000000  0.000000  1
  Sb  Sb7  1  0.000000  0.500000  0.000000  1
  O  O8  1  0.096377  0.096377  0.628157  1
  O  O9  1  0.903623  0.903623  0.371843  1
  O  O10  1  0.371843  0.903623  0.903623  1
  O  O11  1  0.628157  0.096377  0.096377  1
  O  O12  1  0.909151  0.316438  0.316438  1
  O  O13  1  0.090849  0.683562  0.683562  1
  O  O14  1  0.683562  0.683562  0.090849  1
  O  O15  1  0.316438  0.316438  0.909151  1
  O  O16  1  0.377626  0.377626  0.377626  1
  O  O17  1  0.622374  0.622374  0.622374  1
  O  O18  1  0.903623  0.371843  0.903623  1
  O  O19  1  0.096377  0.628157  0.096377  1
  O  O20  1  0.683562  0.090849  0.683562  1
  O  O21  1  0.316438  0.909151  0.316438  1
