# generated using pymatgen
data_LiTi2AlIr4
_symmetry_space_group_name_H-M   'P 1'
_cell_length_a   4.32093200
_cell_length_b   6.05265800
_cell_length_c   12.93550400
_cell_angle_alpha   90.00000000
_cell_angle_beta   89.99981859
_cell_angle_gamma   90.00000000
_symmetry_Int_Tables_number   1
_chemical_formula_structural   LiTi2AlIr4
_chemical_formula_sum   'Li3 Ti6 Al3 Ir12'
_cell_volume   338.30383542
_cell_formula_units_Z   3
loop_
 _symmetry_equiv_pos_site_id
 _symmetry_equiv_pos_as_xyz
  1  'x, y, z'
loop_
 _atom_site_type_symbol
 _atom_site_label
 _atom_site_symmetry_multiplicity
 _atom_site_fract_x
 _atom_site_fract_y
 _atom_site_fract_z
 _atom_site_occupancy
  Li  Li0  1  0.499991  0.000000  0.501181  1
  Li  Li1  1  0.000181  0.500000  0.666671  1
  Li  Li2  1  0.500118  0.000000  0.832144  1
  Ti  Ti3  1  0.999994  0.000000  0.992659  1
  Ti  Ti4  1  0.499875  0.500000  0.166665  1
  Ti  Ti5  1  0.999862  0.000000  0.340682  1
  Ti  Ti6  1  0.499993  0.500000  0.507293  1
  Ti  Ti7  1  0.000141  0.000000  0.666665  1
  Ti  Ti8  1  0.500131  0.500000  0.826040  1
  Al  Al9  1  0.999987  0.500000  0.996933  1
  Al  Al10  1  0.499879  0.000000  0.166671  1
  Al  Al11  1  0.999858  0.500000  0.336397  1
  Ir  Ir12  1  0.499990  0.249771  0.000812  1
  Ir  Ir13  1  0.499990  0.750230  0.000812  1
  Ir  Ir14  1  0.999877  0.249643  0.166667  1
  Ir  Ir15  1  0.999877  0.750357  0.166667  1
  Ir  Ir16  1  0.499868  0.249775  0.332519  1
  Ir  Ir17  1  0.499868  0.750225  0.332519  1
  Ir  Ir18  1  0.999997  0.249892  0.500327  1
  Ir  Ir19  1  0.999997  0.750108  0.500327  1
  Ir  Ir20  1  0.500139  0.248233  0.666668  1
  Ir  Ir21  1  0.500139  0.751767  0.666668  1
  Ir  Ir22  1  0.000124  0.249890  0.833008  1
  Ir  Ir23  1  0.000124  0.750110  0.833008  1
