# generated using pymatgen
data_YTm2Cd3Si2Au
_symmetry_space_group_name_H-M   'P 1'
_cell_length_a   7.23062333
_cell_length_b   7.23062413
_cell_length_c   4.30585800
_cell_angle_alpha   90.00000000
_cell_angle_beta   90.00000000
_cell_angle_gamma   120.03438874
_symmetry_Int_Tables_number   1
_chemical_formula_structural   YTm2Cd3Si2Au
_chemical_formula_sum   'Y1 Tm2 Cd3 Si2 Au1'
_cell_volume   194.89076545
_cell_formula_units_Z   1
loop_
 _symmetry_equiv_pos_site_id
 _symmetry_equiv_pos_as_xyz
  1  'x, y, z'
loop_
 _atom_site_type_symbol
 _atom_site_label
 _atom_site_symmetry_multiplicity
 _atom_site_fract_x
 _atom_site_fract_y
 _atom_site_fract_z
 _atom_site_occupancy
  Y  Y0  1  0.417268  0.417268  0.000000  1
  Tm  Tm1  1  0.583835  0.000402  0.000000  1
  Tm  Tm2  1  0.000402  0.583835  0.000000  1
  Cd  Cd3  1  0.256297  0.999477  0.500000  1
  Cd  Cd4  1  0.999477  0.256297  0.500000  1
  Cd  Cd5  1  0.744245  0.744245  0.500000  1
  Si  Si6  1  0.332678  0.667822  0.500000  1
  Si  Si7  1  0.667822  0.332678  0.500000  1
  Au  Au8  1  0.997977  0.997977  0.000000  1
