# generated using pymatgen
data_Ho8Sc12Ga11Si5
_symmetry_space_group_name_H-M   'P 1'
_cell_length_a   7.16934848
_cell_length_b   7.52560008
_cell_length_c   14.30456415
_cell_angle_alpha   89.96982250
_cell_angle_beta   90.10295478
_cell_angle_gamma   90.19067283
_symmetry_Int_Tables_number   1
_chemical_formula_structural   Ho8Sc12Ga11Si5
_chemical_formula_sum   'Ho8 Sc12 Ga11 Si5'
_cell_volume   771.77781657
_cell_formula_units_Z   1
loop_
 _symmetry_equiv_pos_site_id
 _symmetry_equiv_pos_as_xyz
  1  'x, y, z'
loop_
 _atom_site_type_symbol
 _atom_site_label
 _atom_site_symmetry_multiplicity
 _atom_site_fract_x
 _atom_site_fract_y
 _atom_site_fract_z
 _atom_site_occupancy
  Ho  Ho0  1  0.013964  0.178293  0.405534  1
  Ho  Ho1  1  0.512550  0.322525  0.406130  1
  Ho  Ho2  1  0.489351  0.678987  0.905310  1
  Ho  Ho3  1  0.488969  0.680173  0.593272  1
  Ho  Ho4  1  0.988054  0.819357  0.593443  1
  Ho  Ho5  1  0.986039  0.823052  0.905361  1
  Ho  Ho6  1  0.510317  0.321475  0.094615  1
  Ho  Ho7  1  0.011039  0.179656  0.094966  1
  Sc  Sc8  1  0.327589  0.171743  0.621231  1
  Sc  Sc9  1  0.672007  0.824011  0.378488  1
  Sc  Sc10  1  0.664991  0.991808  0.751470  1
  Sc  Sc11  1  0.173840  0.674702  0.377722  1
  Sc  Sc12  1  0.824239  0.326075  0.877441  1
  Sc  Sc13  1  0.826242  0.329071  0.621990  1
  Sc  Sc14  1  0.838743  0.493748  0.251704  1
  Sc  Sc15  1  0.336016  0.007468  0.251889  1
  Sc  Sc16  1  0.330517  0.173986  0.876804  1
  Sc  Sc17  1  0.172112  0.671044  0.123542  1
  Sc  Sc18  1  0.671791  0.827247  0.122270  1
  Sc  Sc19  1  0.160371  0.505995  0.750529  1
  Ga  Ga20  1  0.284503  0.873048  0.749283  1
  Ga  Ga21  1  0.468704  0.614443  0.251064  1
  Ga  Ga22  1  0.030558  0.119188  0.748925  1
  Ga  Ga23  1  0.530404  0.386767  0.748663  1
  Ga  Ga24  1  0.159723  0.464850  0.540679  1
  Ga  Ga25  1  0.968697  0.881615  0.250248  1
  Ga  Ga26  1  0.715251  0.127206  0.250851  1
  Ga  Ga27  1  0.839266  0.535301  0.041382  1
  Ga  Ga28  1  0.338918  0.963669  0.041184  1
  Ga  Ga29  1  0.159885  0.463845  0.958078  1
  Ga  Ga30  1  0.661288  0.036082  0.540742  1
  Si  Si31  1  0.342089  0.965489  0.458071  1
  Si  Si32  1  0.843917  0.533429  0.457816  1
  Si  Si33  1  0.783171  0.624565  0.749275  1
  Si  Si34  1  0.217386  0.375623  0.251021  1
  Si  Si35  1  0.657501  0.034467  0.959002  1
