# generated using pymatgen
data_Sr3Ca(CdSb2)2
_symmetry_space_group_name_H-M   'P 1'
_cell_length_a   4.76820100
_cell_length_b   7.53010700
_cell_length_c   18.41260600
_cell_angle_alpha   90.00000000
_cell_angle_beta   90.00000000
_cell_angle_gamma   90.00000000
_symmetry_Int_Tables_number   1
_chemical_formula_structural   Sr3Ca(CdSb2)2
_chemical_formula_sum   'Sr6 Ca2 Cd4 Sb8'
_cell_volume   661.10579182
_cell_formula_units_Z   2
loop_
 _symmetry_equiv_pos_site_id
 _symmetry_equiv_pos_as_xyz
  1  'x, y, z'
loop_
 _atom_site_type_symbol
 _atom_site_label
 _atom_site_symmetry_multiplicity
 _atom_site_fract_x
 _atom_site_fract_y
 _atom_site_fract_z
 _atom_site_occupancy
  Sr  Sr0  1  0.750000  0.769486  0.446660  1
  Sr  Sr1  1  0.250000  0.730514  0.946660  1
  Sr  Sr2  1  0.250000  0.534034  0.728672  1
  Sr  Sr3  1  0.750000  0.965966  0.228672  1
  Sr  Sr4  1  0.750000  0.274454  0.052719  1
  Sr  Sr5  1  0.250000  0.225546  0.552719  1
  Ca  Ca6  1  0.750000  0.464370  0.272762  1
  Ca  Ca7  1  0.250000  0.035630  0.772762  1
  Cd  Cd8  1  0.250000  0.636121  0.151945  1
  Cd  Cd9  1  0.750000  0.863879  0.651945  1
  Cd  Cd10  1  0.750000  0.365587  0.848637  1
  Cd  Cd11  1  0.250000  0.134413  0.348637  1
  Sb  Sb12  1  0.750000  0.243248  0.688010  1
  Sb  Sb13  1  0.250000  0.741081  0.313622  1
  Sb  Sb14  1  0.250000  0.256752  0.188010  1
  Sb  Sb15  1  0.750000  0.749788  0.074318  1
  Sb  Sb16  1  0.750000  0.758919  0.813622  1
  Sb  Sb17  1  0.250000  0.244842  0.922653  1
  Sb  Sb18  1  0.750000  0.255158  0.422653  1
  Sb  Sb19  1  0.250000  0.750212  0.574318  1
