# generated using pymatgen
data_Zr8FeBi4Os
_symmetry_space_group_name_H-M   'P 1'
_cell_length_a   8.38505854
_cell_length_b   8.38505845
_cell_length_c   8.38505907
_cell_angle_alpha   95.69310061
_cell_angle_beta   95.69310053
_cell_angle_gamma   143.28317751
_symmetry_Int_Tables_number   1
_chemical_formula_structural   Zr8FeBi4Os
_chemical_formula_sum   'Zr8 Fe1 Bi4 Os1'
_cell_volume   334.52794944
_cell_formula_units_Z   1
loop_
 _symmetry_equiv_pos_site_id
 _symmetry_equiv_pos_as_xyz
  1  'x, y, z'
loop_
 _atom_site_type_symbol
 _atom_site_label
 _atom_site_symmetry_multiplicity
 _atom_site_fract_x
 _atom_site_fract_y
 _atom_site_fract_z
 _atom_site_occupancy
  Zr  Zr0  1  0.580863  0.697274  0.283550  1
  Zr  Zr1  1  0.919137  0.202688  0.116412  1
  Zr  Zr2  1  0.297312  0.580863  0.883588  1
  Zr  Zr3  1  0.802726  0.919137  0.716450  1
  Zr  Zr4  1  0.697274  0.413724  0.116412  1
  Zr  Zr5  1  0.086276  0.802726  0.883588  1
  Zr  Zr6  1  0.413724  0.297312  0.716450  1
  Zr  Zr7  1  0.202688  0.086276  0.283550  1
  Fe  Fe8  1  0.250000  0.250000  0.000000  1
  Bi  Bi9  1  0.359964  0.859964  0.219927  1
  Bi  Bi10  1  0.140036  0.359964  0.500000  1
  Bi  Bi11  1  0.640036  0.140036  0.780073  1
  Bi  Bi12  1  0.859964  0.640036  0.500000  1
  Os  Os13  1  0.750000  0.750000  0.000000  1
