# generated using pymatgen
data_LiCaPrZnSi3
_symmetry_space_group_name_H-M   'P 1'
_cell_length_a   9.42772313
_cell_length_b   9.42772193
_cell_length_c   6.86792200
_cell_angle_alpha   90.00000000
_cell_angle_beta   90.00000000
_cell_angle_gamma   153.25556913
_symmetry_Int_Tables_number   1
_chemical_formula_structural   LiCaPrZnSi3
_chemical_formula_sum   'Li2 Ca2 Pr2 Zn2 Si6'
_cell_volume   274.70254800
_cell_formula_units_Z   2
loop_
 _symmetry_equiv_pos_site_id
 _symmetry_equiv_pos_as_xyz
  1  'x, y, z'
loop_
 _atom_site_type_symbol
 _atom_site_label
 _atom_site_symmetry_multiplicity
 _atom_site_fract_x
 _atom_site_fract_y
 _atom_site_fract_z
 _atom_site_occupancy
  Li  Li0  1  0.811793  0.188207  0.938766  1
  Li  Li1  1  0.188207  0.811793  0.438766  1
  Ca  Ca2  1  0.655934  0.344066  0.744265  1
  Ca  Ca3  1  0.344066  0.655934  0.244265  1
  Pr  Pr4  1  0.448083  0.551917  0.755065  1
  Pr  Pr5  1  0.551917  0.448083  0.255065  1
  Zn  Zn6  1  0.193042  0.806958  0.055444  1
  Zn  Zn7  1  0.806958  0.193042  0.555444  1
  Si  Si8  1  0.278555  0.721445  0.748293  1
  Si  Si9  1  0.721445  0.278555  0.248293  1
  Si  Si10  1  0.940066  0.059934  0.427306  1
  Si  Si11  1  0.056084  0.943916  0.580863  1
  Si  Si12  1  0.943916  0.056084  0.080863  1
  Si  Si13  1  0.059934  0.940066  0.927306  1
