# generated using pymatgen
data_Er2Tm8Bi5Au
_symmetry_space_group_name_H-M   'P 1'
_cell_length_a   8.10684000
_cell_length_b   9.39982400
_cell_length_c   11.92263500
_cell_angle_alpha   90.00000000
_cell_angle_beta   90.00000000
_cell_angle_gamma   90.00000000
_symmetry_Int_Tables_number   1
_chemical_formula_structural   Er2Tm8Bi5Au
_chemical_formula_sum   'Er4 Tm16 Bi10 Au2'
_cell_volume   908.53899538
_cell_formula_units_Z   2
loop_
 _symmetry_equiv_pos_site_id
 _symmetry_equiv_pos_as_xyz
  1  'x, y, z'
loop_
 _atom_site_type_symbol
 _atom_site_label
 _atom_site_symmetry_multiplicity
 _atom_site_fract_x
 _atom_site_fract_y
 _atom_site_fract_z
 _atom_site_occupancy
  Er  Er0  1  0.311718  0.250000  0.217951  1
  Er  Er1  1  0.811718  0.250000  0.282049  1
  Er  Er2  1  0.673839  0.750000  0.790108  1
  Er  Er3  1  0.173839  0.750000  0.709892  1
  Tm  Tm4  1  0.352572  0.750000  0.203184  1
  Tm  Tm5  1  0.852572  0.750000  0.296816  1
  Tm  Tm6  1  0.653337  0.250000  0.782183  1
  Tm  Tm7  1  0.153337  0.250000  0.717817  1
  Tm  Tm8  1  0.685127  0.570917  0.056954  1
  Tm  Tm9  1  0.185127  0.929083  0.443046  1
  Tm  Tm10  1  0.310483  0.046082  0.940539  1
  Tm  Tm11  1  0.810483  0.453918  0.559461  1
  Tm  Tm12  1  0.310483  0.453918  0.940539  1
  Tm  Tm13  1  0.810483  0.046082  0.559461  1
  Tm  Tm14  1  0.685127  0.929083  0.056954  1
  Tm  Tm15  1  0.185127  0.570917  0.443046  1
  Tm  Tm16  1  0.482392  0.250000  0.490808  1
  Tm  Tm17  1  0.982392  0.250000  0.009192  1
  Tm  Tm18  1  0.539689  0.750000  0.507950  1
  Tm  Tm19  1  0.039689  0.750000  0.992050  1
  Bi  Bi20  1  0.595464  0.250000  0.040881  1
  Bi  Bi21  1  0.095464  0.250000  0.459119  1
  Bi  Bi22  1  0.558041  0.997402  0.323354  1
  Bi  Bi23  1  0.058041  0.502598  0.176646  1
  Bi  Bi24  1  0.437406  0.497095  0.675941  1
  Bi  Bi25  1  0.937406  0.002905  0.824059  1
  Bi  Bi26  1  0.437406  0.002905  0.675941  1
  Bi  Bi27  1  0.937406  0.497095  0.824059  1
  Bi  Bi28  1  0.558041  0.502598  0.323354  1
  Bi  Bi29  1  0.058041  0.997402  0.176646  1
  Au  Au30  1  0.408874  0.750000  0.965055  1
  Au  Au31  1  0.908874  0.750000  0.534945  1
