# generated using pymatgen
data_Tb3Er5Ga12(CoCu)2
_symmetry_space_group_name_H-M   'P 1'
_cell_length_a   6.97351902
_cell_length_b   8.76546666
_cell_length_c   8.76546675
_cell_angle_alpha   120.04657500
_cell_angle_beta   90.00858659
_cell_angle_gamma   89.99141110
_symmetry_Int_Tables_number   1
_chemical_formula_structural   Tb3Er5Ga12(CoCu)2
_chemical_formula_sum   'Tb3 Er5 Ga12 Co2 Cu2'
_cell_volume   463.79780542
_cell_formula_units_Z   1
loop_
 _symmetry_equiv_pos_site_id
 _symmetry_equiv_pos_as_xyz
  1  'x, y, z'
loop_
 _atom_site_type_symbol
 _atom_site_label
 _atom_site_symmetry_multiplicity
 _atom_site_fract_x
 _atom_site_fract_y
 _atom_site_fract_z
 _atom_site_occupancy
  Tb  Tb0  1  0.745719  0.999789  0.000211  1
  Tb  Tb1  1  0.254365  0.000174  0.999826  1
  Tb  Tb2  1  0.743182  0.478094  0.521906  1
  Er  Er3  1  0.257358  0.522568  0.477432  1
  Er  Er4  1  0.742062  0.043951  0.522140  1
  Er  Er5  1  0.257740  0.955347  0.477772  1
  Er  Er6  1  0.742062  0.477860  0.956049  1
  Er  Er7  1  0.257740  0.522228  0.044653  1
  Ga  Ga8  1  0.955008  0.829833  0.170167  1
  Ga  Ga9  1  0.045000  0.170343  0.829657  1
  Ga  Ga10  1  0.956189  0.339247  0.168724  1
  Ga  Ga11  1  0.457078  0.173291  0.826709  1
  Ga  Ga12  1  0.045649  0.660374  0.830692  1
  Ga  Ga13  1  0.542856  0.826719  0.173281  1
  Ga  Ga14  1  0.956189  0.831276  0.660753  1
  Ga  Ga15  1  0.455784  0.652866  0.827067  1
  Ga  Ga16  1  0.045649  0.169308  0.339626  1
  Ga  Ga17  1  0.541897  0.346323  0.172491  1
  Ga  Ga18  1  0.455784  0.172933  0.347134  1
  Ga  Ga19  1  0.541897  0.827509  0.653677  1
  Co  Co20  1  0.487414  0.332735  0.667265  1
  Co  Co21  1  0.510256  0.666928  0.333072  1
  Cu  Cu22  1  0.954602  0.667154  0.332846  1
  Cu  Cu23  1  0.048519  0.333152  0.666848  1
