# generated using pymatgen
data_DyHo3Lu4(B6Ru)4
_symmetry_space_group_name_H-M   'P 1'
_cell_length_a   3.61771200
_cell_length_b   9.06412601
_cell_length_c   11.44512706
_cell_angle_alpha   89.99621213
_cell_angle_beta   90.00000000
_cell_angle_gamma   90.00000000
_symmetry_Int_Tables_number   1
_chemical_formula_structural   DyHo3Lu4(B6Ru)4
_chemical_formula_sum   'Dy1 Ho3 Lu4 B24 Ru4'
_cell_volume   375.30170934
_cell_formula_units_Z   1
loop_
 _symmetry_equiv_pos_site_id
 _symmetry_equiv_pos_as_xyz
  1  'x, y, z'
loop_
 _atom_site_type_symbol
 _atom_site_label
 _atom_site_symmetry_multiplicity
 _atom_site_fract_x
 _atom_site_fract_y
 _atom_site_fract_z
 _atom_site_occupancy
  Dy  Dy0  1  0.000000  0.178350  0.914175  1
  Ho  Ho1  1  0.000000  0.321564  0.414216  1
  Ho  Ho2  1  0.000000  0.678423  0.585856  1
  Ho  Ho3  1  0.000000  0.821562  0.085736  1
  Lu  Lu4  1  0.000000  0.943904  0.372432  1
  Lu  Lu5  1  0.000000  0.056083  0.627489  1
  Lu  Lu6  1  0.000000  0.443935  0.127422  1
  Lu  Lu7  1  0.000000  0.556238  0.872567  1
  B  B8  1  0.500000  0.554332  0.433099  1
  B  B9  1  0.500000  0.445535  0.567057  1
  B  B10  1  0.500000  0.054339  0.066941  1
  B  B11  1  0.500000  0.945531  0.933084  1
  B  B12  1  0.500000  0.749698  0.419557  1
  B  B13  1  0.500000  0.250233  0.580554  1
  B  B14  1  0.500000  0.249718  0.080463  1
  B  B15  1  0.500000  0.750387  0.919630  1
  B  B16  1  0.500000  0.791960  0.265613  1
  B  B17  1  0.500000  0.208024  0.734279  1
  B  B18  1  0.500000  0.291952  0.234125  1
  B  B19  1  0.500000  0.708100  0.765799  1
  B  B20  1  0.500000  0.630843  0.184128  1
  B  B21  1  0.500000  0.369228  0.815814  1
  B  B22  1  0.500000  0.130873  0.315686  1
  B  B23  1  0.500000  0.869248  0.684283  1
  B  B24  1  0.500000  0.982663  0.213248  1
  B  B25  1  0.500000  0.017221  0.786631  1
  B  B26  1  0.500000  0.482615  0.286533  1
  B  B27  1  0.500000  0.517304  0.713528  1
  B  B28  1  0.500000  0.604536  0.028666  1
  B  B29  1  0.500000  0.395668  0.971322  1
  B  B30  1  0.500000  0.104356  0.471332  1
  B  B31  1  0.500000  0.895730  0.528682  1
  Ru  Ru32  1  0.000000  0.638379  0.320270  1
  Ru  Ru33  1  0.000000  0.361544  0.679781  1
  Ru  Ru34  1  0.000000  0.138389  0.179686  1
  Ru  Ru35  1  0.000000  0.861532  0.820316  1
