# generated using pymatgen
data_Hf2Nb(CrP)3
_symmetry_space_group_name_H-M   'P 1'
_cell_length_a   6.56927975
_cell_length_b   6.56928064
_cell_length_c   3.36041000
_cell_angle_alpha   90.00000000
_cell_angle_beta   90.00000000
_cell_angle_gamma   119.58539024
_symmetry_Int_Tables_number   1
_chemical_formula_structural   Hf2Nb(CrP)3
_chemical_formula_sum   'Hf2 Nb1 Cr3 P3'
_cell_volume   126.11239818
_cell_formula_units_Z   1
loop_
 _symmetry_equiv_pos_site_id
 _symmetry_equiv_pos_as_xyz
  1  'x, y, z'
loop_
 _atom_site_type_symbol
 _atom_site_label
 _atom_site_symmetry_multiplicity
 _atom_site_fract_x
 _atom_site_fract_y
 _atom_site_fract_z
 _atom_site_occupancy
  Hf  Hf0  1  0.594075  0.997557  0.500000  1
  Hf  Hf1  1  0.997557  0.594075  0.500000  1
  Nb  Nb2  1  0.404858  0.404858  0.500000  1
  Cr  Cr3  1  0.003759  0.250375  0.000000  1
  Cr  Cr4  1  0.250375  0.003759  0.000000  1
  Cr  Cr5  1  0.750372  0.750372  0.000000  1
  P  P6  1  0.663446  0.333003  0.000000  1
  P  P7  1  0.333003  0.663446  0.000000  1
  P  P8  1  0.002556  0.002556  0.500000  1
