# generated using pymatgen
data_Ac3Yb12CeSb12
_symmetry_space_group_name_H-M   'P 1'
_cell_length_a   9.70385803
_cell_length_b   9.70385705
_cell_length_c   9.70385700
_cell_angle_alpha   90.00428071
_cell_angle_beta   90.00428071
_cell_angle_gamma   89.99571306
_symmetry_Int_Tables_number   1
_chemical_formula_structural   Ac3Yb12CeSb12
_chemical_formula_sum   'Ac3 Yb12 Ce1 Sb12'
_cell_volume   913.76224252
_cell_formula_units_Z   1
loop_
 _symmetry_equiv_pos_site_id
 _symmetry_equiv_pos_as_xyz
  1  'x, y, z'
loop_
 _atom_site_type_symbol
 _atom_site_label
 _atom_site_symmetry_multiplicity
 _atom_site_fract_x
 _atom_site_fract_y
 _atom_site_fract_z
 _atom_site_occupancy
  Ac  Ac0  1  0.930360  0.069429  0.570946  1
  Ac  Ac1  1  0.429054  0.430360  0.430571  1
  Ac  Ac2  1  0.569429  0.929054  0.069640  1
  Yb  Yb3  1  0.820798  0.320798  0.179202  1
  Yb  Yb4  1  0.932323  0.929789  0.930707  1
  Yb  Yb5  1  0.825257  0.675161  0.324288  1
  Yb  Yb6  1  0.179568  0.819860  0.319747  1
  Yb  Yb7  1  0.175161  0.175712  0.174743  1
  Yb  Yb8  1  0.323586  0.823586  0.676414  1
  Yb  Yb9  1  0.069293  0.432323  0.570211  1
  Yb  Yb10  1  0.319860  0.180253  0.820432  1
  Yb  Yb11  1  0.675712  0.325257  0.824839  1
  Yb  Yb12  1  0.680253  0.679568  0.680140  1
  Yb  Yb13  1  0.569095  0.069095  0.430905  1
  Yb  Yb14  1  0.429789  0.569293  0.067677  1
  Ce  Ce15  1  0.069069  0.569069  0.930931  1
  Sb  Sb16  1  0.754802  0.376514  0.500317  1
  Sb  Sb17  1  0.876514  0.999683  0.245198  1
  Sb  Sb18  1  0.001199  0.743114  0.628969  1
  Sb  Sb19  1  0.255091  0.124072  0.499421  1
  Sb  Sb20  1  0.122855  0.500710  0.248260  1
  Sb  Sb21  1  0.000710  0.251740  0.877145  1
  Sb  Sb22  1  0.243114  0.871031  0.998801  1
  Sb  Sb23  1  0.371031  0.501199  0.756886  1
  Sb  Sb24  1  0.499683  0.254802  0.123486  1
  Sb  Sb25  1  0.751740  0.622855  0.999290  1
  Sb  Sb26  1  0.624072  0.000579  0.744909  1
  Sb  Sb27  1  0.500579  0.755091  0.375928  1
