# generated using pymatgen
data_Cs3Y(PS4)2
_symmetry_space_group_name_H-M   'P 1'
_cell_length_a   10.08332869
_cell_length_b   7.00262500
_cell_length_c   12.02081157
_cell_angle_alpha   90.00000000
_cell_angle_beta   88.68349977
_cell_angle_gamma   90.00000000
_symmetry_Int_Tables_number   1
_chemical_formula_structural   Cs3Y(PS4)2
_chemical_formula_sum   'Cs6 Y2 P4 S16'
_cell_volume   848.56268467
_cell_formula_units_Z   2
loop_
 _symmetry_equiv_pos_site_id
 _symmetry_equiv_pos_as_xyz
  1  'x, y, z'
loop_
 _atom_site_type_symbol
 _atom_site_label
 _atom_site_symmetry_multiplicity
 _atom_site_fract_x
 _atom_site_fract_y
 _atom_site_fract_z
 _atom_site_occupancy
  Cs  Cs0  1  0.361979  0.803326  0.086203  1
  Cs  Cs1  1  0.396653  0.308366  0.343678  1
  Cs  Cs2  1  0.836219  0.308320  0.432775  1
  Cs  Cs3  1  0.163781  0.808320  0.567226  1
  Cs  Cs4  1  0.603347  0.808366  0.656322  1
  Cs  Cs5  1  0.638022  0.303326  0.913797  1
  Y  Y6  1  0.890150  0.786801  0.144811  1
  Y  Y7  1  0.109850  0.286801  0.855189  1
  P  P8  1  0.082411  0.329495  0.149188  1
  P  P9  1  0.641007  0.808757  0.305339  1
  P  P10  1  0.358993  0.308756  0.694661  1
  P  P11  1  0.917589  0.829495  0.850812  1
  S  S12  1  0.938605  0.397864  0.036345  1
  S  S13  1  0.254292  0.306092  0.054835  1
  S  S14  1  0.670324  0.039202  0.201247  1
  S  S15  1  0.664310  0.568300  0.206158  1
  S  S16  1  0.052124  0.085031  0.241056  1
  S  S17  1  0.085213  0.561601  0.254907  1
  S  S18  1  0.461699  0.812548  0.384249  1
  S  S19  1  0.804475  0.806578  0.403788  1
  S  S20  1  0.195526  0.306577  0.596212  1
  S  S21  1  0.538300  0.312547  0.615751  1
  S  S22  1  0.914787  0.061600  0.745093  1
  S  S23  1  0.947876  0.585031  0.758944  1
  S  S24  1  0.335690  0.068301  0.793842  1
  S  S25  1  0.329676  0.539200  0.798753  1
  S  S26  1  0.745707  0.806093  0.945165  1
  S  S27  1  0.061395  0.897864  0.963654  1
