# generated using pymatgen
data_Tm3Mg2CdGa2Ag
_symmetry_space_group_name_H-M   'P 1'
_cell_length_a   7.29633733
_cell_length_b   7.27611747
_cell_length_c   4.32530000
_cell_angle_alpha   90.00000000
_cell_angle_beta   90.00000000
_cell_angle_gamma   119.90836822
_symmetry_Int_Tables_number   1
_chemical_formula_structural   Tm3Mg2CdGa2Ag
_chemical_formula_sum   'Tm3 Mg2 Cd1 Ga2 Ag1'
_cell_volume   199.04521242
_cell_formula_units_Z   1
loop_
 _symmetry_equiv_pos_site_id
 _symmetry_equiv_pos_as_xyz
  1  'x, y, z'
loop_
 _atom_site_type_symbol
 _atom_site_label
 _atom_site_symmetry_multiplicity
 _atom_site_fract_x
 _atom_site_fract_y
 _atom_site_fract_z
 _atom_site_occupancy
  Tm  Tm0  1  0.000000  0.573711  0.000000  1
  Tm  Tm1  1  0.424211  0.423760  0.000000  1
  Tm  Tm2  1  0.575789  0.999550  0.000000  1
  Mg  Mg3  1  0.754898  0.755956  0.500000  1
  Mg  Mg4  1  0.245102  0.001058  0.500000  1
  Cd  Cd5  1  0.000000  0.250213  0.500000  1
  Ga  Ga6  1  0.664409  0.333176  0.500000  1
  Ga  Ga7  1  0.335591  0.668768  0.500000  1
  Ag  Ag8  1  0.000000  0.993808  0.000000  1
