# generated using pymatgen
data_Tb5Lu11(Ga3Co)2
_symmetry_space_group_name_H-M   'P 1'
_cell_length_a   9.84435300
_cell_length_b   9.84435294
_cell_length_c   6.94664100
_cell_angle_alpha   90.00000000
_cell_angle_beta   90.00000000
_cell_angle_gamma   119.99999684
_symmetry_Int_Tables_number   1
_chemical_formula_structural   Tb5Lu11(Ga3Co)2
_chemical_formula_sum   'Tb5 Lu11 Ga6 Co2'
_cell_volume   583.01516927
_cell_formula_units_Z   1
loop_
 _symmetry_equiv_pos_site_id
 _symmetry_equiv_pos_as_xyz
  1  'x, y, z'
loop_
 _atom_site_type_symbol
 _atom_site_label
 _atom_site_symmetry_multiplicity
 _atom_site_fract_x
 _atom_site_fract_y
 _atom_site_fract_z
 _atom_site_occupancy
  Tb  Tb0  1  0.465062  0.930124  0.289946  1
  Tb  Tb1  1  0.069876  0.534938  0.289946  1
  Tb  Tb2  1  0.465062  0.534938  0.289946  1
  Tb  Tb3  1  0.000000  0.000000  0.768423  1
  Tb  Tb4  1  0.000000  0.000000  0.268840  1
  Lu  Lu5  1  0.826009  0.652018  0.491176  1
  Lu  Lu6  1  0.347982  0.173991  0.491176  1
  Lu  Lu7  1  0.826009  0.173991  0.491176  1
  Lu  Lu8  1  0.173658  0.347315  0.983021  1
  Lu  Lu9  1  0.652685  0.826342  0.983021  1
  Lu  Lu10  1  0.173658  0.826342  0.983021  1
  Lu  Lu11  1  0.666667  0.333333  0.173631  1
  Lu  Lu12  1  0.333333  0.666667  0.673649  1
  Lu  Lu13  1  0.537833  0.075665  0.793000  1
  Lu  Lu14  1  0.924335  0.462167  0.793000  1
  Lu  Lu15  1  0.537833  0.462167  0.793000  1
  Ga  Ga16  1  0.835323  0.670647  0.044562  1
  Ga  Ga17  1  0.329353  0.164677  0.044562  1
  Ga  Ga18  1  0.835323  0.164677  0.044562  1
  Ga  Ga19  1  0.164338  0.328675  0.543471  1
  Ga  Ga20  1  0.671325  0.835662  0.543471  1
  Ga  Ga21  1  0.164338  0.835662  0.543471  1
  Co  Co22  1  0.666667  0.333333  0.555644  1
  Co  Co23  1  0.333333  0.666667  0.050354  1
