# generated using pymatgen
data_Tb19HoBi3Pb13
_symmetry_space_group_name_H-M   'P 1'
_cell_length_a   8.30191865
_cell_length_b   15.67710506
_cell_length_c   8.33126637
_cell_angle_alpha   90.11449680
_cell_angle_beta   89.93824231
_cell_angle_gamma   89.73490973
_symmetry_Int_Tables_number   1
_chemical_formula_structural   Tb19HoBi3Pb13
_chemical_formula_sum   'Tb19 Ho1 Bi3 Pb13'
_cell_volume   1084.30032979
_cell_formula_units_Z   1
loop_
 _symmetry_equiv_pos_site_id
 _symmetry_equiv_pos_as_xyz
  1  'x, y, z'
loop_
 _atom_site_type_symbol
 _atom_site_label
 _atom_site_symmetry_multiplicity
 _atom_site_fract_x
 _atom_site_fract_y
 _atom_site_fract_z
 _atom_site_occupancy
  Tb  Tb0  1  0.618401  0.621443  0.160585  1
  Tb  Tb1  1  0.115406  0.878265  0.341878  1
  Tb  Tb2  1  0.383622  0.122101  0.842797  1
  Tb  Tb3  1  0.880630  0.378789  0.657003  1
  Tb  Tb4  1  0.377025  0.378989  0.841878  1
  Tb  Tb5  1  0.878746  0.120818  0.660026  1
  Tb  Tb6  1  0.620998  0.879378  0.159060  1
  Tb  Tb7  1  0.121106  0.621395  0.341631  1
  Tb  Tb8  1  0.452344  0.604275  0.666947  1
  Tb  Tb9  1  0.944326  0.892996  0.830786  1
  Tb  Tb10  1  0.555160  0.106829  0.331071  1
  Tb  Tb11  1  0.048588  0.396274  0.174487  1
  Tb  Tb12  1  0.541916  0.397668  0.331358  1
  Tb  Tb13  1  0.040742  0.104355  0.169492  1
  Tb  Tb14  1  0.459621  0.895833  0.670347  1
  Tb  Tb15  1  0.960953  0.602968  0.823595  1
  Tb  Tb16  1  0.787527  0.749378  0.497964  1
  Tb  Tb17  1  0.287376  0.746831  0.000902  1
  Tb  Tb18  1  0.213077  0.252508  0.501800  1
  Ho  Ho19  1  0.712840  0.248571  0.999108  1
  Bi  Bi20  1  0.724653  0.454731  0.974096  1
  Bi  Bi21  1  0.227977  0.045434  0.523554  1
  Bi  Bi22  1  0.271681  0.954483  0.023147  1
  Pb  Pb23  1  0.777464  0.543765  0.471308  1
  Pb  Pb24  1  0.277661  0.543404  0.029861  1
  Pb  Pb25  1  0.778002  0.956034  0.471557  1
  Pb  Pb26  1  0.721366  0.043943  0.971608  1
  Pb  Pb27  1  0.219746  0.456689  0.531420  1
  Pb  Pb28  1  0.424747  0.752432  0.371004  1
  Pb  Pb29  1  0.924558  0.748815  0.127701  1
  Pb  Pb30  1  0.575066  0.250979  0.629469  1
  Pb  Pb31  1  0.074224  0.249225  0.872038  1
  Pb  Pb32  1  0.644405  0.748698  0.847934  1
  Pb  Pb33  1  0.146115  0.751368  0.651647  1
  Pb  Pb34  1  0.355852  0.249733  0.152829  1
  Pb  Pb35  1  0.856078  0.250605  0.348113  1
