# generated using pymatgen
data_La14Y2Cd4IrRu3
_symmetry_space_group_name_H-M   'P 1'
_cell_length_a   10.01936568
_cell_length_b   10.05282676
_cell_length_c   10.01936744
_cell_angle_alpha   59.66544951
_cell_angle_beta   60.58849936
_cell_angle_gamma   59.66544824
_symmetry_Int_Tables_number   1
_chemical_formula_structural   La14Y2Cd4IrRu3
_chemical_formula_sum   'La14 Y2 Cd4 Ir1 Ru3'
_cell_volume   713.03914071
_cell_formula_units_Z   1
loop_
 _symmetry_equiv_pos_site_id
 _symmetry_equiv_pos_as_xyz
  1  'x, y, z'
loop_
 _atom_site_type_symbol
 _atom_site_label
 _atom_site_symmetry_multiplicity
 _atom_site_fract_x
 _atom_site_fract_y
 _atom_site_fract_z
 _atom_site_occupancy
  La  La0  1  0.441440  0.439984  0.059129  1
  La  La1  1  0.060792  0.061479  0.439729  1
  La  La2  1  0.439729  0.061479  0.060792  1
  La  La3  1  0.846165  0.847277  0.846165  1
  La  La4  1  0.686847  0.318644  0.309126  1
  La  La5  1  0.059129  0.439984  0.441440  1
  La  La6  1  0.314506  0.687058  0.685359  1
  La  La7  1  0.309126  0.318644  0.686847  1
  La  La8  1  0.852099  0.842756  0.459865  1
  La  La9  1  0.685359  0.687058  0.314506  1
  La  La10  1  0.459865  0.842756  0.852099  1
  La  La11  1  0.056941  0.443147  0.056941  1
  La  La12  1  0.842858  0.460069  0.842858  1
  La  La13  1  0.446432  0.054362  0.446432  1
  Y  Y14  1  0.308222  0.692996  0.308222  1
  Y  Y15  1  0.692287  0.306907  0.692287  1
  Cd  Cd16  1  0.080947  0.762576  0.080947  1
  Cd  Cd17  1  0.075535  0.081074  0.761973  1
  Cd  Cd18  1  0.761973  0.081074  0.075535  1
  Cd  Cd19  1  0.080128  0.076161  0.080128  1
  Ir  Ir20  1  0.638093  0.080704  0.638093  1
  Ru  Ru21  1  0.632300  0.646020  0.632300  1
  Ru  Ru22  1  0.642760  0.633894  0.086464  1
  Ru  Ru23  1  0.086464  0.633894  0.642760  1
