# generated using pymatgen
data_DyHo2In3NiHg2
_symmetry_space_group_name_H-M   'P 1'
_cell_length_a   7.73128307
_cell_length_b   7.72147295
_cell_length_c   4.02613000
_cell_angle_alpha   90.00000000
_cell_angle_beta   90.00000000
_cell_angle_gamma   119.95803541
_symmetry_Int_Tables_number   1
_chemical_formula_structural   DyHo2In3NiHg2
_chemical_formula_sum   'Dy1 Ho2 In3 Ni1 Hg2'
_cell_volume   208.23496117
_cell_formula_units_Z   1
loop_
 _symmetry_equiv_pos_site_id
 _symmetry_equiv_pos_as_xyz
  1  'x, y, z'
loop_
 _atom_site_type_symbol
 _atom_site_label
 _atom_site_symmetry_multiplicity
 _atom_site_fract_x
 _atom_site_fract_y
 _atom_site_fract_z
 _atom_site_occupancy
  Dy  Dy0  1  0.000000  0.607023  0.500000  1
  Ho  Ho1  1  0.392680  0.392633  0.500000  1
  Ho  Ho2  1  0.607320  0.999952  0.500000  1
  In  In3  1  0.239956  0.000264  0.000000  1
  In  In4  1  0.760044  0.760309  0.000000  1
  In  In5  1  0.000000  0.239746  0.000000  1
  Ni  Ni6  1  0.000000  0.000306  0.500000  1
  Hg  Hg7  1  0.333954  0.666861  0.000000  1
  Hg  Hg8  1  0.666046  0.332906  0.000000  1
