# generated using pymatgen
data_TbNd3Cu4(Si2Sn)2
_symmetry_space_group_name_H-M   'P 1'
_cell_length_a   9.47723454
_cell_length_b   9.47723302
_cell_length_c   6.74541300
_cell_angle_alpha   90.00000000
_cell_angle_beta   90.00000000
_cell_angle_gamma   152.86333664
_symmetry_Int_Tables_number   1
_chemical_formula_structural   TbNd3Cu4(Si2Sn)2
_chemical_formula_sum   'Tb1 Nd3 Cu4 Si4 Sn2'
_cell_volume   276.34115672
_cell_formula_units_Z   1
loop_
 _symmetry_equiv_pos_site_id
 _symmetry_equiv_pos_as_xyz
  1  'x, y, z'
loop_
 _atom_site_type_symbol
 _atom_site_label
 _atom_site_symmetry_multiplicity
 _atom_site_fract_x
 _atom_site_fract_y
 _atom_site_fract_z
 _atom_site_occupancy
  Tb  Tb0  1  0.653024  0.346976  0.750000  1
  Nd  Nd1  1  0.548469  0.451531  0.250000  1
  Nd  Nd2  1  0.452444  0.547556  0.750000  1
  Nd  Nd3  1  0.346182  0.653818  0.250000  1
  Cu  Cu4  1  0.822425  0.177575  0.562143  1
  Cu  Cu5  1  0.177304  0.822696  0.439891  1
  Cu  Cu6  1  0.177304  0.822696  0.060109  1
  Cu  Cu7  1  0.822425  0.177575  0.937857  1
  Si  Si8  1  0.941461  0.058539  0.071410  1
  Si  Si9  1  0.059769  0.940231  0.927173  1
  Si  Si10  1  0.059769  0.940231  0.572827  1
  Si  Si11  1  0.941461  0.058539  0.428590  1
  Sn  Sn12  1  0.722149  0.277851  0.250000  1
  Sn  Sn13  1  0.275814  0.724186  0.750000  1
