# generated using pymatgen
data_Tb6Co16MoP12W
_symmetry_space_group_name_H-M   'P 1'
_cell_length_a   3.73229100
_cell_length_b   10.60028600
_cell_length_c   12.27767500
_cell_angle_alpha   90.00000000
_cell_angle_beta   90.00000000
_cell_angle_gamma   90.00000000
_symmetry_Int_Tables_number   1
_chemical_formula_structural   Tb6Co16MoP12W
_chemical_formula_sum   'Tb6 Co16 Mo1 P12 W1'
_cell_volume   485.74597820
_cell_formula_units_Z   1
loop_
 _symmetry_equiv_pos_site_id
 _symmetry_equiv_pos_as_xyz
  1  'x, y, z'
loop_
 _atom_site_type_symbol
 _atom_site_label
 _atom_site_symmetry_multiplicity
 _atom_site_fract_x
 _atom_site_fract_y
 _atom_site_fract_z
 _atom_site_occupancy
  Tb  Tb0  1  0.000000  0.500000  0.524124  1
  Tb  Tb1  1  0.500000  0.000000  0.475935  1
  Tb  Tb2  1  0.500000  0.818967  0.204841  1
  Tb  Tb3  1  0.500000  0.181033  0.204841  1
  Tb  Tb4  1  0.000000  0.680772  0.794936  1
  Tb  Tb5  1  0.000000  0.319228  0.794936  1
  Co  Co6  1  0.500000  0.500000  0.701600  1
  Co  Co7  1  0.000000  0.000000  0.298592  1
  Co  Co8  1  0.000000  0.500000  0.986690  1
  Co  Co9  1  0.500000  0.000000  0.012875  1
  Co  Co10  1  0.500000  0.332290  0.990462  1
  Co  Co11  1  0.500000  0.667710  0.990462  1
  Co  Co12  1  0.000000  0.167168  0.009262  1
  Co  Co13  1  0.000000  0.832832  0.009262  1
  Co  Co14  1  0.500000  0.295763  0.431246  1
  Co  Co15  1  0.500000  0.704237  0.431246  1
  Co  Co16  1  0.000000  0.204273  0.568800  1
  Co  Co17  1  0.000000  0.795727  0.568800  1
  Co  Co18  1  0.500000  0.878669  0.707840  1
  Co  Co19  1  0.500000  0.121331  0.707840  1
  Co  Co20  1  0.000000  0.621417  0.293038  1
  Co  Co21  1  0.000000  0.378583  0.293038  1
  Mo  Mo22  1  0.500000  0.500000  0.155896  1
  P  P23  1  0.500000  0.500000  0.881835  1
  P  P24  1  0.000000  0.000000  0.118681  1
  P  P25  1  0.500000  0.500000  0.348412  1
  P  P26  1  0.000000  0.000000  0.650750  1
  P  P27  1  0.500000  0.310540  0.615575  1
  P  P28  1  0.500000  0.689460  0.615575  1
  P  P29  1  0.000000  0.189385  0.384397  1
  P  P30  1  0.000000  0.810615  0.384397  1
  P  P31  1  0.500000  0.844601  0.893332  1
  P  P32  1  0.500000  0.155399  0.893332  1
  P  P33  1  0.000000  0.655092  0.106551  1
  P  P34  1  0.000000  0.344908  0.106551  1
  W  W35  1  0.000000  0.000000  0.844051  1
