# generated using pymatgen
data_Tb5PrCo17TcP12
_symmetry_space_group_name_H-M   'P 1'
_cell_length_a   3.72422700
_cell_length_b   10.57100500
_cell_length_c   12.27452800
_cell_angle_alpha   90.00000000
_cell_angle_beta   90.00000000
_cell_angle_gamma   90.00000000
_symmetry_Int_Tables_number   1
_chemical_formula_structural   Tb5PrCo17TcP12
_chemical_formula_sum   'Tb5 Pr1 Co17 Tc1 P12'
_cell_volume   483.23371089
_cell_formula_units_Z   1
loop_
 _symmetry_equiv_pos_site_id
 _symmetry_equiv_pos_as_xyz
  1  'x, y, z'
loop_
 _atom_site_type_symbol
 _atom_site_label
 _atom_site_symmetry_multiplicity
 _atom_site_fract_x
 _atom_site_fract_y
 _atom_site_fract_z
 _atom_site_occupancy
  Tb  Tb0  1  0.000000  0.500000  0.523588  1
  Tb  Tb1  1  0.500000  0.817089  0.205685  1
  Tb  Tb2  1  0.500000  0.182911  0.205685  1
  Tb  Tb3  1  0.000000  0.682591  0.795195  1
  Tb  Tb4  1  0.000000  0.317409  0.795195  1
  Pr  Pr5  1  0.500000  0.000000  0.477761  1
  Co  Co6  1  0.000000  0.000000  0.842403  1
  Co  Co7  1  0.500000  0.500000  0.703967  1
  Co  Co8  1  0.000000  0.000000  0.293268  1
  Co  Co9  1  0.000000  0.500000  0.987599  1
  Co  Co10  1  0.500000  0.000000  0.013787  1
  Co  Co11  1  0.500000  0.332378  0.991525  1
  Co  Co12  1  0.500000  0.667622  0.991525  1
  Co  Co13  1  0.000000  0.166766  0.005456  1
  Co  Co14  1  0.000000  0.833234  0.005456  1
  Co  Co15  1  0.500000  0.299242  0.429897  1
  Co  Co16  1  0.500000  0.700758  0.429897  1
  Co  Co17  1  0.000000  0.206927  0.569808  1
  Co  Co18  1  0.000000  0.793073  0.569808  1
  Co  Co19  1  0.500000  0.878996  0.711124  1
  Co  Co20  1  0.500000  0.121004  0.711124  1
  Co  Co21  1  0.000000  0.619471  0.290499  1
  Co  Co22  1  0.000000  0.380529  0.290499  1
  Tc  Tc23  1  0.500000  0.500000  0.156239  1
  P  P24  1  0.500000  0.500000  0.882323  1
  P  P25  1  0.000000  0.000000  0.115548  1
  P  P26  1  0.500000  0.500000  0.347671  1
  P  P27  1  0.000000  0.000000  0.661031  1
  P  P28  1  0.500000  0.311003  0.616404  1
  P  P29  1  0.500000  0.688997  0.616404  1
  P  P30  1  0.000000  0.193183  0.383120  1
  P  P31  1  0.000000  0.806817  0.383120  1
  P  P32  1  0.500000  0.848795  0.893255  1
  P  P33  1  0.500000  0.151205  0.893255  1
  P  P34  1  0.000000  0.655011  0.105440  1
  P  P35  1  0.000000  0.344989  0.105440  1
