# generated using pymatgen
data_Rb4PrSm3(SiSe4)4
_symmetry_space_group_name_H-M   'P 1'
_cell_length_a   7.09175062
_cell_length_b   6.80332887
_cell_length_c   19.00099090
_cell_angle_alpha   72.01402262
_cell_angle_beta   89.96029984
_cell_angle_gamma   90.01301906
_symmetry_Int_Tables_number   1
_chemical_formula_structural   Rb4PrSm3(SiSe4)4
_chemical_formula_sum   'Rb4 Pr1 Sm3 Si4 Se16'
_cell_volume   871.95056958
_cell_formula_units_Z   1
loop_
 _symmetry_equiv_pos_site_id
 _symmetry_equiv_pos_as_xyz
  1  'x, y, z'
loop_
 _atom_site_type_symbol
 _atom_site_label
 _atom_site_symmetry_multiplicity
 _atom_site_fract_x
 _atom_site_fract_y
 _atom_site_fract_z
 _atom_site_occupancy
  Rb  Rb0  1  0.251583  0.725795  0.033842  1
  Rb  Rb1  1  0.248578  0.725505  0.534266  1
  Rb  Rb2  1  0.751570  0.274163  0.466141  1
  Rb  Rb3  1  0.748437  0.274054  0.965777  1
  Pr  Pr4  1  0.771985  0.226567  0.226559  1
  Sm  Sm5  1  0.225557  0.772012  0.773479  1
  Sm  Sm6  1  0.725580  0.228000  0.726551  1
  Sm  Sm7  1  0.274260  0.772163  0.273712  1
  Si  Si8  1  0.260711  0.216343  0.835808  1
  Si  Si9  1  0.239146  0.215662  0.336575  1
  Si  Si10  1  0.760703  0.783673  0.664191  1
  Si  Si11  1  0.739009  0.784398  0.163394  1
  Se  Se12  1  0.492801  0.983589  0.650358  1
  Se  Se13  1  0.183050  0.418669  0.217666  1
  Se  Se14  1  0.505005  0.013047  0.351955  1
  Se  Se15  1  0.992806  0.016292  0.849591  1
  Se  Se16  1  0.321723  0.419441  0.717322  1
  Se  Se17  1  0.255766  0.416426  0.911721  1
  Se  Se18  1  0.743635  0.588918  0.086123  1
  Se  Se19  1  0.821721  0.580651  0.782656  1
  Se  Se20  1  0.755684  0.583600  0.588264  1
  Se  Se21  1  0.244106  0.417251  0.411880  1
  Se  Se22  1  0.495358  0.971083  0.859244  1
  Se  Se23  1  0.995348  0.029193  0.640741  1
  Se  Se24  1  0.501764  0.026806  0.139377  1
  Se  Se25  1  0.009439  0.980327  0.149280  1
  Se  Se26  1  0.005788  0.968797  0.360548  1
  Se  Se27  1  0.678888  0.587573  0.282980  1
