# generated using pymatgen
data_LaThSi3Pd
_symmetry_space_group_name_H-M   'P 1'
_cell_length_a   8.29749300
_cell_length_b   8.28315401
_cell_length_c   4.30363500
_cell_angle_alpha   90.00000000
_cell_angle_beta   90.00000000
_cell_angle_gamma   120.05727695
_symmetry_Int_Tables_number   1
_chemical_formula_structural   LaThSi3Pd
_chemical_formula_sum   'La2 Th2 Si6 Pd2'
_cell_volume   256.01048165
_cell_formula_units_Z   2
loop_
 _symmetry_equiv_pos_site_id
 _symmetry_equiv_pos_as_xyz
  1  'x, y, z'
loop_
 _atom_site_type_symbol
 _atom_site_label
 _atom_site_symmetry_multiplicity
 _atom_site_fract_x
 _atom_site_fract_y
 _atom_site_fract_z
 _atom_site_occupancy
  La  La0  1  0.000000  0.500000  0.500000  1
  La  La1  1  0.500000  0.500000  0.500000  1
  Th  Th2  1  0.000000  0.000000  0.500000  1
  Th  Th3  1  0.500000  0.000000  0.500000  1
  Si  Si4  1  0.166674  0.333348  0.000000  1
  Si  Si5  1  0.671611  0.835801  0.000000  1
  Si  Si6  1  0.328389  0.164199  0.000000  1
  Si  Si7  1  0.164188  0.835801  0.000000  1
  Si  Si8  1  0.833326  0.666652  0.000000  1
  Si  Si9  1  0.835812  0.164199  0.000000  1
  Pd  Pd10  1  0.336796  0.673591  0.000000  1
  Pd  Pd11  1  0.663204  0.326409  0.000000  1
