# generated using pymatgen
data_Fe5Pt11
_symmetry_space_group_name_H-M   'P 1'
_cell_length_a   3.89795500
_cell_length_b   5.51575620
_cell_length_c   11.03182925
_cell_angle_alpha   89.99390213
_cell_angle_beta   90.00000000
_cell_angle_gamma   90.00000000
_symmetry_Int_Tables_number   1
_chemical_formula_structural   Fe5Pt11
_chemical_formula_sum   'Fe5 Pt11'
_cell_volume   237.18619701
_cell_formula_units_Z   1
loop_
 _symmetry_equiv_pos_site_id
 _symmetry_equiv_pos_as_xyz
  1  'x, y, z'
loop_
 _atom_site_type_symbol
 _atom_site_label
 _atom_site_symmetry_multiplicity
 _atom_site_fract_x
 _atom_site_fract_y
 _atom_site_fract_z
 _atom_site_occupancy
  Fe  Fe0  1  0.500000  0.751777  0.372531  1
  Fe  Fe1  1  0.500000  0.747035  0.876665  1
  Fe  Fe2  1  0.500000  0.252965  0.123335  1
  Fe  Fe3  1  0.500000  0.248223  0.627469  1
  Fe  Fe4  1  0.000000  0.000000  0.000000  1
  Pt  Pt5  1  0.000000  0.006993  0.243404  1
  Pt  Pt6  1  0.000000  0.993007  0.756596  1
  Pt  Pt7  1  0.000000  0.500000  0.000000  1
  Pt  Pt8  1  0.000000  0.500000  0.500000  1
  Pt  Pt9  1  0.000000  0.506668  0.249637  1
  Pt  Pt10  1  0.000000  0.493332  0.750363  1
  Pt  Pt11  1  0.500000  0.248529  0.374076  1
  Pt  Pt12  1  0.500000  0.235501  0.883204  1
  Pt  Pt13  1  0.500000  0.764499  0.116796  1
  Pt  Pt14  1  0.500000  0.751471  0.625924  1
  Pt  Pt15  1  0.000000  0.000000  0.500000  1
