# generated using pymatgen
data_Th4AlCoSi6
_symmetry_space_group_name_H-M   'P 1'
_cell_length_a   8.18459900
_cell_length_b   8.18459868
_cell_length_c   4.22040700
_cell_angle_alpha   90.00000000
_cell_angle_beta   90.00000000
_cell_angle_gamma   120.00000532
_symmetry_Int_Tables_number   1
_chemical_formula_structural   Th4AlCoSi6
_chemical_formula_sum   'Th4 Al1 Co1 Si6'
_cell_volume   244.83851617
_cell_formula_units_Z   1
loop_
 _symmetry_equiv_pos_site_id
 _symmetry_equiv_pos_as_xyz
  1  'x, y, z'
loop_
 _atom_site_type_symbol
 _atom_site_label
 _atom_site_symmetry_multiplicity
 _atom_site_fract_x
 _atom_site_fract_y
 _atom_site_fract_z
 _atom_site_occupancy
  Th  Th0  1  0.505712  0.494288  0.000000  1
  Th  Th1  1  0.988575  0.494288  0.000000  1
  Th  Th2  1  0.505712  0.011425  0.000000  1
  Th  Th3  1  0.000000  0.000000  0.000000  1
  Al  Al4  1  0.333333  0.666667  0.500000  1
  Co  Co5  1  0.666667  0.333333  0.500000  1
  Si  Si6  1  0.827468  0.654937  0.500000  1
  Si  Si7  1  0.164058  0.835942  0.500000  1
  Si  Si8  1  0.671885  0.835942  0.500000  1
  Si  Si9  1  0.164058  0.328115  0.500000  1
  Si  Si10  1  0.827468  0.172532  0.500000  1
  Si  Si11  1  0.345063  0.172532  0.500000  1
