# generated using pymatgen
data_LaDy2MoO7
_symmetry_space_group_name_H-M   'P 1'
_cell_length_a   6.51616644
_cell_length_b   6.51616573
_cell_length_c   7.64922800
_cell_angle_alpha   90.00000000
_cell_angle_beta   90.00000000
_cell_angle_gamma   108.93841487
_symmetry_Int_Tables_number   1
_chemical_formula_structural   LaDy2MoO7
_chemical_formula_sum   'La2 Dy4 Mo2 O14'
_cell_volume   307.20792542
_cell_formula_units_Z   2
loop_
 _symmetry_equiv_pos_site_id
 _symmetry_equiv_pos_as_xyz
  1  'x, y, z'
loop_
 _atom_site_type_symbol
 _atom_site_label
 _atom_site_symmetry_multiplicity
 _atom_site_fract_x
 _atom_site_fract_y
 _atom_site_fract_z
 _atom_site_occupancy
  La  La0  1  0.500000  0.500000  0.500000  1
  La  La1  1  0.500000  0.500000  0.000000  1
  Dy  Dy2  1  0.534534  0.001255  0.750000  1
  Dy  Dy3  1  0.001255  0.534534  0.250000  1
  Dy  Dy4  1  0.465466  0.998745  0.250000  1
  Dy  Dy5  1  0.998745  0.465466  0.750000  1
  Mo  Mo6  1  0.000000  0.000000  0.500000  1
  Mo  Mo7  1  0.000000  0.000000  0.000000  1
  O  O8  1  0.680774  0.931424  0.470258  1
  O  O9  1  0.931424  0.680774  0.529742  1
  O  O10  1  0.680774  0.931424  0.029742  1
  O  O11  1  0.931424  0.680774  0.970258  1
  O  O12  1  0.319226  0.068576  0.529742  1
  O  O13  1  0.068576  0.319226  0.470258  1
  O  O14  1  0.319226  0.068576  0.970258  1
  O  O15  1  0.068576  0.319226  0.029742  1
  O  O16  1  0.930015  0.069985  0.750000  1
  O  O17  1  0.069985  0.930015  0.250000  1
  O  O18  1  0.361788  0.638212  0.750000  1
  O  O19  1  0.638212  0.361788  0.250000  1
  O  O20  1  0.642584  0.357416  0.750000  1
  O  O21  1  0.357416  0.642584  0.250000  1
