# generated using pymatgen
data_CeY9(Sn3P)2
_symmetry_space_group_name_H-M   'P 1'
_cell_length_a   9.08733700
_cell_length_b   9.08733801
_cell_length_c   6.73942700
_cell_angle_alpha   90.00000000
_cell_angle_beta   90.00000000
_cell_angle_gamma   120.00452121
_symmetry_Int_Tables_number   1
_chemical_formula_structural   CeY9(Sn3P)2
_chemical_formula_sum   'Ce1 Y9 Sn6 P2'
_cell_volume   481.95571391
_cell_formula_units_Z   1
loop_
 _symmetry_equiv_pos_site_id
 _symmetry_equiv_pos_as_xyz
  1  'x, y, z'
loop_
 _atom_site_type_symbol
 _atom_site_label
 _atom_site_symmetry_multiplicity
 _atom_site_fract_x
 _atom_site_fract_y
 _atom_site_fract_z
 _atom_site_occupancy
  Ce  Ce0  1  0.760502  0.760502  0.750000  1
  Y  Y1  1  0.666295  0.332783  0.000481  1
  Y  Y2  1  0.332783  0.666295  0.000481  1
  Y  Y3  1  0.332783  0.666295  0.499519  1
  Y  Y4  1  0.666295  0.332783  0.499519  1
  Y  Y5  1  0.241823  0.000261  0.750000  1
  Y  Y6  1  0.000261  0.241823  0.750000  1
  Y  Y7  1  0.240911  0.240911  0.250000  1
  Y  Y8  1  0.758535  0.000456  0.250000  1
  Y  Y9  1  0.000456  0.758535  0.250000  1
  Sn  Sn10  1  0.399092  0.399092  0.750000  1
  Sn  Sn11  1  0.599599  0.001077  0.750000  1
  Sn  Sn12  1  0.001077  0.599599  0.750000  1
  Sn  Sn13  1  0.599777  0.599777  0.250000  1
  Sn  Sn14  1  0.399912  0.000157  0.250000  1
  Sn  Sn15  1  0.000157  0.399912  0.250000  1
  P  P16  1  0.999870  0.999870  0.000308  1
  P  P17  1  0.999870  0.999870  0.499692  1
