# generated using pymatgen
data_Tb7Lu13Si15Ru
_symmetry_space_group_name_H-M   'P 1'
_cell_length_a   7.27517005
_cell_length_b   7.66155271
_cell_length_c   14.32583941
_cell_angle_alpha   89.95426856
_cell_angle_beta   89.95184013
_cell_angle_gamma   90.00975915
_symmetry_Int_Tables_number   1
_chemical_formula_structural   Tb7Lu13Si15Ru
_chemical_formula_sum   'Tb7 Lu13 Si15 Ru1'
_cell_volume   798.50883044
_cell_formula_units_Z   1
loop_
 _symmetry_equiv_pos_site_id
 _symmetry_equiv_pos_as_xyz
  1  'x, y, z'
loop_
 _atom_site_type_symbol
 _atom_site_label
 _atom_site_symmetry_multiplicity
 _atom_site_fract_x
 _atom_site_fract_y
 _atom_site_fract_z
 _atom_site_occupancy
  Tb  Tb0  1  0.018633  0.821541  0.903651  1
  Tb  Tb1  1  0.479755  0.317069  0.097390  1
  Tb  Tb2  1  0.979611  0.179974  0.403412  1
  Tb  Tb3  1  0.480188  0.317378  0.403921  1
  Tb  Tb4  1  0.980899  0.179879  0.096996  1
  Tb  Tb5  1  0.517388  0.672809  0.904916  1
  Tb  Tb6  1  0.018750  0.820862  0.595531  1
  Lu  Lu7  1  0.666898  0.185746  0.626705  1
  Lu  Lu8  1  0.191379  0.327825  0.872133  1
  Lu  Lu9  1  0.321564  0.821240  0.124963  1
  Lu  Lu10  1  0.819443  0.673564  0.375263  1
  Lu  Lu11  1  0.321823  0.820652  0.375656  1
  Lu  Lu12  1  0.819756  0.674139  0.124762  1
  Lu  Lu13  1  0.666653  0.185734  0.872790  1
  Lu  Lu14  1  0.193177  0.328725  0.626665  1
  Lu  Lu15  1  0.518140  0.672957  0.596862  1
  Lu  Lu16  1  0.837361  0.509835  0.749516  1
  Lu  Lu17  1  0.348956  0.988593  0.749574  1
  Lu  Lu18  1  0.154546  0.487318  0.250084  1
  Lu  Lu19  1  0.655656  0.010122  0.250270  1
  Si  Si20  1  0.651457  0.964813  0.462897  1
  Si  Si21  1  0.152516  0.531321  0.039421  1
  Si  Si22  1  0.344231  0.027600  0.961662  1
  Si  Si23  1  0.849731  0.470006  0.539289  1
  Si  Si24  1  0.345929  0.024185  0.539469  1
  Si  Si25  1  0.852277  0.468340  0.960861  1
  Si  Si26  1  0.651531  0.966923  0.037630  1
  Si  Si27  1  0.151092  0.530931  0.460104  1
  Si  Si28  1  0.976823  0.107295  0.749241  1
  Si  Si29  1  0.524135  0.608271  0.250282  1
  Si  Si30  1  0.022963  0.889299  0.250126  1
  Si  Si31  1  0.731667  0.875103  0.749364  1
  Si  Si32  1  0.223486  0.635252  0.749048  1
  Si  Si33  1  0.275928  0.129213  0.250567  1
  Si  Si34  1  0.777660  0.367828  0.250120  1
  Ru  Ru35  1  0.478000  0.407659  0.748859  1
