# generated using pymatgen
data_La20FeGe8Rh3
_symmetry_space_group_name_H-M   'P 1'
_cell_length_a   8.15260651
_cell_length_b   8.97573300
_cell_length_c   12.64473644
_cell_angle_alpha   90.00000000
_cell_angle_beta   89.68211563
_cell_angle_gamma   90.00000000
_symmetry_Int_Tables_number   1
_chemical_formula_structural   La20FeGe8Rh3
_chemical_formula_sum   'La20 Fe1 Ge8 Rh3'
_cell_volume   925.27217843
_cell_formula_units_Z   1
loop_
 _symmetry_equiv_pos_site_id
 _symmetry_equiv_pos_as_xyz
  1  'x, y, z'
loop_
 _atom_site_type_symbol
 _atom_site_label
 _atom_site_symmetry_multiplicity
 _atom_site_fract_x
 _atom_site_fract_y
 _atom_site_fract_z
 _atom_site_occupancy
  La  La0  1  0.674291  0.480643  0.069388  1
  La  La1  1  0.179671  0.533809  0.423568  1
  La  La2  1  0.323066  0.960017  0.927902  1
  La  La3  1  0.820844  0.034770  0.575337  1
  La  La4  1  0.323066  0.539983  0.927902  1
  La  La5  1  0.820844  0.465230  0.575337  1
  La  La6  1  0.674291  0.019357  0.069388  1
  La  La7  1  0.179671  0.966191  0.423568  1
  La  La8  1  0.956002  0.750000  0.999095  1
  La  La9  1  0.458114  0.250000  0.500353  1
  La  La10  1  0.043211  0.250000  0.000643  1
  La  La11  1  0.542387  0.750000  0.501008  1
  La  La12  1  0.355886  0.750000  0.201696  1
  La  La13  1  0.847578  0.250000  0.293733  1
  La  La14  1  0.647637  0.250000  0.797491  1
  La  La15  1  0.147843  0.750000  0.703833  1
  La  La16  1  0.829331  0.750000  0.283282  1
  La  La17  1  0.329825  0.250000  0.215604  1
  La  La18  1  0.171416  0.250000  0.717735  1
  La  La19  1  0.668821  0.750000  0.789555  1
  Fe  Fe20  1  0.587028  0.750000  0.020270  1
  Ge  Ge21  1  0.558106  0.495291  0.328604  1
  Ge  Ge22  1  0.058281  0.504522  0.171435  1
  Ge  Ge23  1  0.441389  0.995207  0.672059  1
  Ge  Ge24  1  0.941241  0.005374  0.828464  1
  Ge  Ge25  1  0.441389  0.504793  0.672059  1
  Ge  Ge26  1  0.941241  0.494626  0.828464  1
  Ge  Ge27  1  0.558106  0.004709  0.328604  1
  Ge  Ge28  1  0.058281  0.995478  0.171435  1
  Rh  Rh29  1  0.079829  0.250000  0.483105  1
  Rh  Rh30  1  0.419283  0.250000  0.982792  1
  Rh  Rh31  1  0.922030  0.750000  0.516289  1
