# generated using pymatgen
data_Mn2Be8AlCr
_symmetry_space_group_name_H-M   'P 1'
_cell_length_a   4.23059400
_cell_length_b   4.23059411
_cell_length_c   6.90413200
_cell_angle_alpha   90.00000000
_cell_angle_beta   90.00000000
_cell_angle_gamma   119.99999917
_symmetry_Int_Tables_number   1
_chemical_formula_structural   Mn2Be8AlCr
_chemical_formula_sum   'Mn2 Be8 Al1 Cr1'
_cell_volume   107.01445168
_cell_formula_units_Z   1
loop_
 _symmetry_equiv_pos_site_id
 _symmetry_equiv_pos_as_xyz
  1  'x, y, z'
loop_
 _atom_site_type_symbol
 _atom_site_label
 _atom_site_symmetry_multiplicity
 _atom_site_fract_x
 _atom_site_fract_y
 _atom_site_fract_z
 _atom_site_occupancy
  Mn  Mn0  1  0.333333  0.666667  0.451249  1
  Mn  Mn1  1  0.666667  0.333333  0.923159  1
  Be  Be2  1  0.168728  0.337457  0.748248  1
  Be  Be3  1  0.168728  0.831272  0.748248  1
  Be  Be4  1  0.341038  0.170519  0.252221  1
  Be  Be5  1  0.829481  0.658962  0.252221  1
  Be  Be6  1  0.000000  0.000000  0.996914  1
  Be  Be7  1  0.662543  0.831272  0.748248  1
  Be  Be8  1  0.829481  0.170519  0.252221  1
  Be  Be9  1  0.000000  0.000000  0.494827  1
  Al  Al10  1  0.333333  0.666667  0.064629  1
  Cr  Cr11  1  0.666667  0.333333  0.567818  1
