# generated using pymatgen
data_Li3Y3AlSiP
_symmetry_space_group_name_H-M   'P 1'
_cell_length_a   7.06743700
_cell_length_b   7.06743713
_cell_length_c   4.18268500
_cell_angle_alpha   90.00000000
_cell_angle_beta   90.00000000
_cell_angle_gamma   119.99998534
_symmetry_Int_Tables_number   1
_chemical_formula_structural   Li3Y3AlSiP
_chemical_formula_sum   'Li3 Y3 Al1 Si1 P1'
_cell_volume   180.92965476
_cell_formula_units_Z   1
loop_
 _symmetry_equiv_pos_site_id
 _symmetry_equiv_pos_as_xyz
  1  'x, y, z'
loop_
 _atom_site_type_symbol
 _atom_site_label
 _atom_site_symmetry_multiplicity
 _atom_site_fract_x
 _atom_site_fract_y
 _atom_site_fract_z
 _atom_site_occupancy
  Li  Li0  1  0.245545  0.995775  0.500000  1
  Li  Li1  1  0.750231  0.754455  0.500000  1
  Li  Li2  1  0.004225  0.249769  0.500000  1
  Y  Y3  1  0.998342  0.565685  0.000000  1
  Y  Y4  1  0.567343  0.001658  0.000000  1
  Y  Y5  1  0.434315  0.432657  0.000000  1
  Al  Al6  1  0.000000  0.000000  0.000000  1
  Si  Si7  1  0.666667  0.333333  0.500000  1
  P  P8  1  0.333333  0.666667  0.500000  1
