# generated using pymatgen
data_LaPr5U4O20
_symmetry_space_group_name_H-M   'P 1'
_cell_length_a   6.84502894
_cell_length_b   7.75066845
_cell_length_c   8.67936339
_cell_angle_alpha   101.33631799
_cell_angle_beta   97.75058951
_cell_angle_gamma   107.21250427
_symmetry_Int_Tables_number   1
_chemical_formula_structural   LaPr5U4O20
_chemical_formula_sum   'La1 Pr5 U4 O20'
_cell_volume   422.00806058
_cell_formula_units_Z   1
loop_
 _symmetry_equiv_pos_site_id
 _symmetry_equiv_pos_as_xyz
  1  'x, y, z'
loop_
 _atom_site_type_symbol
 _atom_site_label
 _atom_site_symmetry_multiplicity
 _atom_site_fract_x
 _atom_site_fract_y
 _atom_site_fract_z
 _atom_site_occupancy
  La  La0  1  0.000000  0.000000  0.500000  1
  Pr  Pr1  1  0.611147  0.701866  0.701464  1
  Pr  Pr2  1  0.388853  0.298134  0.298536  1
  Pr  Pr3  1  0.200994  0.897245  0.895563  1
  Pr  Pr4  1  0.000000  0.500000  0.500000  1
  Pr  Pr5  1  0.799006  0.102755  0.104437  1
  U  U6  1  0.401820  0.803892  0.302025  1
  U  U7  1  0.198705  0.403191  0.903433  1
  U  U8  1  0.801295  0.596809  0.096567  1
  U  U9  1  0.598180  0.196108  0.697975  1
  O  O10  1  0.433931  0.531344  0.131058  1
  O  O11  1  0.558069  0.994395  0.837141  1
  O  O12  1  0.281383  0.156100  0.747150  1
  O  O13  1  0.362587  0.601043  0.437800  1
  O  O14  1  0.057479  0.727416  0.322799  1
  O  O15  1  0.441931  0.005605  0.162859  1
  O  O16  1  0.148295  0.189409  0.026338  1
  O  O17  1  0.566069  0.468656  0.868942  1
  O  O18  1  0.854909  0.342891  0.951317  1
  O  O19  1  0.257482  0.599902  0.764415  1
  O  O20  1  0.953701  0.771100  0.653532  1
  O  O21  1  0.359704  0.058874  0.454123  1
  O  O22  1  0.640296  0.941126  0.545877  1
  O  O23  1  0.046299  0.228900  0.346468  1
  O  O24  1  0.742518  0.400098  0.235585  1
  O  O25  1  0.145091  0.657109  0.048683  1
  O  O26  1  0.851705  0.810591  0.973662  1
  O  O27  1  0.942521  0.272584  0.677201  1
  O  O28  1  0.637413  0.398957  0.562200  1
  O  O29  1  0.718617  0.843900  0.252850  1
