# generated using pymatgen
data_Sr2SiPdCl
_symmetry_space_group_name_H-M   'P 1'
_cell_length_a   4.21946200
_cell_length_b   4.21946226
_cell_length_c   17.65132300
_cell_angle_alpha   90.00000000
_cell_angle_beta   90.00000000
_cell_angle_gamma   120.00001368
_symmetry_Int_Tables_number   1
_chemical_formula_structural   Sr2SiPdCl
_chemical_formula_sum   'Sr4 Si2 Pd2 Cl2'
_cell_volume   272.15857375
_cell_formula_units_Z   2
loop_
 _symmetry_equiv_pos_site_id
 _symmetry_equiv_pos_as_xyz
  1  'x, y, z'
loop_
 _atom_site_type_symbol
 _atom_site_label
 _atom_site_symmetry_multiplicity
 _atom_site_fract_x
 _atom_site_fract_y
 _atom_site_fract_z
 _atom_site_occupancy
  Sr  Sr0  1  0.000000  0.000000  0.380127  1
  Sr  Sr1  1  0.000000  0.000000  0.880127  1
  Sr  Sr2  1  0.000000  0.000000  0.620653  1
  Sr  Sr3  1  0.000000  0.000000  0.120653  1
  Si  Si4  1  0.333333  0.666667  0.502382  1
  Si  Si5  1  0.666667  0.333333  0.002382  1
  Pd  Pd6  1  0.666667  0.333333  0.497697  1
  Pd  Pd7  1  0.333333  0.666667  0.997697  1
  Cl  Cl8  1  0.333333  0.666667  0.249142  1
  Cl  Cl9  1  0.666667  0.333333  0.749142  1
