# generated using pymatgen
data_LiNd4(Sb4Pd)2
_symmetry_space_group_name_H-M   'P 1'
_cell_length_a   10.99662935
_cell_length_b   10.99662939
_cell_length_c   10.99662900
_cell_angle_alpha   146.87744967
_cell_angle_beta   146.87745000
_cell_angle_gamma   47.54526582
_symmetry_Int_Tables_number   1
_chemical_formula_structural   LiNd4(Sb4Pd)2
_chemical_formula_sum   'Li1 Nd4 Sb8 Pd2'
_cell_volume   395.49914650
_cell_formula_units_Z   1
loop_
 _symmetry_equiv_pos_site_id
 _symmetry_equiv_pos_as_xyz
  1  'x, y, z'
loop_
 _atom_site_type_symbol
 _atom_site_label
 _atom_site_symmetry_multiplicity
 _atom_site_fract_x
 _atom_site_fract_y
 _atom_site_fract_z
 _atom_site_occupancy
  Li  Li0  1  0.000000  0.000000  0.000000  1
  Nd  Nd1  1  0.628120  0.130195  0.000000  1
  Nd  Nd2  1  0.130195  0.628120  0.000000  1
  Nd  Nd3  1  0.869805  0.869805  0.497926  1
  Nd  Nd4  1  0.371880  0.371880  0.502074  1
  Sb  Sb5  1  0.249680  0.249680  0.000000  1
  Sb  Sb6  1  0.750320  0.750320  0.000000  1
  Sb  Sb7  1  0.250000  0.750000  0.500000  1
  Sb  Sb8  1  0.750000  0.250000  0.500000  1
  Sb  Sb9  1  0.331825  0.817747  0.000000  1
  Sb  Sb10  1  0.817747  0.331825  0.000000  1
  Sb  Sb11  1  0.182253  0.182253  0.514077  1
  Sb  Sb12  1  0.668175  0.668175  0.485923  1
  Pd  Pd13  1  0.500000  0.000000  0.500000  1
  Pd  Pd14  1  0.000000  0.500000  0.500000  1
