# generated using pymatgen
data_La9LuIr6
_symmetry_space_group_name_H-M   'P 1'
_cell_length_a   11.41132900
_cell_length_b   11.41132900
_cell_length_c   6.55309400
_cell_angle_alpha   90.00000000
_cell_angle_beta   90.00000000
_cell_angle_gamma   90.00000000
_symmetry_Int_Tables_number   1
_chemical_formula_structural   La9LuIr6
_chemical_formula_sum   'La18 Lu2 Ir12'
_cell_volume   853.33360935
_cell_formula_units_Z   2
loop_
 _symmetry_equiv_pos_site_id
 _symmetry_equiv_pos_as_xyz
  1  'x, y, z'
loop_
 _atom_site_type_symbol
 _atom_site_label
 _atom_site_symmetry_multiplicity
 _atom_site_fract_x
 _atom_site_fract_y
 _atom_site_fract_z
 _atom_site_occupancy
  La  La0  1  0.285748  0.088870  0.387549  1
  La  La1  1  0.285748  0.911130  0.887549  1
  La  La2  1  0.714252  0.088870  0.887549  1
  La  La3  1  0.714252  0.911130  0.387549  1
  La  La4  1  0.590102  0.792039  0.886425  1
  La  La5  1  0.590102  0.207961  0.386425  1
  La  La6  1  0.409898  0.792039  0.386425  1
  La  La7  1  0.409898  0.207961  0.886425  1
  La  La8  1  0.207961  0.409898  0.613575  1
  La  La9  1  0.207961  0.590102  0.113575  1
  La  La10  1  0.792039  0.409898  0.113575  1
  La  La11  1  0.792039  0.590102  0.613575  1
  La  La12  1  0.911130  0.714252  0.112451  1
  La  La13  1  0.911130  0.285748  0.612451  1
  La  La14  1  0.088870  0.714252  0.612451  1
  La  La15  1  0.088870  0.285748  0.112451  1
  La  La16  1  0.500000  0.500000  0.000000  1
  La  La17  1  0.500000  0.500000  0.500000  1
  Lu  Lu18  1  0.000000  0.000000  0.500000  1
  Lu  Lu19  1  0.000000  0.000000  0.000000  1
  Ir  Ir20  1  0.854740  0.145260  0.250000  1
  Ir  Ir21  1  0.854740  0.854740  0.750000  1
  Ir  Ir22  1  0.145260  0.145260  0.750000  1
  Ir  Ir23  1  0.145260  0.854740  0.250000  1
  Ir  Ir24  1  0.655028  0.344972  0.750000  1
  Ir  Ir25  1  0.655028  0.655028  0.250000  1
  Ir  Ir26  1  0.344972  0.344972  0.250000  1
  Ir  Ir27  1  0.344972  0.655028  0.750000  1
  Ir  Ir28  1  0.500000  0.000000  0.117480  1
  Ir  Ir29  1  0.500000  0.000000  0.617480  1
  Ir  Ir30  1  0.000000  0.500000  0.882520  1
  Ir  Ir31  1  0.000000  0.500000  0.382520  1
