# generated using pymatgen
data_YbDyHo8(In2Pd)4
_symmetry_space_group_name_H-M   'P 1'
_cell_length_a   3.60031300
_cell_length_b   8.17381032
_cell_length_c   18.29542105
_cell_angle_alpha   89.95259361
_cell_angle_beta   90.00000000
_cell_angle_gamma   90.00000000
_symmetry_Int_Tables_number   1
_chemical_formula_structural   YbDyHo8(In2Pd)4
_chemical_formula_sum   'Yb1 Dy1 Ho8 In8 Pd4'
_cell_volume   538.40250749
_cell_formula_units_Z   1
loop_
 _symmetry_equiv_pos_site_id
 _symmetry_equiv_pos_as_xyz
  1  'x, y, z'
loop_
 _atom_site_type_symbol
 _atom_site_label
 _atom_site_symmetry_multiplicity
 _atom_site_fract_x
 _atom_site_fract_y
 _atom_site_fract_z
 _atom_site_occupancy
  Yb  Yb0  1  0.000000  0.000000  0.000000  1
  Dy  Dy1  1  0.000000  0.500000  0.500000  1
  Ho  Ho2  1  0.000000  0.118685  0.415704  1
  Ho  Ho3  1  0.000000  0.881315  0.584296  1
  Ho  Ho4  1  0.000000  0.380360  0.915231  1
  Ho  Ho5  1  0.000000  0.619640  0.084769  1
  Ho  Ho6  1  0.000000  0.242591  0.220001  1
  Ho  Ho7  1  0.000000  0.757409  0.779999  1
  Ho  Ho8  1  0.000000  0.257775  0.719646  1
  Ho  Ho9  1  0.000000  0.742225  0.280354  1
  In  In10  1  0.500000  0.423275  0.350541  1
  In  In11  1  0.500000  0.576725  0.649459  1
  In  In12  1  0.500000  0.076010  0.850086  1
  In  In13  1  0.500000  0.923990  0.149914  1
  In  In14  1  0.500000  0.293499  0.067498  1
  In  In15  1  0.500000  0.706501  0.932502  1
  In  In16  1  0.500000  0.207146  0.567161  1
  In  In17  1  0.500000  0.792854  0.432839  1
  Pd  Pd18  1  0.500000  0.024578  0.303463  1
  Pd  Pd19  1  0.500000  0.975422  0.696537  1
  Pd  Pd20  1  0.500000  0.476352  0.803266  1
  Pd  Pd21  1  0.500000  0.523648  0.196734  1
