# generated using pymatgen
data_Dy2Lu14CdIn3Ir4
_symmetry_space_group_name_H-M   'P 1'
_cell_length_a   9.49198005
_cell_length_b   9.49460921
_cell_length_c   9.48576300
_cell_angle_alpha   60.03081241
_cell_angle_beta   60.02166070
_cell_angle_gamma   59.94076360
_symmetry_Int_Tables_number   1
_chemical_formula_structural   Dy2Lu14CdIn3Ir4
_chemical_formula_sum   'Dy2 Lu14 Cd1 In3 Ir4'
_cell_volume   604.46106801
_cell_formula_units_Z   1
loop_
 _symmetry_equiv_pos_site_id
 _symmetry_equiv_pos_as_xyz
  1  'x, y, z'
loop_
 _atom_site_type_symbol
 _atom_site_label
 _atom_site_symmetry_multiplicity
 _atom_site_fract_x
 _atom_site_fract_y
 _atom_site_fract_z
 _atom_site_occupancy
  Dy  Dy0  1  0.813805  0.812427  0.186885  1
  Dy  Dy1  1  0.188893  0.184794  0.813156  1
  Lu  Lu2  1  0.599609  0.598965  0.597607  1
  Lu  Lu3  1  0.599609  0.598965  0.203818  1
  Lu  Lu4  1  0.598036  0.204093  0.598936  1
  Lu  Lu5  1  0.202826  0.598195  0.599490  1
  Lu  Lu6  1  0.057893  0.441697  0.441818  1
  Lu  Lu7  1  0.440362  0.059673  0.059683  1
  Lu  Lu8  1  0.440362  0.059673  0.440281  1
  Lu  Lu9  1  0.057893  0.441697  0.058592  1
  Lu  Lu10  1  0.440510  0.440724  0.059383  1
  Lu  Lu11  1  0.058027  0.058264  0.441854  1
  Lu  Lu12  1  0.192730  0.808936  0.808847  1
  Lu  Lu13  1  0.809817  0.191184  0.190726  1
  Lu  Lu14  1  0.809817  0.191184  0.808273  1
  Lu  Lu15  1  0.192730  0.808936  0.189487  1
  Cd  Cd16  1  0.502172  0.831494  0.833167  1
  In  In17  1  0.832071  0.834389  0.831536  1
  In  In18  1  0.832071  0.834389  0.502005  1
  In  In19  1  0.830684  0.500781  0.834268  1
  Ir  Ir20  1  0.391530  0.391591  0.389928  1
  Ir  Ir21  1  0.391530  0.391591  0.826950  1
  Ir  Ir22  1  0.390025  0.826729  0.391623  1
  Ir  Ir23  1  0.826994  0.389628  0.391689  1
