# generated using pymatgen
data_TmCo4As2PRu
_symmetry_space_group_name_H-M   'P 1'
_cell_length_a   3.75947600
_cell_length_b   10.64234000
_cell_length_c   12.05287100
_cell_angle_alpha   90.00000000
_cell_angle_beta   90.00000000
_cell_angle_gamma   90.00000000
_symmetry_Int_Tables_number   1
_chemical_formula_structural   TmCo4As2PRu
_chemical_formula_sum   'Tm4 Co16 As8 P4 Ru4'
_cell_volume   482.23081048
_cell_formula_units_Z   4
loop_
 _symmetry_equiv_pos_site_id
 _symmetry_equiv_pos_as_xyz
  1  'x, y, z'
loop_
 _atom_site_type_symbol
 _atom_site_label
 _atom_site_symmetry_multiplicity
 _atom_site_fract_x
 _atom_site_fract_y
 _atom_site_fract_z
 _atom_site_occupancy
  Tm  Tm0  1  0.250000  0.578424  0.698520  1
  Tm  Tm1  1  0.250000  0.921576  0.198520  1
  Tm  Tm2  1  0.750000  0.421576  0.301480  1
  Tm  Tm3  1  0.750000  0.078424  0.801480  1
  Co  Co4  1  0.250000  0.414067  0.489977  1
  Co  Co5  1  0.250000  0.085933  0.989977  1
  Co  Co6  1  0.750000  0.585933  0.510023  1
  Co  Co7  1  0.750000  0.914067  0.010023  1
  Co  Co8  1  0.250000  0.209015  0.171558  1
  Co  Co9  1  0.250000  0.290985  0.671558  1
  Co  Co10  1  0.750000  0.790985  0.828442  1
  Co  Co11  1  0.750000  0.709015  0.328442  1
  Co  Co12  1  0.250000  0.889604  0.707787  1
  Co  Co13  1  0.250000  0.610396  0.207787  1
  Co  Co14  1  0.750000  0.110396  0.292213  1
  Co  Co15  1  0.750000  0.389604  0.792213  1
  Co  Co16  1  0.250000  0.466438  0.929178  1
  Co  Co17  1  0.250000  0.033562  0.429178  1
  Co  Co18  1  0.750000  0.533562  0.070822  1
  Co  Co19  1  0.750000  0.966438  0.570822  1
  As  As20  1  0.250000  0.414585  0.114700  1
  As  As21  1  0.250000  0.085415  0.614700  1
  As  As22  1  0.750000  0.585415  0.885300  1
  As  As23  1  0.750000  0.914585  0.385300  1
  As  As24  1  0.250000  0.267513  0.864620  1
  As  As25  1  0.250000  0.232487  0.364620  1
  As  As26  1  0.750000  0.732487  0.135380  1
  As  As27  1  0.750000  0.767513  0.635380  1
  P  P28  1  0.250000  0.595212  0.391457  1
  P  P29  1  0.250000  0.904788  0.891457  1
  P  P30  1  0.750000  0.404788  0.608543  1
  P  P31  1  0.750000  0.095212  0.108543  1
  Ru  Ru32  1  0.250000  0.721878  0.992024  1
  Ru  Ru33  1  0.250000  0.778122  0.492024  1
  Ru  Ru34  1  0.750000  0.278122  0.007976  1
  Ru  Ru35  1  0.750000  0.221878  0.507976  1
