# generated using pymatgen
data_Dy16In4IrOsPt2
_symmetry_space_group_name_H-M   'P 1'
_cell_length_a   9.70359603
_cell_length_b   9.70044864
_cell_length_c   9.70044611
_cell_angle_alpha   59.96341952
_cell_angle_beta   59.99000895
_cell_angle_gamma   59.99000931
_symmetry_Int_Tables_number   1
_chemical_formula_structural   Dy16In4IrOsPt2
_chemical_formula_sum   'Dy16 In4 Ir1 Os1 Pt2'
_cell_volume   645.37994660
_cell_formula_units_Z   1
loop_
 _symmetry_equiv_pos_site_id
 _symmetry_equiv_pos_as_xyz
  1  'x, y, z'
loop_
 _atom_site_type_symbol
 _atom_site_label
 _atom_site_symmetry_multiplicity
 _atom_site_fract_x
 _atom_site_fract_y
 _atom_site_fract_z
 _atom_site_occupancy
  Dy  Dy0  1  0.603001  0.598050  0.598050  1
  Dy  Dy1  1  0.601129  0.597118  0.203202  1
  Dy  Dy2  1  0.601129  0.203202  0.597118  1
  Dy  Dy3  1  0.200530  0.598995  0.598995  1
  Dy  Dy4  1  0.060739  0.439726  0.439726  1
  Dy  Dy5  1  0.440514  0.057602  0.057602  1
  Dy  Dy6  1  0.440285  0.063643  0.439959  1
  Dy  Dy7  1  0.054877  0.439891  0.061688  1
  Dy  Dy8  1  0.440285  0.439959  0.063643  1
  Dy  Dy9  1  0.054877  0.061688  0.439891  1
  Dy  Dy10  1  0.187413  0.812879  0.812879  1
  Dy  Dy11  1  0.805758  0.191309  0.191309  1
  Dy  Dy12  1  0.813910  0.187813  0.810552  1
  Dy  Dy13  1  0.191043  0.804893  0.190459  1
  Dy  Dy14  1  0.813910  0.810552  0.187813  1
  Dy  Dy15  1  0.191043  0.190459  0.804893  1
  In  In16  1  0.832868  0.833119  0.833119  1
  In  In17  1  0.832435  0.832763  0.501544  1
  In  In18  1  0.832435  0.501544  0.832763  1
  In  In19  1  0.501673  0.832412  0.832412  1
  Ir  Ir20  1  0.825706  0.392210  0.392210  1
  Os  Os21  1  0.391184  0.392355  0.392355  1
  Pt  Pt22  1  0.391628  0.392560  0.825259  1
  Pt  Pt23  1  0.391628  0.825259  0.392560  1
