# generated using pymatgen
data_HoMgZn3Rh
_symmetry_space_group_name_H-M   'P 1'
_cell_length_a   5.32787231
_cell_length_b   5.32787218
_cell_length_c   5.32787116
_cell_angle_alpha   58.96550326
_cell_angle_beta   58.96550287
_cell_angle_gamma   58.96551580
_symmetry_Int_Tables_number   1
_chemical_formula_structural   HoMgZn3Rh
_chemical_formula_sum   'Ho1 Mg1 Zn3 Rh1'
_cell_volume   104.41747759
_cell_formula_units_Z   1
loop_
 _symmetry_equiv_pos_site_id
 _symmetry_equiv_pos_as_xyz
  1  'x, y, z'
loop_
 _atom_site_type_symbol
 _atom_site_label
 _atom_site_symmetry_multiplicity
 _atom_site_fract_x
 _atom_site_fract_y
 _atom_site_fract_z
 _atom_site_occupancy
  Ho  Ho0  1  0.252785  0.252785  0.252785  1
  Mg  Mg1  1  0.998248  0.998248  0.998248  1
  Zn  Zn2  1  0.625854  0.625854  0.122437  1
  Zn  Zn3  1  0.625854  0.122437  0.625854  1
  Zn  Zn4  1  0.122437  0.625854  0.625854  1
  Rh  Rh5  1  0.624822  0.624822  0.624822  1
