# generated using pymatgen
data_Dy4Mn7Fe13P12
_symmetry_space_group_name_H-M   'P 1'
_cell_length_a   3.64215400
_cell_length_b   10.28278529
_cell_length_c   12.14407070
_cell_angle_alpha   89.99234660
_cell_angle_beta   90.00000000
_cell_angle_gamma   90.00000000
_symmetry_Int_Tables_number   1
_chemical_formula_structural   Dy4Mn7Fe13P12
_chemical_formula_sum   'Dy4 Mn7 Fe13 P12'
_cell_volume   454.81350882
_cell_formula_units_Z   1
loop_
 _symmetry_equiv_pos_site_id
 _symmetry_equiv_pos_as_xyz
  1  'x, y, z'
loop_
 _atom_site_type_symbol
 _atom_site_label
 _atom_site_symmetry_multiplicity
 _atom_site_fract_x
 _atom_site_fract_y
 _atom_site_fract_z
 _atom_site_occupancy
  Dy  Dy0  1  0.250000  0.580091  0.710118  1
  Dy  Dy1  1  0.250000  0.919015  0.210405  1
  Dy  Dy2  1  0.750000  0.419222  0.289601  1
  Dy  Dy3  1  0.750000  0.080558  0.789883  1
  Mn  Mn4  1  0.250000  0.704877  0.992065  1
  Mn  Mn5  1  0.250000  0.794850  0.491655  1
  Mn  Mn6  1  0.750000  0.294288  0.007162  1
  Mn  Mn7  1  0.750000  0.205463  0.507671  1
  Mn  Mn8  1  0.250000  0.408215  0.489945  1
  Mn  Mn9  1  0.250000  0.091986  0.991021  1
  Mn  Mn10  1  0.750000  0.591758  0.509674  1
  Fe  Fe11  1  0.750000  0.910804  0.010923  1
  Fe  Fe12  1  0.250000  0.219660  0.170866  1
  Fe  Fe13  1  0.250000  0.279273  0.671141  1
  Fe  Fe14  1  0.750000  0.778569  0.828660  1
  Fe  Fe15  1  0.750000  0.720929  0.328311  1
  Fe  Fe16  1  0.250000  0.877520  0.696097  1
  Fe  Fe17  1  0.250000  0.623049  0.194976  1
  Fe  Fe18  1  0.750000  0.122676  0.304210  1
  Fe  Fe19  1  0.750000  0.377599  0.804090  1
  Fe  Fe20  1  0.250000  0.462922  0.936229  1
  Fe  Fe21  1  0.250000  0.037030  0.436193  1
  Fe  Fe22  1  0.750000  0.537001  0.064237  1
  Fe  Fe23  1  0.750000  0.962832  0.564217  1
  P  P24  1  0.250000  0.422883  0.113060  1
  P  P25  1  0.250000  0.077033  0.612972  1
  P  P26  1  0.750000  0.576159  0.887047  1
  P  P27  1  0.750000  0.923399  0.386914  1
  P  P28  1  0.250000  0.270269  0.859512  1
  P  P29  1  0.250000  0.230515  0.360640  1
  P  P30  1  0.750000  0.730973  0.139374  1
  P  P31  1  0.750000  0.769247  0.639996  1
  P  P32  1  0.250000  0.603389  0.380847  1
  P  P33  1  0.250000  0.895509  0.881836  1
  P  P34  1  0.750000  0.396506  0.618484  1
  P  P35  1  0.750000  0.103931  0.119971  1
