# generated using pymatgen
data_Sc2TiBe2Ir5
_symmetry_space_group_name_H-M   'P 1'
_cell_length_a   9.50192200
_cell_length_b   9.50192200
_cell_length_c   3.15332200
_cell_angle_alpha   90.00000000
_cell_angle_beta   90.00000000
_cell_angle_gamma   90.00000000
_symmetry_Int_Tables_number   1
_chemical_formula_structural   Sc2TiBe2Ir5
_chemical_formula_sum   'Sc4 Ti2 Be4 Ir10'
_cell_volume   284.70247516
_cell_formula_units_Z   2
loop_
 _symmetry_equiv_pos_site_id
 _symmetry_equiv_pos_as_xyz
  1  'x, y, z'
loop_
 _atom_site_type_symbol
 _atom_site_label
 _atom_site_symmetry_multiplicity
 _atom_site_fract_x
 _atom_site_fract_y
 _atom_site_fract_z
 _atom_site_occupancy
  Sc  Sc0  1  0.675683  0.175683  0.000000  1
  Sc  Sc1  1  0.324317  0.824317  0.000000  1
  Sc  Sc2  1  0.175683  0.324317  0.000000  1
  Sc  Sc3  1  0.824317  0.675683  0.000000  1
  Ti  Ti4  1  0.000000  0.000000  0.000000  1
  Ti  Ti5  1  0.500000  0.500000  0.000000  1
  Be  Be6  1  0.122698  0.622698  0.000000  1
  Be  Be7  1  0.877302  0.377302  0.000000  1
  Be  Be8  1  0.622698  0.877302  0.000000  1
  Be  Be9  1  0.377302  0.122698  0.000000  1
  Ir  Ir10  1  0.210806  0.069148  0.500000  1
  Ir  Ir11  1  0.789194  0.930852  0.500000  1
  Ir  Ir12  1  0.069148  0.789194  0.500000  1
  Ir  Ir13  1  0.710806  0.430852  0.500000  1
  Ir  Ir14  1  0.930852  0.210806  0.500000  1
  Ir  Ir15  1  0.289194  0.569148  0.500000  1
  Ir  Ir16  1  0.569148  0.710806  0.500000  1
  Ir  Ir17  1  0.430852  0.289194  0.500000  1
  Ir  Ir18  1  0.500000  0.000000  0.500000  1
  Ir  Ir19  1  0.000000  0.500000  0.500000  1
