# generated using pymatgen
data_Lu4ZnCoPb5
_symmetry_space_group_name_H-M   'P 1'
_cell_length_a   8.09080925
_cell_length_b   3.53475000
_cell_length_c   9.80378214
_cell_angle_alpha   90.00000000
_cell_angle_beta   94.81521346
_cell_angle_gamma   90.00000000
_symmetry_Int_Tables_number   1
_chemical_formula_structural   Lu4ZnCoPb5
_chemical_formula_sum   'Lu4 Zn1 Co1 Pb5'
_cell_volume   279.38868259
_cell_formula_units_Z   1
loop_
 _symmetry_equiv_pos_site_id
 _symmetry_equiv_pos_as_xyz
  1  'x, y, z'
loop_
 _atom_site_type_symbol
 _atom_site_label
 _atom_site_symmetry_multiplicity
 _atom_site_fract_x
 _atom_site_fract_y
 _atom_site_fract_z
 _atom_site_occupancy
  Lu  Lu0  1  0.790625  0.500001  0.144819  1
  Lu  Lu1  1  0.202500  0.500001  0.450023  1
  Lu  Lu2  1  0.817218  0.500001  0.586807  1
  Lu  Lu3  1  0.194523  0.500001  0.817152  1
  Zn  Zn4  1  0.918936  0.000000  0.373707  1
  Co  Co5  1  0.073147  0.000000  0.622204  1
  Pb  Pb6  1  0.488041  0.000000  0.995798  1
  Pb  Pb7  1  0.141862  0.000000  0.142599  1
  Pb  Pb8  1  0.538462  0.000000  0.336837  1
  Pb  Pb9  1  0.468838  0.000000  0.660671  1
  Pb  Pb10  1  0.865846  0.000000  0.869383  1
