# generated using pymatgen
data_Dy6Ho6AlCo4Sn
_symmetry_space_group_name_H-M   'P 1'
_cell_length_a   8.32274059
_cell_length_b   8.32274064
_cell_length_c   8.31992424
_cell_angle_alpha   112.04667805
_cell_angle_beta   109.31786051
_cell_angle_gamma   107.10168499
_symmetry_Int_Tables_number   1
_chemical_formula_structural   Dy6Ho6AlCo4Sn
_chemical_formula_sum   'Dy6 Ho6 Al1 Co4 Sn1'
_cell_volume   442.72883601
_cell_formula_units_Z   1
loop_
 _symmetry_equiv_pos_site_id
 _symmetry_equiv_pos_as_xyz
  1  'x, y, z'
loop_
 _atom_site_type_symbol
 _atom_site_label
 _atom_site_symmetry_multiplicity
 _atom_site_fract_x
 _atom_site_fract_y
 _atom_site_fract_z
 _atom_site_occupancy
  Dy  Dy0  1  0.436832  0.233999  0.202120  1
  Dy  Dy1  1  0.563168  0.766001  0.797880  1
  Dy  Dy2  1  0.031877  0.234712  0.797880  1
  Dy  Dy3  1  0.968123  0.765288  0.202120  1
  Dy  Dy4  1  0.180726  0.281833  0.462561  1
  Dy  Dy5  1  0.819274  0.718167  0.537439  1
  Ho  Ho6  1  0.180533  0.718485  0.899018  1
  Ho  Ho7  1  0.819467  0.281515  0.100982  1
  Ho  Ho8  1  0.323861  0.637651  0.313303  1
  Ho  Ho9  1  0.676139  0.362349  0.686697  1
  Ho  Ho10  1  0.324349  0.010558  0.686697  1
  Ho  Ho11  1  0.675651  0.989442  0.313303  1
  Al  Al12  1  0.000000  0.000000  0.000000  1
  Co  Co13  1  0.337510  0.999469  0.336980  1
  Co  Co14  1  0.662490  0.000531  0.663020  1
  Co  Co15  1  0.114192  0.614192  0.500000  1
  Co  Co16  1  0.885808  0.385808  0.500000  1
  Sn  Sn17  1  0.500000  0.500000  0.000000  1
