# generated using pymatgen
data_Tb17Tm(MgPb8)2
_symmetry_space_group_name_H-M   'P 1'
_cell_length_a   8.13244208
_cell_length_b   15.80323100
_cell_length_c   8.23781200
_cell_angle_alpha   90.00000000
_cell_angle_beta   89.72148272
_cell_angle_gamma   90.00000000
_symmetry_Int_Tables_number   1
_chemical_formula_structural   Tb17Tm(MgPb8)2
_chemical_formula_sum   'Tb17 Tm1 Mg2 Pb16'
_cell_volume   1058.70170551
_cell_formula_units_Z   1
loop_
 _symmetry_equiv_pos_site_id
 _symmetry_equiv_pos_as_xyz
  1  'x, y, z'
loop_
 _atom_site_type_symbol
 _atom_site_label
 _atom_site_symmetry_multiplicity
 _atom_site_fract_x
 _atom_site_fract_y
 _atom_site_fract_z
 _atom_site_occupancy
  Tb  Tb0  1  0.618829  0.620702  0.156189  1
  Tb  Tb1  1  0.127073  0.878702  0.336538  1
  Tb  Tb2  1  0.373295  0.121613  0.836352  1
  Tb  Tb3  1  0.880650  0.378927  0.655818  1
  Tb  Tb4  1  0.373295  0.378387  0.836352  1
  Tb  Tb5  1  0.880650  0.121073  0.655818  1
  Tb  Tb6  1  0.618829  0.879298  0.156189  1
  Tb  Tb7  1  0.127073  0.621298  0.336538  1
  Tb  Tb8  1  0.466489  0.597912  0.682577  1
  Tb  Tb9  1  0.971252  0.903150  0.824228  1
  Tb  Tb10  1  0.529429  0.097470  0.324046  1
  Tb  Tb11  1  0.033078  0.401942  0.182576  1
  Tb  Tb12  1  0.529429  0.402530  0.324046  1
  Tb  Tb13  1  0.033078  0.098058  0.182576  1
  Tb  Tb14  1  0.466489  0.902088  0.682577  1
  Tb  Tb15  1  0.971252  0.596850  0.824228  1
  Tb  Tb16  1  0.796336  0.750000  0.494694  1
  Tm  Tm17  1  0.703358  0.250000  0.994551  1
  Mg  Mg18  1  0.293229  0.750000  0.002146  1
  Mg  Mg19  1  0.207395  0.250000  0.502226  1
  Pb  Pb20  1  0.717401  0.455346  0.966987  1
  Pb  Pb21  1  0.216254  0.040261  0.536339  1
  Pb  Pb22  1  0.284024  0.959826  0.036042  1
  Pb  Pb23  1  0.782468  0.543736  0.466619  1
  Pb  Pb24  1  0.284024  0.540174  0.036042  1
  Pb  Pb25  1  0.782468  0.956264  0.466619  1
  Pb  Pb26  1  0.717401  0.044654  0.966987  1
  Pb  Pb27  1  0.216254  0.459739  0.536339  1
  Pb  Pb28  1  0.428466  0.750000  0.379967  1
  Pb  Pb29  1  0.933559  0.750000  0.117731  1
  Pb  Pb30  1  0.567095  0.250000  0.618793  1
  Pb  Pb31  1  0.069707  0.250000  0.880921  1
  Pb  Pb32  1  0.659753  0.750000  0.847315  1
  Pb  Pb33  1  0.156823  0.750000  0.654282  1
  Pb  Pb34  1  0.344549  0.250000  0.153858  1
  Pb  Pb35  1  0.839248  0.250000  0.344887  1
