# generated using pymatgen
data_Lu10FeHg3
_symmetry_space_group_name_H-M   'P 1'
_cell_length_a   9.37022800
_cell_length_b   9.37022881
_cell_length_c   9.42596800
_cell_angle_alpha   90.00000000
_cell_angle_beta   90.00000000
_cell_angle_gamma   119.99999008
_symmetry_Int_Tables_number   1
_chemical_formula_structural   Lu10FeHg3
_chemical_formula_sum   'Lu20 Fe2 Hg6'
_cell_volume   716.73232296
_cell_formula_units_Z   2
loop_
 _symmetry_equiv_pos_site_id
 _symmetry_equiv_pos_as_xyz
  1  'x, y, z'
loop_
 _atom_site_type_symbol
 _atom_site_label
 _atom_site_symmetry_multiplicity
 _atom_site_fract_x
 _atom_site_fract_y
 _atom_site_fract_z
 _atom_site_occupancy
  Lu  Lu0  1  0.000000  0.000000  0.500000  1
  Lu  Lu1  1  0.000000  0.000000  0.000000  1
  Lu  Lu2  1  0.540937  0.459063  0.250000  1
  Lu  Lu3  1  0.540937  0.081873  0.250000  1
  Lu  Lu4  1  0.918127  0.459063  0.250000  1
  Lu  Lu5  1  0.459063  0.540937  0.750000  1
  Lu  Lu6  1  0.459063  0.918127  0.750000  1
  Lu  Lu7  1  0.081873  0.540937  0.750000  1
  Lu  Lu8  1  0.212209  0.787791  0.436966  1
  Lu  Lu9  1  0.212209  0.424418  0.436966  1
  Lu  Lu10  1  0.575582  0.787791  0.436966  1
  Lu  Lu11  1  0.787791  0.212209  0.563034  1
  Lu  Lu12  1  0.787791  0.575582  0.563034  1
  Lu  Lu13  1  0.424418  0.212209  0.563034  1
  Lu  Lu14  1  0.787791  0.212209  0.936966  1
  Lu  Lu15  1  0.787791  0.575582  0.936966  1
  Lu  Lu16  1  0.424418  0.212209  0.936966  1
  Lu  Lu17  1  0.212209  0.787791  0.063034  1
  Lu  Lu18  1  0.212209  0.424418  0.063034  1
  Lu  Lu19  1  0.575582  0.787791  0.063034  1
  Fe  Fe20  1  0.333333  0.666667  0.250000  1
  Fe  Fe21  1  0.666667  0.333333  0.750000  1
  Hg  Hg22  1  0.882223  0.117777  0.250000  1
  Hg  Hg23  1  0.882223  0.764446  0.250000  1
  Hg  Hg24  1  0.235554  0.117777  0.250000  1
  Hg  Hg25  1  0.117777  0.882223  0.750000  1
  Hg  Hg26  1  0.117777  0.235554  0.750000  1
  Hg  Hg27  1  0.764446  0.882223  0.750000  1
