# generated using pymatgen
data_PrSm7(Si3Rh)4
_symmetry_space_group_name_H-M   'P 1'
_cell_length_a   8.25606091
_cell_length_b   8.26133411
_cell_length_c   8.19991500
_cell_angle_alpha   90.00000000
_cell_angle_beta   90.00000000
_cell_angle_gamma   120.02112050
_symmetry_Int_Tables_number   1
_chemical_formula_structural   PrSm7(Si3Rh)4
_chemical_formula_sum   'Pr1 Sm7 Si12 Rh4'
_cell_volume   484.25107065
_cell_formula_units_Z   1
loop_
 _symmetry_equiv_pos_site_id
 _symmetry_equiv_pos_as_xyz
  1  'x, y, z'
loop_
 _atom_site_type_symbol
 _atom_site_label
 _atom_site_symmetry_multiplicity
 _atom_site_fract_x
 _atom_site_fract_y
 _atom_site_fract_z
 _atom_site_occupancy
  Pr  Pr0  1  0.015214  0.507607  0.750000  1
  Sm  Sm1  1  0.000415  0.000207  0.250000  1
  Sm  Sm2  1  0.999657  0.999829  0.750000  1
  Sm  Sm3  1  0.506914  0.492955  0.250000  1
  Sm  Sm4  1  0.506914  0.013960  0.250000  1
  Sm  Sm5  1  0.985909  0.492954  0.250000  1
  Sm  Sm6  1  0.493377  0.507326  0.750000  1
  Sm  Sm7  1  0.493377  0.986051  0.750000  1
  Si  Si8  1  0.167358  0.834584  0.499329  1
  Si  Si9  1  0.167358  0.332774  0.499329  1
  Si  Si10  1  0.666353  0.833177  0.500756  1
  Si  Si11  1  0.832644  0.165893  0.498099  1
  Si  Si12  1  0.832644  0.666751  0.498099  1
  Si  Si13  1  0.333557  0.166778  0.498907  1
  Si  Si14  1  0.832644  0.165893  0.001901  1
  Si  Si15  1  0.832644  0.666751  0.001901  1
  Si  Si16  1  0.333557  0.166778  0.001093  1
  Si  Si17  1  0.167358  0.834584  0.000671  1
  Si  Si18  1  0.167358  0.332774  0.000671  1
  Si  Si19  1  0.666353  0.833177  0.999244  1
  Rh  Rh20  1  0.334078  0.667039  0.469983  1
  Rh  Rh21  1  0.665120  0.332560  0.528022  1
  Rh  Rh22  1  0.665120  0.332560  0.971978  1
  Rh  Rh23  1  0.334078  0.667039  0.030017  1
