# generated using pymatgen
data_Tb2Dy4ReBi2
_symmetry_space_group_name_H-M   'P 1'
_cell_length_a   4.34831700
_cell_length_b   8.29126638
_cell_length_c   8.29171200
_cell_angle_alpha   119.99821464
_cell_angle_beta   90.00000000
_cell_angle_gamma   90.00000000
_symmetry_Int_Tables_number   1
_chemical_formula_structural   Tb2Dy4ReBi2
_chemical_formula_sum   'Tb2 Dy4 Re1 Bi2'
_cell_volume   258.89562980
_cell_formula_units_Z   1
loop_
 _symmetry_equiv_pos_site_id
 _symmetry_equiv_pos_as_xyz
  1  'x, y, z'
loop_
 _atom_site_type_symbol
 _atom_site_label
 _atom_site_symmetry_multiplicity
 _atom_site_fract_x
 _atom_site_fract_y
 _atom_site_fract_z
 _atom_site_occupancy
  Tb  Tb0  1  0.000000  0.389799  0.389787  1
  Tb  Tb1  1  0.000000  0.000012  0.610213  1
  Dy  Dy2  1  0.500000  0.767901  0.767958  1
  Dy  Dy3  1  0.500000  0.999943  0.232042  1
  Dy  Dy4  1  0.500000  0.232099  0.000000  1
  Dy  Dy5  1  0.000000  0.610269  0.000000  1
  Re  Re6  1  0.000000  0.999920  0.000000  1
  Bi  Bi7  1  0.500000  0.666668  0.333276  1
  Bi  Bi8  1  0.500000  0.333390  0.666724  1
