# generated using pymatgen
data_Tb2Lu4ReBiPb
_symmetry_space_group_name_H-M   'P 1'
_cell_length_a   8.13355237
_cell_length_b   8.12306074
_cell_length_c   4.35331900
_cell_angle_alpha   90.00000000
_cell_angle_beta   90.00000000
_cell_angle_gamma   120.15039717
_symmetry_Int_Tables_number   1
_chemical_formula_structural   Tb2Lu4ReBiPb
_chemical_formula_sum   'Tb2 Lu4 Re1 Bi1 Pb1'
_cell_volume   248.70866778
_cell_formula_units_Z   1
loop_
 _symmetry_equiv_pos_site_id
 _symmetry_equiv_pos_as_xyz
  1  'x, y, z'
loop_
 _atom_site_type_symbol
 _atom_site_label
 _atom_site_symmetry_multiplicity
 _atom_site_fract_x
 _atom_site_fract_y
 _atom_site_fract_z
 _atom_site_occupancy
  Tb  Tb0  1  0.004212  0.612734  0.000000  1
  Tb  Tb1  1  0.388860  0.392524  0.000000  1
  Lu  Lu2  1  0.230273  0.997550  0.500000  1
  Lu  Lu3  1  0.001752  0.235615  0.500000  1
  Lu  Lu4  1  0.763295  0.767068  0.500000  1
  Lu  Lu5  1  0.614787  0.994334  0.000000  1
  Re  Re6  1  0.996618  0.000583  0.000000  1
  Bi  Bi7  1  0.664987  0.328927  0.500000  1
  Pb  Pb8  1  0.335219  0.670666  0.500000  1
