# generated using pymatgen
data_Pr8BiPb5
_symmetry_space_group_name_H-M   'P 1'
_cell_length_a   8.48647631
_cell_length_b   8.48647541
_cell_length_c   8.48647564
_cell_angle_alpha   109.36132941
_cell_angle_beta   109.69121965
_cell_angle_gamma   109.36133741
_symmetry_Int_Tables_number   1
_chemical_formula_structural   Pr8BiPb5
_chemical_formula_sum   'Pr8 Bi1 Pb5'
_cell_volume   470.49545516
_cell_formula_units_Z   1
loop_
 _symmetry_equiv_pos_site_id
 _symmetry_equiv_pos_as_xyz
  1  'x, y, z'
loop_
 _atom_site_type_symbol
 _atom_site_label
 _atom_site_symmetry_multiplicity
 _atom_site_fract_x
 _atom_site_fract_y
 _atom_site_fract_z
 _atom_site_occupancy
  Pr  Pr0  1  0.498324  0.999530  0.140300  1
  Pr  Pr1  1  0.639049  0.500757  0.999683  1
  Pr  Pr2  1  0.001206  0.641976  0.501676  1
  Pr  Pr3  1  0.859700  0.858024  0.859230  1
  Pr  Pr4  1  0.000317  0.139366  0.501074  1
  Pr  Pr5  1  0.361708  0.360634  0.360951  1
  Pr  Pr6  1  0.140770  0.500470  0.998794  1
  Pr  Pr7  1  0.498926  0.999243  0.638292  1
  Bi  Bi8  1  0.875000  0.250000  0.125000  1
  Pb  Pb9  1  0.625000  0.750000  0.375000  1
  Pb  Pb10  1  0.750255  0.374995  0.625106  1
  Pb  Pb11  1  0.250111  0.125005  0.875261  1
  Pb  Pb12  1  0.374894  0.625149  0.749889  1
  Pb  Pb13  1  0.124739  0.874851  0.249745  1
