# generated using pymatgen
data_Li9Au5
_symmetry_space_group_name_H-M   'P 1'
_cell_length_a   5.13167326
_cell_length_b   7.14074700
_cell_length_c   7.12654944
_cell_angle_alpha   60.94614365
_cell_angle_beta   101.18481207
_cell_angle_gamma   100.51357587
_symmetry_Int_Tables_number   1
_chemical_formula_structural   Li9Au5
_chemical_formula_sum   'Li9 Au5'
_cell_volume   222.75822901
_cell_formula_units_Z   1
loop_
 _symmetry_equiv_pos_site_id
 _symmetry_equiv_pos_as_xyz
  1  'x, y, z'
loop_
 _atom_site_type_symbol
 _atom_site_label
 _atom_site_symmetry_multiplicity
 _atom_site_fract_x
 _atom_site_fract_y
 _atom_site_fract_z
 _atom_site_occupancy
  Li  Li0  1  0.006076  0.455463  0.879554  1
  Li  Li1  1  0.864139  0.727324  0.048841  1
  Li  Li2  1  0.650254  0.942497  0.246903  1
  Li  Li3  1  0.471652  0.113934  0.512705  1
  Li  Li4  1  0.457005  0.433756  0.132336  1
  Li  Li5  1  0.966803  0.132334  0.730726  1
  Li  Li6  1  0.252625  0.599483  0.388953  1
  Li  Li7  1  0.495362  0.268691  0.835015  1
  Li  Li8  1  0.042294  0.844845  0.564360  1
  Au  Au9  1  0.552684  0.690223  0.702437  1
  Au  Au10  1  0.952105  0.280599  0.305193  1
  Au  Au11  1  0.352055  0.853209  0.930405  1
  Au  Au12  1  0.751612  0.508965  0.477470  1
  Au  Au13  1  0.159645  0.050271  0.144395  1
