# generated using pymatgen
data_Sr11Sm(Si7Cl3)2
_symmetry_space_group_name_H-M   'P 1'
_cell_length_a   4.07134400
_cell_length_b   11.84041300
_cell_length_c   17.30167100
_cell_angle_alpha   90.00000000
_cell_angle_beta   90.00000000
_cell_angle_gamma   90.00000000
_symmetry_Int_Tables_number   1
_chemical_formula_structural   Sr11Sm(Si7Cl3)2
_chemical_formula_sum   'Sr11 Sm1 Si14 Cl6'
_cell_volume   834.05117644
_cell_formula_units_Z   1
loop_
 _symmetry_equiv_pos_site_id
 _symmetry_equiv_pos_as_xyz
  1  'x, y, z'
loop_
 _atom_site_type_symbol
 _atom_site_label
 _atom_site_symmetry_multiplicity
 _atom_site_fract_x
 _atom_site_fract_y
 _atom_site_fract_z
 _atom_site_occupancy
  Sr  Sr0  1  0.500000  0.319083  0.500000  1
  Sr  Sr1  1  0.000000  0.677510  0.000000  1
  Sr  Sr2  1  0.500000  0.341397  0.749552  1
  Sr  Sr3  1  0.000000  0.659286  0.745656  1
  Sr  Sr4  1  0.500000  0.341397  0.250448  1
  Sr  Sr5  1  0.000000  0.659286  0.254344  1
  Sr  Sr6  1  0.500000  0.042886  0.875412  1
  Sr  Sr7  1  0.000000  0.954697  0.623848  1
  Sr  Sr8  1  0.500000  0.042886  0.124588  1
  Sr  Sr9  1  0.000000  0.954697  0.376152  1
  Sr  Sr10  1  0.500000  0.368116  0.000000  1
  Sm  Sm11  1  0.000000  0.639353  0.500000  1
  Si  Si12  1  0.000000  0.160185  0.000000  1
  Si  Si13  1  0.500000  0.840106  0.500000  1
  Si  Si14  1  0.500000  0.563432  0.871850  1
  Si  Si15  1  0.000000  0.438909  0.621338  1
  Si  Si16  1  0.500000  0.563432  0.128150  1
  Si  Si17  1  0.000000  0.438909  0.378662  1
  Si  Si18  1  0.000000  0.253953  0.880204  1
  Si  Si19  1  0.500000  0.744217  0.617595  1
  Si  Si20  1  0.000000  0.253953  0.119796  1
  Si  Si21  1  0.500000  0.744217  0.382405  1
  Si  Si22  1  0.000000  0.456260  0.875898  1
  Si  Si23  1  0.500000  0.544980  0.617460  1
  Si  Si24  1  0.500000  0.544980  0.382540  1
  Si  Si25  1  0.000000  0.456260  0.124102  1
  Cl  Cl26  1  0.500000  0.104073  0.693373  1
  Cl  Cl27  1  0.000000  0.894969  0.804633  1
  Cl  Cl28  1  0.000000  0.135114  0.500000  1
  Cl  Cl29  1  0.500000  0.862417  0.000000  1
  Cl  Cl30  1  0.500000  0.104073  0.306627  1
  Cl  Cl31  1  0.000000  0.894969  0.195367  1
