# generated using pymatgen
data_Nd6Al24NiOs5Pd2
_symmetry_space_group_name_H-M   'P 1'
_cell_length_a   8.89486367
_cell_length_b   8.88678532
_cell_length_c   9.66471196
_cell_angle_alpha   89.96623099
_cell_angle_beta   90.11119449
_cell_angle_gamma   119.29356673
_symmetry_Int_Tables_number   1
_chemical_formula_structural   Nd6Al24NiOs5Pd2
_chemical_formula_sum   'Nd6 Al24 Ni1 Os5 Pd2'
_cell_volume   666.27020271
_cell_formula_units_Z   1
loop_
 _symmetry_equiv_pos_site_id
 _symmetry_equiv_pos_as_xyz
  1  'x, y, z'
loop_
 _atom_site_type_symbol
 _atom_site_label
 _atom_site_symmetry_multiplicity
 _atom_site_fract_x
 _atom_site_fract_y
 _atom_site_fract_z
 _atom_site_occupancy
  Nd  Nd0  1  0.186533  0.382613  0.251177  1
  Nd  Nd1  1  0.813467  0.617387  0.748823  1
  Nd  Nd2  1  0.619728  0.811636  0.248705  1
  Nd  Nd3  1  0.380272  0.188364  0.751295  1
  Nd  Nd4  1  0.189113  0.808062  0.247610  1
  Nd  Nd5  1  0.810887  0.191938  0.752390  1
  Al  Al6  1  0.331726  0.661253  0.022156  1
  Al  Al7  1  0.668274  0.338747  0.977844  1
  Al  Al8  1  0.669056  0.329742  0.523382  1
  Al  Al9  1  0.330944  0.670258  0.476618  1
  Al  Al10  1  0.158851  0.326319  0.574355  1
  Al  Al11  1  0.841149  0.673681  0.425645  1
  Al  Al12  1  0.673991  0.841777  0.572255  1
  Al  Al13  1  0.837902  0.672515  0.073435  1
  Al  Al14  1  0.326009  0.158223  0.427745  1
  Al  Al15  1  0.162098  0.327485  0.926565  1
  Al  Al16  1  0.165105  0.835754  0.574736  1
  Al  Al17  1  0.326458  0.169071  0.075023  1
  Al  Al18  1  0.834895  0.164246  0.425264  1
  Al  Al19  1  0.673542  0.830929  0.924977  1
  Al  Al20  1  0.841305  0.169516  0.077370  1
  Al  Al21  1  0.158695  0.830484  0.922630  1
  Al  Al22  1  0.563653  0.127865  0.252792  1
  Al  Al23  1  0.436347  0.872135  0.747208  1
  Al  Al24  1  0.873358  0.438234  0.249320  1
  Al  Al25  1  0.126642  0.561766  0.750680  1
  Al  Al26  1  0.562554  0.438222  0.243743  1
  Al  Al27  1  0.437446  0.561778  0.756257  1
  Al  Al28  1  0.994973  0.002657  0.249973  1
  Al  Al29  1  0.005027  0.997343  0.750027  1
  Ni  Ni30  1  0.500000  0.500000  0.000000  1
  Os  Os31  1  0.000000  0.500000  0.000000  1
  Os  Os32  1  0.500000  0.000000  0.500000  1
  Os  Os33  1  0.000000  0.500000  0.500000  1
  Os  Os34  1  0.000000  0.000000  0.000000  1
  Os  Os35  1  0.000000  0.000000  0.500000  1
  Pd  Pd36  1  0.500000  0.000000  0.000000  1
  Pd  Pd37  1  0.500000  0.500000  0.500000  1
