# generated using pymatgen
data_Nd3DyIn2Ir2Pt
_symmetry_space_group_name_H-M   'P 1'
_cell_length_a   7.69800862
_cell_length_b   7.54661257
_cell_length_c   4.24053100
_cell_angle_alpha   90.00000000
_cell_angle_beta   90.00000000
_cell_angle_gamma   119.20126768
_symmetry_Int_Tables_number   1
_chemical_formula_structural   Nd3DyIn2Ir2Pt
_chemical_formula_sum   'Nd3 Dy1 In2 Ir2 Pt1'
_cell_volume   215.04076551
_cell_formula_units_Z   1
loop_
 _symmetry_equiv_pos_site_id
 _symmetry_equiv_pos_as_xyz
  1  'x, y, z'
loop_
 _atom_site_type_symbol
 _atom_site_label
 _atom_site_symmetry_multiplicity
 _atom_site_fract_x
 _atom_site_fract_y
 _atom_site_fract_z
 _atom_site_occupancy
  Nd  Nd0  1  0.993344  0.610601  0.500000  1
  Nd  Nd1  1  0.572872  0.990043  0.500000  1
  Nd  Nd2  1  0.434887  0.410437  0.500000  1
  Dy  Dy3  1  0.997079  0.240406  0.000000  1
  In  In4  1  0.253897  0.006119  0.000000  1
  In  In5  1  0.747905  0.752966  0.000000  1
  Ir  Ir6  1  0.000801  0.997906  0.500000  1
  Ir  Ir7  1  0.670328  0.331202  0.000000  1
  Pt  Pt8  1  0.328887  0.660320  0.000000  1
