# generated using pymatgen
data_Ca3TcBr2O5
_symmetry_space_group_name_H-M   'P 1'
_cell_length_a   7.10890400
_cell_length_b   7.10890390
_cell_length_c   10.91837900
_cell_angle_alpha   90.00000000
_cell_angle_beta   90.00000000
_cell_angle_gamma   133.67127075
_symmetry_Int_Tables_number   1
_chemical_formula_structural   Ca3TcBr2O5
_chemical_formula_sum   'Ca6 Tc2 Br4 O10'
_cell_volume   399.10761629
_cell_formula_units_Z   2
loop_
 _symmetry_equiv_pos_site_id
 _symmetry_equiv_pos_as_xyz
  1  'x, y, z'
loop_
 _atom_site_type_symbol
 _atom_site_label
 _atom_site_symmetry_multiplicity
 _atom_site_fract_x
 _atom_site_fract_y
 _atom_site_fract_z
 _atom_site_occupancy
  Ca  Ca0  1  0.883315  0.116685  0.750000  1
  Ca  Ca1  1  0.666373  0.333627  0.532513  1
  Ca  Ca2  1  0.333627  0.666373  0.467487  1
  Ca  Ca3  1  0.666373  0.333627  0.967487  1
  Ca  Ca4  1  0.333627  0.666373  0.032513  1
  Ca  Ca5  1  0.116685  0.883315  0.250000  1
  Tc  Tc6  1  0.764566  0.235434  0.250000  1
  Tc  Tc7  1  0.235434  0.764566  0.750000  1
  Br  Br8  1  0.492423  0.507577  0.250000  1
  Br  Br9  1  0.507577  0.492423  0.750000  1
  Br  Br10  1  0.000000  0.000000  0.500000  1
  Br  Br11  1  0.000000  0.000000  0.000000  1
  O  O12  1  0.105851  0.894149  0.750000  1
  O  O13  1  0.044796  0.487111  0.630895  1
  O  O14  1  0.487111  0.044796  0.369105  1
  O  O15  1  0.512889  0.955204  0.630895  1
  O  O16  1  0.955204  0.512889  0.369105  1
  O  O17  1  0.894149  0.105851  0.250000  1
  O  O18  1  0.044796  0.487111  0.869105  1
  O  O19  1  0.512889  0.955204  0.869105  1
  O  O20  1  0.955204  0.512889  0.130895  1
  O  O21  1  0.487111  0.044796  0.130895  1
