# generated using pymatgen
data_AcCoSb12IrOs2
_symmetry_space_group_name_H-M   'P 1'
_cell_length_a   8.14321601
_cell_length_b   8.13619669
_cell_length_c   8.13258433
_cell_angle_alpha   109.32990791
_cell_angle_beta   109.48062378
_cell_angle_gamma   109.40180411
_symmetry_Int_Tables_number   1
_chemical_formula_structural   AcCoSb12IrOs2
_chemical_formula_sum   'Ac1 Co1 Sb12 Ir1 Os2'
_cell_volume   415.81284805
_cell_formula_units_Z   1
loop_
 _symmetry_equiv_pos_site_id
 _symmetry_equiv_pos_as_xyz
  1  'x, y, z'
loop_
 _atom_site_type_symbol
 _atom_site_label
 _atom_site_symmetry_multiplicity
 _atom_site_fract_x
 _atom_site_fract_y
 _atom_site_fract_z
 _atom_site_occupancy
  Ac  Ac0  1  0.000000  0.000000  0.000000  1
  Co  Co1  1  0.500000  0.500000  0.500000  1
  Sb  Sb2  1  0.341171  0.186420  0.842760  1
  Sb  Sb3  1  0.658829  0.813580  0.157240  1
  Sb  Sb4  1  0.658966  0.503268  0.835206  1
  Sb  Sb5  1  0.341034  0.496732  0.164794  1
  Sb  Sb6  1  0.184032  0.842437  0.341638  1
  Sb  Sb7  1  0.815968  0.157563  0.658362  1
  Sb  Sb8  1  0.503110  0.834646  0.656247  1
  Sb  Sb9  1  0.496890  0.165354  0.343753  1
  Sb  Sb10  1  0.844648  0.343571  0.186263  1
  Sb  Sb11  1  0.155352  0.656429  0.813737  1
  Sb  Sb12  1  0.834727  0.658620  0.502961  1
  Sb  Sb13  1  0.165273  0.341380  0.497039  1
  Ir  Ir14  1  0.500000  0.000000  0.000000  1
  Os  Os15  1  0.000000  0.000000  0.500000  1
  Os  Os16  1  0.000000  0.500000  0.000000  1
