# generated using pymatgen
data_TiGaPPt8
_symmetry_space_group_name_H-M   'P 1'
_cell_length_a   3.96200300
_cell_length_b   3.96200300
_cell_length_c   10.84758500
_cell_angle_alpha   90.00000000
_cell_angle_beta   90.00000000
_cell_angle_gamma   90.00000000
_symmetry_Int_Tables_number   1
_chemical_formula_structural   TiGaPPt8
_chemical_formula_sum   'Ti1 Ga1 P1 Pt8'
_cell_volume   170.27961594
_cell_formula_units_Z   1
loop_
 _symmetry_equiv_pos_site_id
 _symmetry_equiv_pos_as_xyz
  1  'x, y, z'
loop_
 _atom_site_type_symbol
 _atom_site_label
 _atom_site_symmetry_multiplicity
 _atom_site_fract_x
 _atom_site_fract_y
 _atom_site_fract_z
 _atom_site_occupancy
  Ti  Ti0  1  0.500000  0.500000  0.820481  1
  Ga  Ga1  1  0.500000  0.500000  0.184821  1
  P  P2  1  0.000000  0.000000  0.498828  1
  Pt  Pt3  1  0.500000  0.000000  0.995221  1
  Pt  Pt4  1  0.000000  0.500000  0.995221  1
  Pt  Pt5  1  0.500000  0.000000  0.636266  1
  Pt  Pt6  1  0.000000  0.500000  0.636266  1
  Pt  Pt7  1  0.500000  0.000000  0.367156  1
  Pt  Pt8  1  0.000000  0.500000  0.367156  1
  Pt  Pt9  1  0.000000  0.000000  0.818234  1
  Pt  Pt10  1  0.000000  0.000000  0.180351  1
