# generated using pymatgen
data_Dy3Y2P12Ru18Pt
_symmetry_space_group_name_H-M   'P 1'
_cell_length_a   12.57691601
_cell_length_b   12.47618213
_cell_length_c   3.99030400
_cell_angle_alpha   90.00000000
_cell_angle_beta   90.00000000
_cell_angle_gamma   119.73539083
_symmetry_Int_Tables_number   1
_chemical_formula_structural   Dy3Y2P12Ru18Pt
_chemical_formula_sum   'Dy3 Y2 P12 Ru18 Pt1'
_cell_volume   543.68119358
_cell_formula_units_Z   1
loop_
 _symmetry_equiv_pos_site_id
 _symmetry_equiv_pos_as_xyz
  1  'x, y, z'
loop_
 _atom_site_type_symbol
 _atom_site_label
 _atom_site_symmetry_multiplicity
 _atom_site_fract_x
 _atom_site_fract_y
 _atom_site_fract_z
 _atom_site_occupancy
  Dy  Dy0  1  0.000000  0.182559  0.500000  1
  Dy  Dy1  1  0.661335  0.329869  0.000000  1
  Dy  Dy2  1  0.338665  0.668534  0.000000  1
  Y  Y3  1  0.816368  0.815410  0.500000  1
  Y  Y4  1  0.183632  0.999042  0.500000  1
  P  P5  1  0.000000  0.811911  0.000000  1
  P  P6  1  0.183025  0.184325  0.000000  1
  P  P7  1  0.816975  0.001300  0.000000  1
  P  P8  1  0.693263  0.173169  0.500000  1
  P  P9  1  0.817968  0.519024  0.500000  1
  P  P10  1  0.474481  0.305709  0.500000  1
  P  P11  1  0.182032  0.701056  0.500000  1
  P  P12  1  0.525519  0.831228  0.500000  1
  P  P13  1  0.306737  0.479907  0.500000  1
  P  P14  1  0.000000  0.364191  0.000000  1
  P  P15  1  0.626698  0.627265  0.000000  1
  P  P16  1  0.373302  0.000567  0.000000  1
  Ru  Ru17  1  0.444229  0.446711  0.000000  1
  Ru  Ru18  1  0.555771  0.002481  0.000000  1
  Ru  Ru19  1  0.000000  0.710137  0.500000  1
  Ru  Ru20  1  0.281310  0.283616  0.500000  1
  Ru  Ru21  1  0.718690  0.002306  0.500000  1
  Ru  Ru22  1  0.807431  0.186384  0.000000  1
  Ru  Ru23  1  0.814594  0.620231  0.000000  1
  Ru  Ru24  1  0.374391  0.191286  0.000000  1
  Ru  Ru25  1  0.185406  0.805636  0.000000  1
  Ru  Ru26  1  0.625609  0.816894  0.000000  1
  Ru  Ru27  1  0.192569  0.378952  0.000000  1
  Ru  Ru28  1  0.872789  0.367576  0.500000  1
  Ru  Ru29  1  0.629832  0.508075  0.500000  1
  Ru  Ru30  1  0.492267  0.128014  0.500000  1
  Ru  Ru31  1  0.370168  0.878242  0.500000  1
  Ru  Ru32  1  0.507733  0.635746  0.500000  1
  Ru  Ru33  1  0.127211  0.494787  0.500000  1
  Ru  Ru34  1  0.000000  0.997593  0.000000  1
  Pt  Pt35  1  0.000000  0.550267  0.000000  1
