# generated using pymatgen
data_La2YbSi6(Pd9Pt)2
_symmetry_space_group_name_H-M   'P 1'
_cell_length_a   8.79287113
_cell_length_b   8.79287181
_cell_length_c   8.79287113
_cell_angle_alpha   59.77101747
_cell_angle_beta   59.77101283
_cell_angle_gamma   59.77101946
_symmetry_Int_Tables_number   1
_chemical_formula_structural   La2YbSi6(Pd9Pt)2
_chemical_formula_sum   'La2 Yb1 Si6 Pd18 Pt2'
_cell_volume   478.20415991
_cell_formula_units_Z   1
loop_
 _symmetry_equiv_pos_site_id
 _symmetry_equiv_pos_as_xyz
  1  'x, y, z'
loop_
 _atom_site_type_symbol
 _atom_site_label
 _atom_site_symmetry_multiplicity
 _atom_site_fract_x
 _atom_site_fract_y
 _atom_site_fract_z
 _atom_site_occupancy
  La  La0  1  0.250231  0.250231  0.250231  1
  La  La1  1  0.749769  0.749769  0.749769  1
  Yb  Yb2  1  0.000000  0.000000  0.000000  1
  Si  Si3  1  0.732255  0.266626  0.266626  1
  Si  Si4  1  0.267745  0.733374  0.733374  1
  Si  Si5  1  0.266626  0.732255  0.266626  1
  Si  Si6  1  0.733374  0.267745  0.733374  1
  Si  Si7  1  0.266626  0.266626  0.732255  1
  Si  Si8  1  0.733374  0.733374  0.267745  1
  Pd  Pd9  1  0.383087  0.383087  0.846678  1
  Pd  Pd10  1  0.383087  0.846678  0.383087  1
  Pd  Pd11  1  0.616913  0.616913  0.153322  1
  Pd  Pd12  1  0.616913  0.153322  0.616913  1
  Pd  Pd13  1  0.846678  0.383087  0.383087  1
  Pd  Pd14  1  0.153322  0.616913  0.616913  1
  Pd  Pd15  1  0.345360  0.999562  0.999562  1
  Pd  Pd16  1  0.654640  0.000438  0.000438  1
  Pd  Pd17  1  0.000000  0.344649  0.655351  1
  Pd  Pd18  1  0.000000  0.655351  0.344649  1
  Pd  Pd19  1  0.999562  0.345360  0.999562  1
  Pd  Pd20  1  0.655351  0.000000  0.344649  1
  Pd  Pd21  1  0.000438  0.654640  0.000438  1
  Pd  Pd22  1  0.344649  0.000000  0.655351  1
  Pd  Pd23  1  0.999562  0.999562  0.345360  1
  Pd  Pd24  1  0.000438  0.000438  0.654640  1
  Pd  Pd25  1  0.655351  0.344649  0.000000  1
  Pd  Pd26  1  0.344649  0.655351  0.000000  1
  Pt  Pt27  1  0.386272  0.386272  0.386272  1
  Pt  Pt28  1  0.613728  0.613728  0.613728  1
