# generated using pymatgen
data_Bi3(Pt2O7)2
_symmetry_space_group_name_H-M   'P 1'
_cell_length_a   7.20943971
_cell_length_b   7.20943987
_cell_length_c   7.20943891
_cell_angle_alpha   62.21807187
_cell_angle_beta   62.21806947
_cell_angle_gamma   62.21807384
_symmetry_Int_Tables_number   1
_chemical_formula_structural   Bi3(Pt2O7)2
_chemical_formula_sum   'Bi3 Pt4 O14'
_cell_volume   278.09039174
_cell_formula_units_Z   1
loop_
 _symmetry_equiv_pos_site_id
 _symmetry_equiv_pos_as_xyz
  1  'x, y, z'
loop_
 _atom_site_type_symbol
 _atom_site_label
 _atom_site_symmetry_multiplicity
 _atom_site_fract_x
 _atom_site_fract_y
 _atom_site_fract_z
 _atom_site_occupancy
  Bi  Bi0  1  0.000000  0.500000  0.500000  1
  Bi  Bi1  1  0.500000  0.500000  0.000000  1
  Bi  Bi2  1  0.500000  0.000000  0.500000  1
  Pt  Pt3  1  0.000000  0.000000  0.000000  1
  Pt  Pt4  1  0.500000  0.000000  0.000000  1
  Pt  Pt5  1  0.000000  0.000000  0.500000  1
  Pt  Pt6  1  0.000000  0.500000  0.000000  1
  O  O7  1  0.926819  0.329971  0.329971  1
  O  O8  1  0.330808  0.915059  0.915059  1
  O  O9  1  0.329971  0.329971  0.926819  1
  O  O10  1  0.915059  0.915059  0.330808  1
  O  O11  1  0.915059  0.330808  0.915059  1
  O  O12  1  0.329971  0.926819  0.329971  1
  O  O13  1  0.073181  0.670029  0.670029  1
  O  O14  1  0.669192  0.084941  0.084941  1
  O  O15  1  0.670029  0.670029  0.073181  1
  O  O16  1  0.084941  0.084941  0.669192  1
  O  O17  1  0.084941  0.669192  0.084941  1
  O  O18  1  0.670029  0.073181  0.670029  1
  O  O19  1  0.368071  0.368071  0.368071  1
  O  O20  1  0.631929  0.631929  0.631929  1
