# generated using pymatgen
data_Lu10GaSi4Ge
_symmetry_space_group_name_H-M   'P 1'
_cell_length_a   8.26549900
_cell_length_b   8.26452600
_cell_length_c   6.17827900
_cell_angle_alpha   90.00000000
_cell_angle_beta   90.00000000
_cell_angle_gamma   120.05828721
_symmetry_Int_Tables_number   1
_chemical_formula_structural   Lu10GaSi4Ge
_chemical_formula_sum   'Lu10 Ga1 Si4 Ge1'
_cell_volume   365.28328324
_cell_formula_units_Z   1
loop_
 _symmetry_equiv_pos_site_id
 _symmetry_equiv_pos_as_xyz
  1  'x, y, z'
loop_
 _atom_site_type_symbol
 _atom_site_label
 _atom_site_symmetry_multiplicity
 _atom_site_fract_x
 _atom_site_fract_y
 _atom_site_fract_z
 _atom_site_occupancy
  Lu  Lu0  1  0.669100  0.335234  0.000735  1
  Lu  Lu1  1  0.332782  0.665031  0.499270  1
  Lu  Lu2  1  0.332782  0.665031  0.000730  1
  Lu  Lu3  1  0.669100  0.335234  0.499265  1
  Lu  Lu4  1  0.758503  0.999415  0.750000  1
  Lu  Lu5  1  0.759275  0.759148  0.250000  1
  Lu  Lu6  1  0.999804  0.242162  0.250000  1
  Lu  Lu7  1  0.996878  0.755663  0.750000  1
  Lu  Lu8  1  0.240460  0.243032  0.750000  1
  Lu  Lu9  1  0.241604  0.999560  0.250000  1
  Ga  Ga10  1  0.396876  0.396452  0.250000  1
  Si  Si11  1  0.000702  0.605580  0.250000  1
  Si  Si12  1  0.998933  0.394746  0.750000  1
  Si  Si13  1  0.604232  0.604500  0.750000  1
  Si  Si14  1  0.605575  0.000052  0.250000  1
  Ge  Ge15  1  0.393390  0.999159  0.750000  1
