# generated using pymatgen
data_Ta7MnS12
_symmetry_space_group_name_H-M   'P 1'
_cell_length_a   5.77860900
_cell_length_b   5.77860995
_cell_length_c   12.67820500
_cell_angle_alpha   90.00000000
_cell_angle_beta   90.00000000
_cell_angle_gamma   120.00000029
_symmetry_Int_Tables_number   1
_chemical_formula_structural   Ta7MnS12
_chemical_formula_sum   'Ta7 Mn1 S12'
_cell_volume   366.63598713
_cell_formula_units_Z   1
loop_
 _symmetry_equiv_pos_site_id
 _symmetry_equiv_pos_as_xyz
  1  'x, y, z'
loop_
 _atom_site_type_symbol
 _atom_site_label
 _atom_site_symmetry_multiplicity
 _atom_site_fract_x
 _atom_site_fract_y
 _atom_site_fract_z
 _atom_site_occupancy
  Ta  Ta0  1  0.000000  0.000000  0.501459  1
  Ta  Ta1  1  0.000000  0.000000  0.998541  1
  Ta  Ta2  1  0.333333  0.666667  0.998152  1
  Ta  Ta3  1  0.666667  0.333333  0.000418  1
  Ta  Ta4  1  0.666667  0.333333  0.499582  1
  Ta  Ta5  1  0.333333  0.666667  0.501848  1
  Ta  Ta6  1  0.666667  0.333333  0.750000  1
  Mn  Mn7  1  0.333333  0.666667  0.250000  1
  S  S8  1  0.331740  0.329605  0.376193  1
  S  S9  1  0.670395  0.002135  0.376193  1
  S  S10  1  0.997865  0.668260  0.376193  1
  S  S11  1  0.332440  0.333337  0.626539  1
  S  S12  1  0.000896  0.667560  0.626539  1
  S  S13  1  0.666663  0.999104  0.626539  1
  S  S14  1  0.666663  0.667560  0.873461  1
  S  S15  1  0.332440  0.999104  0.873461  1
  S  S16  1  0.000896  0.333337  0.873461  1
  S  S17  1  0.670395  0.668260  0.123807  1
  S  S18  1  0.997865  0.329605  0.123807  1
  S  S19  1  0.331740  0.002135  0.123807  1
