# generated using pymatgen
data_Ho2Tm8Si16Ag
_symmetry_space_group_name_H-M   'P 1'
_cell_length_a   11.03098354
_cell_length_b   11.03117824
_cell_length_c   11.03114528
_cell_angle_alpha   144.73440969
_cell_angle_beta   136.64190215
_cell_angle_gamma   57.07388717
_symmetry_Int_Tables_number   1
_chemical_formula_structural   Ho2Tm8Si16Ag
_chemical_formula_sum   'Ho2 Tm8 Si16 Ag1'
_cell_volume   527.82453891
_cell_formula_units_Z   1
loop_
 _symmetry_equiv_pos_site_id
 _symmetry_equiv_pos_as_xyz
  1  'x, y, z'
loop_
 _atom_site_type_symbol
 _atom_site_label
 _atom_site_symmetry_multiplicity
 _atom_site_fract_x
 _atom_site_fract_y
 _atom_site_fract_z
 _atom_site_occupancy
  Ho  Ho0  1  0.251886  0.765363  0.013365  1
  Ho  Ho1  1  0.751996  0.765376  0.513475  1
  Tm  Tm2  1  0.053249  0.566076  0.021968  1
  Tm  Tm3  1  0.352816  0.370229  0.521066  1
  Tm  Tm4  1  0.154421  0.165407  0.521801  1
  Tm  Tm5  1  0.451227  0.963254  0.014437  1
  Tm  Tm6  1  0.643606  0.165388  0.010969  1
  Tm  Tm7  1  0.948831  0.963257  0.512040  1
  Tm  Tm8  1  0.849179  0.370227  0.017427  1
  Tm  Tm9  1  0.544098  0.566086  0.512839  1
  Si  Si10  1  0.118534  0.079992  0.961468  1
  Si  Si11  1  0.797166  0.167931  0.370778  1
  Si  Si12  1  0.300255  0.899419  0.599165  1
  Si  Si13  1  0.399588  0.500943  0.101356  1
  Si  Si14  1  0.880413  0.854935  0.974534  1
  Si  Si15  1  0.104906  0.710708  0.605813  1
  Si  Si16  1  0.199848  0.580413  0.380568  1
  Si  Si17  1  0.699500  0.295626  0.596134  1
  Si  Si18  1  0.002082  0.432065  0.430005  1
  Si  Si19  1  0.714924  0.669444  0.954532  1
  Si  Si20  1  0.601221  0.702667  0.101453  1
  Si  Si21  1  0.999461  0.081828  0.082371  1
  Si  Si22  1  0.501158  0.389347  0.888199  1
  Si  Si23  1  0.284354  0.241305  0.956962  1
  Si  Si24  1  0.583964  0.042586  0.458622  1
  Si  Si25  1  0.415816  0.874071  0.458256  1
  Ag  Ag26  1  0.895501  0.504975  0.609312  1
