# generated using pymatgen
data_TaV10Si10Mo
_symmetry_space_group_name_H-M   'P 1'
_cell_length_a   9.18711047
_cell_length_b   9.18711012
_cell_length_c   7.55864865
_cell_angle_alpha   65.60377275
_cell_angle_beta   65.60377449
_cell_angle_gamma   30.56378260
_symmetry_Int_Tables_number   1
_chemical_formula_structural   TaV10Si10Mo
_chemical_formula_sum   'Ta1 V10 Si10 Mo1'
_cell_volume   293.16402492
_cell_formula_units_Z   1
loop_
 _symmetry_equiv_pos_site_id
 _symmetry_equiv_pos_as_xyz
  1  'x, y, z'
loop_
 _atom_site_type_symbol
 _atom_site_label
 _atom_site_symmetry_multiplicity
 _atom_site_fract_x
 _atom_site_fract_y
 _atom_site_fract_z
 _atom_site_occupancy
  Ta  Ta0  1  0.357504  0.357504  0.253923  1
  V  V1  1  0.558915  0.061756  0.687218  1
  V  V2  1  0.941487  0.438188  0.309960  1
  V  V3  1  0.438188  0.941487  0.309960  1
  V  V4  1  0.061756  0.558915  0.687218  1
  V  V5  1  0.936052  0.936052  0.317604  1
  V  V6  1  0.063096  0.063096  0.681845  1
  V  V7  1  0.564416  0.564416  0.189579  1
  V  V8  1  0.435110  0.435110  0.813021  1
  V  V9  1  0.858902  0.858902  0.026217  1
  V  V10  1  0.142422  0.142422  0.978903  1
  Si  Si11  1  0.786367  0.786367  0.414789  1
  Si  Si12  1  0.211017  0.211017  0.590117  1
  Si  Si13  1  0.714044  0.714044  0.988549  1
  Si  Si14  1  0.284803  0.284803  0.006079  1
  Si  Si15  1  0.249375  0.753921  0.998044  1
  Si  Si16  1  0.753921  0.249375  0.998044  1
  Si  Si17  1  0.563608  0.563608  0.525369  1
  Si  Si18  1  0.437707  0.437707  0.478734  1
  Si  Si19  1  0.935207  0.935207  0.654245  1
  Si  Si20  1  0.063320  0.063320  0.348621  1
  Mo  Mo21  1  0.642782  0.642782  0.741963  1
