# generated using pymatgen
data_Pr6RuRhCl6
_symmetry_space_group_name_H-M   'P 1'
_cell_length_a   10.23961901
_cell_length_b   10.23960908
_cell_length_c   10.27049506
_cell_angle_alpha   109.49514919
_cell_angle_beta   109.49529445
_cell_angle_gamma   109.30914968
_symmetry_Int_Tables_number   1
_chemical_formula_structural   Pr6RuRhCl6
_chemical_formula_sum   'Pr12 Ru2 Rh2 Cl12'
_cell_volume   830.12863747
_cell_formula_units_Z   2
loop_
 _symmetry_equiv_pos_site_id
 _symmetry_equiv_pos_as_xyz
  1  'x, y, z'
loop_
 _atom_site_type_symbol
 _atom_site_label
 _atom_site_symmetry_multiplicity
 _atom_site_fract_x
 _atom_site_fract_y
 _atom_site_fract_z
 _atom_site_occupancy
  Pr  Pr0  1  0.477359  0.486025  0.240504  1
  Pr  Pr1  1  0.745538  0.236719  0.259559  1
  Pr  Pr2  1  0.745350  0.007571  0.486017  1
  Pr  Pr3  1  0.240682  0.478506  0.486012  1
  Pr  Pr4  1  0.263282  0.754462  0.240442  1
  Pr  Pr5  1  0.021494  0.259317  0.013988  1
  Pr  Pr6  1  0.013975  0.022641  0.259496  1
  Pr  Pr7  1  0.492428  0.754649  0.013983  1
  Pr  Pr8  1  0.489374  0.239404  0.478949  1
  Pr  Pr9  1  0.011431  0.488570  0.750001  1
  Pr  Pr10  1  0.260596  0.010627  0.021052  1
  Pr  Pr11  1  0.238517  0.261481  0.749999  1
  Ru  Ru12  1  0.249700  0.250300  0.250000  1
  Ru  Ru13  1  0.500312  0.999689  0.250000  1
  Rh  Rh14  1  0.000414  0.250445  0.500909  1
  Rh  Rh15  1  0.249555  0.499586  0.999092  1
  Cl  Cl16  1  0.250129  0.751755  0.748273  1
  Cl  Cl17  1  0.503482  0.501888  0.751680  1
  Cl  Cl18  1  0.994178  0.746873  0.996714  1
  Cl  Cl19  1  0.748244  0.249872  0.751726  1
  Cl  Cl20  1  0.998112  0.996516  0.748319  1
  Cl  Cl21  1  0.250103  0.997438  0.503291  1
  Cl  Cl22  1  0.753127  0.505822  0.503286  1
  Cl  Cl23  1  0.502562  0.249897  0.996709  1
  Cl  Cl24  1  0.752149  0.747850  0.250000  1
  Cl  Cl25  1  0.746934  0.996876  0.993813  1
  Cl  Cl26  1  0.997849  0.502152  0.250000  1
  Cl  Cl27  1  0.503124  0.753066  0.506187  1
