# generated using pymatgen
data_Tm2LuHf(NiP)4
_symmetry_space_group_name_H-M   'P 1'
_cell_length_a   3.85278100
_cell_length_b   3.85278106
_cell_length_c   14.80511300
_cell_angle_alpha   90.00000000
_cell_angle_beta   90.00000000
_cell_angle_gamma   120.00000808
_symmetry_Int_Tables_number   1
_chemical_formula_structural   Tm2LuHf(NiP)4
_chemical_formula_sum   'Tm2 Lu1 Hf1 Ni4 P4'
_cell_volume   190.32286928
_cell_formula_units_Z   1
loop_
 _symmetry_equiv_pos_site_id
 _symmetry_equiv_pos_as_xyz
  1  'x, y, z'
loop_
 _atom_site_type_symbol
 _atom_site_label
 _atom_site_symmetry_multiplicity
 _atom_site_fract_x
 _atom_site_fract_y
 _atom_site_fract_z
 _atom_site_occupancy
  Tm  Tm0  1  0.000000  0.000000  0.494586  1
  Tm  Tm1  1  0.000000  0.000000  0.005414  1
  Lu  Lu2  1  0.000000  0.000000  0.750000  1
  Hf  Hf3  1  0.000000  0.000000  0.250000  1
  Ni  Ni4  1  0.333333  0.666667  0.348310  1
  Ni  Ni5  1  0.666667  0.333333  0.626144  1
  Ni  Ni6  1  0.666667  0.333333  0.873856  1
  Ni  Ni7  1  0.333333  0.666667  0.151690  1
  P  P8  1  0.333333  0.666667  0.880552  1
  P  P9  1  0.666667  0.333333  0.125132  1
  P  P10  1  0.666667  0.333333  0.374868  1
  P  P11  1  0.333333  0.666667  0.619448  1
