# generated using pymatgen
data_Tm16MgAl3Pd4
_symmetry_space_group_name_H-M   'P 1'
_cell_length_a   9.59643027
_cell_length_b   9.53245028
_cell_length_c   9.53245100
_cell_angle_alpha   60.00000098
_cell_angle_beta   60.22030159
_cell_angle_gamma   60.22029967
_symmetry_Int_Tables_number   1
_chemical_formula_structural   Tm16MgAl3Pd4
_chemical_formula_sum   'Tm16 Mg1 Al3 Pd4'
_cell_volume   618.64567725
_cell_formula_units_Z   1
loop_
 _symmetry_equiv_pos_site_id
 _symmetry_equiv_pos_as_xyz
  1  'x, y, z'
loop_
 _atom_site_type_symbol
 _atom_site_label
 _atom_site_symmetry_multiplicity
 _atom_site_fract_x
 _atom_site_fract_y
 _atom_site_fract_z
 _atom_site_occupancy
  Tm  Tm0  1  0.356232  0.353699  0.353699  1
  Tm  Tm1  1  0.356232  0.353699  0.936369  1
  Tm  Tm2  1  0.356232  0.936369  0.353699  1
  Tm  Tm3  1  0.934022  0.355325  0.355325  1
  Tm  Tm4  1  0.806062  0.193560  0.193560  1
  Tm  Tm5  1  0.189743  0.810908  0.810908  1
  Tm  Tm6  1  0.189743  0.810908  0.188441  1
  Tm  Tm7  1  0.806062  0.193560  0.806817  1
  Tm  Tm8  1  0.189743  0.188441  0.810908  1
  Tm  Tm9  1  0.806062  0.806817  0.193560  1
  Tm  Tm10  1  0.930327  0.566274  0.566274  1
  Tm  Tm11  1  0.565848  0.933829  0.933829  1
  Tm  Tm12  1  0.565848  0.933829  0.566494  1
  Tm  Tm13  1  0.930327  0.566274  0.937125  1
  Tm  Tm14  1  0.565848  0.566494  0.933829  1
  Tm  Tm15  1  0.930327  0.937125  0.566274  1
  Mg  Mg16  1  0.267432  0.577522  0.577522  1
  Al  Al17  1  0.584296  0.577171  0.577171  1
  Al  Al18  1  0.584296  0.577171  0.261363  1
  Al  Al19  1  0.584296  0.261363  0.577171  1
  Pd  Pd20  1  0.144509  0.144848  0.144848  1
  Pd  Pd21  1  0.144509  0.144848  0.565796  1
  Pd  Pd22  1  0.144509  0.565796  0.144848  1
  Pd  Pd23  1  0.567497  0.144167  0.144167  1
