# generated using pymatgen
data_Yb3Pr(GaIr2)2
_symmetry_space_group_name_H-M   'P 1'
_cell_length_a   5.74362375
_cell_length_b   5.75789304
_cell_length_c   7.67205988
_cell_angle_alpha   101.94108039
_cell_angle_beta   101.17763190
_cell_angle_gamma   58.74046246
_symmetry_Int_Tables_number   1
_chemical_formula_structural   Yb3Pr(GaIr2)2
_chemical_formula_sum   'Yb3 Pr1 Ga2 Ir4'
_cell_volume   211.05882148
_cell_formula_units_Z   1
loop_
 _symmetry_equiv_pos_site_id
 _symmetry_equiv_pos_as_xyz
  1  'x, y, z'
loop_
 _atom_site_type_symbol
 _atom_site_label
 _atom_site_symmetry_multiplicity
 _atom_site_fract_x
 _atom_site_fract_y
 _atom_site_fract_z
 _atom_site_occupancy
  Yb  Yb0  1  0.501210  0.207471  0.362416  1
  Yb  Yb1  1  0.501770  0.790531  0.643393  1
  Yb  Yb2  1  0.209408  0.500673  0.849748  1
  Pr  Pr3  1  0.787772  0.500908  0.145738  1
  Ga  Ga4  1  0.104668  0.893366  0.251252  1
  Ga  Ga5  1  0.897006  0.100184  0.747283  1
  Ir  Ir6  1  0.284060  0.997757  0.010595  1
  Ir  Ir7  1  0.010097  0.710723  0.488293  1
  Ir  Ir8  1  0.991661  0.283154  0.511571  1
  Ir  Ir9  1  0.712347  0.015231  0.989709  1
