# generated using pymatgen
data_Yb3Ho2Er3(B6Ru)4
_symmetry_space_group_name_H-M   'P 1'
_cell_length_a   3.64373200
_cell_length_b   9.12062317
_cell_length_c   11.50621000
_cell_angle_alpha   89.93297470
_cell_angle_beta   90.00000000
_cell_angle_gamma   90.00000000
_symmetry_Int_Tables_number   1
_chemical_formula_structural   Yb3Ho2Er3(B6Ru)4
_chemical_formula_sum   'Yb3 Ho2 Er3 B24 Ru4'
_cell_volume   382.38684062
_cell_formula_units_Z   1
loop_
 _symmetry_equiv_pos_site_id
 _symmetry_equiv_pos_as_xyz
  1  'x, y, z'
loop_
 _atom_site_type_symbol
 _atom_site_label
 _atom_site_symmetry_multiplicity
 _atom_site_fract_x
 _atom_site_fract_y
 _atom_site_fract_z
 _atom_site_occupancy
  Yb  Yb0  1  0.000000  0.325053  0.414709  1
  Yb  Yb1  1  0.000000  0.674919  0.584755  1
  Yb  Yb2  1  0.000000  0.823650  0.085886  1
  Ho  Ho3  1  0.000000  0.175608  0.915192  1
  Ho  Ho4  1  0.000000  0.941110  0.366692  1
  Er  Er5  1  0.000000  0.058090  0.631641  1
  Er  Er6  1  0.000000  0.442981  0.132874  1
  Er  Er7  1  0.000000  0.558705  0.867923  1
  B  B8  1  0.500000  0.553455  0.432981  1
  B  B9  1  0.500000  0.445803  0.567841  1
  B  B10  1  0.500000  0.054034  0.066718  1
  B  B11  1  0.500000  0.945867  0.933226  1
  B  B12  1  0.500000  0.748281  0.417376  1
  B  B13  1  0.500000  0.251162  0.582720  1
  B  B14  1  0.500000  0.249235  0.081861  1
  B  B15  1  0.500000  0.751558  0.917817  1
  B  B16  1  0.500000  0.790441  0.264094  1
  B  B17  1  0.500000  0.208602  0.736175  1
  B  B18  1  0.500000  0.291143  0.234981  1
  B  B19  1  0.500000  0.709996  0.764761  1
  B  B20  1  0.500000  0.630834  0.185701  1
  B  B21  1  0.500000  0.368983  0.815294  1
  B  B22  1  0.500000  0.131258  0.313420  1
  B  B23  1  0.500000  0.869457  0.685332  1
  B  B24  1  0.500000  0.983495  0.210294  1
  B  B25  1  0.500000  0.016917  0.788765  1
  B  B26  1  0.500000  0.483657  0.289089  1
  B  B27  1  0.500000  0.516072  0.711635  1
  B  B28  1  0.500000  0.598902  0.027332  1
  B  B29  1  0.500000  0.400433  0.972721  1
  B  B30  1  0.500000  0.097231  0.473053  1
  B  B31  1  0.500000  0.902849  0.526633  1
  Ru  Ru32  1  0.000000  0.638641  0.320384  1
  Ru  Ru33  1  0.000000  0.359812  0.681093  1
  Ru  Ru34  1  0.000000  0.138854  0.178667  1
  Ru  Ru35  1  0.000000  0.862913  0.820364  1
