# generated using pymatgen
data_YScCrB6
_symmetry_space_group_name_H-M   'P 1'
_cell_length_a   3.46685900
_cell_length_b   9.00787400
_cell_length_c   11.36843400
_cell_angle_alpha   90.00000000
_cell_angle_beta   90.00000000
_cell_angle_gamma   90.00000000
_symmetry_Int_Tables_number   1
_chemical_formula_structural   YScCrB6
_chemical_formula_sum   'Y4 Sc4 Cr4 B24'
_cell_volume   355.02515561
_cell_formula_units_Z   4
loop_
 _symmetry_equiv_pos_site_id
 _symmetry_equiv_pos_as_xyz
  1  'x, y, z'
loop_
 _atom_site_type_symbol
 _atom_site_label
 _atom_site_symmetry_multiplicity
 _atom_site_fract_x
 _atom_site_fract_y
 _atom_site_fract_z
 _atom_site_occupancy
  Y  Y0  1  0.000000  0.822687  0.085473  1
  Y  Y1  1  0.000000  0.177313  0.914527  1
  Y  Y2  1  0.000000  0.322687  0.414527  1
  Y  Y3  1  0.000000  0.677313  0.585473  1
  Sc  Sc4  1  0.000000  0.443241  0.130834  1
  Sc  Sc5  1  0.000000  0.556759  0.869166  1
  Sc  Sc6  1  0.000000  0.943241  0.369166  1
  Sc  Sc7  1  0.000000  0.056759  0.630834  1
  Cr  Cr8  1  0.000000  0.141680  0.181980  1
  Cr  Cr9  1  0.000000  0.858320  0.818020  1
  Cr  Cr10  1  0.000000  0.641680  0.318020  1
  Cr  Cr11  1  0.000000  0.358320  0.681980  1
  B  B12  1  0.500000  0.054935  0.067726  1
  B  B13  1  0.500000  0.945065  0.932274  1
  B  B14  1  0.500000  0.554935  0.432274  1
  B  B15  1  0.500000  0.445065  0.567726  1
  B  B16  1  0.500000  0.253217  0.082586  1
  B  B17  1  0.500000  0.746783  0.917414  1
  B  B18  1  0.500000  0.753217  0.417414  1
  B  B19  1  0.500000  0.246783  0.582586  1
  B  B20  1  0.500000  0.294700  0.235298  1
  B  B21  1  0.500000  0.705300  0.764702  1
  B  B22  1  0.500000  0.794700  0.264702  1
  B  B23  1  0.500000  0.205300  0.735298  1
  B  B24  1  0.500000  0.129445  0.316353  1
  B  B25  1  0.500000  0.870555  0.683647  1
  B  B26  1  0.500000  0.629445  0.183647  1
  B  B27  1  0.500000  0.370555  0.816353  1
  B  B28  1  0.500000  0.482647  0.286505  1
  B  B29  1  0.500000  0.517353  0.713495  1
  B  B30  1  0.500000  0.982647  0.213495  1
  B  B31  1  0.500000  0.017353  0.786505  1
  B  B32  1  0.500000  0.095918  0.473841  1
  B  B33  1  0.500000  0.904082  0.526159  1
  B  B34  1  0.500000  0.595918  0.026159  1
  B  B35  1  0.500000  0.404082  0.973841  1
