# generated using pymatgen
data_Tb2Er2TmPt4
_symmetry_space_group_name_H-M   'P 1'
_cell_length_a   7.43099800
_cell_length_b   7.52632100
_cell_length_c   14.64167400
_cell_angle_alpha   90.00000000
_cell_angle_beta   90.00000000
_cell_angle_gamma   90.00000000
_symmetry_Int_Tables_number   1
_chemical_formula_structural   Tb2Er2TmPt4
_chemical_formula_sum   'Tb8 Er8 Tm4 Pt16'
_cell_volume   818.88066061
_cell_formula_units_Z   4
loop_
 _symmetry_equiv_pos_site_id
 _symmetry_equiv_pos_as_xyz
  1  'x, y, z'
loop_
 _atom_site_type_symbol
 _atom_site_label
 _atom_site_symmetry_multiplicity
 _atom_site_fract_x
 _atom_site_fract_y
 _atom_site_fract_z
 _atom_site_occupancy
  Tb  Tb0  1  0.500971  0.679527  0.592754  1
  Tb  Tb1  1  0.000971  0.820473  0.907246  1
  Tb  Tb2  1  0.499029  0.320473  0.092754  1
  Tb  Tb3  1  0.999029  0.179527  0.407246  1
  Tb  Tb4  1  0.499029  0.320473  0.407246  1
  Tb  Tb5  1  0.999029  0.179527  0.092754  1
  Tb  Tb6  1  0.500971  0.679527  0.907246  1
  Tb  Tb7  1  0.000971  0.820473  0.592754  1
  Er  Er8  1  0.656685  0.167752  0.622784  1
  Er  Er9  1  0.156685  0.332248  0.877216  1
  Er  Er10  1  0.343315  0.832248  0.122784  1
  Er  Er11  1  0.843315  0.667752  0.377216  1
  Er  Er12  1  0.343315  0.832248  0.377216  1
  Er  Er13  1  0.843315  0.667752  0.122784  1
  Er  Er14  1  0.656685  0.167752  0.877216  1
  Er  Er15  1  0.156685  0.332248  0.622784  1
  Tm  Tm16  1  0.819332  0.511180  0.750000  1
  Tm  Tm17  1  0.319332  0.988820  0.750000  1
  Tm  Tm18  1  0.180668  0.488820  0.250000  1
  Tm  Tm19  1  0.680668  0.011180  0.250000  1
  Pt  Pt20  1  0.682913  0.966432  0.458207  1
  Pt  Pt21  1  0.182913  0.533568  0.041793  1
  Pt  Pt22  1  0.317087  0.033568  0.958207  1
  Pt  Pt23  1  0.817087  0.466432  0.541793  1
  Pt  Pt24  1  0.317087  0.033568  0.541793  1
  Pt  Pt25  1  0.817087  0.466432  0.958207  1
  Pt  Pt26  1  0.682913  0.966432  0.041793  1
  Pt  Pt27  1  0.182913  0.533568  0.458207  1
  Pt  Pt28  1  0.454124  0.385879  0.750000  1
  Pt  Pt29  1  0.954124  0.114121  0.750000  1
  Pt  Pt30  1  0.545876  0.614121  0.250000  1
  Pt  Pt31  1  0.045876  0.885879  0.250000  1
  Pt  Pt32  1  0.682386  0.856764  0.750000  1
  Pt  Pt33  1  0.182386  0.643236  0.750000  1
  Pt  Pt34  1  0.317614  0.143236  0.250000  1
  Pt  Pt35  1  0.817614  0.356764  0.250000  1
