# generated using pymatgen
data_Tm10Bi3Pb3S2
_symmetry_space_group_name_H-M   'P 1'
_cell_length_a   9.10031500
_cell_length_b   9.10031441
_cell_length_c   6.54661200
_cell_angle_alpha   90.00000000
_cell_angle_beta   90.00000000
_cell_angle_gamma   120.00000579
_symmetry_Int_Tables_number   1
_chemical_formula_structural   Tm10Bi3Pb3S2
_chemical_formula_sum   'Tm10 Bi3 Pb3 S2'
_cell_volume   469.52641588
_cell_formula_units_Z   1
loop_
 _symmetry_equiv_pos_site_id
 _symmetry_equiv_pos_as_xyz
  1  'x, y, z'
loop_
 _atom_site_type_symbol
 _atom_site_label
 _atom_site_symmetry_multiplicity
 _atom_site_fract_x
 _atom_site_fract_y
 _atom_site_fract_z
 _atom_site_occupancy
  Tm  Tm0  1  0.756412  0.756412  0.750000  1
  Tm  Tm1  1  0.243588  0.000000  0.750000  1
  Tm  Tm2  1  0.000000  0.243588  0.750000  1
  Tm  Tm3  1  0.244491  0.244491  0.250000  1
  Tm  Tm4  1  0.755509  0.000000  0.250000  1
  Tm  Tm5  1  0.000000  0.755509  0.250000  1
  Tm  Tm6  1  0.666667  0.333333  0.002702  1
  Tm  Tm7  1  0.333333  0.666667  0.002702  1
  Tm  Tm8  1  0.333333  0.666667  0.497298  1
  Tm  Tm9  1  0.666667  0.333333  0.497298  1
  Bi  Bi10  1  0.397449  0.397449  0.750000  1
  Bi  Bi11  1  0.602551  0.000000  0.750000  1
  Bi  Bi12  1  0.000000  0.602551  0.750000  1
  Pb  Pb13  1  0.605051  0.605051  0.250000  1
  Pb  Pb14  1  0.394949  0.000000  0.250000  1
  Pb  Pb15  1  0.000000  0.394949  0.250000  1
  S  S16  1  0.000000  0.000000  0.999290  1
  S  S17  1  0.000000  0.000000  0.500710  1
