# generated using pymatgen
data_Li2Pr3ZnCuSn4
_symmetry_space_group_name_H-M   'P 1'
_cell_length_a   8.86018329
_cell_length_b   8.75518310
_cell_length_c   8.75518400
_cell_angle_alpha   149.05943195
_cell_angle_beta   130.74126768
_cell_angle_gamma   59.20073756
_symmetry_Int_Tables_number   1
_chemical_formula_structural   Li2Pr3ZnCuSn4
_chemical_formula_sum   'Li2 Pr3 Zn1 Cu1 Sn4'
_cell_volume   262.57451548
_cell_formula_units_Z   1
loop_
 _symmetry_equiv_pos_site_id
 _symmetry_equiv_pos_as_xyz
  1  'x, y, z'
loop_
 _atom_site_type_symbol
 _atom_site_label
 _atom_site_symmetry_multiplicity
 _atom_site_fract_x
 _atom_site_fract_y
 _atom_site_fract_z
 _atom_site_occupancy
  Li  Li0  1  0.487590  0.680132  0.807457  1
  Li  Li1  1  0.504480  0.321238  0.183242  1
  Pr  Pr2  1  0.501932  0.000116  0.501815  1
  Pr  Pr3  1  0.108266  0.130654  0.977612  1
  Pr  Pr4  1  0.901775  0.871416  0.030358  1
  Zn  Zn5  1  0.838962  0.658417  0.180545  1
  Cu  Cu6  1  0.157738  0.339567  0.818171  1
  Sn  Sn7  1  0.797439  0.489344  0.308093  1
  Sn  Sn8  1  0.206382  0.506635  0.699746  1
  Sn  Sn9  1  0.739249  0.217925  0.521324  1
  Sn  Sn10  1  0.256189  0.784554  0.471636  1
