# generated using pymatgen
data_TmCo4MoP3
_symmetry_space_group_name_H-M   'P 1'
_cell_length_a   3.69449700
_cell_length_b   10.38239200
_cell_length_c   11.83859700
_cell_angle_alpha   90.00000000
_cell_angle_beta   90.00000000
_cell_angle_gamma   90.00000000
_symmetry_Int_Tables_number   1
_chemical_formula_structural   TmCo4MoP3
_chemical_formula_sum   'Tm4 Co16 Mo4 P12'
_cell_volume   454.10154271
_cell_formula_units_Z   4
loop_
 _symmetry_equiv_pos_site_id
 _symmetry_equiv_pos_as_xyz
  1  'x, y, z'
loop_
 _atom_site_type_symbol
 _atom_site_label
 _atom_site_symmetry_multiplicity
 _atom_site_fract_x
 _atom_site_fract_y
 _atom_site_fract_z
 _atom_site_occupancy
  Tm  Tm0  1  0.250000  0.582791  0.704518  1
  Tm  Tm1  1  0.250000  0.917209  0.204518  1
  Tm  Tm2  1  0.750000  0.417209  0.295482  1
  Tm  Tm3  1  0.750000  0.082791  0.795482  1
  Co  Co4  1  0.250000  0.406542  0.488393  1
  Co  Co5  1  0.250000  0.093458  0.988393  1
  Co  Co6  1  0.750000  0.593458  0.511607  1
  Co  Co7  1  0.750000  0.906542  0.011607  1
  Co  Co8  1  0.250000  0.221803  0.178090  1
  Co  Co9  1  0.250000  0.278197  0.678090  1
  Co  Co10  1  0.750000  0.778197  0.821910  1
  Co  Co11  1  0.750000  0.721803  0.321910  1
  Co  Co12  1  0.250000  0.887337  0.700973  1
  Co  Co13  1  0.250000  0.612663  0.200973  1
  Co  Co14  1  0.750000  0.112663  0.299027  1
  Co  Co15  1  0.750000  0.387337  0.799027  1
  Co  Co16  1  0.250000  0.465547  0.932679  1
  Co  Co17  1  0.250000  0.034453  0.432679  1
  Co  Co18  1  0.750000  0.534453  0.067321  1
  Co  Co19  1  0.750000  0.965547  0.567321  1
  Mo  Mo20  1  0.250000  0.709198  0.987688  1
  Mo  Mo21  1  0.250000  0.790802  0.487688  1
  Mo  Mo22  1  0.750000  0.290802  0.012312  1
  Mo  Mo23  1  0.750000  0.209198  0.512312  1
  P  P24  1  0.250000  0.420415  0.115813  1
  P  P25  1  0.250000  0.079585  0.615813  1
  P  P26  1  0.750000  0.579585  0.884187  1
  P  P27  1  0.750000  0.920415  0.384187  1
  P  P28  1  0.250000  0.267757  0.864701  1
  P  P29  1  0.250000  0.232243  0.364701  1
  P  P30  1  0.750000  0.732243  0.135299  1
  P  P31  1  0.750000  0.767757  0.635299  1
  P  P32  1  0.250000  0.594619  0.390522  1
  P  P33  1  0.250000  0.905381  0.890522  1
  P  P34  1  0.750000  0.405381  0.609478  1
  P  P35  1  0.750000  0.094619  0.109478  1
