# generated using pymatgen
data_La3Cd2HgAu3
_symmetry_space_group_name_H-M   'P 1'
_cell_length_a   8.17204700
_cell_length_b   8.09919304
_cell_length_c   4.05933000
_cell_angle_alpha   90.00000000
_cell_angle_beta   90.00000000
_cell_angle_gamma   120.29801213
_symmetry_Int_Tables_number   1
_chemical_formula_structural   La3Cd2HgAu3
_chemical_formula_sum   'La3 Cd2 Hg1 Au3'
_cell_volume   231.97734577
_cell_formula_units_Z   1
loop_
 _symmetry_equiv_pos_site_id
 _symmetry_equiv_pos_as_xyz
  1  'x, y, z'
loop_
 _atom_site_type_symbol
 _atom_site_label
 _atom_site_symmetry_multiplicity
 _atom_site_fract_x
 _atom_site_fract_y
 _atom_site_fract_z
 _atom_site_occupancy
  La  La0  1  0.414740  0.000000  0.000000  1
  La  La1  1  0.593424  0.598003  0.000000  1
  La  La2  1  0.995421  0.401997  0.000000  1
  Cd  Cd3  1  0.258018  0.255423  0.500000  1
  Cd  Cd4  1  0.002595  0.744577  0.500000  1
  Hg  Hg5  1  0.738468  0.000000  0.500000  1
  Au  Au6  1  0.665355  0.341484  0.500000  1
  Au  Au7  1  0.323870  0.658516  0.500000  1
  Au  Au8  1  0.008109  0.000000  0.000000  1
