# generated using pymatgen
data_Th10Sn5HgBi2
_symmetry_space_group_name_H-M   'P 1'
_cell_length_a   9.69828305
_cell_length_b   9.68789341
_cell_length_c   6.63347403
_cell_angle_alpha   89.99394663
_cell_angle_beta   90.01155899
_cell_angle_gamma   120.03578861
_symmetry_Int_Tables_number   1
_chemical_formula_structural   Th10Sn5HgBi2
_chemical_formula_sum   'Th10 Sn5 Hg1 Bi2'
_cell_volume   539.55923592
_cell_formula_units_Z   1
loop_
 _symmetry_equiv_pos_site_id
 _symmetry_equiv_pos_as_xyz
  1  'x, y, z'
loop_
 _atom_site_type_symbol
 _atom_site_label
 _atom_site_symmetry_multiplicity
 _atom_site_fract_x
 _atom_site_fract_y
 _atom_site_fract_z
 _atom_site_occupancy
  Th  Th0  1  0.003947  0.723118  0.749329  1
  Th  Th1  1  0.280829  0.276884  0.749325  1
  Th  Th2  1  0.333785  0.669826  0.497204  1
  Th  Th3  1  0.663957  0.330174  0.497199  1
  Th  Th4  1  0.720701  0.720837  0.250514  1
  Th  Th5  1  0.718802  0.000000  0.749472  1
  Th  Th6  1  0.999867  0.279164  0.250513  1
  Th  Th7  1  0.280265  0.999998  0.250903  1
  Th  Th8  1  0.333980  0.669769  0.002478  1
  Th  Th9  1  0.664208  0.330229  0.002480  1
  Sn  Sn10  1  0.378499  0.999998  0.750020  1
  Sn  Sn11  1  0.621720  0.999999  0.249817  1
  Sn  Sn12  1  0.378277  0.378420  0.249779  1
  Sn  Sn13  1  0.999862  0.621583  0.249779  1
  Sn  Sn14  1  0.999500  0.000000  0.500177  1
  Hg  Hg15  1  0.999694  0.000000  0.000638  1
  Bi  Bi16  1  0.621670  0.621232  0.750187  1
  Bi  Bi17  1  0.000438  0.378769  0.750186  1
