# generated using pymatgen
data_Hf3Al2Sn
_symmetry_space_group_name_H-M   'P 1'
_cell_length_a   5.72344600
_cell_length_b   8.77090900
_cell_length_c   9.52790500
_cell_angle_alpha   90.00000000
_cell_angle_beta   90.00000000
_cell_angle_gamma   90.00000000
_symmetry_Int_Tables_number   1
_chemical_formula_structural   Hf3Al2Sn
_chemical_formula_sum   'Hf12 Al8 Sn4'
_cell_volume   478.29915440
_cell_formula_units_Z   4
loop_
 _symmetry_equiv_pos_site_id
 _symmetry_equiv_pos_as_xyz
  1  'x, y, z'
loop_
 _atom_site_type_symbol
 _atom_site_label
 _atom_site_symmetry_multiplicity
 _atom_site_fract_x
 _atom_site_fract_y
 _atom_site_fract_z
 _atom_site_occupancy
  Hf  Hf0  1  0.000000  0.750000  0.123808  1
  Hf  Hf1  1  0.500000  0.250000  0.876192  1
  Hf  Hf2  1  0.000000  0.250000  0.876192  1
  Hf  Hf3  1  0.500000  0.750000  0.123808  1
  Hf  Hf4  1  0.750000  0.470612  0.616512  1
  Hf  Hf5  1  0.250000  0.529388  0.383488  1
  Hf  Hf6  1  0.750000  0.970612  0.383488  1
  Hf  Hf7  1  0.250000  0.029388  0.616512  1
  Hf  Hf8  1  0.750000  0.372072  0.193676  1
  Hf  Hf9  1  0.250000  0.627928  0.806324  1
  Hf  Hf10  1  0.750000  0.872072  0.806324  1
  Hf  Hf11  1  0.250000  0.127928  0.193676  1
  Al  Al12  1  0.000000  0.750000  0.569483  1
  Al  Al13  1  0.500000  0.250000  0.430517  1
  Al  Al14  1  0.000000  0.250000  0.430517  1
  Al  Al15  1  0.500000  0.750000  0.569483  1
  Al  Al16  1  0.750000  0.134984  0.642438  1
  Al  Al17  1  0.250000  0.865016  0.357562  1
  Al  Al18  1  0.750000  0.634984  0.357562  1
  Al  Al19  1  0.250000  0.365016  0.642438  1
  Sn  Sn20  1  0.750000  0.052693  0.083045  1
  Sn  Sn21  1  0.250000  0.947307  0.916955  1
  Sn  Sn22  1  0.750000  0.552693  0.916955  1
  Sn  Sn23  1  0.250000  0.447307  0.083045  1
