# generated using pymatgen
data_Ti5SiGe2N
_symmetry_space_group_name_H-M   'P 1'
_cell_length_a   7.50369907
_cell_length_b   7.50369919
_cell_length_c   5.24099400
_cell_angle_alpha   90.00000000
_cell_angle_beta   90.00000000
_cell_angle_gamma   120.29341934
_symmetry_Int_Tables_number   1
_chemical_formula_structural   Ti5SiGe2N
_chemical_formula_sum   'Ti10 Si2 Ge4 N2'
_cell_volume   254.80235452
_cell_formula_units_Z   2
loop_
 _symmetry_equiv_pos_site_id
 _symmetry_equiv_pos_as_xyz
  1  'x, y, z'
loop_
 _atom_site_type_symbol
 _atom_site_label
 _atom_site_symmetry_multiplicity
 _atom_site_fract_x
 _atom_site_fract_y
 _atom_site_fract_z
 _atom_site_occupancy
  Ti  Ti0  1  0.226921  0.002866  0.750000  1
  Ti  Ti1  1  0.773079  0.997134  0.250000  1
  Ti  Ti2  1  0.002866  0.226921  0.750000  1
  Ti  Ti3  1  0.997134  0.773079  0.250000  1
  Ti  Ti4  1  0.768619  0.768619  0.750000  1
  Ti  Ti5  1  0.231381  0.231381  0.250000  1
  Ti  Ti6  1  0.336152  0.663848  0.500000  1
  Ti  Ti7  1  0.663848  0.336152  0.500000  1
  Ti  Ti8  1  0.663848  0.336152  0.000000  1
  Ti  Ti9  1  0.336152  0.663848  0.000000  1
  Si  Si10  1  0.408675  0.408675  0.750000  1
  Si  Si11  1  0.591325  0.591325  0.250000  1
  Ge  Ge12  1  0.594106  0.001716  0.750000  1
  Ge  Ge13  1  0.405894  0.998284  0.250000  1
  Ge  Ge14  1  0.001716  0.594106  0.750000  1
  Ge  Ge15  1  0.998284  0.405894  0.250000  1
  N  N16  1  0.000000  0.000000  0.500000  1
  N  N17  1  0.000000  0.000000  0.000000  1
