# generated using pymatgen
data_La3Dy2Ho3(CdIr)2
_symmetry_space_group_name_H-M   'P 1'
_cell_length_a   9.80547263
_cell_length_b   9.80547304
_cell_length_c   9.80547300
_cell_angle_alpha   59.99999675
_cell_angle_beta   59.99999538
_cell_angle_gamma   59.99999828
_symmetry_Int_Tables_number   1
_chemical_formula_structural   La3Dy2Ho3(CdIr)2
_chemical_formula_sum   'La6 Dy4 Ho6 Cd4 Ir4'
_cell_volume   666.63882054
_cell_formula_units_Z   2
loop_
 _symmetry_equiv_pos_site_id
 _symmetry_equiv_pos_as_xyz
  1  'x, y, z'
loop_
 _atom_site_type_symbol
 _atom_site_label
 _atom_site_symmetry_multiplicity
 _atom_site_fract_x
 _atom_site_fract_y
 _atom_site_fract_z
 _atom_site_occupancy
  La  La0  1  0.193118  0.806882  0.806882  1
  La  La1  1  0.806882  0.193118  0.193118  1
  La  La2  1  0.806882  0.193118  0.806882  1
  La  La3  1  0.193118  0.806882  0.193118  1
  La  La4  1  0.806882  0.806882  0.193118  1
  La  La5  1  0.193118  0.193118  0.806882  1
  Dy  Dy6  1  0.596570  0.596570  0.596570  1
  Dy  Dy7  1  0.596570  0.596570  0.210291  1
  Dy  Dy8  1  0.596570  0.210291  0.596570  1
  Dy  Dy9  1  0.210291  0.596570  0.596570  1
  Ho  Ho10  1  0.063677  0.436323  0.436323  1
  Ho  Ho11  1  0.436323  0.063677  0.063677  1
  Ho  Ho12  1  0.436323  0.063677  0.436323  1
  Ho  Ho13  1  0.063677  0.436323  0.063677  1
  Ho  Ho14  1  0.436323  0.436323  0.063677  1
  Ho  Ho15  1  0.063677  0.063677  0.436323  1
  Cd  Cd16  1  0.828720  0.828720  0.828720  1
  Cd  Cd17  1  0.828720  0.828720  0.513840  1
  Cd  Cd18  1  0.828720  0.513840  0.828720  1
  Cd  Cd19  1  0.513840  0.828720  0.828720  1
  Ir  Ir20  1  0.391000  0.391000  0.391000  1
  Ir  Ir21  1  0.391000  0.391000  0.827000  1
  Ir  Ir22  1  0.391000  0.827000  0.391000  1
  Ir  Ir23  1  0.827000  0.391000  0.391000  1
