# generated using pymatgen
data_Dy2AlCo(BIr2)2
_symmetry_space_group_name_H-M   'P 1'
_cell_length_a   9.48894200
_cell_length_b   9.48894200
_cell_length_c   3.10968400
_cell_angle_alpha   90.00000000
_cell_angle_beta   90.00000000
_cell_angle_gamma   90.00000000
_symmetry_Int_Tables_number   1
_chemical_formula_structural   Dy2AlCo(BIr2)2
_chemical_formula_sum   'Dy4 Al2 Co2 B4 Ir8'
_cell_volume   279.99601042
_cell_formula_units_Z   2
loop_
 _symmetry_equiv_pos_site_id
 _symmetry_equiv_pos_as_xyz
  1  'x, y, z'
loop_
 _atom_site_type_symbol
 _atom_site_label
 _atom_site_symmetry_multiplicity
 _atom_site_fract_x
 _atom_site_fract_y
 _atom_site_fract_z
 _atom_site_occupancy
  Dy  Dy0  1  0.175396  0.675396  0.000000  1
  Dy  Dy1  1  0.324604  0.175396  0.000000  1
  Dy  Dy2  1  0.675396  0.824604  0.000000  1
  Dy  Dy3  1  0.824604  0.324604  0.000000  1
  Al  Al4  1  0.000000  0.000000  0.000000  1
  Al  Al5  1  0.500000  0.500000  0.000000  1
  Co  Co6  1  0.000000  0.500000  0.500000  1
  Co  Co7  1  0.500000  0.000000  0.500000  1
  B  B8  1  0.113203  0.386797  0.000000  1
  B  B9  1  0.386797  0.886797  0.000000  1
  B  B10  1  0.613203  0.113203  0.000000  1
  B  B11  1  0.886797  0.613203  0.000000  1
  Ir  Ir12  1  0.065063  0.223152  0.500000  1
  Ir  Ir13  1  0.223152  0.934937  0.500000  1
  Ir  Ir14  1  0.276848  0.434937  0.500000  1
  Ir  Ir15  1  0.434937  0.723152  0.500000  1
  Ir  Ir16  1  0.565063  0.276848  0.500000  1
  Ir  Ir17  1  0.723152  0.565063  0.500000  1
  Ir  Ir18  1  0.776848  0.065063  0.500000  1
  Ir  Ir19  1  0.934937  0.776848  0.500000  1
