# generated using pymatgen
data_Dy3Tm9Os3Rh
_symmetry_space_group_name_H-M   'P 1'
_cell_length_a   7.31094177
_cell_length_b   8.93915800
_cell_length_c   6.29322458
_cell_angle_alpha   90.00000000
_cell_angle_beta   89.82614335
_cell_angle_gamma   90.00000000
_symmetry_Int_Tables_number   1
_chemical_formula_structural   Dy3Tm9Os3Rh
_chemical_formula_sum   'Dy3 Tm9 Os3 Rh1'
_cell_volume   411.28338901
_cell_formula_units_Z   1
loop_
 _symmetry_equiv_pos_site_id
 _symmetry_equiv_pos_as_xyz
  1  'x, y, z'
loop_
 _atom_site_type_symbol
 _atom_site_label
 _atom_site_symmetry_multiplicity
 _atom_site_fract_x
 _atom_site_fract_y
 _atom_site_fract_z
 _atom_site_occupancy
  Dy  Dy0  1  0.038819  0.250000  0.628373  1
  Dy  Dy1  1  0.961618  0.750000  0.372787  1
  Dy  Dy2  1  0.539269  0.250000  0.870493  1
  Tm  Tm3  1  0.462127  0.750000  0.129464  1
  Tm  Tm4  1  0.172806  0.060760  0.165319  1
  Tm  Tm5  1  0.824477  0.936806  0.831325  1
  Tm  Tm6  1  0.323717  0.933239  0.672342  1
  Tm  Tm7  1  0.824477  0.563194  0.831325  1
  Tm  Tm8  1  0.677696  0.061274  0.331406  1
  Tm  Tm9  1  0.172806  0.439240  0.165319  1
  Tm  Tm10  1  0.677696  0.438726  0.331406  1
  Tm  Tm11  1  0.323717  0.566761  0.672342  1
  Os  Os12  1  0.615119  0.750000  0.538015  1
  Os  Os13  1  0.117575  0.750000  0.962393  1
  Os  Os14  1  0.883430  0.250000  0.039787  1
  Rh  Rh15  1  0.384651  0.250000  0.457904  1
