# generated using pymatgen
data_Pr8Er12Sn9Bi7
_symmetry_space_group_name_H-M   'P 1'
_cell_length_a   8.27536810
_cell_length_b   8.26926951
_cell_length_c   15.63045807
_cell_angle_alpha   90.03991798
_cell_angle_beta   89.94060245
_cell_angle_gamma   90.00087632
_symmetry_Int_Tables_number   1
_chemical_formula_structural   Pr8Er12Sn9Bi7
_chemical_formula_sum   'Pr8 Er12 Sn9 Bi7'
_cell_volume   1069.61093453
_cell_formula_units_Z   1
loop_
 _symmetry_equiv_pos_site_id
 _symmetry_equiv_pos_as_xyz
  1  'x, y, z'
loop_
 _atom_site_type_symbol
 _atom_site_label
 _atom_site_symmetry_multiplicity
 _atom_site_fract_x
 _atom_site_fract_y
 _atom_site_fract_z
 _atom_site_occupancy
  Pr  Pr0  1  0.529074  0.325628  0.899440  1
  Pr  Pr1  1  0.025950  0.176723  0.602478  1
  Pr  Pr2  1  0.474093  0.676815  0.397479  1
  Pr  Pr3  1  0.974101  0.819659  0.101845  1
  Pr  Pr4  1  0.479952  0.673797  0.100839  1
  Pr  Pr5  1  0.973947  0.822648  0.397541  1
  Pr  Pr6  1  0.525909  0.322844  0.602258  1
  Pr  Pr7  1  0.023178  0.179446  0.899049  1
  Er  Er8  1  0.363325  0.840920  0.872914  1
  Er  Er9  1  0.864028  0.659087  0.627125  1
  Er  Er10  1  0.635310  0.159266  0.372699  1
  Er  Er11  1  0.131090  0.341013  0.126888  1
  Er  Er12  1  0.639346  0.164157  0.126019  1
  Er  Er13  1  0.135707  0.340568  0.372683  1
  Er  Er14  1  0.363686  0.840984  0.627824  1
  Er  Er15  1  0.862092  0.656800  0.874749  1
  Er  Er16  1  0.195035  0.500012  0.750180  1
  Er  Er17  1  0.694964  0.000120  0.750429  1
  Er  Er18  1  0.804952  0.499375  0.246333  1
  Er  Er19  1  0.305503  0.000228  0.249003  1
  Sn  Sn20  1  0.794828  0.460643  0.043136  1
  Sn  Sn21  1  0.559556  0.628056  0.749949  1
  Sn  Sn22  1  0.058637  0.871728  0.750666  1
  Sn  Sn23  1  0.439350  0.371892  0.250068  1
  Sn  Sn24  1  0.940237  0.126562  0.250808  1
  Sn  Sn25  1  0.332586  0.145179  0.750815  1
  Sn  Sn26  1  0.832266  0.355713  0.749878  1
  Sn  Sn27  1  0.667901  0.856526  0.249823  1
  Sn  Sn28  1  0.169058  0.644114  0.250090  1
  Bi  Bi29  1  0.293122  0.039755  0.043211  1
  Bi  Bi30  1  0.792726  0.460035  0.456385  1
  Bi  Bi31  1  0.706823  0.960023  0.543119  1
  Bi  Bi32  1  0.205366  0.540301  0.957439  1
  Bi  Bi33  1  0.706298  0.960150  0.956769  1
  Bi  Bi34  1  0.207348  0.539803  0.543137  1
  Bi  Bi35  1  0.292658  0.039430  0.456931  1
