# generated using pymatgen
data_Yb2PuO6
_symmetry_space_group_name_H-M   'P 1'
_cell_length_a   9.38725500
_cell_length_b   9.38725449
_cell_length_c   5.21813300
_cell_angle_alpha   90.00000000
_cell_angle_beta   90.00000000
_cell_angle_gamma   119.99999828
_symmetry_Int_Tables_number   1
_chemical_formula_structural   Yb2PuO6
_chemical_formula_sum   'Yb6 Pu3 O18'
_cell_volume   398.21992903
_cell_formula_units_Z   3
loop_
 _symmetry_equiv_pos_site_id
 _symmetry_equiv_pos_as_xyz
  1  'x, y, z'
loop_
 _atom_site_type_symbol
 _atom_site_label
 _atom_site_symmetry_multiplicity
 _atom_site_fract_x
 _atom_site_fract_y
 _atom_site_fract_z
 _atom_site_occupancy
  Yb  Yb0  1  0.712923  0.712923  0.500000  1
  Yb  Yb1  1  0.000000  0.287077  0.500000  1
  Yb  Yb2  1  0.287077  0.000000  0.500000  1
  Yb  Yb3  1  0.374217  0.374217  0.000000  1
  Yb  Yb4  1  0.000000  0.625783  0.000000  1
  Yb  Yb5  1  0.625783  0.000000  0.000000  1
  Pu  Pu6  1  0.666667  0.333333  0.501927  1
  Pu  Pu7  1  0.333333  0.666667  0.498073  1
  Pu  Pu8  1  0.000000  0.000000  0.000000  1
  O  O9  1  0.760907  0.226422  0.714191  1
  O  O10  1  0.773578  0.534485  0.714191  1
  O  O11  1  0.465515  0.239093  0.714191  1
  O  O12  1  0.534485  0.773578  0.285809  1
  O  O13  1  0.239093  0.465515  0.285809  1
  O  O14  1  0.226422  0.760907  0.285809  1
  O  O15  1  0.592400  0.458033  0.289640  1
  O  O16  1  0.541967  0.134367  0.289640  1
  O  O17  1  0.865633  0.407600  0.289640  1
  O  O18  1  0.079367  0.879606  0.789133  1
  O  O19  1  0.120394  0.199760  0.789133  1
  O  O20  1  0.800240  0.920633  0.789133  1
  O  O21  1  0.199760  0.120394  0.210867  1
  O  O22  1  0.920633  0.800240  0.210867  1
  O  O23  1  0.879606  0.079367  0.210867  1
  O  O24  1  0.458033  0.592400  0.710360  1
  O  O25  1  0.407600  0.865633  0.710360  1
  O  O26  1  0.134367  0.541967  0.710360  1
