# generated using pymatgen
data_Th4Hg2Pd3Ru
_symmetry_space_group_name_H-M   'P 1'
_cell_length_a   7.90536000
_cell_length_b   7.90536009
_cell_length_c   3.83026200
_cell_angle_alpha   90.00000000
_cell_angle_beta   90.00000000
_cell_angle_gamma   89.85000116
_symmetry_Int_Tables_number   1
_chemical_formula_structural   Th4Hg2Pd3Ru
_chemical_formula_sum   'Th4 Hg2 Pd3 Ru1'
_cell_volume   239.37032114
_cell_formula_units_Z   1
loop_
 _symmetry_equiv_pos_site_id
 _symmetry_equiv_pos_as_xyz
  1  'x, y, z'
loop_
 _atom_site_type_symbol
 _atom_site_label
 _atom_site_symmetry_multiplicity
 _atom_site_fract_x
 _atom_site_fract_y
 _atom_site_fract_z
 _atom_site_occupancy
  Th  Th0  1  0.323083  0.842765  0.500000  1
  Th  Th1  1  0.831057  0.668943  0.500000  1
  Th  Th2  1  0.184895  0.315105  0.500000  1
  Th  Th3  1  0.657235  0.176917  0.500000  1
  Hg  Hg4  1  0.994455  0.999802  0.000000  1
  Hg  Hg5  1  0.500198  0.505545  0.000000  1
  Pd  Pd6  1  0.873624  0.370088  0.000000  1
  Pd  Pd7  1  0.129912  0.626376  0.000000  1
  Pd  Pd8  1  0.632826  0.867174  0.000000  1
  Ru  Ru9  1  0.372715  0.127285  0.000000  1
