# generated using pymatgen
data_Cs8Er(US4)3
_symmetry_space_group_name_H-M   'P 1'
_cell_length_a   13.84795479
_cell_length_b   6.75887169
_cell_length_c   9.17471500
_cell_angle_alpha   71.95974452
_cell_angle_beta   89.85266381
_cell_angle_gamma   89.76229755
_symmetry_Int_Tables_number   1
_chemical_formula_structural   Cs8Er(US4)3
_chemical_formula_sum   'Cs8 Er1 U3 S12'
_cell_volume   816.49842232
_cell_formula_units_Z   1
loop_
 _symmetry_equiv_pos_site_id
 _symmetry_equiv_pos_as_xyz
  1  'x, y, z'
loop_
 _atom_site_type_symbol
 _atom_site_label
 _atom_site_symmetry_multiplicity
 _atom_site_fract_x
 _atom_site_fract_y
 _atom_site_fract_z
 _atom_site_occupancy
  Cs  Cs0  1  0.952413  0.673750  0.663852  1
  Cs  Cs1  1  0.455941  0.829392  0.334161  1
  Cs  Cs2  1  0.042319  0.326931  0.334780  1
  Cs  Cs3  1  0.548103  0.169952  0.661448  1
  Cs  Cs4  1  0.871329  0.089901  0.891386  1
  Cs  Cs5  1  0.374286  0.414529  0.110067  1
  Cs  Cs6  1  0.125779  0.913622  0.110181  1
  Cs  Cs7  1  0.629331  0.578984  0.890919  1
  Er  Er8  1  0.749286  0.156682  0.299007  1
  U  U9  1  0.750612  0.657811  0.297182  1
  U  U10  1  0.250535  0.842795  0.702588  1
  U  U11  1  0.249531  0.342659  0.702650  1
  S  S12  1  0.900778  0.905337  0.283925  1
  S  S13  1  0.401122  0.585720  0.715125  1
  S  S14  1  0.098695  0.088228  0.715380  1
  S  S15  1  0.599443  0.422604  0.284157  1
  S  S16  1  0.816765  0.327834  0.509957  1
  S  S17  1  0.317430  0.181390  0.489338  1
  S  S18  1  0.182476  0.681980  0.489700  1
  S  S19  1  0.683157  0.810783  0.509809  1
  S  S20  1  0.835223  0.502543  0.094437  1
  S  S21  1  0.334141  0.005672  0.907447  1
  S  S22  1  0.165850  0.506548  0.907953  1
  S  S23  1  0.665453  0.984345  0.094553  1
