# generated using pymatgen
data_TbYHo2(OsC2)2
_symmetry_space_group_name_H-M   'P 1'
_cell_length_a   5.14194900
_cell_length_b   6.45005770
_cell_length_c   9.77591364
_cell_angle_alpha   90.15235465
_cell_angle_beta   90.00000000
_cell_angle_gamma   90.00000000
_symmetry_Int_Tables_number   1
_chemical_formula_structural   TbYHo2(OsC2)2
_chemical_formula_sum   'Tb2 Y2 Ho4 Os4 C8'
_cell_volume   324.22551262
_cell_formula_units_Z   2
loop_
 _symmetry_equiv_pos_site_id
 _symmetry_equiv_pos_as_xyz
  1  'x, y, z'
loop_
 _atom_site_type_symbol
 _atom_site_label
 _atom_site_symmetry_multiplicity
 _atom_site_fract_x
 _atom_site_fract_y
 _atom_site_fract_z
 _atom_site_occupancy
  Tb  Tb0  1  0.250000  0.526024  0.218255  1
  Tb  Tb1  1  0.750000  0.473976  0.781745  1
  Y  Y2  1  0.750000  0.973509  0.718616  1
  Y  Y3  1  0.250000  0.026491  0.281384  1
  Ho  Ho4  1  0.250000  0.682631  0.552420  1
  Ho  Ho5  1  0.750000  0.317369  0.447580  1
  Ho  Ho6  1  0.750000  0.817089  0.052653  1
  Ho  Ho7  1  0.250000  0.182911  0.947347  1
  Os  Os8  1  0.250000  0.726476  0.864973  1
  Os  Os9  1  0.750000  0.273524  0.135027  1
  Os  Os10  1  0.750000  0.774058  0.365118  1
  Os  Os11  1  0.250000  0.225942  0.634882  1
  C  C12  1  0.250000  0.461940  0.758204  1
  C  C13  1  0.750000  0.538060  0.241796  1
  C  C14  1  0.750000  0.038054  0.258316  1
  C  C15  1  0.250000  0.961946  0.741684  1
  C  C16  1  0.250000  0.827072  0.052470  1
  C  C17  1  0.750000  0.172928  0.947530  1
  C  C18  1  0.750000  0.673656  0.552409  1
  C  C19  1  0.250000  0.326344  0.447591  1
