# generated using pymatgen
data_Nd11Er9Sn16
_symmetry_space_group_name_H-M   'P 1'
_cell_length_a   8.14992909
_cell_length_b   8.32808694
_cell_length_c   15.71804300
_cell_angle_alpha   90.09274696
_cell_angle_beta   89.85227386
_cell_angle_gamma   90.06320309
_symmetry_Int_Tables_number   1
_chemical_formula_structural   Nd11Er9Sn16
_chemical_formula_sum   'Nd11 Er9 Sn16'
_cell_volume   1066.83014310
_cell_formula_units_Z   1
loop_
 _symmetry_equiv_pos_site_id
 _symmetry_equiv_pos_as_xyz
  1  'x, y, z'
loop_
 _atom_site_type_symbol
 _atom_site_label
 _atom_site_symmetry_multiplicity
 _atom_site_fract_x
 _atom_site_fract_y
 _atom_site_fract_z
 _atom_site_occupancy
  Nd  Nd0  1  0.511719  0.320380  0.904434  1
  Nd  Nd1  1  0.011293  0.179369  0.596320  1
  Nd  Nd2  1  0.487116  0.678440  0.402263  1
  Nd  Nd3  1  0.988555  0.821648  0.096757  1
  Nd  Nd4  1  0.486991  0.678979  0.096789  1
  Nd  Nd5  1  0.986368  0.820864  0.401579  1
  Nd  Nd6  1  0.514105  0.320732  0.597263  1
  Nd  Nd7  1  0.013444  0.179303  0.905224  1
  Nd  Nd8  1  0.359113  0.834078  0.880576  1
  Nd  Nd9  1  0.861229  0.664409  0.621534  1
  Nd  Nd10  1  0.639878  0.165069  0.376598  1
  Er  Er11  1  0.142128  0.336415  0.124794  1
  Er  Er12  1  0.643519  0.163164  0.122617  1
  Er  Er13  1  0.143313  0.336545  0.375301  1
  Er  Er14  1  0.355933  0.836267  0.623431  1
  Er  Er15  1  0.855407  0.664375  0.876162  1
  Er  Er16  1  0.190345  0.501440  0.749338  1
  Er  Er17  1  0.690013  0.997929  0.751585  1
  Er  Er18  1  0.810009  0.497898  0.247819  1
  Er  Er19  1  0.308169  0.002712  0.250412  1
  Sn  Sn20  1  0.305524  0.044226  0.046229  1
  Sn  Sn21  1  0.808993  0.462683  0.453945  1
  Sn  Sn22  1  0.689987  0.961578  0.544193  1
  Sn  Sn23  1  0.186860  0.534790  0.959451  1
  Sn  Sn24  1  0.703056  0.960396  0.959586  1
  Sn  Sn25  1  0.204483  0.538068  0.540212  1
  Sn  Sn26  1  0.296494  0.039039  0.458864  1
  Sn  Sn27  1  0.807267  0.459876  0.041401  1
  Sn  Sn28  1  0.554847  0.619545  0.750612  1
  Sn  Sn29  1  0.055896  0.880909  0.750643  1
  Sn  Sn30  1  0.443143  0.379864  0.247373  1
  Sn  Sn31  1  0.946193  0.123059  0.247847  1
  Sn  Sn32  1  0.319988  0.145002  0.749776  1
  Sn  Sn33  1  0.820056  0.353268  0.752027  1
  Sn  Sn34  1  0.679609  0.854017  0.247789  1
  Sn  Sn35  1  0.178951  0.643662  0.249261  1
