# generated using pymatgen
data_Y5Ho11Cd4(IrPt)2
_symmetry_space_group_name_H-M   'P 1'
_cell_length_a   9.63968540
_cell_length_b   9.63841008
_cell_length_c   9.61230571
_cell_angle_alpha   60.05089001
_cell_angle_beta   60.02793461
_cell_angle_gamma   60.20657812
_symmetry_Int_Tables_number   1
_chemical_formula_structural   Y5Ho11Cd4(IrPt)2
_chemical_formula_sum   'Y5 Ho11 Cd4 Ir2 Pt2'
_cell_volume   632.86855111
_cell_formula_units_Z   1
loop_
 _symmetry_equiv_pos_site_id
 _symmetry_equiv_pos_as_xyz
  1  'x, y, z'
loop_
 _atom_site_type_symbol
 _atom_site_label
 _atom_site_symmetry_multiplicity
 _atom_site_fract_x
 _atom_site_fract_y
 _atom_site_fract_z
 _atom_site_occupancy
  Y  Y0  1  0.562896  0.938259  0.937827  1
  Y  Y1  1  0.565347  0.937913  0.561077  1
  Y  Y2  1  0.938093  0.562989  0.937222  1
  Y  Y3  1  0.563611  0.562891  0.937223  1
  Y  Y4  1  0.937838  0.937402  0.561187  1
  Ho  Ho5  1  0.349351  0.349497  0.346115  1
  Ho  Ho6  1  0.351409  0.351631  0.950941  1
  Ho  Ho7  1  0.356201  0.943915  0.351326  1
  Ho  Ho8  1  0.943785  0.356369  0.351458  1
  Ho  Ho9  1  0.806632  0.191299  0.189884  1
  Ho  Ho10  1  0.189150  0.807352  0.812857  1
  Ho  Ho11  1  0.190967  0.806560  0.190165  1
  Ho  Ho12  1  0.807478  0.189528  0.812715  1
  Ho  Ho13  1  0.190831  0.191441  0.808758  1
  Ho  Ho14  1  0.811532  0.811417  0.187545  1
  Ho  Ho15  1  0.938988  0.564461  0.560621  1
  Cd  Cd16  1  0.580894  0.580722  0.580956  1
  Cd  Cd17  1  0.580961  0.580957  0.255656  1
  Cd  Cd18  1  0.580499  0.256288  0.581228  1
  Cd  Cd19  1  0.255769  0.580579  0.581315  1
  Ir  Ir20  1  0.140290  0.573667  0.143659  1
  Ir  Ir21  1  0.573720  0.140555  0.143040  1
  Pt  Pt22  1  0.142226  0.142310  0.145343  1
  Pt  Pt23  1  0.141536  0.142000  0.571884  1
