# generated using pymatgen
data_Tm3In3Ir2Au
_symmetry_space_group_name_H-M   'P 1'
_cell_length_a   7.65950000
_cell_length_b   7.65950086
_cell_length_c   3.84728000
_cell_angle_alpha   90.00000000
_cell_angle_beta   90.00000000
_cell_angle_gamma   120.00000491
_symmetry_Int_Tables_number   1
_chemical_formula_structural   Tm3In3Ir2Au
_chemical_formula_sum   'Tm3 In3 Ir2 Au1'
_cell_volume   195.47233239
_cell_formula_units_Z   1
loop_
 _symmetry_equiv_pos_site_id
 _symmetry_equiv_pos_as_xyz
  1  'x, y, z'
loop_
 _atom_site_type_symbol
 _atom_site_label
 _atom_site_symmetry_multiplicity
 _atom_site_fract_x
 _atom_site_fract_y
 _atom_site_fract_z
 _atom_site_occupancy
  Tm  Tm0  1  0.411854  0.388990  0.500000  1
  Tm  Tm1  1  0.611010  0.022864  0.500000  1
  Tm  Tm2  1  0.977136  0.588146  0.500000  1
  In  In3  1  0.742775  0.739980  0.000000  1
  In  In4  1  0.260020  0.002796  0.000000  1
  In  In5  1  0.997204  0.257225  0.000000  1
  Ir  Ir6  1  0.666667  0.333333  0.000000  1
  Ir  Ir7  1  0.000000  0.000000  0.500000  1
  Au  Au8  1  0.333333  0.666667  0.000000  1
