# generated using pymatgen
data_Dy5(Tl2Au)2
_symmetry_space_group_name_H-M   'P 1'
_cell_length_a   3.67071000
_cell_length_b   8.31880000
_cell_length_c   18.70975000
_cell_angle_alpha   90.00000000
_cell_angle_beta   90.00000000
_cell_angle_gamma   90.00000000
_symmetry_Int_Tables_number   1
_chemical_formula_structural   Dy5(Tl2Au)2
_chemical_formula_sum   'Dy10 Tl8 Au4'
_cell_volume   571.31909896
_cell_formula_units_Z   2
loop_
 _symmetry_equiv_pos_site_id
 _symmetry_equiv_pos_as_xyz
  1  'x, y, z'
loop_
 _atom_site_type_symbol
 _atom_site_label
 _atom_site_symmetry_multiplicity
 _atom_site_fract_x
 _atom_site_fract_y
 _atom_site_fract_z
 _atom_site_occupancy
  Dy  Dy0  1  0.000000  0.500000  0.500000  1
  Dy  Dy1  1  0.000000  0.000000  0.000000  1
  Dy  Dy2  1  0.000000  0.740765  0.282092  1
  Dy  Dy3  1  0.000000  0.259235  0.717908  1
  Dy  Dy4  1  0.000000  0.759235  0.782092  1
  Dy  Dy5  1  0.000000  0.240765  0.217908  1
  Dy  Dy6  1  0.000000  0.618952  0.081541  1
  Dy  Dy7  1  0.000000  0.381048  0.918459  1
  Dy  Dy8  1  0.000000  0.881048  0.581541  1
  Dy  Dy9  1  0.000000  0.118952  0.418459  1
  Tl  Tl10  1  0.500000  0.711350  0.934775  1
  Tl  Tl11  1  0.500000  0.288650  0.065225  1
  Tl  Tl12  1  0.500000  0.788650  0.434775  1
  Tl  Tl13  1  0.500000  0.211350  0.565225  1
  Tl  Tl14  1  0.500000  0.579718  0.645390  1
  Tl  Tl15  1  0.500000  0.420282  0.354610  1
  Tl  Tl16  1  0.500000  0.920282  0.145390  1
  Tl  Tl17  1  0.500000  0.079718  0.854610  1
  Au  Au18  1  0.500000  0.530233  0.197008  1
  Au  Au19  1  0.500000  0.469767  0.802992  1
  Au  Au20  1  0.500000  0.969767  0.697008  1
  Au  Au21  1  0.500000  0.030233  0.302992  1
