# generated using pymatgen
data_Rb4Na2ScInP4
_symmetry_space_group_name_H-M   'P 1'
_cell_length_a   9.17675726
_cell_length_b   9.17675757
_cell_length_c   9.17675817
_cell_angle_alpha   137.88864244
_cell_angle_beta   136.13219445
_cell_angle_gamma   62.43312656
_symmetry_Int_Tables_number   1
_chemical_formula_structural   Rb4Na2ScInP4
_chemical_formula_sum   'Rb4 Na2 Sc1 In1 P4'
_cell_volume   354.78328531
_cell_formula_units_Z   1
loop_
 _symmetry_equiv_pos_site_id
 _symmetry_equiv_pos_as_xyz
  1  'x, y, z'
loop_
 _atom_site_type_symbol
 _atom_site_label
 _atom_site_symmetry_multiplicity
 _atom_site_fract_x
 _atom_site_fract_y
 _atom_site_fract_z
 _atom_site_occupancy
  Rb  Rb0  1  0.551931  0.316327  0.222000  1
  Rb  Rb1  1  0.448069  0.670070  0.764398  1
  Rb  Rb2  1  0.094330  0.829930  0.278000  1
  Rb  Rb3  1  0.905670  0.183673  0.735602  1
  Na  Na4  1  0.500000  0.250000  0.750000  1
  Na  Na5  1  0.500000  0.750000  0.250000  1
  Sc  Sc6  1  0.000000  0.750000  0.750000  1
  In  In7  1  0.000000  0.250000  0.250000  1
  P  P8  1  0.305873  0.088373  0.207600  1
  P  P9  1  0.694127  0.901727  0.782500  1
  P  P10  1  0.880773  0.598273  0.292400  1
  P  P11  1  0.119227  0.411627  0.717500  1
