# generated using pymatgen
data_Er4Si2SnRh4
_symmetry_space_group_name_H-M   'P 1'
_cell_length_a   10.58413560
_cell_length_b   10.58413386
_cell_length_c   7.82411500
_cell_angle_alpha   70.01549562
_cell_angle_beta   70.01549906
_cell_angle_gamma   30.39512374
_symmetry_Int_Tables_number   1
_chemical_formula_structural   Er4Si2SnRh4
_chemical_formula_sum   'Er8 Si4 Sn2 Rh8'
_cell_volume   414.72612540
_cell_formula_units_Z   2
loop_
 _symmetry_equiv_pos_site_id
 _symmetry_equiv_pos_as_xyz
  1  'x, y, z'
loop_
 _atom_site_type_symbol
 _atom_site_label
 _atom_site_symmetry_multiplicity
 _atom_site_fract_x
 _atom_site_fract_y
 _atom_site_fract_z
 _atom_site_occupancy
  Er  Er0  1  0.210365  0.443459  0.393300  1
  Er  Er1  1  0.556541  0.789635  0.106700  1
  Er  Er2  1  0.443459  0.210365  0.893300  1
  Er  Er3  1  0.914743  0.223955  0.333694  1
  Er  Er4  1  0.776045  0.085257  0.166306  1
  Er  Er5  1  0.085257  0.776045  0.666306  1
  Er  Er6  1  0.223955  0.914743  0.833694  1
  Er  Er7  1  0.789635  0.556541  0.606700  1
  Si  Si8  1  0.287780  0.059600  0.449079  1
  Si  Si9  1  0.940400  0.712220  0.050921  1
  Si  Si10  1  0.712220  0.940400  0.550921  1
  Si  Si11  1  0.059600  0.287780  0.949079  1
  Sn  Sn12  1  0.673791  0.326209  0.750000  1
  Sn  Sn13  1  0.326209  0.673791  0.250000  1
  Rh  Rh14  1  0.282593  0.575900  0.013937  1
  Rh  Rh15  1  0.575900  0.282593  0.513937  1
  Rh  Rh16  1  0.717407  0.424100  0.986063  1
  Rh  Rh17  1  0.070625  0.371592  0.192403  1
  Rh  Rh18  1  0.628408  0.929375  0.307597  1
  Rh  Rh19  1  0.424100  0.717407  0.486063  1
  Rh  Rh20  1  0.929375  0.628408  0.807597  1
  Rh  Rh21  1  0.371592  0.070625  0.692403  1
