# generated using pymatgen
data_AlV12Si2Pt
_symmetry_space_group_name_H-M   'P 1'
_cell_length_a   4.74873000
_cell_length_b   4.75697200
_cell_length_c   9.53351500
_cell_angle_alpha   90.00000000
_cell_angle_beta   90.00000000
_cell_angle_gamma   90.00000000
_symmetry_Int_Tables_number   1
_chemical_formula_structural   AlV12Si2Pt
_chemical_formula_sum   'Al1 V12 Si2 Pt1'
_cell_volume   215.35805826
_cell_formula_units_Z   1
loop_
 _symmetry_equiv_pos_site_id
 _symmetry_equiv_pos_as_xyz
  1  'x, y, z'
loop_
 _atom_site_type_symbol
 _atom_site_label
 _atom_site_symmetry_multiplicity
 _atom_site_fract_x
 _atom_site_fract_y
 _atom_site_fract_z
 _atom_site_occupancy
  Al  Al0  1  0.500000  0.500000  0.001693  1
  V  V1  1  0.000000  0.500000  0.122412  1
  V  V2  1  0.000000  0.500000  0.626435  1
  V  V3  1  0.500000  0.251928  0.744912  1
  V  V4  1  0.500000  0.250462  0.255074  1
  V  V5  1  0.753430  0.000000  0.004570  1
  V  V6  1  0.746996  0.000000  0.495628  1
  V  V7  1  0.000000  0.500000  0.870010  1
  V  V8  1  0.000000  0.500000  0.380791  1
  V  V9  1  0.500000  0.748072  0.744912  1
  V  V10  1  0.500000  0.749538  0.255074  1
  V  V11  1  0.246570  0.000000  0.004570  1
  V  V12  1  0.253004  0.000000  0.495628  1
  Si  Si13  1  0.500000  0.500000  0.497677  1
  Si  Si14  1  0.000000  0.000000  0.250678  1
  Pt  Pt15  1  0.000000  0.000000  0.749937  1
