# generated using pymatgen
data_SmFe5Tc7
_symmetry_space_group_name_H-M   'P 1'
_cell_length_a   4.78039605
_cell_length_b   6.68722858
_cell_length_c   6.68722845
_cell_angle_alpha   81.55620685
_cell_angle_beta   69.05772975
_cell_angle_gamma   69.05772090
_symmetry_Int_Tables_number   1
_chemical_formula_structural   SmFe5Tc7
_chemical_formula_sum   'Sm1 Fe5 Tc7'
_cell_volume   186.41940332
_cell_formula_units_Z   1
loop_
 _symmetry_equiv_pos_site_id
 _symmetry_equiv_pos_as_xyz
  1  'x, y, z'
loop_
 _atom_site_type_symbol
 _atom_site_label
 _atom_site_symmetry_multiplicity
 _atom_site_fract_x
 _atom_site_fract_y
 _atom_site_fract_z
 _atom_site_occupancy
  Sm  Sm0  1  0.993722  0.006278  0.006278  1
  Fe  Fe1  1  0.004145  0.002431  0.492207  1
  Fe  Fe2  1  0.501217  0.002431  0.492207  1
  Fe  Fe3  1  0.501217  0.492207  0.002431  1
  Fe  Fe4  1  0.004145  0.492207  0.002431  1
  Fe  Fe5  1  0.271446  0.228554  0.228554  1
  Tc  Tc6  1  0.003902  0.352887  0.639309  1
  Tc  Tc7  1  0.003902  0.639309  0.352887  1
  Tc  Tc8  1  0.636893  0.363107  0.363107  1
  Tc  Tc9  1  0.357776  0.642224  0.642224  1
  Tc  Tc10  1  0.500544  0.787554  0.211357  1
  Tc  Tc11  1  0.500544  0.211357  0.787554  1
  Tc  Tc12  1  0.720545  0.779455  0.779455  1
