# generated using pymatgen
data_ErCo2(PRu)3
_symmetry_space_group_name_H-M   'P 1'
_cell_length_a   3.77616600
_cell_length_b   10.60927700
_cell_length_c   12.06619700
_cell_angle_alpha   90.00000000
_cell_angle_beta   90.00000000
_cell_angle_gamma   90.00000000
_symmetry_Int_Tables_number   1
_chemical_formula_structural   ErCo2(PRu)3
_chemical_formula_sum   'Er4 Co8 P12 Ru12'
_cell_volume   483.40070321
_cell_formula_units_Z   4
loop_
 _symmetry_equiv_pos_site_id
 _symmetry_equiv_pos_as_xyz
  1  'x, y, z'
loop_
 _atom_site_type_symbol
 _atom_site_label
 _atom_site_symmetry_multiplicity
 _atom_site_fract_x
 _atom_site_fract_y
 _atom_site_fract_z
 _atom_site_occupancy
  Er  Er0  1  0.250000  0.584559  0.706654  1
  Er  Er1  1  0.250000  0.915441  0.206654  1
  Er  Er2  1  0.750000  0.415441  0.293346  1
  Er  Er3  1  0.750000  0.084559  0.793346  1
  Co  Co4  1  0.250000  0.888196  0.696215  1
  Co  Co5  1  0.250000  0.611804  0.196215  1
  Co  Co6  1  0.750000  0.111804  0.303785  1
  Co  Co7  1  0.750000  0.388196  0.803785  1
  Co  Co8  1  0.250000  0.462972  0.934724  1
  Co  Co9  1  0.250000  0.037028  0.434724  1
  Co  Co10  1  0.750000  0.537028  0.065276  1
  Co  Co11  1  0.750000  0.962972  0.565276  1
  P  P12  1  0.250000  0.425761  0.113274  1
  P  P13  1  0.250000  0.074239  0.613274  1
  P  P14  1  0.750000  0.574239  0.886726  1
  P  P15  1  0.750000  0.925761  0.386726  1
  P  P16  1  0.250000  0.271292  0.871522  1
  P  P17  1  0.250000  0.228708  0.371522  1
  P  P18  1  0.750000  0.728708  0.128478  1
  P  P19  1  0.750000  0.771292  0.628478  1
  P  P20  1  0.250000  0.600594  0.386595  1
  P  P21  1  0.250000  0.899406  0.886595  1
  P  P22  1  0.750000  0.399406  0.613405  1
  P  P23  1  0.750000  0.100594  0.113405  1
  Ru  Ru24  1  0.250000  0.706232  0.986607  1
  Ru  Ru25  1  0.250000  0.793768  0.486607  1
  Ru  Ru26  1  0.750000  0.293768  0.013393  1
  Ru  Ru27  1  0.750000  0.206232  0.513393  1
  Ru  Ru28  1  0.250000  0.405580  0.485245  1
  Ru  Ru29  1  0.250000  0.094420  0.985245  1
  Ru  Ru30  1  0.750000  0.594420  0.514755  1
  Ru  Ru31  1  0.750000  0.905580  0.014755  1
  Ru  Ru32  1  0.250000  0.224158  0.180932  1
  Ru  Ru33  1  0.250000  0.275842  0.680932  1
  Ru  Ru34  1  0.750000  0.775842  0.819068  1
  Ru  Ru35  1  0.750000  0.724158  0.319068  1
