# generated using pymatgen
data_PrThSc3Si7Pt9
_symmetry_space_group_name_H-M   'P 1'
_cell_length_a   10.09944100
_cell_length_b   10.09944171
_cell_length_c   4.05155000
_cell_angle_alpha   90.00000000
_cell_angle_beta   90.00000000
_cell_angle_gamma   120.00000095
_symmetry_Int_Tables_number   1
_chemical_formula_structural   PrThSc3Si7Pt9
_chemical_formula_sum   'Pr1 Th1 Sc3 Si7 Pt9'
_cell_volume   357.88750310
_cell_formula_units_Z   1
loop_
 _symmetry_equiv_pos_site_id
 _symmetry_equiv_pos_as_xyz
  1  'x, y, z'
loop_
 _atom_site_type_symbol
 _atom_site_label
 _atom_site_symmetry_multiplicity
 _atom_site_fract_x
 _atom_site_fract_y
 _atom_site_fract_z
 _atom_site_occupancy
  Pr  Pr0  1  0.000000  0.000000  0.000000  1
  Th  Th1  1  0.333333  0.666667  0.500000  1
  Sc  Sc2  1  0.890588  0.451423  0.500000  1
  Sc  Sc3  1  0.560836  0.109412  0.500000  1
  Sc  Sc4  1  0.548577  0.439164  0.500000  1
  Si  Si5  1  0.248069  0.196906  0.500000  1
  Si  Si6  1  0.803094  0.051164  0.500000  1
  Si  Si7  1  0.948836  0.751931  0.500000  1
  Si  Si8  1  0.563121  0.646216  0.000000  1
  Si  Si9  1  0.353784  0.916904  0.000000  1
  Si  Si10  1  0.083096  0.436879  0.000000  1
  Si  Si11  1  0.666667  0.333333  0.000000  1
  Pt  Pt12  1  0.220783  0.934618  0.500000  1
  Pt  Pt13  1  0.065382  0.286166  0.500000  1
  Pt  Pt14  1  0.713834  0.779217  0.500000  1
  Pt  Pt15  1  0.314307  0.414761  0.000000  1
  Pt  Pt16  1  0.585239  0.899546  0.000000  1
  Pt  Pt17  1  0.100454  0.685693  0.000000  1
  Pt  Pt18  1  0.383706  0.174013  0.000000  1
  Pt  Pt19  1  0.825987  0.209692  0.000000  1
  Pt  Pt20  1  0.790308  0.616294  0.000000  1
