# generated using pymatgen
data_Nd2Fe7Co2Ni3P7
_symmetry_space_group_name_H-M   'P 1'
_cell_length_a   9.10427378
_cell_length_b   9.12484232
_cell_length_c   3.68388400
_cell_angle_alpha   90.00000000
_cell_angle_beta   90.00000000
_cell_angle_gamma   120.17171342
_symmetry_Int_Tables_number   1
_chemical_formula_structural   Nd2Fe7Co2Ni3P7
_chemical_formula_sum   'Nd2 Fe7 Co2 Ni3 P7'
_cell_volume   264.57767364
_cell_formula_units_Z   1
loop_
 _symmetry_equiv_pos_site_id
 _symmetry_equiv_pos_as_xyz
  1  'x, y, z'
loop_
 _atom_site_type_symbol
 _atom_site_label
 _atom_site_symmetry_multiplicity
 _atom_site_fract_x
 _atom_site_fract_y
 _atom_site_fract_z
 _atom_site_occupancy
  Nd  Nd0  1  0.667768  0.333465  0.000000  1
  Nd  Nd1  1  0.331830  0.667256  0.500000  1
  Fe  Fe2  1  0.272020  0.119119  0.000000  1
  Fe  Fe3  1  0.846388  0.727916  0.000000  1
  Fe  Fe4  1  0.882952  0.152512  0.000000  1
  Fe  Fe5  1  0.952640  0.384020  0.500000  1
  Fe  Fe6  1  0.099567  0.878068  0.500000  1
  Fe  Fe7  1  0.784514  0.904009  0.500000  1
  Fe  Fe8  1  0.115076  0.210772  0.500000  1
  Co  Co9  1  0.059633  0.632370  0.000000  1
  Co  Co10  1  0.431935  0.047886  0.500000  1
  Ni  Ni11  1  0.568707  0.941995  0.000000  1
  Ni  Ni12  1  0.369980  0.431506  0.000000  1
  Ni  Ni13  1  0.615217  0.566668  0.500000  1
  P  P14  1  0.294220  0.893916  0.000000  1
  P  P15  1  0.598369  0.706684  0.000000  1
  P  P16  1  0.102385  0.406352  0.000000  1
  P  P17  1  0.391790  0.279729  0.500000  1
  P  P18  1  0.896984  0.603854  0.500000  1
  P  P19  1  0.717901  0.113565  0.500000  1
  P  P20  1  0.000126  0.998336  0.000000  1
