# generated using pymatgen
data_Tm2Sc11Pa6Si16W
_symmetry_space_group_name_H-M   'P 1'
_cell_length_a   7.04937732
_cell_length_b   7.26749158
_cell_length_c   13.81852280
_cell_angle_alpha   89.99525848
_cell_angle_beta   90.43673359
_cell_angle_gamma   90.01349813
_symmetry_Int_Tables_number   1
_chemical_formula_structural   Tm2Sc11Pa6Si16W
_chemical_formula_sum   'Tm2 Sc11 Pa6 Si16 W1'
_cell_volume   707.92016539
_cell_formula_units_Z   1
loop_
 _symmetry_equiv_pos_site_id
 _symmetry_equiv_pos_as_xyz
  1  'x, y, z'
loop_
 _atom_site_type_symbol
 _atom_site_label
 _atom_site_symmetry_multiplicity
 _atom_site_fract_x
 _atom_site_fract_y
 _atom_site_fract_z
 _atom_site_occupancy
  Tm  Tm0  1  0.500503  0.321363  0.410032  1
  Tm  Tm1  1  0.494224  0.675920  0.595594  1
  Sc  Sc2  1  0.168787  0.504149  0.745979  1
  Sc  Sc3  1  0.834475  0.490155  0.250618  1
  Sc  Sc4  1  0.332726  0.007121  0.251182  1
  Sc  Sc5  1  0.665348  0.998620  0.747362  1
  Sc  Sc6  1  0.664864  0.826361  0.379111  1
  Sc  Sc7  1  0.163950  0.675533  0.379997  1
  Sc  Sc8  1  0.660964  0.826864  0.124652  1
  Sc  Sc9  1  0.837016  0.323149  0.622880  1
  Sc  Sc10  1  0.339732  0.174273  0.875044  1
  Sc  Sc11  1  0.837462  0.328193  0.872556  1
  Sc  Sc12  1  0.161032  0.671753  0.125503  1
  Pa  Pa13  1  0.004391  0.176043  0.095474  1
  Pa  Pa14  1  0.998229  0.826603  0.901033  1
  Pa  Pa15  1  0.495525  0.674577  0.901890  1
  Pa  Pa16  1  0.993662  0.832315  0.591142  1
  Pa  Pa17  1  0.504027  0.328067  0.093531  1
  Pa  Pa18  1  0.005365  0.171698  0.407734  1
  Si  Si19  1  0.047706  0.118278  0.745727  1
  Si  Si20  1  0.961810  0.887530  0.251948  1
  Si  Si21  1  0.460610  0.614416  0.252158  1
  Si  Si22  1  0.534509  0.376827  0.744447  1
  Si  Si23  1  0.293598  0.876898  0.745366  1
  Si  Si24  1  0.707632  0.131437  0.251094  1
  Si  Si25  1  0.210353  0.368710  0.252592  1
  Si  Si26  1  0.792618  0.631008  0.745476  1
  Si  Si27  1  0.176343  0.453631  0.543122  1
  Si  Si28  1  0.837557  0.530337  0.460393  1
  Si  Si29  1  0.330923  0.967787  0.470126  1
  Si  Si30  1  0.827759  0.540692  0.036143  1
  Si  Si31  1  0.650856  0.036214  0.545599  1
  Si  Si32  1  0.171349  0.462440  0.960648  1
  Si  Si33  1  0.675616  0.038288  0.960736  1
  Si  Si34  1  0.326818  0.960095  0.037344  1
  W  W35  1  0.331660  0.172657  0.625771  1
