# generated using pymatgen
data_Ce3PaC6
_symmetry_space_group_name_H-M   'P 1'
_cell_length_a   7.25775110
_cell_length_b   7.24727503
_cell_length_c   7.22263346
_cell_angle_alpha   109.38074564
_cell_angle_beta   109.43969667
_cell_angle_gamma   109.75990849
_symmetry_Int_Tables_number   1
_chemical_formula_structural   Ce3PaC6
_chemical_formula_sum   'Ce6 Pa2 C12'
_cell_volume   291.84329780
_cell_formula_units_Z   2
loop_
 _symmetry_equiv_pos_site_id
 _symmetry_equiv_pos_as_xyz
  1  'x, y, z'
loop_
 _atom_site_type_symbol
 _atom_site_label
 _atom_site_symmetry_multiplicity
 _atom_site_fract_x
 _atom_site_fract_y
 _atom_site_fract_z
 _atom_site_occupancy
  Ce  Ce0  1  0.596698  0.589997  0.593420  1
  Ce  Ce1  1  0.503278  0.996578  0.406580  1
  Ce  Ce2  1  0.999931  0.403539  0.504202  1
  Ce  Ce3  1  0.402015  0.502481  0.998771  1
  Ce  Ce4  1  0.995729  0.899337  0.495798  1
  Ce  Ce5  1  0.903243  0.503711  0.001229  1
  Pa  Pa6  1  0.499836  0.000817  0.893860  1
  Pa  Pa7  1  0.105976  0.106955  0.106140  1
  C  C8  1  0.795222  0.070442  0.782216  1
  C  C9  1  0.960266  0.206142  0.753724  1
  C  C10  1  0.233799  0.525939  0.296235  1
  C  C11  1  0.292484  0.220636  0.511746  1
  C  C12  1  0.756705  0.970573  0.203219  1
  C  C13  1  0.212722  0.759109  0.961959  1
  C  C14  1  0.706543  0.452418  0.246276  1
  C  C15  1  0.437564  0.229705  0.703765  1
  C  C16  1  0.513005  0.288225  0.217784  1
  C  C17  1  0.280738  0.708890  0.488254  1
  C  C18  1  0.750761  0.797149  0.038041  1
  C  C19  1  0.053486  0.767354  0.796781  1
