# generated using pymatgen
data_Lu2Nb3Si4
_symmetry_space_group_name_H-M   'P 1'
_cell_length_a   6.81534400
_cell_length_b   7.01086200
_cell_length_c   13.32976500
_cell_angle_alpha   90.00000000
_cell_angle_beta   90.00000000
_cell_angle_gamma   90.00000000
_symmetry_Int_Tables_number   1
_chemical_formula_structural   Lu2Nb3Si4
_chemical_formula_sum   'Lu8 Nb12 Si16'
_cell_volume   636.91531680
_cell_formula_units_Z   4
loop_
 _symmetry_equiv_pos_site_id
 _symmetry_equiv_pos_as_xyz
  1  'x, y, z'
loop_
 _atom_site_type_symbol
 _atom_site_label
 _atom_site_symmetry_multiplicity
 _atom_site_fract_x
 _atom_site_fract_y
 _atom_site_fract_z
 _atom_site_occupancy
  Lu  Lu0  1  0.501809  0.672881  0.595451  1
  Lu  Lu1  1  0.001809  0.827119  0.904549  1
  Lu  Lu2  1  0.498191  0.327119  0.095451  1
  Lu  Lu3  1  0.998191  0.172881  0.404549  1
  Lu  Lu4  1  0.498191  0.327119  0.404549  1
  Lu  Lu5  1  0.998191  0.172881  0.095451  1
  Lu  Lu6  1  0.501809  0.672881  0.904549  1
  Lu  Lu7  1  0.001809  0.827119  0.595451  1
  Nb  Nb8  1  0.661762  0.175277  0.625247  1
  Nb  Nb9  1  0.161762  0.324723  0.874753  1
  Nb  Nb10  1  0.338238  0.824723  0.125247  1
  Nb  Nb11  1  0.838238  0.675277  0.374753  1
  Nb  Nb12  1  0.338238  0.824723  0.374753  1
  Nb  Nb13  1  0.838238  0.675277  0.125247  1
  Nb  Nb14  1  0.661762  0.175277  0.874753  1
  Nb  Nb15  1  0.161762  0.324723  0.625247  1
  Nb  Nb16  1  0.836636  0.493313  0.750000  1
  Nb  Nb17  1  0.336636  0.006687  0.750000  1
  Nb  Nb18  1  0.163364  0.506687  0.250000  1
  Nb  Nb19  1  0.663364  0.993313  0.250000  1
  Si  Si20  1  0.665452  0.964755  0.460027  1
  Si  Si21  1  0.165452  0.535245  0.039973  1
  Si  Si22  1  0.334548  0.035245  0.960027  1
  Si  Si23  1  0.834548  0.464755  0.539973  1
  Si  Si24  1  0.334548  0.035245  0.539973  1
  Si  Si25  1  0.834548  0.464755  0.960027  1
  Si  Si26  1  0.665452  0.964755  0.039973  1
  Si  Si27  1  0.165452  0.535245  0.460027  1
  Si  Si28  1  0.458062  0.379690  0.750000  1
  Si  Si29  1  0.958062  0.120310  0.750000  1
  Si  Si30  1  0.541938  0.620310  0.250000  1
  Si  Si31  1  0.041938  0.879690  0.250000  1
  Si  Si32  1  0.704596  0.868854  0.750000  1
  Si  Si33  1  0.204596  0.631146  0.750000  1
  Si  Si34  1  0.295404  0.131146  0.250000  1
  Si  Si35  1  0.795404  0.368854  0.250000  1
