# generated using pymatgen
data_Ho4TiCu2Pd13
_symmetry_space_group_name_H-M   'P 1'
_cell_length_a   4.10594400
_cell_length_b   4.05182300
_cell_length_c   20.12709600
_cell_angle_alpha   90.00000000
_cell_angle_beta   90.00000000
_cell_angle_gamma   90.00000000
_symmetry_Int_Tables_number   1
_chemical_formula_structural   Ho4TiCu2Pd13
_chemical_formula_sum   'Ho4 Ti1 Cu2 Pd13'
_cell_volume   334.84560674
_cell_formula_units_Z   1
loop_
 _symmetry_equiv_pos_site_id
 _symmetry_equiv_pos_as_xyz
  1  'x, y, z'
loop_
 _atom_site_type_symbol
 _atom_site_label
 _atom_site_symmetry_multiplicity
 _atom_site_fract_x
 _atom_site_fract_y
 _atom_site_fract_z
 _atom_site_occupancy
  Ho  Ho0  1  0.000000  0.000000  0.194900  1
  Ho  Ho1  1  0.000000  0.000000  0.395939  1
  Ho  Ho2  1  0.000000  0.000000  0.604061  1
  Ho  Ho3  1  0.000000  0.000000  0.805100  1
  Ti  Ti4  1  0.000000  0.000000  0.000000  1
  Cu  Cu5  1  0.500000  0.500000  0.000000  1
  Cu  Cu6  1  0.500000  0.000000  0.500000  1
  Pd  Pd7  1  0.500000  0.500000  0.189862  1
  Pd  Pd8  1  0.500000  0.500000  0.400853  1
  Pd  Pd9  1  0.500000  0.500000  0.599147  1
  Pd  Pd10  1  0.500000  0.500000  0.810138  1
  Pd  Pd11  1  0.500000  0.000000  0.085254  1
  Pd  Pd12  1  0.500000  0.000000  0.295457  1
  Pd  Pd13  1  0.500000  0.000000  0.704543  1
  Pd  Pd14  1  0.500000  0.000000  0.914746  1
  Pd  Pd15  1  0.000000  0.500000  0.085180  1
  Pd  Pd16  1  0.000000  0.500000  0.295348  1
  Pd  Pd17  1  0.000000  0.500000  0.500000  1
  Pd  Pd18  1  0.000000  0.500000  0.704652  1
  Pd  Pd19  1  0.000000  0.500000  0.914820  1
