# generated using pymatgen
data_DyHo2Sn3GeIr2
_symmetry_space_group_name_H-M   'P 1'
_cell_length_a   7.39142849
_cell_length_b   7.39483701
_cell_length_c   4.17817000
_cell_angle_alpha   90.00000000
_cell_angle_beta   90.00000000
_cell_angle_gamma   120.02635579
_symmetry_Int_Tables_number   1
_chemical_formula_structural   DyHo2Sn3GeIr2
_chemical_formula_sum   'Dy1 Ho2 Sn3 Ge1 Ir2'
_cell_volume   197.72351529
_cell_formula_units_Z   1
loop_
 _symmetry_equiv_pos_site_id
 _symmetry_equiv_pos_as_xyz
  1  'x, y, z'
loop_
 _atom_site_type_symbol
 _atom_site_label
 _atom_site_symmetry_multiplicity
 _atom_site_fract_x
 _atom_site_fract_y
 _atom_site_fract_z
 _atom_site_occupancy
  Dy  Dy0  1  0.400092  0.413191  0.500000  1
  Ho  Ho1  1  0.586841  0.986411  0.500000  1
  Ho  Ho2  1  0.013713  0.600535  0.500000  1
  Sn  Sn3  1  0.741757  0.755364  0.000000  1
  Sn  Sn4  1  0.244950  0.986355  0.000000  1
  Sn  Sn5  1  0.013072  0.258389  0.000000  1
  Ge  Ge6  1  0.667102  0.333152  0.000000  1
  Ir  Ir7  1  0.333123  0.667245  0.000000  1
  Ir  Ir8  1  0.999351  0.999357  0.500000  1
