# generated using pymatgen
data_La5Pr6Y5(CdIr)4
_symmetry_space_group_name_H-M   'P 1'
_cell_length_a   9.93492301
_cell_length_b   9.95224845
_cell_length_c   9.95224860
_cell_angle_alpha   59.75333178
_cell_angle_beta   60.05757383
_cell_angle_gamma   60.05756881
_symmetry_Int_Tables_number   1
_chemical_formula_structural   La5Pr6Y5(CdIr)4
_chemical_formula_sum   'La5 Pr6 Y5 Cd4 Ir4'
_cell_volume   695.10714210
_cell_formula_units_Z   1
loop_
 _symmetry_equiv_pos_site_id
 _symmetry_equiv_pos_as_xyz
  1  'x, y, z'
loop_
 _atom_site_type_symbol
 _atom_site_label
 _atom_site_symmetry_multiplicity
 _atom_site_fract_x
 _atom_site_fract_y
 _atom_site_fract_z
 _atom_site_occupancy
  La  La0  1  0.345376  0.350838  0.350838  1
  La  La1  1  0.349545  0.348659  0.952250  1
  La  La2  1  0.349545  0.952250  0.348659  1
  La  La3  1  0.952948  0.350838  0.350838  1
  La  La4  1  0.814883  0.185117  0.185117  1
  Pr  Pr5  1  0.938586  0.561414  0.561414  1
  Pr  Pr6  1  0.560860  0.939140  0.939140  1
  Pr  Pr7  1  0.559203  0.938061  0.561720  1
  Pr  Pr8  1  0.941016  0.561720  0.938061  1
  Pr  Pr9  1  0.559203  0.561720  0.938061  1
  Pr  Pr10  1  0.941016  0.938061  0.561720  1
  Y  Y11  1  0.185208  0.814792  0.814792  1
  Y  Y12  1  0.189681  0.810981  0.185099  1
  Y  Y13  1  0.814239  0.185099  0.810981  1
  Y  Y14  1  0.189681  0.185099  0.810981  1
  Y  Y15  1  0.814239  0.810981  0.185099  1
  Cd  Cd16  1  0.580074  0.579856  0.579856  1
  Cd  Cd17  1  0.578641  0.582601  0.260116  1
  Cd  Cd18  1  0.578641  0.260116  0.582601  1
  Cd  Cd19  1  0.260214  0.579856  0.579856  1
  Ir  Ir20  1  0.138763  0.140911  0.140911  1
  Ir  Ir21  1  0.139511  0.141337  0.579642  1
  Ir  Ir22  1  0.139511  0.579642  0.141337  1
  Ir  Ir23  1  0.579415  0.140911  0.140911  1
