# generated using pymatgen
data_Ta12Al3Au5N4
_symmetry_space_group_name_H-M   'P 1'
_cell_length_a   7.10021969
_cell_length_b   7.10022006
_cell_length_c   7.10022035
_cell_angle_alpha   90.07601101
_cell_angle_beta   89.92399544
_cell_angle_gamma   89.92398487
_symmetry_Int_Tables_number   1
_chemical_formula_structural   Ta12Al3Au5N4
_chemical_formula_sum   'Ta12 Al3 Au5 N4'
_cell_volume   357.94333096
_cell_formula_units_Z   1
loop_
 _symmetry_equiv_pos_site_id
 _symmetry_equiv_pos_as_xyz
  1  'x, y, z'
loop_
 _atom_site_type_symbol
 _atom_site_label
 _atom_site_symmetry_multiplicity
 _atom_site_fract_x
 _atom_site_fract_y
 _atom_site_fract_z
 _atom_site_occupancy
  Ta  Ta0  1  0.785898  0.956169  0.375690  1
  Ta  Ta1  1  0.713112  0.044789  0.878193  1
  Ta  Ta2  1  0.212700  0.457010  0.127101  1
  Ta  Ta3  1  0.291246  0.541625  0.626383  1
  Ta  Ta4  1  0.955211  0.378193  0.786888  1
  Ta  Ta5  1  0.043831  0.875690  0.714102  1
  Ta  Ta6  1  0.458375  0.126383  0.208754  1
  Ta  Ta7  1  0.542990  0.627101  0.287300  1
  Ta  Ta8  1  0.372899  0.787300  0.957010  1
  Ta  Ta9  1  0.873617  0.708754  0.041625  1
  Ta  Ta10  1  0.124310  0.214102  0.456169  1
  Ta  Ta11  1  0.621807  0.286888  0.544789  1
  Al  Al12  1  0.427164  0.928251  0.569051  1
  Al  Al13  1  0.930949  0.572836  0.428251  1
  Al  Al14  1  0.071749  0.069051  0.072836  1
  Au  Au15  1  0.178661  0.821339  0.321339  1
  Au  Au16  1  0.310396  0.169123  0.816808  1
  Au  Au17  1  0.830877  0.316808  0.189604  1
  Au  Au18  1  0.683192  0.689604  0.669123  1
  Au  Au19  1  0.568326  0.431674  0.931674  1
  N  N20  1  0.874815  0.125185  0.625185  1
  N  N21  1  0.622992  0.874541  0.120577  1
  N  N22  1  0.125459  0.620577  0.877008  1
  N  N23  1  0.379423  0.377008  0.374541  1
