# generated using pymatgen
data_K4Ba2ZrBi4
_symmetry_space_group_name_H-M   'P 1'
_cell_length_a   11.40170470
_cell_length_b   11.40170429
_cell_length_c   8.76036248
_cell_angle_alpha   89.10750081
_cell_angle_beta   89.10750085
_cell_angle_gamma   60.40401248
_symmetry_Int_Tables_number   1
_chemical_formula_structural   K4Ba2ZrBi4
_chemical_formula_sum   'K8 Ba4 Zr2 Bi8'
_cell_volume   990.09170508
_cell_formula_units_Z   2
loop_
 _symmetry_equiv_pos_site_id
 _symmetry_equiv_pos_as_xyz
  1  'x, y, z'
loop_
 _atom_site_type_symbol
 _atom_site_label
 _atom_site_symmetry_multiplicity
 _atom_site_fract_x
 _atom_site_fract_y
 _atom_site_fract_z
 _atom_site_occupancy
  K  K0  1  0.941391  0.530101  0.371117  1
  K  K1  1  0.530101  0.941391  0.371117  1
  K  K2  1  0.720995  0.133964  0.195919  1
  K  K3  1  0.133964  0.720995  0.195919  1
  K  K4  1  0.142128  0.142128  0.211194  1
  K  K5  1  0.277665  0.863507  0.691233  1
  K  K6  1  0.863507  0.277665  0.691233  1
  K  K7  1  0.856181  0.856181  0.666105  1
  Ba  Ba8  1  0.529339  0.529339  0.372671  1
  Ba  Ba9  1  0.049839  0.477409  0.874679  1
  Ba  Ba10  1  0.477409  0.049839  0.874679  1
  Ba  Ba11  1  0.476709  0.476709  0.870289  1
  Zr  Zr12  1  0.333439  0.333439  0.481997  1
  Zr  Zr13  1  0.666217  0.666217  0.986546  1
  Bi  Bi14  1  0.385773  0.804465  0.090853  1
  Bi  Bi15  1  0.804465  0.385773  0.090853  1
  Bi  Bi16  1  0.807858  0.807858  0.069534  1
  Bi  Bi17  1  0.608204  0.201814  0.593914  1
  Bi  Bi18  1  0.201814  0.608204  0.593914  1
  Bi  Bi19  1  0.197835  0.197835  0.607729  1
  Bi  Bi20  1  0.336128  0.336128  0.145546  1
  Bi  Bi21  1  0.659653  0.659653  0.655778  1
