# generated using pymatgen
data_TmLu4SiBi2
_symmetry_space_group_name_H-M   'P 1'
_cell_length_a   7.91683000
_cell_length_b   9.04342100
_cell_length_c   11.78227900
_cell_angle_alpha   90.00000000
_cell_angle_beta   90.00000000
_cell_angle_gamma   90.00000000
_symmetry_Int_Tables_number   1
_chemical_formula_structural   TmLu4SiBi2
_chemical_formula_sum   'Tm4 Lu16 Si4 Bi8'
_cell_volume   843.55493576
_cell_formula_units_Z   4
loop_
 _symmetry_equiv_pos_site_id
 _symmetry_equiv_pos_as_xyz
  1  'x, y, z'
loop_
 _atom_site_type_symbol
 _atom_site_label
 _atom_site_symmetry_multiplicity
 _atom_site_fract_x
 _atom_site_fract_y
 _atom_site_fract_z
 _atom_site_occupancy
  Tm  Tm0  1  0.862888  0.750000  0.205176  1
  Tm  Tm1  1  0.637120  0.750000  0.705185  1
  Tm  Tm2  1  0.137120  0.250000  0.794815  1
  Tm  Tm3  1  0.362888  0.250000  0.294824  1
  Lu  Lu4  1  0.678761  0.944477  0.438015  1
  Lu  Lu5  1  0.821236  0.555531  0.938008  1
  Lu  Lu6  1  0.321236  0.444469  0.561992  1
  Lu  Lu7  1  0.178761  0.055523  0.061985  1
  Lu  Lu8  1  0.321236  0.055531  0.561992  1
  Lu  Lu9  1  0.178761  0.444477  0.061985  1
  Lu  Lu10  1  0.678761  0.555523  0.438015  1
  Lu  Lu11  1  0.821236  0.944469  0.938008  1
  Lu  Lu12  1  0.331650  0.750000  0.287131  1
  Lu  Lu13  1  0.168353  0.750000  0.787128  1
  Lu  Lu14  1  0.668353  0.250000  0.712872  1
  Lu  Lu15  1  0.831650  0.250000  0.212869  1
  Lu  Lu16  1  0.038308  0.750000  0.497560  1
  Lu  Lu17  1  0.461695  0.750000  0.997555  1
  Lu  Lu18  1  0.961695  0.250000  0.502445  1
  Lu  Lu19  1  0.538308  0.250000  0.002440  1
  Si  Si20  1  0.091344  0.750000  0.021034  1
  Si  Si21  1  0.408654  0.750000  0.521039  1
  Si  Si22  1  0.908654  0.250000  0.978961  1
  Si  Si23  1  0.591344  0.250000  0.478966  1
  Bi  Bi24  1  0.566862  0.988148  0.174741  1
  Bi  Bi25  1  0.933135  0.511854  0.674744  1
  Bi  Bi26  1  0.433135  0.488146  0.825256  1
  Bi  Bi27  1  0.066862  0.011852  0.325259  1
  Bi  Bi28  1  0.433135  0.011854  0.825256  1
  Bi  Bi29  1  0.066862  0.488148  0.325259  1
  Bi  Bi30  1  0.566862  0.511852  0.174741  1
  Bi  Bi31  1  0.933135  0.988146  0.674744  1
