# generated using pymatgen
data_Ba3NaOsO6
_symmetry_space_group_name_H-M   'P 1'
_cell_length_a   7.16216737
_cell_length_b   7.16216660
_cell_length_c   7.16216716
_cell_angle_alpha   91.54688763
_cell_angle_beta   91.54688523
_cell_angle_gamma   91.54687995
_symmetry_Int_Tables_number   1
_chemical_formula_structural   Ba3NaOsO6
_chemical_formula_sum   'Ba6 Na2 Os2 O12'
_cell_volume   366.98602992
_cell_formula_units_Z   2
loop_
 _symmetry_equiv_pos_site_id
 _symmetry_equiv_pos_as_xyz
  1  'x, y, z'
loop_
 _atom_site_type_symbol
 _atom_site_label
 _atom_site_symmetry_multiplicity
 _atom_site_fract_x
 _atom_site_fract_y
 _atom_site_fract_z
 _atom_site_occupancy
  Ba  Ba0  1  0.895451  0.250000  0.604549  1
  Ba  Ba1  1  0.604549  0.895451  0.250000  1
  Ba  Ba2  1  0.750000  0.395451  0.104549  1
  Ba  Ba3  1  0.104549  0.750000  0.395451  1
  Ba  Ba4  1  0.395451  0.104549  0.750000  1
  Ba  Ba5  1  0.250000  0.604549  0.895451  1
  Na  Na6  1  0.250000  0.250000  0.250000  1
  Na  Na7  1  0.750000  0.750000  0.750000  1
  Os  Os8  1  0.000000  0.000000  0.000000  1
  Os  Os9  1  0.500000  0.500000  0.500000  1
  O  O10  1  0.550945  0.234114  0.420109  1
  O  O11  1  0.420109  0.550945  0.234114  1
  O  O12  1  0.234114  0.420109  0.550945  1
  O  O13  1  0.949055  0.079891  0.265886  1
  O  O14  1  0.265886  0.949055  0.079891  1
  O  O15  1  0.079891  0.265886  0.949055  1
  O  O16  1  0.449055  0.765886  0.579891  1
  O  O17  1  0.579891  0.449055  0.765886  1
  O  O18  1  0.765886  0.579891  0.449055  1
  O  O19  1  0.050945  0.920109  0.734114  1
  O  O20  1  0.920109  0.734114  0.050945  1
  O  O21  1  0.734114  0.050945  0.920109  1
