# generated using pymatgen
data_ThNp7CrSe17
_symmetry_space_group_name_H-M   'P 1'
_cell_length_a   8.22790623
_cell_length_b   8.23297395
_cell_length_c   10.92437098
_cell_angle_alpha   80.42344044
_cell_angle_beta   80.48968160
_cell_angle_gamma   65.25190571
_symmetry_Int_Tables_number   1
_chemical_formula_structural   ThNp7CrSe17
_chemical_formula_sum   'Th1 Np7 Cr1 Se17'
_cell_volume   658.90187337
_cell_formula_units_Z   1
loop_
 _symmetry_equiv_pos_site_id
 _symmetry_equiv_pos_as_xyz
  1  'x, y, z'
loop_
 _atom_site_type_symbol
 _atom_site_label
 _atom_site_symmetry_multiplicity
 _atom_site_fract_x
 _atom_site_fract_y
 _atom_site_fract_z
 _atom_site_occupancy
  Th  Th0  1  0.321090  0.320299  0.020740  1
  Np  Np1  1  0.818102  0.303234  0.299967  1
  Np  Np2  1  0.699868  0.179311  0.698296  1
  Np  Np3  1  0.179651  0.699694  0.699726  1
  Np  Np4  1  0.302561  0.819176  0.301634  1
  Np  Np5  1  0.204086  0.204307  0.545216  1
  Np  Np6  1  0.795124  0.795072  0.454895  1
  Np  Np7  1  0.676772  0.675970  0.981979  1
  Cr  Cr8  1  0.000414  0.998872  0.999646  1
  Se  Se9  1  0.823513  0.431896  0.536176  1
  Se  Se10  1  0.567803  0.176091  0.463919  1
  Se  Se11  1  0.176246  0.567689  0.463875  1
  Se  Se12  1  0.432055  0.823408  0.536249  1
  Se  Se13  1  0.943714  0.319475  0.029013  1
  Se  Se14  1  0.683250  0.052298  0.969015  1
  Se  Se15  1  0.051828  0.682908  0.969350  1
  Se  Se16  1  0.320182  0.945191  0.030496  1
  Se  Se17  1  0.209116  0.211406  0.282425  1
  Se  Se18  1  0.789724  0.788310  0.719759  1
  Se  Se19  1  0.055917  0.055619  0.772196  1
  Se  Se20  1  0.944545  0.945721  0.227008  1
  Se  Se21  1  0.301452  0.302087  0.752698  1
  Se  Se22  1  0.701181  0.700560  0.243159  1
  Se  Se23  1  0.521502  0.522306  0.826604  1
  Se  Se24  1  0.480652  0.479473  0.176187  1
  Se  Se25  1  0.999652  0.999627  0.499772  1
