# generated using pymatgen
data_Tb6Ti2Co16Si11P
_symmetry_space_group_name_H-M   'P 1'
_cell_length_a   3.77758500
_cell_length_b   10.90535948
_cell_length_c   12.45550257
_cell_angle_alpha   89.96562667
_cell_angle_beta   90.00000000
_cell_angle_gamma   90.00000000
_symmetry_Int_Tables_number   1
_chemical_formula_structural   Tb6Ti2Co16Si11P
_chemical_formula_sum   'Tb6 Ti2 Co16 Si11 P1'
_cell_volume   513.11582498
_cell_formula_units_Z   1
loop_
 _symmetry_equiv_pos_site_id
 _symmetry_equiv_pos_as_xyz
  1  'x, y, z'
loop_
 _atom_site_type_symbol
 _atom_site_label
 _atom_site_symmetry_multiplicity
 _atom_site_fract_x
 _atom_site_fract_y
 _atom_site_fract_z
 _atom_site_occupancy
  Tb  Tb0  1  0.000000  0.499532  0.529450  1
  Tb  Tb1  1  0.500000  0.000428  0.469400  1
  Tb  Tb2  1  0.500000  0.822723  0.205560  1
  Tb  Tb3  1  0.500000  0.180160  0.203829  1
  Tb  Tb4  1  0.000000  0.676712  0.795184  1
  Tb  Tb5  1  0.000000  0.322931  0.793685  1
  Ti  Ti6  1  0.500000  0.497241  0.146551  1
  Ti  Ti7  1  0.000000  0.000477  0.854027  1
  Co  Co8  1  0.500000  0.499660  0.699814  1
  Co  Co9  1  0.000000  0.000475  0.300083  1
  Co  Co10  1  0.000000  0.496460  0.990427  1
  Co  Co11  1  0.500000  0.001224  0.012154  1
  Co  Co12  1  0.500000  0.331656  0.000782  1
  Co  Co13  1  0.500000  0.666736  0.999098  1
  Co  Co14  1  0.000000  0.171534  0.003796  1
  Co  Co15  1  0.000000  0.831888  0.001986  1
  Co  Co16  1  0.500000  0.301620  0.430031  1
  Co  Co17  1  0.500000  0.698454  0.431482  1
  Co  Co18  1  0.000000  0.198619  0.567880  1
  Co  Co19  1  0.000000  0.801362  0.568638  1
  Co  Co20  1  0.500000  0.883371  0.707835  1
  Co  Co21  1  0.500000  0.117348  0.707686  1
  Co  Co22  1  0.000000  0.616649  0.292737  1
  Co  Co23  1  0.000000  0.382128  0.288475  1
  Si  Si24  1  0.500000  0.499649  0.888064  1
  Si  Si25  1  0.000000  0.000251  0.112239  1
  Si  Si26  1  0.500000  0.500237  0.348369  1
  Si  Si27  1  0.000000  0.999915  0.651000  1
  Si  Si28  1  0.500000  0.301713  0.614137  1
  Si  Si29  1  0.500000  0.698467  0.615209  1
  Si  Si30  1  0.000000  0.198469  0.384132  1
  Si  Si31  1  0.000000  0.801524  0.384935  1
  Si  Si32  1  0.500000  0.841301  0.895617  1
  Si  Si33  1  0.500000  0.159397  0.895124  1
  Si  Si34  1  0.000000  0.658002  0.105535  1
  P  P35  1  0.000000  0.341691  0.105051  1
