# generated using pymatgen
data_Yb2Dy5Lu(B6Os)4
_symmetry_space_group_name_H-M   'P 1'
_cell_length_a   3.64232000
_cell_length_b   9.14118660
_cell_length_c   11.53523914
_cell_angle_alpha   89.85276929
_cell_angle_beta   90.00000000
_cell_angle_gamma   90.00000000
_symmetry_Int_Tables_number   1
_chemical_formula_structural   Yb2Dy5Lu(B6Os)4
_chemical_formula_sum   'Yb2 Dy5 Lu1 B24 Os4'
_cell_volume   384.06598168
_cell_formula_units_Z   1
loop_
 _symmetry_equiv_pos_site_id
 _symmetry_equiv_pos_as_xyz
  1  'x, y, z'
loop_
 _atom_site_type_symbol
 _atom_site_label
 _atom_site_symmetry_multiplicity
 _atom_site_fract_x
 _atom_site_fract_y
 _atom_site_fract_z
 _atom_site_occupancy
  Yb  Yb0  1  0.000000  0.324810  0.414805  1
  Yb  Yb1  1  0.000000  0.675315  0.585731  1
  Dy  Dy2  1  0.000000  0.821591  0.085887  1
  Dy  Dy3  1  0.000000  0.178374  0.913479  1
  Dy  Dy4  1  0.000000  0.941958  0.370393  1
  Dy  Dy5  1  0.000000  0.058214  0.630125  1
  Dy  Dy6  1  0.000000  0.443001  0.129380  1
  Lu  Lu7  1  0.000000  0.557302  0.869505  1
  B  B8  1  0.500000  0.553598  0.432716  1
  B  B9  1  0.500000  0.446851  0.567963  1
  B  B10  1  0.500000  0.053325  0.066564  1
  B  B11  1  0.500000  0.945478  0.933105  1
  B  B12  1  0.500000  0.747291  0.417919  1
  B  B13  1  0.500000  0.253208  0.582488  1
  B  B14  1  0.500000  0.248085  0.081086  1
  B  B15  1  0.500000  0.750175  0.918460  1
  B  B16  1  0.500000  0.790437  0.264671  1
  B  B17  1  0.500000  0.210327  0.735605  1
  B  B18  1  0.500000  0.289923  0.234168  1
  B  B19  1  0.500000  0.708517  0.766002  1
  B  B20  1  0.500000  0.631135  0.185276  1
  B  B21  1  0.500000  0.370330  0.815110  1
  B  B22  1  0.500000  0.131072  0.313635  1
  B  B23  1  0.500000  0.868409  0.686609  1
  B  B24  1  0.500000  0.983155  0.211417  1
  B  B25  1  0.500000  0.016268  0.788749  1
  B  B26  1  0.500000  0.483589  0.288274  1
  B  B27  1  0.500000  0.517510  0.712713  1
  B  B28  1  0.500000  0.602769  0.026849  1
  B  B29  1  0.500000  0.398594  0.970398  1
  B  B30  1  0.500000  0.100362  0.472440  1
  B  B31  1  0.500000  0.899685  0.527986  1
  Os  Os32  1  0.000000  0.638940  0.319260  1
  Os  Os33  1  0.000000  0.362204  0.681518  1
  Os  Os34  1  0.000000  0.136722  0.177443  1
  Os  Os35  1  0.000000  0.861479  0.822269  1
