# generated using pymatgen
data_K2Nb3Br7O5
_symmetry_space_group_name_H-M   'P 1'
_cell_length_a   10.14409676
_cell_length_b   10.14409622
_cell_length_c   11.55556090
_cell_angle_alpha   71.42431092
_cell_angle_beta   71.42431322
_cell_angle_gamma   52.50783522
_symmetry_Int_Tables_number   1
_chemical_formula_structural   K2Nb3Br7O5
_chemical_formula_sum   'K4 Nb6 Br14 O10'
_cell_volume   881.95102102
_cell_formula_units_Z   2
loop_
 _symmetry_equiv_pos_site_id
 _symmetry_equiv_pos_as_xyz
  1  'x, y, z'
loop_
 _atom_site_type_symbol
 _atom_site_label
 _atom_site_symmetry_multiplicity
 _atom_site_fract_x
 _atom_site_fract_y
 _atom_site_fract_z
 _atom_site_occupancy
  K  K0  1  0.758035  0.849532  0.855288  1
  K  K1  1  0.150468  0.241965  0.644712  1
  K  K2  1  0.241965  0.150468  0.144712  1
  K  K3  1  0.849532  0.758035  0.355288  1
  Nb  Nb4  1  0.215244  0.788706  0.524817  1
  Nb  Nb5  1  0.211294  0.784756  0.975183  1
  Nb  Nb6  1  0.784756  0.211294  0.475183  1
  Nb  Nb7  1  0.788706  0.215244  0.024817  1
  Nb  Nb8  1  0.466689  0.533311  0.250000  1
  Nb  Nb9  1  0.533311  0.466689  0.750000  1
  Br  Br10  1  0.060023  0.636586  0.625278  1
  Br  Br11  1  0.363414  0.939977  0.874722  1
  Br  Br12  1  0.939977  0.363414  0.374722  1
  Br  Br13  1  0.636586  0.060023  0.125278  1
  Br  Br14  1  0.365151  0.943115  0.453918  1
  Br  Br15  1  0.056885  0.634849  0.046082  1
  Br  Br16  1  0.634849  0.056885  0.546082  1
  Br  Br17  1  0.943115  0.365151  0.953918  1
  Br  Br18  1  0.283356  0.416200  0.333026  1
  Br  Br19  1  0.583800  0.716644  0.166974  1
  Br  Br20  1  0.716644  0.583800  0.666974  1
  Br  Br21  1  0.416200  0.283356  0.833026  1
  Br  Br22  1  0.075098  0.924902  0.750000  1
  Br  Br23  1  0.924902  0.075098  0.250000  1
  O  O24  1  0.293597  0.708169  0.380502  1
  O  O25  1  0.291831  0.706403  0.119498  1
  O  O26  1  0.706403  0.291831  0.619498  1
  O  O27  1  0.708169  0.293597  0.880502  1
  O  O28  1  0.394698  0.607250  0.628472  1
  O  O29  1  0.392750  0.605302  0.871528  1
  O  O30  1  0.605302  0.392750  0.371528  1
  O  O31  1  0.607250  0.394698  0.128472  1
  O  O32  1  0.000000  0.000000  0.500000  1
  O  O33  1  0.000000  0.000000  0.000000  1
