# generated using pymatgen
data_PrTm2Th(Al3Ir)6
_symmetry_space_group_name_H-M   'P 1'
_cell_length_a   7.59382318
_cell_length_b   7.59586414
_cell_length_c   9.49999200
_cell_angle_alpha   90.00000000
_cell_angle_beta   90.00000000
_cell_angle_gamma   119.46385214
_symmetry_Int_Tables_number   1
_chemical_formula_structural   PrTm2Th(Al3Ir)6
_chemical_formula_sum   'Pr1 Tm2 Th1 Al18 Ir6'
_cell_volume   477.10348553
_cell_formula_units_Z   1
loop_
 _symmetry_equiv_pos_site_id
 _symmetry_equiv_pos_as_xyz
  1  'x, y, z'
loop_
 _atom_site_type_symbol
 _atom_site_label
 _atom_site_symmetry_multiplicity
 _atom_site_fract_x
 _atom_site_fract_y
 _atom_site_fract_z
 _atom_site_occupancy
  Pr  Pr0  1  0.671516  0.994425  0.250000  1
  Tm  Tm1  1  0.003937  0.327801  0.750000  1
  Tm  Tm2  1  0.326742  0.004231  0.750000  1
  Th  Th3  1  0.995122  0.671205  0.250000  1
  Al  Al4  1  0.134269  0.133959  0.250000  1
  Al  Al5  1  0.872510  0.873795  0.750000  1
  Al  Al6  1  0.003612  0.333074  0.069383  1
  Al  Al7  1  0.999953  0.664070  0.917718  1
  Al  Al8  1  0.999953  0.664070  0.582282  1
  Al  Al9  1  0.338018  0.005547  0.430719  1
  Al  Al10  1  0.003612  0.333074  0.430617  1
  Al  Al11  1  0.664261  0.000762  0.579707  1
  Al  Al12  1  0.664261  0.000762  0.920293  1
  Al  Al13  1  0.338018  0.005547  0.069281  1
  Al  Al14  1  0.332048  0.332044  0.557572  1
  Al  Al15  1  0.663326  0.665107  0.458386  1
  Al  Al16  1  0.663326  0.665107  0.041614  1
  Al  Al17  1  0.332048  0.332044  0.942428  1
  Al  Al18  1  0.340923  0.545404  0.250000  1
  Al  Al19  1  0.658165  0.448083  0.750000  1
  Al  Al20  1  0.544345  0.339648  0.250000  1
  Al  Al21  1  0.448112  0.659747  0.750000  1
  Ir  Ir22  1  0.673159  0.329755  0.998877  1
  Ir  Ir23  1  0.326050  0.671051  0.998826  1
  Ir  Ir24  1  0.326050  0.671051  0.501174  1
  Ir  Ir25  1  0.673159  0.329755  0.501123  1
  Ir  Ir26  1  0.001754  0.999440  0.998547  1
  Ir  Ir27  1  0.001754  0.999440  0.501453  1
