# generated using pymatgen
data_EuYHo5PtI12
_symmetry_space_group_name_H-M   'P 1'
_cell_length_a   9.79369009
_cell_length_b   9.79421058
_cell_length_c   9.79306525
_cell_angle_alpha   106.48399766
_cell_angle_beta   106.56282597
_cell_angle_gamma   106.49550994
_symmetry_Int_Tables_number   1
_chemical_formula_structural   EuYHo5PtI12
_chemical_formula_sum   'Eu1 Y1 Ho5 Pt1 I12'
_cell_volume   792.45250098
_cell_formula_units_Z   1
loop_
 _symmetry_equiv_pos_site_id
 _symmetry_equiv_pos_as_xyz
  1  'x, y, z'
loop_
 _atom_site_type_symbol
 _atom_site_label
 _atom_site_symmetry_multiplicity
 _atom_site_fract_x
 _atom_site_fract_y
 _atom_site_fract_z
 _atom_site_occupancy
  Eu  Eu0  1  0.999904  0.999927  0.999613  1
  Y  Y1  1  0.403109  0.476267  0.198711  1
  Ho  Ho2  1  0.201808  0.404055  0.475970  1
  Ho  Ho3  1  0.476240  0.201963  0.404342  1
  Ho  Ho4  1  0.596435  0.523896  0.798951  1
  Ho  Ho5  1  0.798208  0.595846  0.524099  1
  Ho  Ho6  1  0.523922  0.798140  0.596366  1
  Pt  Pt7  1  0.499993  0.500094  0.499903  1
  I  I8  1  0.045472  0.359510  0.126407  1
  I  I9  1  0.126126  0.047030  0.360035  1
  I  I10  1  0.360022  0.124850  0.047002  1
  I  I11  1  0.953268  0.639963  0.874000  1
  I  I12  1  0.873764  0.952985  0.639847  1
  I  I13  1  0.640054  0.873902  0.953357  1
  I  I14  1  0.724523  0.574436  0.176523  1
  I  I15  1  0.175994  0.722393  0.573779  1
  I  I16  1  0.573865  0.175852  0.722842  1
  I  I17  1  0.276931  0.425930  0.823604  1
  I  I18  1  0.823923  0.277526  0.426197  1
  I  I19  1  0.426441  0.825435  0.278451  1
