# generated using pymatgen
data_CaB13C2
_symmetry_space_group_name_H-M   'P 1'
_cell_length_a   5.63002393
_cell_length_b   7.37657540
_cell_length_c   7.37670423
_cell_angle_alpha   95.98690285
_cell_angle_beta   112.71859529
_cell_angle_gamma   112.71553892
_symmetry_Int_Tables_number   1
_chemical_formula_structural   CaB13C2
_chemical_formula_sum   'Ca2 B26 C4'
_cell_volume   248.83633670
_cell_formula_units_Z   2
loop_
 _symmetry_equiv_pos_site_id
 _symmetry_equiv_pos_as_xyz
  1  'x, y, z'
loop_
 _atom_site_type_symbol
 _atom_site_label
 _atom_site_symmetry_multiplicity
 _atom_site_fract_x
 _atom_site_fract_y
 _atom_site_fract_z
 _atom_site_occupancy
  Ca  Ca0  1  0.375191  0.628990  0.129010  1
  Ca  Ca1  1  0.624809  0.371010  0.870990  1
  B  B2  1  0.319914  0.223979  0.091718  1
  B  B3  1  0.998193  0.226580  0.088282  1
  B  B4  1  0.314309  0.978390  0.132949  1
  B  B5  1  0.795366  0.986620  0.119614  1
  B  B6  1  0.984506  0.821641  0.153385  1
  B  B7  1  0.177905  0.105283  0.251567  1
  B  B8  1  0.001818  0.411727  0.273437  1
  B  B9  1  0.680087  0.408295  0.276035  1
  B  B10  1  0.984515  0.653400  0.321657  1
  B  B11  1  0.803604  0.942542  0.442507  1
  B  B12  1  0.822104  0.248435  0.394722  1
  B  B13  1  0.314339  0.632966  0.478403  1
  B  B14  1  0.795351  0.619619  0.486623  1
  B  B15  1  0.204649  0.380381  0.513377  1
  B  B16  1  0.685661  0.367034  0.521597  1
  B  B17  1  0.177896  0.751565  0.605278  1
  B  B18  1  0.196396  0.057458  0.557493  1
  B  B19  1  0.015485  0.346600  0.678343  1
  B  B20  1  0.319913  0.591705  0.723965  1
  B  B21  1  0.998181  0.588273  0.726563  1
  B  B22  1  0.822095  0.894717  0.748433  1
  B  B23  1  0.015494  0.178359  0.846615  1
  B  B24  1  0.204634  0.013380  0.880386  1
  B  B25  1  0.685691  0.021610  0.867051  1
  B  B26  1  0.001807  0.773420  0.911718  1
  B  B27  1  0.680085  0.776021  0.908282  1
  C  C28  1  0.643212  0.011003  0.258717  1
  C  C29  1  0.356911  0.241362  0.488984  1
  C  C30  1  0.643089  0.758638  0.511016  1
  C  C31  1  0.356788  0.988997  0.741283  1
