# generated using pymatgen
data_Tc2(HgO2)5
_symmetry_space_group_name_H-M   'P 1'
_cell_length_a   11.84257000
_cell_length_b   6.57558051
_cell_length_c   8.42826131
_cell_angle_alpha   80.35478451
_cell_angle_beta   90.00000000
_cell_angle_gamma   90.00000000
_symmetry_Int_Tables_number   1
_chemical_formula_structural   Tc2(HgO2)5
_chemical_formula_sum   'Tc4 Hg10 O20'
_cell_volume   647.04593738
_cell_formula_units_Z   2
loop_
 _symmetry_equiv_pos_site_id
 _symmetry_equiv_pos_as_xyz
  1  'x, y, z'
loop_
 _atom_site_type_symbol
 _atom_site_label
 _atom_site_symmetry_multiplicity
 _atom_site_fract_x
 _atom_site_fract_y
 _atom_site_fract_z
 _atom_site_occupancy
  Tc  Tc0  1  0.342578  0.615918  0.483674  1
  Tc  Tc1  1  0.842578  0.384082  0.016326  1
  Tc  Tc2  1  0.657422  0.384082  0.516326  1
  Tc  Tc3  1  0.157422  0.615918  0.983674  1
  Hg  Hg4  1  0.088925  0.998515  0.312487  1
  Hg  Hg5  1  0.717263  0.874100  0.820493  1
  Hg  Hg6  1  0.588925  0.001485  0.187513  1
  Hg  Hg7  1  0.782737  0.874100  0.320493  1
  Hg  Hg8  1  0.282737  0.125900  0.179507  1
  Hg  Hg9  1  0.500000  0.500000  0.000000  1
  Hg  Hg10  1  0.911075  0.001485  0.687513  1
  Hg  Hg11  1  0.217263  0.125900  0.679507  1
  Hg  Hg12  1  0.411075  0.998515  0.812487  1
  Hg  Hg13  1  0.000000  0.500000  0.500000  1
  O  O14  1  0.175734  0.399581  0.892262  1
  O  O15  1  0.551659  0.805757  0.938295  1
  O  O16  1  0.791035  0.298362  0.467822  1
  O  O17  1  0.324266  0.399581  0.392262  1
  O  O18  1  0.579935  0.449273  0.340028  1
  O  O19  1  0.948341  0.805757  0.438295  1
  O  O20  1  0.675734  0.600419  0.607738  1
  O  O21  1  0.591042  0.182843  0.645228  1
  O  O22  1  0.051659  0.194243  0.561705  1
  O  O23  1  0.920065  0.449273  0.840028  1
  O  O24  1  0.708965  0.298362  0.967822  1
  O  O25  1  0.448341  0.194243  0.061705  1
  O  O26  1  0.408958  0.817157  0.354772  1
  O  O27  1  0.079935  0.550727  0.159972  1
  O  O28  1  0.291035  0.701638  0.032178  1
  O  O29  1  0.420065  0.550727  0.659972  1
  O  O30  1  0.824266  0.600419  0.107738  1
  O  O31  1  0.091042  0.817157  0.854772  1
  O  O32  1  0.208965  0.701638  0.532178  1
  O  O33  1  0.908958  0.182843  0.145228  1
