# generated using pymatgen
data_HoMg2ScIn4
_symmetry_space_group_name_H-M   'P 1'
_cell_length_a   6.30505400
_cell_length_b   6.30505342
_cell_length_c   9.05479000
_cell_angle_alpha   90.00000000
_cell_angle_beta   90.00000000
_cell_angle_gamma   91.79746782
_symmetry_Int_Tables_number   1
_chemical_formula_structural   HoMg2ScIn4
_chemical_formula_sum   'Ho2 Mg4 Sc2 In8'
_cell_volume   359.78430585
_cell_formula_units_Z   2
loop_
 _symmetry_equiv_pos_site_id
 _symmetry_equiv_pos_as_xyz
  1  'x, y, z'
loop_
 _atom_site_type_symbol
 _atom_site_label
 _atom_site_symmetry_multiplicity
 _atom_site_fract_x
 _atom_site_fract_y
 _atom_site_fract_z
 _atom_site_occupancy
  Ho  Ho0  1  0.996576  0.996576  0.250000  1
  Ho  Ho1  1  0.003424  0.003424  0.750000  1
  Mg  Mg2  1  0.252007  0.747993  0.500000  1
  Mg  Mg3  1  0.252007  0.747993  0.000000  1
  Mg  Mg4  1  0.747993  0.252007  0.500000  1
  Mg  Mg5  1  0.747993  0.252007  0.000000  1
  Sc  Sc6  1  0.503967  0.503967  0.250000  1
  Sc  Sc7  1  0.496033  0.496033  0.750000  1
  In  In8  1  0.253188  0.253188  0.002582  1
  In  In9  1  0.746812  0.746812  0.997418  1
  In  In10  1  0.253188  0.253188  0.497418  1
  In  In11  1  0.746812  0.746812  0.502582  1
  In  In12  1  0.497494  0.003582  0.250000  1
  In  In13  1  0.996418  0.502506  0.750000  1
  In  In14  1  0.502506  0.996418  0.750000  1
  In  In15  1  0.003582  0.497494  0.250000  1
