# generated using pymatgen
data_AcLa2Tb(AsPt)4
_symmetry_space_group_name_H-M   'P 1'
_cell_length_a   4.39093000
_cell_length_b   4.39093056
_cell_length_c   16.25774300
_cell_angle_alpha   90.00000000
_cell_angle_beta   90.00000000
_cell_angle_gamma   120.00001082
_symmetry_Int_Tables_number   1
_chemical_formula_structural   AcLa2Tb(AsPt)4
_chemical_formula_sum   'Ac1 La2 Tb1 As4 Pt4'
_cell_volume   271.45879782
_cell_formula_units_Z   1
loop_
 _symmetry_equiv_pos_site_id
 _symmetry_equiv_pos_as_xyz
  1  'x, y, z'
loop_
 _atom_site_type_symbol
 _atom_site_label
 _atom_site_symmetry_multiplicity
 _atom_site_fract_x
 _atom_site_fract_y
 _atom_site_fract_z
 _atom_site_occupancy
  Ac  Ac0  1  0.000000  0.000000  0.250000  1
  La  La1  1  0.000000  0.000000  0.507401  1
  La  La2  1  0.000000  0.000000  0.992599  1
  Tb  Tb3  1  0.000000  0.000000  0.750000  1
  As  As4  1  0.333333  0.666667  0.875606  1
  As  As5  1  0.666667  0.333333  0.114280  1
  As  As6  1  0.666667  0.333333  0.385720  1
  As  As7  1  0.333333  0.666667  0.624394  1
  Pt  Pt8  1  0.333333  0.666667  0.379397  1
  Pt  Pt9  1  0.666667  0.333333  0.644681  1
  Pt  Pt10  1  0.666667  0.333333  0.855319  1
  Pt  Pt11  1  0.333333  0.666667  0.120603  1
