# generated using pymatgen
data_Y2Si7(Ni3Ru)3
_symmetry_space_group_name_H-M   'P 1'
_cell_length_a   3.73159200
_cell_length_b   9.25972604
_cell_length_c   9.25972600
_cell_angle_alpha   119.99999984
_cell_angle_beta   90.00000000
_cell_angle_gamma   90.00000000
_symmetry_Int_Tables_number   1
_chemical_formula_structural   Y2Si7(Ni3Ru)3
_chemical_formula_sum   'Y2 Si7 Ni9 Ru3'
_cell_volume   277.09013204
_cell_formula_units_Z   1
loop_
 _symmetry_equiv_pos_site_id
 _symmetry_equiv_pos_as_xyz
  1  'x, y, z'
loop_
 _atom_site_type_symbol
 _atom_site_label
 _atom_site_symmetry_multiplicity
 _atom_site_fract_x
 _atom_site_fract_y
 _atom_site_fract_z
 _atom_site_occupancy
  Y  Y0  1  0.000000  0.666667  0.333333  1
  Y  Y1  1  0.500000  0.333333  0.666667  1
  Si  Si2  1  0.000000  0.000000  0.000000  1
  Si  Si3  1  0.500000  0.706283  0.108460  1
  Si  Si4  1  0.500000  0.402177  0.293717  1
  Si  Si5  1  0.500000  0.891540  0.597823  1
  Si  Si6  1  0.000000  0.598266  0.711855  1
  Si  Si7  1  0.000000  0.113589  0.401734  1
  Si  Si8  1  0.000000  0.288145  0.886411  1
  Ni  Ni9  1  0.000000  0.562010  0.942478  1
  Ni  Ni10  1  0.000000  0.380468  0.437990  1
  Ni  Ni11  1  0.000000  0.057522  0.619532  1
  Ni  Ni12  1  0.000000  0.870590  0.156445  1
  Ni  Ni13  1  0.000000  0.285855  0.129410  1
  Ni  Ni14  1  0.000000  0.843555  0.714145  1
  Ni  Ni15  1  0.500000  0.944627  0.380455  1
  Ni  Ni16  1  0.500000  0.435827  0.055373  1
  Ni  Ni17  1  0.500000  0.619545  0.564173  1
  Ru  Ru18  1  0.500000  0.783433  0.897370  1
  Ru  Ru19  1  0.500000  0.113937  0.216567  1
  Ru  Ru20  1  0.500000  0.102630  0.886063  1
