# generated using pymatgen
data_GeCN8
_symmetry_space_group_name_H-M   'P 1'
_cell_length_a   5.21827404
_cell_length_b   5.94097880
_cell_length_c   12.88422906
_cell_angle_alpha   91.72847256
_cell_angle_beta   96.48235139
_cell_angle_gamma   134.97881766
_symmetry_Int_Tables_number   1
_chemical_formula_structural   GeCN8
_chemical_formula_sum   'Ge1 C1 N8'
_cell_volume   277.28208840
_cell_formula_units_Z   1
loop_
 _symmetry_equiv_pos_site_id
 _symmetry_equiv_pos_as_xyz
  1  'x, y, z'
loop_
 _atom_site_type_symbol
 _atom_site_label
 _atom_site_symmetry_multiplicity
 _atom_site_fract_x
 _atom_site_fract_y
 _atom_site_fract_z
 _atom_site_occupancy
  Ge  Ge0  1  0.230130  0.207175  0.274204  1
  C  C1  1  0.856616  0.390439  0.210525  1
  N  N2  1  0.625790  0.954146  0.494878  1
  N  N3  1  0.633883  0.407655  0.205466  1
  N  N4  1  0.397051  0.785928  0.538569  1
  N  N5  1  0.099094  0.400683  0.208807  1
  N  N6  1  0.027967  0.142895  0.926552  1
  N  N7  1  0.594884  0.520719  0.729677  1
  N  N8  1  0.031219  0.331723  0.936463  1
  N  N9  1  0.649712  0.372584  0.717452  1
