# generated using pymatgen
data_LiTb16CdIn2Ir3Pt
_symmetry_space_group_name_H-M   'P 1'
_cell_length_a   9.70233248
_cell_length_b   9.69030760
_cell_length_c   9.69030800
_cell_angle_alpha   60.14224099
_cell_angle_beta   60.23867768
_cell_angle_gamma   60.23867442
_symmetry_Int_Tables_number   1
_chemical_formula_structural   LiTb16CdIn2Ir3Pt
_chemical_formula_sum   'Li1 Tb16 Cd1 In2 Ir3 Pt1'
_cell_volume   647.23456530
_cell_formula_units_Z   1
loop_
 _symmetry_equiv_pos_site_id
 _symmetry_equiv_pos_as_xyz
  1  'x, y, z'
loop_
 _atom_site_type_symbol
 _atom_site_label
 _atom_site_symmetry_multiplicity
 _atom_site_fract_x
 _atom_site_fract_y
 _atom_site_fract_z
 _atom_site_occupancy
  Li  Li0  1  0.030616  0.322115  0.322115  1
  Tb  Tb1  1  0.100827  0.704804  0.099515  1
  Tb  Tb2  1  0.940281  0.938493  0.558174  1
  Tb  Tb3  1  0.940281  0.558174  0.938493  1
  Tb  Tb4  1  0.313591  0.684641  0.312957  1
  Tb  Tb5  1  0.935223  0.564613  0.564613  1
  Tb  Tb6  1  0.313591  0.312957  0.684641  1
  Tb  Tb7  1  0.098476  0.097758  0.097758  1
  Tb  Tb8  1  0.558812  0.561270  0.939487  1
  Tb  Tb9  1  0.100827  0.099515  0.704804  1
  Tb  Tb10  1  0.686948  0.314384  0.686647  1
  Tb  Tb11  1  0.686948  0.686647  0.314384  1
  Tb  Tb12  1  0.687625  0.311716  0.311716  1
  Tb  Tb13  1  0.315131  0.686439  0.686439  1
  Tb  Tb14  1  0.558812  0.939487  0.561270  1
  Tb  Tb15  1  0.699597  0.101523  0.101523  1
  Tb  Tb16  1  0.553392  0.943034  0.943034  1
  Cd  Cd17  1  0.327749  0.329668  0.329668  1
  In  In18  1  0.329216  0.003832  0.334521  1
  In  In19  1  0.329216  0.334521  0.003832  1
  Ir  Ir20  1  0.889017  0.893051  0.325995  1
  Ir  Ir21  1  0.324519  0.892341  0.892341  1
  Ir  Ir22  1  0.889017  0.325995  0.893051  1
  Pt  Pt23  1  0.890288  0.893024  0.893024  1
