# generated using pymatgen
data_Sm7HoSc11Si16Hg
_symmetry_space_group_name_H-M   'P 1'
_cell_length_a   7.12253836
_cell_length_b   7.45799696
_cell_length_c   14.14567948
_cell_angle_alpha   89.94279705
_cell_angle_beta   89.96337914
_cell_angle_gamma   89.81465260
_symmetry_Int_Tables_number   1
_chemical_formula_structural   Sm7HoSc11Si16Hg
_chemical_formula_sum   'Sm7 Ho1 Sc11 Si16 Hg1'
_cell_volume   751.41218941
_cell_formula_units_Z   1
loop_
 _symmetry_equiv_pos_site_id
 _symmetry_equiv_pos_as_xyz
  1  'x, y, z'
loop_
 _atom_site_type_symbol
 _atom_site_label
 _atom_site_symmetry_multiplicity
 _atom_site_fract_x
 _atom_site_fract_y
 _atom_site_fract_z
 _atom_site_occupancy
  Sm  Sm0  1  0.991049  0.818233  0.901693  1
  Sm  Sm1  1  0.481734  0.671356  0.901031  1
  Sm  Sm2  1  0.991196  0.818558  0.599325  1
  Sm  Sm3  1  0.511548  0.325344  0.097845  1
  Sm  Sm4  1  0.010092  0.171306  0.402590  1
  Sm  Sm5  1  0.511747  0.325740  0.401254  1
  Sm  Sm6  1  0.482851  0.671769  0.599710  1
  Ho  Ho7  1  0.010663  0.172904  0.098665  1
  Sc  Sc8  1  0.838577  0.499224  0.249356  1
  Sc  Sc9  1  0.339498  0.001985  0.249384  1
  Sc  Sc10  1  0.658257  0.000368  0.750181  1
  Sc  Sc11  1  0.326247  0.183740  0.625120  1
  Sc  Sc12  1  0.671849  0.824006  0.374864  1
  Sc  Sc13  1  0.169784  0.680314  0.372574  1
  Sc  Sc14  1  0.671602  0.824455  0.123993  1
  Sc  Sc15  1  0.838137  0.325565  0.625221  1
  Sc  Sc16  1  0.325622  0.183712  0.875219  1
  Sc  Sc17  1  0.838522  0.324327  0.875293  1
  Sc  Sc18  1  0.169443  0.680720  0.126586  1
  Si  Si19  1  0.029788  0.102595  0.750495  1
  Si  Si20  1  0.966892  0.884146  0.248965  1
  Si  Si21  1  0.466398  0.622897  0.249430  1
  Si  Si22  1  0.547905  0.374396  0.750354  1
  Si  Si23  1  0.292480  0.897154  0.750323  1
  Si  Si24  1  0.713788  0.123312  0.248417  1
  Si  Si25  1  0.210200  0.376382  0.248907  1
  Si  Si26  1  0.770983  0.625085  0.750515  1
  Si  Si27  1  0.158249  0.458906  0.528006  1
  Si  Si28  1  0.845162  0.536555  0.461032  1
  Si  Si29  1  0.347223  0.964885  0.461677  1
  Si  Si30  1  0.845979  0.533753  0.039960  1
  Si  Si31  1  0.655280  0.033772  0.540805  1
  Si  Si32  1  0.157687  0.455845  0.973112  1
  Si  Si33  1  0.655227  0.033773  0.959143  1
  Si  Si34  1  0.343287  0.966715  0.038820  1
  Hg  Hg35  1  0.155058  0.506201  0.750135  1
