# generated using pymatgen
data_Ho4CrReOs6
_symmetry_space_group_name_H-M   'P 1'
_cell_length_a   5.19239078
_cell_length_b   5.19239071
_cell_length_c   8.86147000
_cell_angle_alpha   90.00000000
_cell_angle_beta   90.00000000
_cell_angle_gamma   116.40676258
_symmetry_Int_Tables_number   1
_chemical_formula_structural   Ho4CrReOs6
_chemical_formula_sum   'Ho4 Cr1 Re1 Os6'
_cell_volume   213.98500099
_cell_formula_units_Z   1
loop_
 _symmetry_equiv_pos_site_id
 _symmetry_equiv_pos_as_xyz
  1  'x, y, z'
loop_
 _atom_site_type_symbol
 _atom_site_label
 _atom_site_symmetry_multiplicity
 _atom_site_fract_x
 _atom_site_fract_y
 _atom_site_fract_z
 _atom_site_occupancy
  Ho  Ho0  1  0.329361  0.670639  0.436579  1
  Ho  Ho1  1  0.667173  0.332827  0.565458  1
  Ho  Ho2  1  0.667173  0.332827  0.934542  1
  Ho  Ho3  1  0.329361  0.670639  0.063421  1
  Cr  Cr4  1  0.174512  0.825488  0.750000  1
  Re  Re5  1  0.835466  0.164534  0.250000  1
  Os  Os6  1  0.999059  0.000941  0.504935  1
  Os  Os7  1  0.999059  0.000941  0.995065  1
  Os  Os8  1  0.828191  0.652410  0.250000  1
  Os  Os9  1  0.347590  0.171809  0.250000  1
  Os  Os10  1  0.171008  0.347952  0.750000  1
  Os  Os11  1  0.652048  0.828992  0.750000  1
