# generated using pymatgen
data_Tb11TmCo4
_symmetry_space_group_name_H-M   'P 1'
_cell_length_a   6.22558659
_cell_length_b   6.94524016
_cell_length_c   9.54875755
_cell_angle_alpha   89.99507864
_cell_angle_beta   89.81278659
_cell_angle_gamma   89.97554124
_symmetry_Int_Tables_number   1
_chemical_formula_structural   Tb11TmCo4
_chemical_formula_sum   'Tb11 Tm1 Co4'
_cell_volume   412.86878816
_cell_formula_units_Z   1
loop_
 _symmetry_equiv_pos_site_id
 _symmetry_equiv_pos_as_xyz
  1  'x, y, z'
loop_
 _atom_site_type_symbol
 _atom_site_label
 _atom_site_symmetry_multiplicity
 _atom_site_fract_x
 _atom_site_fract_y
 _atom_site_fract_z
 _atom_site_occupancy
  Tb  Tb0  1  0.174529  0.174231  0.431622  1
  Tb  Tb1  1  0.674688  0.325976  0.569102  1
  Tb  Tb2  1  0.823507  0.825067  0.933015  1
  Tb  Tb3  1  0.674703  0.326296  0.932788  1
  Tb  Tb4  1  0.823872  0.824651  0.569117  1
  Tb  Tb5  1  0.324222  0.674587  0.429390  1
  Tb  Tb6  1  0.175848  0.174818  0.068124  1
  Tb  Tb7  1  0.859314  0.545724  0.248704  1
  Tb  Tb8  1  0.640567  0.043655  0.249494  1
  Tb  Tb9  1  0.142558  0.456165  0.750998  1
  Tb  Tb10  1  0.357342  0.954741  0.750869  1
  Tm  Tm11  1  0.325593  0.675025  0.068676  1
  Co  Co12  1  0.053455  0.886946  0.247760  1
  Co  Co13  1  0.450652  0.388182  0.247118  1
  Co  Co14  1  0.949679  0.111746  0.749428  1
  Co  Co15  1  0.549468  0.612191  0.753795  1
