# generated using pymatgen
data_Tb4Yb2Si24IrOs7
_symmetry_space_group_name_H-M   'P 1'
_cell_length_a   10.12963649
_cell_length_b   10.12963488
_cell_length_c   8.17488053
_cell_angle_alpha   89.93598748
_cell_angle_beta   89.93598391
_cell_angle_gamma   132.37506812
_symmetry_Int_Tables_number   1
_chemical_formula_structural   Tb4Yb2Si24IrOs7
_chemical_formula_sum   'Tb4 Yb2 Si24 Ir1 Os7'
_cell_volume   619.67521676
_cell_formula_units_Z   1
loop_
 _symmetry_equiv_pos_site_id
 _symmetry_equiv_pos_as_xyz
  1  'x, y, z'
loop_
 _atom_site_type_symbol
 _atom_site_label
 _atom_site_symmetry_multiplicity
 _atom_site_fract_x
 _atom_site_fract_y
 _atom_site_fract_z
 _atom_site_occupancy
  Tb  Tb0  1  0.502187  0.000130  0.748876  1
  Tb  Tb1  1  0.998327  0.498226  0.251437  1
  Tb  Tb2  1  0.498226  0.998327  0.251437  1
  Tb  Tb3  1  0.000130  0.502187  0.748876  1
  Yb  Yb4  1  0.499248  0.499248  0.499304  1
  Yb  Yb5  1  0.000907  0.000907  0.000901  1
  Si  Si6  1  0.796761  0.202534  0.499906  1
  Si  Si7  1  0.296942  0.703029  0.000075  1
  Si  Si8  1  0.202534  0.796761  0.499906  1
  Si  Si9  1  0.703029  0.296942  0.000075  1
  Si  Si10  1  0.331675  0.331675  0.831844  1
  Si  Si11  1  0.669194  0.669194  0.167637  1
  Si  Si12  1  0.169402  0.169402  0.331725  1
  Si  Si13  1  0.833996  0.833996  0.665137  1
  Si  Si14  1  0.121334  0.889104  0.729964  1
  Si  Si15  1  0.111293  0.877904  0.269667  1
  Si  Si16  1  0.608685  0.375538  0.230557  1
  Si  Si17  1  0.620785  0.386851  0.769677  1
  Si  Si18  1  0.877904  0.111293  0.269667  1
  Si  Si19  1  0.889104  0.121334  0.729964  1
  Si  Si20  1  0.386851  0.620785  0.769677  1
  Si  Si21  1  0.375538  0.608685  0.230557  1
  Si  Si22  1  0.346410  0.114119  0.503957  1
  Si  Si23  1  0.884996  0.653583  0.495732  1
  Si  Si24  1  0.385994  0.153162  0.008047  1
  Si  Si25  1  0.847286  0.613766  0.997600  1
  Si  Si26  1  0.653583  0.884996  0.495732  1
  Si  Si27  1  0.114119  0.346410  0.503957  1
  Si  Si28  1  0.613766  0.847286  0.997600  1
  Si  Si29  1  0.153162  0.385994  0.008047  1
  Ir  Ir30  1  0.628079  0.628079  0.871248  1
  Os  Os31  1  0.670801  0.329406  0.500032  1
  Os  Os32  1  0.171153  0.829375  0.998857  1
  Os  Os33  1  0.329406  0.670801  0.500032  1
  Os  Os34  1  0.829375  0.171153  0.998857  1
  Os  Os35  1  0.126749  0.126749  0.625910  1
  Os  Os36  1  0.875335  0.875335  0.372344  1
  Os  Os37  1  0.375736  0.375736  0.125178  1
