# generated using pymatgen
data_Hf17Si16W3
_symmetry_space_group_name_H-M   'P 1'
_cell_length_a   6.96959422
_cell_length_b   6.96959422
_cell_length_c   12.75681923
_cell_angle_alpha   90.11672256
_cell_angle_beta   89.88327744
_cell_angle_gamma   89.90117959
_symmetry_Int_Tables_number   1
_chemical_formula_structural   Hf17Si16W3
_chemical_formula_sum   'Hf17 Si16 W3'
_cell_volume   619.66210340
_cell_formula_units_Z   1
loop_
 _symmetry_equiv_pos_site_id
 _symmetry_equiv_pos_as_xyz
  1  'x, y, z'
loop_
 _atom_site_type_symbol
 _atom_site_label
 _atom_site_symmetry_multiplicity
 _atom_site_fract_x
 _atom_site_fract_y
 _atom_site_fract_z
 _atom_site_occupancy
  Hf  Hf0  1  0.174820  0.174820  0.000000  1
  Hf  Hf1  1  0.496683  0.154902  0.529196  1
  Hf  Hf2  1  0.503803  0.846523  0.031590  1
  Hf  Hf3  1  0.654354  0.001692  0.282049  1
  Hf  Hf4  1  0.346759  0.995660  0.780097  1
  Hf  Hf5  1  0.846523  0.503803  0.968410  1
  Hf  Hf6  1  0.154902  0.496683  0.470804  1
  Hf  Hf7  1  0.001692  0.654354  0.717951  1
  Hf  Hf8  1  0.995660  0.346759  0.219903  1
  Hf  Hf9  1  0.498154  0.355858  0.127221  1
  Hf  Hf10  1  0.502371  0.645040  0.625599  1
  Hf  Hf11  1  0.853907  0.999958  0.873284  1
  Hf  Hf12  1  0.145178  0.995496  0.377226  1
  Hf  Hf13  1  0.645040  0.502371  0.374401  1
  Hf  Hf14  1  0.355858  0.498154  0.872779  1
  Hf  Hf15  1  0.999958  0.853907  0.126716  1
  Hf  Hf16  1  0.995496  0.145178  0.622774  1
  Si  Si17  1  0.795261  0.146780  0.071372  1
  Si  Si18  1  0.202164  0.852537  0.572003  1
  Si  Si19  1  0.646854  0.702208  0.821776  1
  Si  Si20  1  0.352429  0.297092  0.322632  1
  Si  Si21  1  0.852537  0.202164  0.427997  1
  Si  Si22  1  0.146780  0.795261  0.928628  1
  Si  Si23  1  0.702208  0.646854  0.178224  1
  Si  Si24  1  0.297092  0.352429  0.677368  1
  Si  Si25  1  0.551421  0.199121  0.933138  1
  Si  Si26  1  0.454678  0.802171  0.434534  1
  Si  Si27  1  0.697112  0.953475  0.683174  1
  Si  Si28  1  0.305002  0.043195  0.185755  1
  Si  Si29  1  0.802171  0.454678  0.565466  1
  Si  Si30  1  0.199121  0.551421  0.066862  1
  Si  Si31  1  0.953475  0.697112  0.316826  1
  Si  Si32  1  0.043195  0.305002  0.814245  1
  W  W33  1  0.675617  0.326293  0.748025  1
  W  W34  1  0.326293  0.675617  0.251975  1
  W  W35  1  0.825431  0.825431  0.500000  1
