# generated using pymatgen
data_TbGd8Mg(SiB4)4
_symmetry_space_group_name_H-M   'P 1'
_cell_length_a   7.23012100
_cell_length_b   7.23012100
_cell_length_c   8.11380300
_cell_angle_alpha   90.00000000
_cell_angle_beta   90.00000000
_cell_angle_gamma   90.00000000
_symmetry_Int_Tables_number   1
_chemical_formula_structural   TbGd8Mg(SiB4)4
_chemical_formula_sum   'Tb1 Gd8 Mg1 Si4 B16'
_cell_volume   424.14620935
_cell_formula_units_Z   1
loop_
 _symmetry_equiv_pos_site_id
 _symmetry_equiv_pos_as_xyz
  1  'x, y, z'
loop_
 _atom_site_type_symbol
 _atom_site_label
 _atom_site_symmetry_multiplicity
 _atom_site_fract_x
 _atom_site_fract_y
 _atom_site_fract_z
 _atom_site_occupancy
  Tb  Tb0  1  0.500000  0.500000  0.500000  1
  Gd  Gd1  1  0.682892  0.180208  0.229366  1
  Gd  Gd2  1  0.317108  0.819792  0.770634  1
  Gd  Gd3  1  0.317108  0.819792  0.229366  1
  Gd  Gd4  1  0.819792  0.682892  0.229366  1
  Gd  Gd5  1  0.819792  0.682892  0.770634  1
  Gd  Gd6  1  0.682892  0.180208  0.770634  1
  Gd  Gd7  1  0.180208  0.317108  0.770634  1
  Gd  Gd8  1  0.180208  0.317108  0.229366  1
  Mg  Mg9  1  0.000000  0.000000  0.500000  1
  Si  Si10  1  0.113867  0.616706  0.500000  1
  Si  Si11  1  0.886133  0.383294  0.500000  1
  Si  Si12  1  0.383294  0.113867  0.500000  1
  Si  Si13  1  0.616706  0.886133  0.500000  1
  B  B14  1  0.174060  0.038787  0.000000  1
  B  B15  1  0.825940  0.961213  0.000000  1
  B  B16  1  0.961213  0.174060  0.000000  1
  B  B17  1  0.327358  0.539743  0.000000  1
  B  B18  1  0.038787  0.825940  0.000000  1
  B  B19  1  0.672642  0.460257  0.000000  1
  B  B20  1  0.539743  0.672642  0.000000  1
  B  B21  1  0.460257  0.327358  0.000000  1
  B  B22  1  0.089787  0.588895  0.000000  1
  B  B23  1  0.910213  0.411105  0.000000  1
  B  B24  1  0.411105  0.089787  0.000000  1
  B  B25  1  0.588895  0.910213  0.000000  1
  B  B26  1  0.000000  0.000000  0.155731  1
  B  B27  1  0.000000  0.000000  0.844269  1
  B  B28  1  0.500000  0.500000  0.840249  1
  B  B29  1  0.500000  0.500000  0.159751  1
