# generated using pymatgen
data_Ba2Sr(TbSn2)2
_symmetry_space_group_name_H-M   'P 1'
_cell_length_a   8.26626200
_cell_length_b   8.78991000
_cell_length_c   16.84343700
_cell_angle_alpha   90.00000000
_cell_angle_beta   90.00000000
_cell_angle_gamma   90.00000000
_symmetry_Int_Tables_number   1
_chemical_formula_structural   Ba2Sr(TbSn2)2
_chemical_formula_sum   'Ba8 Sr4 Tb8 Sn16'
_cell_volume   1223.83906282
_cell_formula_units_Z   4
loop_
 _symmetry_equiv_pos_site_id
 _symmetry_equiv_pos_as_xyz
  1  'x, y, z'
loop_
 _atom_site_type_symbol
 _atom_site_label
 _atom_site_symmetry_multiplicity
 _atom_site_fract_x
 _atom_site_fract_y
 _atom_site_fract_z
 _atom_site_occupancy
  Ba  Ba0  1  0.506017  0.675279  0.594438  1
  Ba  Ba1  1  0.006017  0.824721  0.905562  1
  Ba  Ba2  1  0.493983  0.324721  0.094438  1
  Ba  Ba3  1  0.993983  0.175279  0.405562  1
  Ba  Ba4  1  0.493983  0.324721  0.405562  1
  Ba  Ba5  1  0.993983  0.175279  0.094438  1
  Ba  Ba6  1  0.506017  0.675279  0.905562  1
  Ba  Ba7  1  0.006017  0.824721  0.594438  1
  Sr  Sr8  1  0.832346  0.513017  0.750000  1
  Sr  Sr9  1  0.332346  0.986983  0.750000  1
  Sr  Sr10  1  0.167654  0.486983  0.250000  1
  Sr  Sr11  1  0.667654  0.013017  0.250000  1
  Tb  Tb12  1  0.671955  0.171253  0.622208  1
  Tb  Tb13  1  0.171955  0.328747  0.877792  1
  Tb  Tb14  1  0.328045  0.828747  0.122208  1
  Tb  Tb15  1  0.828045  0.671253  0.377792  1
  Tb  Tb16  1  0.328045  0.828747  0.377792  1
  Tb  Tb17  1  0.828045  0.671253  0.122208  1
  Tb  Tb18  1  0.671955  0.171253  0.877792  1
  Tb  Tb19  1  0.171955  0.328747  0.622208  1
  Sn  Sn20  1  0.656775  0.956063  0.460942  1
  Sn  Sn21  1  0.156775  0.543937  0.039058  1
  Sn  Sn22  1  0.343225  0.043937  0.960942  1
  Sn  Sn23  1  0.843225  0.456063  0.539058  1
  Sn  Sn24  1  0.343225  0.043937  0.539058  1
  Sn  Sn25  1  0.843225  0.456063  0.960942  1
  Sn  Sn26  1  0.656775  0.956063  0.039058  1
  Sn  Sn27  1  0.156775  0.543937  0.460942  1
  Sn  Sn28  1  0.465202  0.359941  0.750000  1
  Sn  Sn29  1  0.965202  0.140059  0.750000  1
  Sn  Sn30  1  0.534798  0.640059  0.250000  1
  Sn  Sn31  1  0.034798  0.859941  0.250000  1
  Sn  Sn32  1  0.719953  0.897538  0.750000  1
  Sn  Sn33  1  0.219953  0.602462  0.750000  1
  Sn  Sn34  1  0.280047  0.102462  0.250000  1
  Sn  Sn35  1  0.780047  0.397538  0.250000  1
