# generated using pymatgen
data_ThZnSiH
_symmetry_space_group_name_H-M   'P 1'
_cell_length_a   4.14586600
_cell_length_b   4.14589888
_cell_length_c   8.79592300
_cell_angle_alpha   90.00047374
_cell_angle_beta   90.00075174
_cell_angle_gamma   59.99885970
_symmetry_Int_Tables_number   1
_chemical_formula_structural   ThZnSiH
_chemical_formula_sum   'Th2 Zn2 Si2 H2'
_cell_volume   130.93056049
_cell_formula_units_Z   2
loop_
 _symmetry_equiv_pos_site_id
 _symmetry_equiv_pos_as_xyz
  1  'x, y, z'
loop_
 _atom_site_type_symbol
 _atom_site_label
 _atom_site_symmetry_multiplicity
 _atom_site_fract_x
 _atom_site_fract_y
 _atom_site_fract_z
 _atom_site_occupancy
  Th  Th0  1  0.000001  0.000000  0.500001  1
  Th  Th1  1  0.000000  0.999999  0.000000  1
  Zn  Zn2  1  0.333331  0.333331  0.743676  1
  Zn  Zn3  1  0.666669  0.666670  0.256324  1
  Si  Si4  1  0.333330  0.333330  0.273469  1
  Si  Si5  1  0.666669  0.666669  0.726530  1
  H  H6  1  0.333335  0.333332  0.963091  1
  H  H7  1  0.666665  0.666668  0.036910  1
