# generated using pymatgen
data_Er12Co8Si7Tc
_symmetry_space_group_name_H-M   'P 1'
_cell_length_a   5.47465100
_cell_length_b   7.61508916
_cell_length_c   12.56904035
_cell_angle_alpha   90.14641023
_cell_angle_beta   90.00000000
_cell_angle_gamma   90.00000000
_symmetry_Int_Tables_number   1
_chemical_formula_structural   Er12Co8Si7Tc
_chemical_formula_sum   'Er12 Co8 Si7 Tc1'
_cell_volume   524.00102193
_cell_formula_units_Z   1
loop_
 _symmetry_equiv_pos_site_id
 _symmetry_equiv_pos_as_xyz
  1  'x, y, z'
loop_
 _atom_site_type_symbol
 _atom_site_label
 _atom_site_symmetry_multiplicity
 _atom_site_fract_x
 _atom_site_fract_y
 _atom_site_fract_z
 _atom_site_occupancy
  Er  Er0  1  0.633010  0.251697  0.249325  1
  Er  Er1  1  0.367491  0.749047  0.747885  1
  Er  Er2  1  0.367491  0.750953  0.252115  1
  Er  Er3  1  0.633010  0.248303  0.750675  1
  Er  Er4  1  0.129543  0.390988  0.101548  1
  Er  Er5  1  0.861391  0.604124  0.897779  1
  Er  Er6  1  0.857421  0.604195  0.600935  1
  Er  Er7  1  0.857421  0.895805  0.399065  1
  Er  Er8  1  0.142959  0.393969  0.398136  1
  Er  Er9  1  0.142959  0.106031  0.601864  1
  Er  Er10  1  0.129543  0.109012  0.898452  1
  Er  Er11  1  0.861391  0.895876  0.102221  1
  Co  Co12  1  0.379662  0.024044  0.087212  1
  Co  Co13  1  0.624900  0.966795  0.911779  1
  Co  Co14  1  0.632667  0.973290  0.587092  1
  Co  Co15  1  0.632667  0.526710  0.412908  1
  Co  Co16  1  0.367554  0.024776  0.413121  1
  Co  Co17  1  0.367554  0.475224  0.586879  1
  Co  Co18  1  0.379662  0.475956  0.912788  1
  Co  Co19  1  0.624900  0.533205  0.088221  1
  Si  Si20  1  0.156840  0.098817  0.250929  1
  Si  Si21  1  0.846665  0.899253  0.748323  1
  Si  Si22  1  0.846665  0.600747  0.251677  1
  Si  Si23  1  0.156840  0.401183  0.749071  1
  Si  Si24  1  0.378317  0.750000  0.000000  1
  Si  Si25  1  0.389062  0.750000  0.500000  1
  Si  Si26  1  0.610232  0.250000  0.500000  1
  Tc  Tc27  1  0.622180  0.250000  0.000000  1
