# generated using pymatgen
data_La4Zn4Pt3Rh7
_symmetry_space_group_name_H-M   'P 1'
_cell_length_a   12.91078398
_cell_length_b   12.91596640
_cell_length_c   12.91078503
_cell_angle_alpha   24.73759185
_cell_angle_beta   24.85717762
_cell_angle_gamma   24.73759198
_symmetry_Int_Tables_number   1
_chemical_formula_structural   La4Zn4Pt3Rh7
_chemical_formula_sum   'La4 Zn4 Pt3 Rh7'
_cell_volume   332.57691513
_cell_formula_units_Z   1
loop_
 _symmetry_equiv_pos_site_id
 _symmetry_equiv_pos_as_xyz
  1  'x, y, z'
loop_
 _atom_site_type_symbol
 _atom_site_label
 _atom_site_symmetry_multiplicity
 _atom_site_fract_x
 _atom_site_fract_y
 _atom_site_fract_z
 _atom_site_occupancy
  La  La0  1  0.951145  0.949881  0.951145  1
  La  La1  1  0.049854  0.050785  0.049854  1
  La  La2  1  0.853375  0.851989  0.853375  1
  La  La3  1  0.145066  0.146004  0.145066  1
  Zn  Zn4  1  0.722985  0.717673  0.722985  1
  Zn  Zn5  1  0.275234  0.286650  0.275234  1
  Zn  Zn6  1  0.616519  0.602655  0.616519  1
  Zn  Zn7  1  0.387187  0.391590  0.387187  1
  Pt  Pt8  1  0.501283  0.496301  0.501283  1
  Pt  Pt9  1  0.499935  0.999846  0.499935  1
  Pt  Pt10  1  0.388999  0.896325  0.388999  1
  Rh  Rh11  1  0.499596  0.500032  0.000513  1
  Rh  Rh12  1  0.000513  0.500032  0.499596  1
  Rh  Rh13  1  0.388374  0.392375  0.892551  1
  Rh  Rh14  1  0.892551  0.392375  0.388374  1
  Rh  Rh15  1  0.610858  0.105227  0.610858  1
  Rh  Rh16  1  0.610368  0.610129  0.106156  1
  Rh  Rh17  1  0.106156  0.610129  0.610368  1
