# generated using pymatgen
data_NaCdNi2F7
_symmetry_space_group_name_H-M   'P 1'
_cell_length_a   7.31899899
_cell_length_b   7.31899820
_cell_length_c   7.31899812
_cell_angle_alpha   120.65293167
_cell_angle_beta   119.48121905
_cell_angle_gamma   89.88686849
_symmetry_Int_Tables_number   1
_chemical_formula_structural   NaCdNi2F7
_chemical_formula_sum   'Na2 Cd2 Ni4 F14'
_cell_volume   276.91188320
_cell_formula_units_Z   2
loop_
 _symmetry_equiv_pos_site_id
 _symmetry_equiv_pos_as_xyz
  1  'x, y, z'
loop_
 _atom_site_type_symbol
 _atom_site_label
 _atom_site_symmetry_multiplicity
 _atom_site_fract_x
 _atom_site_fract_y
 _atom_site_fract_z
 _atom_site_occupancy
  Na  Na0  1  0.500000  0.000000  0.000000  1
  Na  Na1  1  0.500000  0.500000  0.500000  1
  Cd  Cd2  1  0.500000  0.000000  0.500000  1
  Cd  Cd3  1  0.000000  0.000000  0.000000  1
  Ni  Ni4  1  0.000000  0.500000  0.000000  1
  Ni  Ni5  1  0.000000  0.000000  0.500000  1
  Ni  Ni6  1  0.000000  0.500000  0.500000  1
  Ni  Ni7  1  0.500000  0.500000  0.000000  1
  F  F8  1  0.330738  0.589903  0.166854  1
  F  F9  1  0.923049  0.163884  0.333146  1
  F  F10  1  0.326988  0.576988  0.750000  1
  F  F11  1  0.916034  0.166034  0.750000  1
  F  F12  1  0.330738  0.163884  0.740836  1
  F  F13  1  0.923049  0.589903  0.759164  1
  F  F14  1  0.669262  0.410097  0.833146  1
  F  F15  1  0.076951  0.836116  0.666854  1
  F  F16  1  0.673012  0.423012  0.250000  1
  F  F17  1  0.083966  0.833966  0.250000  1
  F  F18  1  0.669262  0.836116  0.259164  1
  F  F19  1  0.076951  0.410097  0.240836  1
  F  F20  1  0.632577  0.882577  0.750000  1
  F  F21  1  0.367423  0.117423  0.250000  1
