# generated using pymatgen
data_PrNdSc3Si7Pt9
_symmetry_space_group_name_H-M   'P 1'
_cell_length_a   10.09334600
_cell_length_b   10.09334596
_cell_length_c   4.02317400
_cell_angle_alpha   90.00000000
_cell_angle_beta   90.00000000
_cell_angle_gamma   120.00000013
_symmetry_Int_Tables_number   1
_chemical_formula_structural   PrNdSc3Si7Pt9
_chemical_formula_sum   'Pr1 Nd1 Sc3 Si7 Pt9'
_cell_volume   354.95211450
_cell_formula_units_Z   1
loop_
 _symmetry_equiv_pos_site_id
 _symmetry_equiv_pos_as_xyz
  1  'x, y, z'
loop_
 _atom_site_type_symbol
 _atom_site_label
 _atom_site_symmetry_multiplicity
 _atom_site_fract_x
 _atom_site_fract_y
 _atom_site_fract_z
 _atom_site_occupancy
  Pr  Pr0  1  0.000000  0.000000  0.000000  1
  Nd  Nd1  1  0.333333  0.666667  0.500000  1
  Sc  Sc2  1  0.893552  0.453400  0.500000  1
  Sc  Sc3  1  0.559848  0.106448  0.500000  1
  Sc  Sc4  1  0.546600  0.440152  0.500000  1
  Si  Si5  1  0.249804  0.199347  0.500000  1
  Si  Si6  1  0.800653  0.050458  0.500000  1
  Si  Si7  1  0.949542  0.750196  0.500000  1
  Si  Si8  1  0.558836  0.647118  0.000000  1
  Si  Si9  1  0.352882  0.911717  0.000000  1
  Si  Si10  1  0.088283  0.441164  0.000000  1
  Si  Si11  1  0.666667  0.333333  0.000000  1
  Pt  Pt12  1  0.221636  0.936612  0.500000  1
  Pt  Pt13  1  0.063388  0.285024  0.500000  1
  Pt  Pt14  1  0.714976  0.778364  0.500000  1
  Pt  Pt15  1  0.313297  0.410012  0.000000  1
  Pt  Pt16  1  0.589988  0.903285  0.000000  1
  Pt  Pt17  1  0.096715  0.686703  0.000000  1
  Pt  Pt18  1  0.385792  0.172101  0.000000  1
  Pt  Pt19  1  0.827899  0.213692  0.000000  1
  Pt  Pt20  1  0.786308  0.614208  0.000000  1
