# generated using pymatgen
data_TmNiAsH
_symmetry_space_group_name_H-M   'P 1'
_cell_length_a   3.98700500
_cell_length_b   7.98649600
_cell_length_c   6.98070100
_cell_angle_alpha   90.00000000
_cell_angle_beta   90.00000000
_cell_angle_gamma   90.00000000
_symmetry_Int_Tables_number   1
_chemical_formula_structural   TmNiAsH
_chemical_formula_sum   'Tm4 Ni4 As4 H4'
_cell_volume   222.28087378
_cell_formula_units_Z   4
loop_
 _symmetry_equiv_pos_site_id
 _symmetry_equiv_pos_as_xyz
  1  'x, y, z'
loop_
 _atom_site_type_symbol
 _atom_site_label
 _atom_site_symmetry_multiplicity
 _atom_site_fract_x
 _atom_site_fract_y
 _atom_site_fract_z
 _atom_site_occupancy
  Tm  Tm0  1  0.750000  0.507437  0.759065  1
  Tm  Tm1  1  0.250000  0.492563  0.240935  1
  Tm  Tm2  1  0.250000  0.992563  0.259065  1
  Tm  Tm3  1  0.750000  0.007437  0.740935  1
  Ni  Ni4  1  0.750000  0.235408  0.410571  1
  Ni  Ni5  1  0.250000  0.764592  0.589429  1
  Ni  Ni6  1  0.250000  0.264592  0.910571  1
  Ni  Ni7  1  0.750000  0.735408  0.089429  1
  As  As8  1  0.750000  0.230551  0.078070  1
  As  As9  1  0.250000  0.769449  0.921930  1
  As  As10  1  0.250000  0.269449  0.578070  1
  As  As11  1  0.750000  0.730551  0.421930  1
  H  H12  1  0.250000  0.962007  0.581454  1
  H  H13  1  0.750000  0.037993  0.418546  1
  H  H14  1  0.750000  0.537993  0.081454  1
  H  H15  1  0.250000  0.462007  0.918546  1
