# generated using pymatgen
data_Tb17Er2MgPb16
_symmetry_space_group_name_H-M   'P 1'
_cell_length_a   8.18272400
_cell_length_b   8.26488421
_cell_length_c   15.73897100
_cell_angle_alpha   90.00000000
_cell_angle_beta   90.00000000
_cell_angle_gamma   90.07021866
_symmetry_Int_Tables_number   1
_chemical_formula_structural   Tb17Er2MgPb16
_chemical_formula_sum   'Tb17 Er2 Mg1 Pb16'
_cell_volume   1064.41426257
_cell_formula_units_Z   1
loop_
 _symmetry_equiv_pos_site_id
 _symmetry_equiv_pos_as_xyz
  1  'x, y, z'
loop_
 _atom_site_type_symbol
 _atom_site_label
 _atom_site_symmetry_multiplicity
 _atom_site_fract_x
 _atom_site_fract_y
 _atom_site_fract_z
 _atom_site_occupancy
  Tb  Tb0  1  0.383203  0.842983  0.879135  1
  Tb  Tb1  1  0.875073  0.661544  0.620546  1
  Tb  Tb2  1  0.623457  0.159604  0.379040  1
  Tb  Tb3  1  0.123438  0.342431  0.120733  1
  Tb  Tb4  1  0.623457  0.159604  0.120960  1
  Tb  Tb5  1  0.123438  0.342431  0.379267  1
  Tb  Tb6  1  0.383203  0.842983  0.620865  1
  Tb  Tb7  1  0.875073  0.661544  0.879454  1
  Tb  Tb8  1  0.536191  0.319319  0.901561  1
  Tb  Tb9  1  0.032418  0.174521  0.598335  1
  Tb  Tb10  1  0.464516  0.676606  0.400080  1
  Tb  Tb11  1  0.964642  0.824174  0.099602  1
  Tb  Tb12  1  0.464516  0.676606  0.099920  1
  Tb  Tb13  1  0.964642  0.824174  0.400398  1
  Tb  Tb14  1  0.536191  0.319319  0.598439  1
  Tb  Tb15  1  0.032418  0.174521  0.901665  1
  Tb  Tb16  1  0.206537  0.504773  0.750000  1
  Er  Er17  1  0.791480  0.495857  0.250000  1
  Er  Er18  1  0.291368  0.004408  0.250000  1
  Mg  Mg19  1  0.708681  0.996472  0.750000  1
  Pb  Pb20  1  0.281789  0.033334  0.043367  1
  Pb  Pb21  1  0.781547  0.467612  0.456701  1
  Pb  Pb22  1  0.718404  0.964959  0.541580  1
  Pb  Pb23  1  0.218768  0.532845  0.956170  1
  Pb  Pb24  1  0.718404  0.964959  0.958420  1
  Pb  Pb25  1  0.218768  0.532845  0.543830  1
  Pb  Pb26  1  0.281789  0.033334  0.456633  1
  Pb  Pb27  1  0.781547  0.467612  0.043299  1
  Pb  Pb28  1  0.574213  0.619994  0.750000  1
  Pb  Pb29  1  0.069685  0.879508  0.750000  1
  Pb  Pb30  1  0.428602  0.374856  0.250000  1
  Pb  Pb31  1  0.928521  0.124792  0.250000  1
  Pb  Pb32  1  0.342453  0.152303  0.750000  1
  Pb  Pb33  1  0.845695  0.345551  0.750000  1
  Pb  Pb34  1  0.653114  0.846657  0.250000  1
  Pb  Pb35  1  0.152751  0.654960  0.250000  1
