# generated using pymatgen
data_CaLaB5Os3
_symmetry_space_group_name_H-M   'P 1'
_cell_length_a   5.75748513
_cell_length_b   5.71474740
_cell_length_c   8.11069926
_cell_angle_alpha   57.14770000
_cell_angle_beta   57.49892682
_cell_angle_gamma   41.69172862
_symmetry_Int_Tables_number   1
_chemical_formula_structural   CaLaB5Os3
_chemical_formula_sum   'Ca1 La1 B5 Os3'
_cell_volume   144.87420291
_cell_formula_units_Z   1
loop_
 _symmetry_equiv_pos_site_id
 _symmetry_equiv_pos_as_xyz
  1  'x, y, z'
loop_
 _atom_site_type_symbol
 _atom_site_label
 _atom_site_symmetry_multiplicity
 _atom_site_fract_x
 _atom_site_fract_y
 _atom_site_fract_z
 _atom_site_occupancy
  Ca  Ca0  1  0.083860  0.600092  0.251038  1
  La  La1  1  0.390373  0.938882  0.735297  1
  B  B2  1  0.736254  0.260800  0.003543  1
  B  B3  1  0.533850  0.522072  0.381797  1
  B  B4  1  0.475666  0.470328  0.621831  1
  B  B5  1  0.079949  0.624517  0.813930  1
  B  B6  1  0.371822  0.917675  0.188945  1
  Os  Os7  1  0.009502  0.987983  0.499564  1
  Os  Os8  1  0.611635  0.122828  0.905174  1
  Os  Os9  1  0.873362  0.388551  0.098880  1
