# generated using pymatgen
data_ErTaNb5Cl18
_symmetry_space_group_name_H-M   'P 1'
_cell_length_a   10.14169925
_cell_length_b   10.14490951
_cell_length_c   10.14154503
_cell_angle_alpha   55.99772916
_cell_angle_beta   55.98326878
_cell_angle_gamma   55.97307025
_symmetry_Int_Tables_number   1
_chemical_formula_structural   ErTaNb5Cl18
_chemical_formula_sum   'Er1 Ta1 Nb5 Cl18'
_cell_volume   669.17729898
_cell_formula_units_Z   1
loop_
 _symmetry_equiv_pos_site_id
 _symmetry_equiv_pos_as_xyz
  1  'x, y, z'
loop_
 _atom_site_type_symbol
 _atom_site_label
 _atom_site_symmetry_multiplicity
 _atom_site_fract_x
 _atom_site_fract_y
 _atom_site_fract_z
 _atom_site_occupancy
  Er  Er0  1  0.999981  0.999900  0.999881  1
  Ta  Ta1  1  0.407671  0.299552  0.650549  1
  Nb  Nb2  1  0.349329  0.592651  0.700622  1
  Nb  Nb3  1  0.700929  0.349466  0.592238  1
  Nb  Nb4  1  0.299307  0.651022  0.407424  1
  Nb  Nb5  1  0.650904  0.407806  0.299043  1
  Nb  Nb6  1  0.592774  0.701347  0.348771  1
  Cl  Cl7  1  0.566651  0.159901  0.444701  1
  Cl  Cl8  1  0.223746  0.368255  0.908651  1
  Cl  Cl9  1  0.910435  0.222355  0.370206  1
  Cl  Cl10  1  0.370045  0.910345  0.222680  1
  Cl  Cl11  1  0.777499  0.629796  0.089589  1
  Cl  Cl12  1  0.089423  0.777400  0.630017  1
  Cl  Cl13  1  0.704923  0.958724  0.158872  1
  Cl  Cl14  1  0.958220  0.158651  0.705242  1
  Cl  Cl15  1  0.159156  0.704949  0.958361  1
  Cl  Cl16  1  0.296419  0.044826  0.838650  1
  Cl  Cl17  1  0.041798  0.840697  0.294963  1
  Cl  Cl18  1  0.840868  0.294487  0.042046  1
  Cl  Cl19  1  0.558129  0.431095  0.840462  1
  Cl  Cl20  1  0.161604  0.439121  0.570533  1
  Cl  Cl21  1  0.441718  0.568692  0.159724  1
  Cl  Cl22  1  0.431140  0.840240  0.558297  1
  Cl  Cl23  1  0.840314  0.558147  0.431275  1
  Cl  Cl24  1  0.627020  0.090576  0.777203  1
