# generated using pymatgen
data_Ho8V(B8Ir)3
_symmetry_space_group_name_H-M   'P 1'
_cell_length_a   3.62595700
_cell_length_b   9.16825488
_cell_length_c   11.53051547
_cell_angle_alpha   89.83161566
_cell_angle_beta   90.00000000
_cell_angle_gamma   90.00000000
_symmetry_Int_Tables_number   1
_chemical_formula_structural   Ho8V(B8Ir)3
_chemical_formula_sum   'Ho8 V1 B24 Ir3'
_cell_volume   383.31531832
_cell_formula_units_Z   1
loop_
 _symmetry_equiv_pos_site_id
 _symmetry_equiv_pos_as_xyz
  1  'x, y, z'
loop_
 _atom_site_type_symbol
 _atom_site_label
 _atom_site_symmetry_multiplicity
 _atom_site_fract_x
 _atom_site_fract_y
 _atom_site_fract_z
 _atom_site_occupancy
  Ho  Ho0  1  0.000000  0.325318  0.411667  1
  Ho  Ho1  1  0.000000  0.677349  0.581572  1
  Ho  Ho2  1  0.000000  0.818232  0.091348  1
  Ho  Ho3  1  0.000000  0.177610  0.915260  1
  Ho  Ho4  1  0.000000  0.942819  0.375048  1
  Ho  Ho5  1  0.000000  0.056596  0.625805  1
  Ho  Ho6  1  0.000000  0.447397  0.126741  1
  Ho  Ho7  1  0.000000  0.555762  0.872771  1
  V  V8  1  0.000000  0.637812  0.321309  1
  B  B9  1  0.500000  0.551712  0.434123  1
  B  B10  1  0.500000  0.447294  0.566378  1
  B  B11  1  0.500000  0.052286  0.066703  1
  B  B12  1  0.500000  0.946621  0.934069  1
  B  B13  1  0.500000  0.748122  0.420900  1
  B  B14  1  0.500000  0.252207  0.578887  1
  B  B15  1  0.500000  0.249091  0.079266  1
  B  B16  1  0.500000  0.750828  0.921012  1
  B  B17  1  0.500000  0.793597  0.265316  1
  B  B18  1  0.500000  0.207126  0.734586  1
  B  B19  1  0.500000  0.292662  0.233303  1
  B  B20  1  0.500000  0.708293  0.765237  1
  B  B21  1  0.500000  0.632655  0.184923  1
  B  B22  1  0.500000  0.366759  0.816047  1
  B  B23  1  0.500000  0.132810  0.314893  1
  B  B24  1  0.500000  0.867711  0.684067  1
  B  B25  1  0.500000  0.981438  0.212986  1
  B  B26  1  0.500000  0.017819  0.787414  1
  B  B27  1  0.500000  0.481786  0.286834  1
  B  B28  1  0.500000  0.517285  0.712750  1
  B  B29  1  0.500000  0.610824  0.029206  1
  B  B30  1  0.500000  0.388961  0.968984  1
  B  B31  1  0.500000  0.111436  0.469748  1
  B  B32  1  0.500000  0.890535  0.531662  1
  Ir  Ir33  1  0.000000  0.360764  0.679854  1
  Ir  Ir34  1  0.000000  0.137955  0.177595  1
  Ir  Ir35  1  0.000000  0.862529  0.821737  1
