# generated using pymatgen
data_Y13Lu3MgAg2HgRh4
_symmetry_space_group_name_H-M   'P 1'
_cell_length_a   9.53264505
_cell_length_b   9.58140823
_cell_length_c   9.58142800
_cell_angle_alpha   60.15273905
_cell_angle_beta   59.93823651
_cell_angle_gamma   59.93937264
_symmetry_Int_Tables_number   1
_chemical_formula_structural   Y13Lu3MgAg2HgRh4
_chemical_formula_sum   'Y13 Lu3 Mg1 Ag2 Hg1 Rh4'
_cell_volume   618.94713682
_cell_formula_units_Z   1
loop_
 _symmetry_equiv_pos_site_id
 _symmetry_equiv_pos_as_xyz
  1  'x, y, z'
loop_
 _atom_site_type_symbol
 _atom_site_label
 _atom_site_symmetry_multiplicity
 _atom_site_fract_x
 _atom_site_fract_y
 _atom_site_fract_z
 _atom_site_occupancy
  Y  Y0  1  0.188902  0.603704  0.603663  1
  Y  Y1  1  0.057751  0.439185  0.439123  1
  Y  Y2  1  0.437395  0.060893  0.060929  1
  Y  Y3  1  0.437597  0.060762  0.438289  1
  Y  Y4  1  0.058115  0.439276  0.059707  1
  Y  Y5  1  0.437637  0.438341  0.060721  1
  Y  Y6  1  0.058133  0.059672  0.439464  1
  Y  Y7  1  0.187403  0.812435  0.812418  1
  Y  Y8  1  0.811782  0.188085  0.188037  1
  Y  Y9  1  0.811530  0.189587  0.814209  1
  Y  Y10  1  0.186044  0.813220  0.185491  1
  Y  Y11  1  0.811457  0.814116  0.189650  1
  Y  Y12  1  0.186121  0.185449  0.813174  1
  Lu  Lu13  1  0.600582  0.597301  0.597372  1
  Lu  Lu14  1  0.597337  0.599673  0.207244  1
  Lu  Lu15  1  0.597236  0.207244  0.599668  1
  Mg  Mg16  1  0.540035  0.819758  0.819791  1
  Ag  Ag17  1  0.832215  0.836410  0.497369  1
  Ag  Ag18  1  0.832202  0.497416  0.836359  1
  Hg  Hg19  1  0.830383  0.836288  0.836293  1
  Rh  Rh20  1  0.394516  0.392746  0.392665  1
  Rh  Rh21  1  0.394989  0.396338  0.817608  1
  Rh  Rh22  1  0.395061  0.817583  0.396299  1
  Rh  Rh23  1  0.815576  0.394522  0.394458  1
