# generated using pymatgen
data_Ho16MgZn(HgRh2)2
_symmetry_space_group_name_H-M   'P 1'
_cell_length_a   9.58746625
_cell_length_b   9.56502363
_cell_length_c   9.56502373
_cell_angle_alpha   59.67421251
_cell_angle_beta   59.76504033
_cell_angle_gamma   59.76504067
_symmetry_Int_Tables_number   1
_chemical_formula_structural   Ho16MgZn(HgRh2)2
_chemical_formula_sum   'Ho16 Mg1 Zn1 Hg2 Rh4'
_cell_volume   616.50461389
_cell_formula_units_Z   1
loop_
 _symmetry_equiv_pos_site_id
 _symmetry_equiv_pos_as_xyz
  1  'x, y, z'
loop_
 _atom_site_type_symbol
 _atom_site_label
 _atom_site_symmetry_multiplicity
 _atom_site_fract_x
 _atom_site_fract_y
 _atom_site_fract_z
 _atom_site_occupancy
  Ho  Ho0  1  0.808494  0.190325  0.190325  1
  Ho  Ho1  1  0.187175  0.811955  0.811955  1
  Ho  Ho2  1  0.186915  0.811189  0.188492  1
  Ho  Ho3  1  0.809074  0.190484  0.809665  1
  Ho  Ho4  1  0.186915  0.188492  0.811189  1
  Ho  Ho5  1  0.809074  0.809665  0.190484  1
  Ho  Ho6  1  0.931921  0.564583  0.564583  1
  Ho  Ho7  1  0.562490  0.936330  0.936330  1
  Ho  Ho8  1  0.563460  0.934120  0.565108  1
  Ho  Ho9  1  0.934881  0.563366  0.937848  1
  Ho  Ho10  1  0.563460  0.565108  0.934120  1
  Ho  Ho11  1  0.934881  0.937848  0.563366  1
  Ho  Ho12  1  0.350421  0.348324  0.348324  1
  Ho  Ho13  1  0.353046  0.350068  0.950016  1
  Ho  Ho14  1  0.353046  0.950016  0.350068  1
  Ho  Ho15  1  0.939480  0.354459  0.354459  1
  Mg  Mg16  1  0.282933  0.572790  0.572790  1
  Zn  Zn17  1  0.582197  0.584588  0.584588  1
  Hg  Hg18  1  0.582192  0.586964  0.246761  1
  Hg  Hg19  1  0.582192  0.246761  0.586964  1
  Rh  Rh20  1  0.140727  0.144303  0.144303  1
  Rh  Rh21  1  0.141284  0.144332  0.571075  1
  Rh  Rh22  1  0.141284  0.571075  0.144332  1
  Rh  Rh23  1  0.572460  0.142855  0.142855  1
