# generated using pymatgen
data_Nd5Hg4PdPt
_symmetry_space_group_name_H-M   'P 1'
_cell_length_a   3.79666000
_cell_length_b   8.20764139
_cell_length_c   18.60192911
_cell_angle_alpha   89.93347068
_cell_angle_beta   90.00000000
_cell_angle_gamma   90.00000000
_symmetry_Int_Tables_number   1
_chemical_formula_structural   Nd5Hg4PdPt
_chemical_formula_sum   'Nd10 Hg8 Pd2 Pt2'
_cell_volume   579.66592566
_cell_formula_units_Z   2
loop_
 _symmetry_equiv_pos_site_id
 _symmetry_equiv_pos_as_xyz
  1  'x, y, z'
loop_
 _atom_site_type_symbol
 _atom_site_label
 _atom_site_symmetry_multiplicity
 _atom_site_fract_x
 _atom_site_fract_y
 _atom_site_fract_z
 _atom_site_occupancy
  Nd  Nd0  1  0.000000  0.115334  0.414564  1
  Nd  Nd1  1  0.000000  0.884666  0.585436  1
  Nd  Nd2  1  0.000000  0.385168  0.913771  1
  Nd  Nd3  1  0.000000  0.614832  0.086229  1
  Nd  Nd4  1  0.000000  0.237877  0.214508  1
  Nd  Nd5  1  0.000000  0.762123  0.785492  1
  Nd  Nd6  1  0.000000  0.271025  0.715319  1
  Nd  Nd7  1  0.000000  0.728975  0.284681  1
  Nd  Nd8  1  0.000000  0.000000  0.000000  1
  Nd  Nd9  1  0.000000  0.500000  0.500000  1
  Hg  Hg10  1  0.500000  0.416441  0.354177  1
  Hg  Hg11  1  0.500000  0.583559  0.645823  1
  Hg  Hg12  1  0.500000  0.076946  0.851377  1
  Hg  Hg13  1  0.500000  0.923054  0.148623  1
  Hg  Hg14  1  0.500000  0.286968  0.064465  1
  Hg  Hg15  1  0.500000  0.713032  0.935535  1
  Hg  Hg16  1  0.500000  0.209376  0.566106  1
  Hg  Hg17  1  0.500000  0.790624  0.433894  1
  Pd  Pd18  1  0.500000  0.021209  0.302884  1
  Pd  Pd19  1  0.500000  0.978791  0.697116  1
  Pt  Pt20  1  0.500000  0.478185  0.802741  1
  Pt  Pt21  1  0.500000  0.521815  0.197259  1
