# generated using pymatgen
data_CaY6Ho(B6Ru)4
_symmetry_space_group_name_H-M   'P 1'
_cell_length_a   3.66482500
_cell_length_b   9.15324253
_cell_length_c   11.54442201
_cell_angle_alpha   89.90074946
_cell_angle_beta   90.00000000
_cell_angle_gamma   90.00000000
_symmetry_Int_Tables_number   1
_chemical_formula_structural   CaY6Ho(B6Ru)4
_chemical_formula_sum   'Ca1 Y6 Ho1 B24 Ru4'
_cell_volume   387.25742556
_cell_formula_units_Z   1
loop_
 _symmetry_equiv_pos_site_id
 _symmetry_equiv_pos_as_xyz
  1  'x, y, z'
loop_
 _atom_site_type_symbol
 _atom_site_label
 _atom_site_symmetry_multiplicity
 _atom_site_fract_x
 _atom_site_fract_y
 _atom_site_fract_z
 _atom_site_occupancy
  Ca  Ca0  1  0.000000  0.322958  0.413872  1
  Y  Y1  1  0.000000  0.675662  0.585114  1
  Y  Y2  1  0.000000  0.822709  0.086216  1
  Y  Y3  1  0.000000  0.177769  0.914539  1
  Y  Y4  1  0.000000  0.944006  0.371210  1
  Y  Y5  1  0.000000  0.057839  0.628153  1
  Y  Y6  1  0.000000  0.443109  0.129271  1
  Ho  Ho7  1  0.000000  0.556286  0.872001  1
  B  B8  1  0.500000  0.554617  0.432437  1
  B  B9  1  0.500000  0.445985  0.567983  1
  B  B10  1  0.500000  0.053396  0.066662  1
  B  B11  1  0.500000  0.945593  0.932272  1
  B  B12  1  0.500000  0.748082  0.419049  1
  B  B13  1  0.500000  0.252657  0.581525  1
  B  B14  1  0.500000  0.247136  0.080411  1
  B  B15  1  0.500000  0.751860  0.919360  1
  B  B16  1  0.500000  0.791138  0.265979  1
  B  B17  1  0.500000  0.210131  0.734349  1
  B  B18  1  0.500000  0.289406  0.233110  1
  B  B19  1  0.500000  0.709340  0.766611  1
  B  B20  1  0.500000  0.632413  0.186000  1
  B  B21  1  0.500000  0.368595  0.815091  1
  B  B22  1  0.500000  0.131153  0.313358  1
  B  B23  1  0.500000  0.868225  0.685574  1
  B  B24  1  0.500000  0.983621  0.211517  1
  B  B25  1  0.500000  0.016018  0.787551  1
  B  B26  1  0.500000  0.484673  0.287680  1
  B  B27  1  0.500000  0.516170  0.713102  1
  B  B28  1  0.500000  0.608565  0.029899  1
  B  B29  1  0.500000  0.391922  0.970216  1
  B  B30  1  0.500000  0.104568  0.471011  1
  B  B31  1  0.500000  0.894054  0.529311  1
  Ru  Ru32  1  0.000000  0.639894  0.320410  1
  Ru  Ru33  1  0.000000  0.362391  0.680937  1
  Ru  Ru34  1  0.000000  0.136374  0.177016  1
  Ru  Ru35  1  0.000000  0.861683  0.821201  1
