# generated using pymatgen
data_Tb5ZrBiO12
_symmetry_space_group_name_H-M   'P 1'
_cell_length_a   6.58205808
_cell_length_b   6.55474679
_cell_length_c   6.50522947
_cell_angle_alpha   99.48838160
_cell_angle_beta   98.73376993
_cell_angle_gamma   99.03821003
_symmetry_Int_Tables_number   1
_chemical_formula_structural   Tb5ZrBiO12
_chemical_formula_sum   'Tb5 Zr1 Bi1 O12'
_cell_volume   268.79332275
_cell_formula_units_Z   1
loop_
 _symmetry_equiv_pos_site_id
 _symmetry_equiv_pos_as_xyz
  1  'x, y, z'
loop_
 _atom_site_type_symbol
 _atom_site_label
 _atom_site_symmetry_multiplicity
 _atom_site_fract_x
 _atom_site_fract_y
 _atom_site_fract_z
 _atom_site_occupancy
  Tb  Tb0  1  0.858067  0.688547  0.388278  1
  Tb  Tb1  1  0.391886  0.858016  0.690271  1
  Tb  Tb2  1  0.317327  0.606674  0.147182  1
  Tb  Tb3  1  0.139829  0.309904  0.610424  1
  Tb  Tb4  1  0.608396  0.139379  0.312093  1
  Zr  Zr5  1  0.676249  0.391644  0.852771  1
  Bi  Bi6  1  0.998212  0.000413  0.996055  1
  O  O7  1  0.438927  0.185629  0.600429  1
  O  O8  1  0.594517  0.426816  0.167379  1
  O  O9  1  0.175230  0.583385  0.434028  1
  O  O10  1  0.568413  0.820530  0.414724  1
  O  O11  1  0.435813  0.566357  0.822529  1
  O  O12  1  0.814941  0.414838  0.586335  1
  O  O13  1  0.079290  0.317033  0.954241  1
  O  O14  1  0.687024  0.071650  0.923315  1
  O  O15  1  0.050785  0.930989  0.680852  1
  O  O16  1  0.906478  0.677956  0.031472  1
  O  O17  1  0.311023  0.943054  0.073165  1
  O  O18  1  0.947591  0.067186  0.314458  1
