# generated using pymatgen
data_Ce2Tm2Al4IrRh3
_symmetry_space_group_name_H-M   'P 1'
_cell_length_a   6.80890500
_cell_length_b   4.27957200
_cell_length_c   7.93351731
_cell_angle_alpha   90.00000000
_cell_angle_beta   90.08771592
_cell_angle_gamma   90.00000000
_symmetry_Int_Tables_number   1
_chemical_formula_structural   Ce2Tm2Al4IrRh3
_chemical_formula_sum   'Ce2 Tm2 Al4 Ir1 Rh3'
_cell_volume   231.17607049
_cell_formula_units_Z   1
loop_
 _symmetry_equiv_pos_site_id
 _symmetry_equiv_pos_as_xyz
  1  'x, y, z'
loop_
 _atom_site_type_symbol
 _atom_site_label
 _atom_site_symmetry_multiplicity
 _atom_site_fract_x
 _atom_site_fract_y
 _atom_site_fract_z
 _atom_site_occupancy
  Ce  Ce0  1  0.035151  0.750000  0.824874  1
  Ce  Ce1  1  0.534767  0.750000  0.676707  1
  Tm  Tm2  1  0.961047  0.250000  0.185550  1
  Tm  Tm3  1  0.465108  0.250000  0.316005  1
  Al  Al4  1  0.864689  0.250000  0.555253  1
  Al  Al5  1  0.366453  0.250000  0.945016  1
  Al  Al6  1  0.136513  0.750000  0.433197  1
  Al  Al7  1  0.635284  0.750000  0.068087  1
  Ir  Ir8  1  0.760575  0.750000  0.381521  1
  Rh  Rh9  1  0.741444  0.250000  0.876845  1
  Rh  Rh10  1  0.241320  0.250000  0.622624  1
  Rh  Rh11  1  0.257653  0.750000  0.114321  1
