# generated using pymatgen
data_Ce2PrBi(MoO4)6
_symmetry_space_group_name_H-M   'P 1'
_cell_length_a   7.67315166
_cell_length_b   7.67281016
_cell_length_c   11.00064252
_cell_angle_alpha   89.96163671
_cell_angle_beta   89.86210340
_cell_angle_gamma   89.89916541
_symmetry_Int_Tables_number   1
_chemical_formula_structural   Ce2PrBi(MoO4)6
_chemical_formula_sum   'Ce2 Pr1 Bi1 Mo6 O24'
_cell_volume   647.65580265
_cell_formula_units_Z   1
loop_
 _symmetry_equiv_pos_site_id
 _symmetry_equiv_pos_as_xyz
  1  'x, y, z'
loop_
 _atom_site_type_symbol
 _atom_site_label
 _atom_site_symmetry_multiplicity
 _atom_site_fract_x
 _atom_site_fract_y
 _atom_site_fract_z
 _atom_site_occupancy
  Ce  Ce0  1  0.810452  0.310422  0.736721  1
  Ce  Ce1  1  0.691016  0.808525  0.263065  1
  Pr  Pr2  1  0.310475  0.189662  0.261968  1
  Bi  Bi3  1  0.195653  0.695777  0.739426  1
  Mo  Mo4  1  0.209318  0.709397  0.355839  1
  Mo  Mo5  1  0.791037  0.290759  0.355717  1
  Mo  Mo6  1  0.706860  0.791500  0.645265  1
  Mo  Mo7  1  0.291521  0.206761  0.645880  1
  Mo  Mo8  1  0.001094  0.997831  0.998233  1
  Mo  Mo9  1  0.498860  0.502805  0.998209  1
  O  O10  1  0.998540  0.226447  0.297957  1
  O  O11  1  0.000843  0.773527  0.298588  1
  O  O12  1  0.227910  0.998645  0.705671  1
  O  O13  1  0.498936  0.728026  0.705200  1
  O  O14  1  0.772759  0.998573  0.702622  1
  O  O15  1  0.498605  0.272932  0.703141  1
  O  O16  1  0.273978  0.501430  0.298620  1
  O  O17  1  0.726617  0.498931  0.298356  1
  O  O18  1  0.183955  0.045553  0.093331  1
  O  O19  1  0.816850  0.950284  0.093156  1
  O  O20  1  0.049704  0.812747  0.902958  1
  O  O21  1  0.313568  0.551774  0.903611  1
  O  O22  1  0.953231  0.183325  0.904828  1
  O  O23  1  0.683996  0.454552  0.904464  1
  O  O24  1  0.451315  0.318315  0.092348  1
  O  O25  1  0.547354  0.685356  0.094023  1
  O  O26  1  0.628834  0.129018  0.308593  1
  O  O27  1  0.371971  0.871776  0.308620  1
  O  O28  1  0.128231  0.368175  0.690957  1
  O  O29  1  0.867897  0.628345  0.690293  1
  O  O30  1  0.199207  0.699743  0.517103  1
  O  O31  1  0.801023  0.301057  0.517752  1
  O  O32  1  0.695548  0.802826  0.483257  1
  O  O33  1  0.302842  0.195206  0.484228  1
