# generated using pymatgen
data_Er2Ta3P7Rh9
_symmetry_space_group_name_H-M   'P 1'
_cell_length_a   3.91524000
_cell_length_b   9.62813474
_cell_length_c   9.62821301
_cell_angle_alpha   119.99936656
_cell_angle_beta   89.99994572
_cell_angle_gamma   90.00070345
_symmetry_Int_Tables_number   1
_chemical_formula_structural   Er2Ta3P7Rh9
_chemical_formula_sum   'Er2 Ta3 P7 Rh9'
_cell_volume   314.32551936
_cell_formula_units_Z   1
loop_
 _symmetry_equiv_pos_site_id
 _symmetry_equiv_pos_as_xyz
  1  'x, y, z'
loop_
 _atom_site_type_symbol
 _atom_site_label
 _atom_site_symmetry_multiplicity
 _atom_site_fract_x
 _atom_site_fract_y
 _atom_site_fract_z
 _atom_site_occupancy
  Er  Er0  1  0.261344  0.666670  0.333310  1
  Er  Er1  1  0.762199  0.333351  0.666675  1
  Ta  Ta2  1  0.761948  0.094905  0.872577  1
  Ta  Ta3  1  0.761950  0.127419  0.222328  1
  Ta  Ta4  1  0.761954  0.777647  0.905077  1
  P  P5  1  0.262121  0.999989  0.999998  1
  P  P6  1  0.761691  0.876195  0.587896  1
  P  P7  1  0.761661  0.412101  0.288289  1
  P  P8  1  0.761679  0.711705  0.123818  1
  P  P9  1  0.261994  0.118095  0.416710  1
  P  P10  1  0.261994  0.583302  0.701387  1
  P  P11  1  0.261980  0.298608  0.881918  1
  Rh  Rh12  1  0.261875  0.884992  0.161390  1
  Rh  Rh13  1  0.261870  0.838603  0.723609  1
  Rh  Rh14  1  0.261866  0.276395  0.114998  1
  Rh  Rh15  1  0.761916  0.611766  0.556801  1
  Rh  Rh16  1  0.761920  0.443190  0.054953  1
  Rh  Rh17  1  0.761941  0.945077  0.388252  1
  Rh  Rh18  1  0.262009  0.367690  0.439676  1
  Rh  Rh19  1  0.262037  0.560312  0.928013  1
  Rh  Rh20  1  0.262052  0.071991  0.632325  1
