# generated using pymatgen
data_LiCa2Co4(NiAs)7
_symmetry_space_group_name_H-M   'P 1'
_cell_length_a   3.77914900
_cell_length_b   9.40968770
_cell_length_c   9.47349781
_cell_angle_alpha   119.91229604
_cell_angle_beta   90.00000000
_cell_angle_gamma   90.00000000
_symmetry_Int_Tables_number   1
_chemical_formula_structural   LiCa2Co4(NiAs)7
_chemical_formula_sum   'Li1 Ca2 Co4 Ni7 As7'
_cell_volume   292.00705976
_cell_formula_units_Z   1
loop_
 _symmetry_equiv_pos_site_id
 _symmetry_equiv_pos_as_xyz
  1  'x, y, z'
loop_
 _atom_site_type_symbol
 _atom_site_label
 _atom_site_symmetry_multiplicity
 _atom_site_fract_x
 _atom_site_fract_y
 _atom_site_fract_z
 _atom_site_occupancy
  Li  Li0  1  0.500000  0.110520  0.896396  1
  Ca  Ca1  1  0.500000  0.332795  0.665320  1
  Ca  Ca2  1  0.000000  0.667967  0.336460  1
  Co  Co3  1  0.000000  0.878225  0.726704  1
  Co  Co4  1  0.000000  0.279267  0.157931  1
  Co  Co5  1  0.000000  0.843770  0.123294  1
  Co  Co6  1  0.500000  0.950922  0.572205  1
  Ni  Ni7  1  0.500000  0.428900  0.380908  1
  Ni  Ni8  1  0.500000  0.620649  0.047212  1
  Ni  Ni9  1  0.000000  0.381220  0.945235  1
  Ni  Ni10  1  0.000000  0.054840  0.433092  1
  Ni  Ni11  1  0.000000  0.563225  0.617447  1
  Ni  Ni12  1  0.500000  0.088375  0.206033  1
  Ni  Ni13  1  0.500000  0.796682  0.887824  1
  As  As14  1  0.500000  0.712798  0.601052  1
  As  As15  1  0.500000  0.405777  0.115099  1
  As  As16  1  0.500000  0.887933  0.294445  1
  As  As17  1  0.000000  0.999730  0.004352  1
  As  As18  1  0.000000  0.112309  0.702574  1
  As  As19  1  0.000000  0.287876  0.405156  1
  As  As20  1  0.000000  0.596220  0.881265  1
