# generated using pymatgen
data_Hf3Ta5(NbN6)2
_symmetry_space_group_name_H-M   'P 1'
_cell_length_a   5.28898823
_cell_length_b   5.29826606
_cell_length_c   10.51007204
_cell_angle_alpha   89.98966150
_cell_angle_beta   90.00409070
_cell_angle_gamma   120.04703508
_symmetry_Int_Tables_number   1
_chemical_formula_structural   Hf3Ta5(NbN6)2
_chemical_formula_sum   'Hf3 Ta5 Nb2 N12'
_cell_volume   254.93921774
_cell_formula_units_Z   1
loop_
 _symmetry_equiv_pos_site_id
 _symmetry_equiv_pos_as_xyz
  1  'x, y, z'
loop_
 _atom_site_type_symbol
 _atom_site_label
 _atom_site_symmetry_multiplicity
 _atom_site_fract_x
 _atom_site_fract_y
 _atom_site_fract_z
 _atom_site_occupancy
  Hf  Hf0  1  0.665708  0.333496  0.999726  1
  Hf  Hf1  1  0.334306  0.667835  0.999629  1
  Hf  Hf2  1  0.334355  0.667704  0.499729  1
  Ta  Ta3  1  0.001177  0.322162  0.748359  1
  Ta  Ta4  1  0.319678  0.321023  0.251958  1
  Ta  Ta5  1  0.679232  0.999034  0.251918  1
  Ta  Ta6  1  0.001223  0.680101  0.251972  1
  Ta  Ta7  1  0.665788  0.333217  0.500634  1
  Nb  Nb8  1  0.677019  0.677929  0.747854  1
  Nb  Nb9  1  0.321909  0.998824  0.747854  1
  N  N10  1  0.659207  0.653351  0.377507  1
  N  N11  1  0.346711  0.006076  0.377499  1
  N  N12  1  0.994001  0.341458  0.377514  1
  N  N13  1  0.342963  0.340240  0.620866  1
  N  N14  1  0.663070  0.009723  0.620826  1
  N  N15  1  0.993578  0.648360  0.621458  1
  N  N16  1  0.340759  0.344255  0.873870  1
  N  N17  1  0.659334  0.003709  0.873845  1
  N  N18  1  0.999932  0.650617  0.873325  1
  N  N19  1  0.655193  0.655120  0.127898  1
  N  N20  1  0.345023  0.000347  0.127888  1
  N  N21  1  0.999828  0.345426  0.127870  1
