# generated using pymatgen
data_Ho12AlSi7Rh8
_symmetry_space_group_name_H-M   'P 1'
_cell_length_a   5.55861700
_cell_length_b   7.80555843
_cell_length_c   13.02695011
_cell_angle_alpha   89.86463267
_cell_angle_beta   90.00000000
_cell_angle_gamma   90.00000000
_symmetry_Int_Tables_number   1
_chemical_formula_structural   Ho12AlSi7Rh8
_chemical_formula_sum   'Ho12 Al1 Si7 Rh8'
_cell_volume   565.21316431
_cell_formula_units_Z   1
loop_
 _symmetry_equiv_pos_site_id
 _symmetry_equiv_pos_as_xyz
  1  'x, y, z'
loop_
 _atom_site_type_symbol
 _atom_site_label
 _atom_site_symmetry_multiplicity
 _atom_site_fract_x
 _atom_site_fract_y
 _atom_site_fract_z
 _atom_site_occupancy
  Ho  Ho0  1  0.631665  0.252580  0.251468  1
  Ho  Ho1  1  0.369190  0.747052  0.749171  1
  Ho  Ho2  1  0.369190  0.752948  0.250829  1
  Ho  Ho3  1  0.631665  0.247420  0.748532  1
  Ho  Ho4  1  0.144372  0.397057  0.103106  1
  Ho  Ho5  1  0.859647  0.607060  0.897924  1
  Ho  Ho6  1  0.859874  0.606087  0.601928  1
  Ho  Ho7  1  0.859874  0.893913  0.398072  1
  Ho  Ho8  1  0.140769  0.393697  0.398015  1
  Ho  Ho9  1  0.140769  0.106303  0.601985  1
  Ho  Ho10  1  0.144372  0.102943  0.896894  1
  Ho  Ho11  1  0.859647  0.892940  0.102076  1
  Al  Al12  1  0.631862  0.250000  0.000000  1
  Si  Si13  1  0.136477  0.108128  0.250636  1
  Si  Si14  1  0.864051  0.893477  0.748800  1
  Si  Si15  1  0.864051  0.606523  0.251200  1
  Si  Si16  1  0.136477  0.391872  0.749364  1
  Si  Si17  1  0.368690  0.750000  0.000000  1
  Si  Si18  1  0.373239  0.750000  0.500000  1
  Si  Si19  1  0.626333  0.250000  0.500000  1
  Rh  Rh20  1  0.361004  0.028295  0.093855  1
  Rh  Rh21  1  0.633873  0.961521  0.906484  1
  Rh  Rh22  1  0.633440  0.967281  0.591962  1
  Rh  Rh23  1  0.633440  0.532719  0.408038  1
  Rh  Rh24  1  0.365578  0.032705  0.408245  1
  Rh  Rh25  1  0.365578  0.467295  0.591755  1
  Rh  Rh26  1  0.361004  0.471705  0.906145  1
  Rh  Rh27  1  0.633873  0.538479  0.093516  1
