# generated using pymatgen
data_Yb4Tc3RuO12
_symmetry_space_group_name_H-M   'P 1'
_cell_length_a   5.30956852
_cell_length_b   5.61679199
_cell_length_c   7.66262936
_cell_angle_alpha   90.16534997
_cell_angle_beta   90.06919340
_cell_angle_gamma   89.96279761
_symmetry_Int_Tables_number   1
_chemical_formula_structural   Yb4Tc3RuO12
_chemical_formula_sum   'Yb4 Tc3 Ru1 O12'
_cell_volume   228.51945215
_cell_formula_units_Z   1
loop_
 _symmetry_equiv_pos_site_id
 _symmetry_equiv_pos_as_xyz
  1  'x, y, z'
loop_
 _atom_site_type_symbol
 _atom_site_label
 _atom_site_symmetry_multiplicity
 _atom_site_fract_x
 _atom_site_fract_y
 _atom_site_fract_z
 _atom_site_occupancy
  Yb  Yb0  1  0.982014  0.067641  0.253880  1
  Yb  Yb1  1  0.477594  0.434726  0.745975  1
  Yb  Yb2  1  0.522406  0.565274  0.254025  1
  Yb  Yb3  1  0.017986  0.932359  0.746120  1
  Tc  Tc4  1  0.500000  0.000000  0.000000  1
  Tc  Tc5  1  0.500000  0.000000  0.500000  1
  Tc  Tc6  1  0.000000  0.500000  0.000000  1
  Ru  Ru7  1  0.000000  0.500000  0.500000  1
  O  O8  1  0.602587  0.033939  0.750428  1
  O  O9  1  0.195509  0.196602  0.551997  1
  O  O10  1  0.196505  0.201489  0.947728  1
  O  O11  1  0.695503  0.297124  0.053163  1
  O  O12  1  0.691992  0.295661  0.447503  1
  O  O13  1  0.105779  0.468230  0.246938  1
  O  O14  1  0.894221  0.531770  0.753062  1
  O  O15  1  0.308008  0.704339  0.552497  1
  O  O16  1  0.304497  0.702876  0.946837  1
  O  O17  1  0.803495  0.798511  0.052272  1
  O  O18  1  0.804491  0.803398  0.448003  1
  O  O19  1  0.397413  0.966061  0.249572  1
