# generated using pymatgen
data_Ba2SnSb3Au4
_symmetry_space_group_name_H-M   'P 1'
_cell_length_a   4.85781900
_cell_length_b   4.97810001
_cell_length_c   11.30993778
_cell_angle_alpha   88.71027325
_cell_angle_beta   90.00000000
_cell_angle_gamma   90.00000000
_symmetry_Int_Tables_number   1
_chemical_formula_structural   Ba2SnSb3Au4
_chemical_formula_sum   'Ba2 Sn1 Sb3 Au4'
_cell_volume   273.43564229
_cell_formula_units_Z   1
loop_
 _symmetry_equiv_pos_site_id
 _symmetry_equiv_pos_as_xyz
  1  'x, y, z'
loop_
 _atom_site_type_symbol
 _atom_site_label
 _atom_site_symmetry_multiplicity
 _atom_site_fract_x
 _atom_site_fract_y
 _atom_site_fract_z
 _atom_site_occupancy
  Ba  Ba0  1  0.250000  0.737422  0.755659  1
  Ba  Ba1  1  0.750000  0.261889  0.244425  1
  Sn  Sn2  1  0.750000  0.753073  0.501227  1
  Sb  Sb3  1  0.250000  0.247201  0.498611  1
  Sb  Sb4  1  0.250000  0.805842  0.123272  1
  Sb  Sb5  1  0.750000  0.194043  0.876590  1
  Au  Au6  1  0.750000  0.691018  0.000728  1
  Au  Au7  1  0.750000  0.252882  0.633172  1
  Au  Au8  1  0.250000  0.747508  0.366989  1
  Au  Au9  1  0.250000  0.309121  0.999327  1
