# generated using pymatgen
data_LaU(P2O7)2
_symmetry_space_group_name_H-M   'P 1'
_cell_length_a   9.07482236
_cell_length_b   5.36522139
_cell_length_c   7.47820877
_cell_angle_alpha   70.99245980
_cell_angle_beta   90.61859841
_cell_angle_gamma   90.81388403
_symmetry_Int_Tables_number   1
_chemical_formula_structural   LaU(P2O7)2
_chemical_formula_sum   'La1 U1 P4 O14'
_cell_volume   344.20777748
_cell_formula_units_Z   1
loop_
 _symmetry_equiv_pos_site_id
 _symmetry_equiv_pos_as_xyz
  1  'x, y, z'
loop_
 _atom_site_type_symbol
 _atom_site_label
 _atom_site_symmetry_multiplicity
 _atom_site_fract_x
 _atom_site_fract_y
 _atom_site_fract_z
 _atom_site_occupancy
  La  La0  1  0.545836  0.799788  0.727716  1
  U  U1  1  0.048513  0.197443  0.286826  1
  P  P2  1  0.264409  0.770233  0.095579  1
  P  P3  1  0.786289  0.232580  0.905547  1
  P  P4  1  0.371452  0.413059  0.462253  1
  P  P5  1  0.869330  0.590237  0.533271  1
  O  O6  1  0.367651  0.582190  0.588187  1
  O  O7  1  0.655944  0.397330  0.919412  1
  O  O8  1  0.135731  0.571022  0.102013  1
  O  O9  1  0.217646  0.269365  0.462173  1
  O  O10  1  0.885827  0.165845  0.088565  1
  O  O11  1  0.205045  0.990979  0.166251  1
  O  O12  1  0.340023  0.871650  0.908287  1
  O  O13  1  0.988721  0.813319  0.485506  1
  O  O14  1  0.386547  0.608980  0.244023  1
  O  O15  1  0.900009  0.408037  0.413360  1
  O  O16  1  0.494154  0.216739  0.495349  1
  O  O17  1  0.750155  0.988703  0.854360  1
  O  O18  1  0.715585  0.696157  0.512407  1
  O  O19  1  0.902856  0.416347  0.748913  1
