# generated using pymatgen
data_Tb2LuIn3Ag2Pt
_symmetry_space_group_name_H-M   'P 1'
_cell_length_a   7.97609878
_cell_length_b   7.95730480
_cell_length_c   3.74564000
_cell_angle_alpha   90.00000000
_cell_angle_beta   90.00000000
_cell_angle_gamma   119.69785645
_symmetry_Int_Tables_number   1
_chemical_formula_structural   Tb2LuIn3Ag2Pt
_chemical_formula_sum   'Tb2 Lu1 In3 Ag2 Pt1'
_cell_volume   206.50349255
_cell_formula_units_Z   1
loop_
 _symmetry_equiv_pos_site_id
 _symmetry_equiv_pos_as_xyz
  1  'x, y, z'
loop_
 _atom_site_type_symbol
 _atom_site_label
 _atom_site_symmetry_multiplicity
 _atom_site_fract_x
 _atom_site_fract_y
 _atom_site_fract_z
 _atom_site_occupancy
  Tb  Tb0  1  0.023352  0.608453  0.500000  1
  Tb  Tb1  1  0.585903  0.976784  0.500000  1
  Lu  Lu2  1  0.389248  0.416427  0.500000  1
  In  In3  1  0.991806  0.265938  0.000000  1
  In  In4  1  0.275537  0.010828  0.000000  1
  In  In5  1  0.733804  0.724427  0.000000  1
  Ag  Ag6  1  0.001356  0.001267  0.500000  1
  Ag  Ag7  1  0.663868  0.334345  0.000000  1
  Pt  Pt8  1  0.335125  0.661533  0.000000  1
