# generated using pymatgen
data_LaPr(P4N7)2
_symmetry_space_group_name_H-M   'P 1'
_cell_length_a   7.42444442
_cell_length_b   8.93430688
_cell_length_c   5.11023000
_cell_angle_alpha   70.70929521
_cell_angle_beta   77.64038544
_cell_angle_gamma   71.44553959
_symmetry_Int_Tables_number   1
_chemical_formula_structural   LaPr(P4N7)2
_chemical_formula_sum   'La1 Pr1 P8 N14'
_cell_volume   301.05562803
_cell_formula_units_Z   1
loop_
 _symmetry_equiv_pos_site_id
 _symmetry_equiv_pos_as_xyz
  1  'x, y, z'
loop_
 _atom_site_type_symbol
 _atom_site_label
 _atom_site_symmetry_multiplicity
 _atom_site_fract_x
 _atom_site_fract_y
 _atom_site_fract_z
 _atom_site_occupancy
  La  La0  1  0.809579  0.179701  0.202674  1
  Pr  Pr1  1  0.186103  0.823165  0.794000  1
  P  P2  1  0.296811  0.534326  0.288732  1
  P  P3  1  0.497624  0.756488  0.287444  1
  P  P4  1  0.123098  0.253375  0.657602  1
  P  P5  1  0.710724  0.891826  0.811684  1
  P  P6  1  0.878389  0.745181  0.342029  1
  P  P7  1  0.289757  0.106904  0.189531  1
  P  P8  1  0.501343  0.244153  0.714363  1
  P  P9  1  0.704287  0.466238  0.710440  1
  N  N10  1  0.300833  0.344102  0.557583  1
  N  N11  1  0.555147  0.783824  0.954339  1
  N  N12  1  0.699328  0.655460  0.442723  1
  N  N13  1  0.443566  0.216686  0.047138  1
  N  N14  1  0.932276  0.377984  0.750847  1
  N  N15  1  0.607458  0.073813  0.630676  1
  N  N16  1  0.069172  0.621790  0.243778  1
  N  N17  1  0.395361  0.926423  0.372322  1
  N  N18  1  0.892104  0.822979  0.585959  1
  N  N19  1  0.178225  0.096713  0.943334  1
  N  N20  1  0.344302  0.652079  0.449397  1
  N  N21  1  0.651775  0.350817  0.551386  1
  N  N22  1  0.823849  0.901461  0.056119  1
  N  N23  1  0.108889  0.174513  0.415900  1
