# generated using pymatgen
data_DyLu15(ZnIn3)2
_symmetry_space_group_name_H-M   'P 1'
_cell_length_a   10.44682300
_cell_length_b   10.44682452
_cell_length_c   6.69371100
_cell_angle_alpha   90.00000000
_cell_angle_beta   90.00000000
_cell_angle_gamma   120.00000468
_symmetry_Int_Tables_number   1
_chemical_formula_structural   DyLu15(ZnIn3)2
_chemical_formula_sum   'Dy1 Lu15 Zn2 In6'
_cell_volume   632.65377745
_cell_formula_units_Z   1
loop_
 _symmetry_equiv_pos_site_id
 _symmetry_equiv_pos_as_xyz
  1  'x, y, z'
loop_
 _atom_site_type_symbol
 _atom_site_label
 _atom_site_symmetry_multiplicity
 _atom_site_fract_x
 _atom_site_fract_y
 _atom_site_fract_z
 _atom_site_occupancy
  Dy  Dy0  1  0.000000  0.000000  0.997179  1
  Lu  Lu1  1  0.520725  0.041451  0.518018  1
  Lu  Lu2  1  0.958549  0.479275  0.518018  1
  Lu  Lu3  1  0.520725  0.479275  0.518018  1
  Lu  Lu4  1  0.479332  0.958664  0.018058  1
  Lu  Lu5  1  0.041336  0.520668  0.018058  1
  Lu  Lu6  1  0.479332  0.520668  0.018058  1
  Lu  Lu7  1  0.173942  0.347884  0.730556  1
  Lu  Lu8  1  0.652116  0.826058  0.730556  1
  Lu  Lu9  1  0.173942  0.826058  0.730556  1
  Lu  Lu10  1  0.826226  0.652453  0.231897  1
  Lu  Lu11  1  0.347547  0.173774  0.231897  1
  Lu  Lu12  1  0.826226  0.173774  0.231897  1
  Lu  Lu13  1  0.666667  0.333333  0.871011  1
  Lu  Lu14  1  0.333333  0.666667  0.371889  1
  Lu  Lu15  1  0.000000  0.000000  0.496561  1
  Zn  Zn16  1  0.666667  0.333333  0.303678  1
  Zn  Zn17  1  0.333333  0.666667  0.805832  1
  In  In18  1  0.835011  0.670020  0.749494  1
  In  In19  1  0.329980  0.164989  0.749494  1
  In  In20  1  0.835011  0.164989  0.749494  1
  In  In21  1  0.165164  0.330328  0.251327  1
  In  In22  1  0.669672  0.834836  0.251327  1
  In  In23  1  0.165164  0.834836  0.251327  1
