# generated using pymatgen
data_Pm2MnOs3
_symmetry_space_group_name_H-M   'P 1'
_cell_length_a   5.39858719
_cell_length_b   5.42291883
_cell_length_c   5.39858800
_cell_angle_alpha   60.14831926
_cell_angle_beta   60.00000732
_cell_angle_gamma   60.14831683
_symmetry_Int_Tables_number   1
_chemical_formula_structural   Pm2MnOs3
_chemical_formula_sum   'Pm2 Mn1 Os3'
_cell_volume   112.00783919
_cell_formula_units_Z   1
loop_
 _symmetry_equiv_pos_site_id
 _symmetry_equiv_pos_as_xyz
  1  'x, y, z'
loop_
 _atom_site_type_symbol
 _atom_site_label
 _atom_site_symmetry_multiplicity
 _atom_site_fract_x
 _atom_site_fract_y
 _atom_site_fract_z
 _atom_site_occupancy
  Pm  Pm0  1  0.747849  0.756453  0.747849  1
  Pm  Pm1  1  0.502151  0.493547  0.502151  1
  Mn  Mn2  1  0.125000  0.625000  0.125000  1
  Os  Os3  1  0.125000  0.125000  0.125000  1
  Os  Os4  1  0.625000  0.125000  0.125000  1
  Os  Os5  1  0.125000  0.125000  0.625000  1
