# generated using pymatgen
data_AcZnI
_symmetry_space_group_name_H-M   'P 1'
_cell_length_a   4.57768800
_cell_length_b   4.57768828
_cell_length_c   12.31192800
_cell_angle_alpha   90.00000000
_cell_angle_beta   90.00000000
_cell_angle_gamma   119.99998352
_symmetry_Int_Tables_number   1
_chemical_formula_structural   AcZnI
_chemical_formula_sum   'Ac2 Zn2 I2'
_cell_volume   223.43395657
_cell_formula_units_Z   2
loop_
 _symmetry_equiv_pos_site_id
 _symmetry_equiv_pos_as_xyz
  1  'x, y, z'
loop_
 _atom_site_type_symbol
 _atom_site_label
 _atom_site_symmetry_multiplicity
 _atom_site_fract_x
 _atom_site_fract_y
 _atom_site_fract_z
 _atom_site_occupancy
  Ac  Ac0  1  0.000000  0.000000  0.165075  1
  Ac  Ac1  1  0.000000  0.000000  0.834925  1
  Zn  Zn2  1  0.333333  0.666667  0.003298  1
  Zn  Zn3  1  0.666667  0.333333  0.996702  1
  I  I4  1  0.333333  0.666667  0.653327  1
  I  I5  1  0.666667  0.333333  0.346673  1
