# generated using pymatgen
data_Er6Tm10Cd4Ir3Rh
_symmetry_space_group_name_H-M   'P 1'
_cell_length_a   9.52086750
_cell_length_b   9.52086777
_cell_length_c   9.52086939
_cell_angle_alpha   59.89157783
_cell_angle_beta   59.89157740
_cell_angle_gamma   59.89158018
_symmetry_Int_Tables_number   1
_chemical_formula_structural   Er6Tm10Cd4Ir3Rh
_chemical_formula_sum   'Er6 Tm10 Cd4 Ir3 Rh1'
_cell_volume   608.75851011
_cell_formula_units_Z   1
loop_
 _symmetry_equiv_pos_site_id
 _symmetry_equiv_pos_as_xyz
  1  'x, y, z'
loop_
 _atom_site_type_symbol
 _atom_site_label
 _atom_site_symmetry_multiplicity
 _atom_site_fract_x
 _atom_site_fract_y
 _atom_site_fract_z
 _atom_site_occupancy
  Er  Er0  1  0.188760  0.812108  0.812108  1
  Er  Er1  1  0.813053  0.187476  0.187476  1
  Er  Er2  1  0.812108  0.188760  0.812108  1
  Er  Er3  1  0.187476  0.813053  0.187476  1
  Er  Er4  1  0.812108  0.812108  0.188760  1
  Er  Er5  1  0.187476  0.187476  0.813053  1
  Tm  Tm6  1  0.598595  0.598595  0.598595  1
  Tm  Tm7  1  0.599888  0.599888  0.202307  1
  Tm  Tm8  1  0.599888  0.202307  0.599888  1
  Tm  Tm9  1  0.202307  0.599888  0.599888  1
  Tm  Tm10  1  0.059268  0.439275  0.439275  1
  Tm  Tm11  1  0.438519  0.060803  0.060803  1
  Tm  Tm12  1  0.439275  0.059268  0.439275  1
  Tm  Tm13  1  0.060803  0.438519  0.060803  1
  Tm  Tm14  1  0.439275  0.439275  0.059268  1
  Tm  Tm15  1  0.060803  0.060803  0.438519  1
  Cd  Cd16  1  0.830609  0.830609  0.830609  1
  Cd  Cd17  1  0.831097  0.831097  0.506371  1
  Cd  Cd18  1  0.831097  0.506371  0.831097  1
  Cd  Cd19  1  0.506371  0.831097  0.831097  1
  Ir  Ir20  1  0.392413  0.392413  0.824404  1
  Ir  Ir21  1  0.392413  0.824404  0.392413  1
  Ir  Ir22  1  0.824404  0.392413  0.392413  1
  Rh  Rh23  1  0.391991  0.391991  0.391991  1
