# generated using pymatgen
data_LaNd15(AlRu)4
_symmetry_space_group_name_H-M   'P 1'
_cell_length_a   9.85348447
_cell_length_b   9.85348494
_cell_length_c   9.81156400
_cell_angle_alpha   60.14063582
_cell_angle_beta   60.14063426
_cell_angle_gamma   59.79269462
_symmetry_Int_Tables_number   1
_chemical_formula_structural   LaNd15(AlRu)4
_chemical_formula_sum   'La1 Nd15 Al4 Ru4'
_cell_volume   673.96128850
_cell_formula_units_Z   1
loop_
 _symmetry_equiv_pos_site_id
 _symmetry_equiv_pos_as_xyz
  1  'x, y, z'
loop_
 _atom_site_type_symbol
 _atom_site_label
 _atom_site_symmetry_multiplicity
 _atom_site_fract_x
 _atom_site_fract_y
 _atom_site_fract_z
 _atom_site_occupancy
  La  La0  1  0.558076  0.558076  0.941924  1
  Nd  Nd1  1  0.188676  0.811407  0.189831  1
  Nd  Nd2  1  0.811788  0.811788  0.188212  1
  Nd  Nd3  1  0.187322  0.187322  0.812678  1
  Nd  Nd4  1  0.402025  0.795926  0.401025  1
  Nd  Nd5  1  0.811407  0.188676  0.810086  1
  Nd  Nd6  1  0.945612  0.945612  0.554388  1
  Nd  Nd7  1  0.811407  0.188676  0.189831  1
  Nd  Nd8  1  0.948263  0.554790  0.945681  1
  Nd  Nd9  1  0.795926  0.402025  0.401025  1
  Nd  Nd10  1  0.554790  0.948263  0.945681  1
  Nd  Nd11  1  0.188676  0.811407  0.810086  1
  Nd  Nd12  1  0.554790  0.948263  0.551266  1
  Nd  Nd13  1  0.399494  0.399494  0.402167  1
  Nd  Nd14  1  0.948263  0.554790  0.551266  1
  Nd  Nd15  1  0.399494  0.399494  0.798845  1
  Al  Al16  1  0.173342  0.473458  0.176601  1
  Al  Al17  1  0.175379  0.175379  0.473887  1
  Al  Al18  1  0.473458  0.173342  0.176601  1
  Al  Al19  1  0.175379  0.175379  0.175357  1
  Ru  Ru20  1  0.164346  0.612958  0.611347  1
  Ru  Ru21  1  0.609564  0.609564  0.158459  1
  Ru  Ru22  1  0.609564  0.609564  0.622412  1
  Ru  Ru23  1  0.612958  0.164346  0.611347  1
