# generated using pymatgen
data_Er10SiSn6Ge
_symmetry_space_group_name_H-M   'P 1'
_cell_length_a   9.15450700
_cell_length_b   9.15450708
_cell_length_c   6.40647100
_cell_angle_alpha   90.00000000
_cell_angle_beta   90.00000000
_cell_angle_gamma   119.99999610
_symmetry_Int_Tables_number   1
_chemical_formula_structural   Er10SiSn6Ge
_chemical_formula_sum   'Er10 Si1 Sn6 Ge1'
_cell_volume   464.96411823
_cell_formula_units_Z   1
loop_
 _symmetry_equiv_pos_site_id
 _symmetry_equiv_pos_as_xyz
  1  'x, y, z'
loop_
 _atom_site_type_symbol
 _atom_site_label
 _atom_site_symmetry_multiplicity
 _atom_site_fract_x
 _atom_site_fract_y
 _atom_site_fract_z
 _atom_site_occupancy
  Er  Er0  1  0.666667  0.333333  0.000000  1
  Er  Er1  1  0.333333  0.666667  0.000000  1
  Er  Er2  1  0.333333  0.666667  0.500000  1
  Er  Er3  1  0.666667  0.333333  0.500000  1
  Er  Er4  1  0.746545  0.746545  0.749110  1
  Er  Er5  1  0.253455  0.000000  0.749110  1
  Er  Er6  1  0.000000  0.253455  0.749110  1
  Er  Er7  1  0.253455  0.253455  0.250890  1
  Er  Er8  1  0.746545  0.000000  0.250890  1
  Er  Er9  1  0.000000  0.746545  0.250890  1
  Si  Si10  1  0.000000  0.000000  0.500000  1
  Sn  Sn11  1  0.391474  0.391474  0.750032  1
  Sn  Sn12  1  0.608526  0.000000  0.750032  1
  Sn  Sn13  1  0.000000  0.608526  0.750032  1
  Sn  Sn14  1  0.608526  0.608526  0.249968  1
  Sn  Sn15  1  0.391474  0.000000  0.249968  1
  Sn  Sn16  1  0.000000  0.391474  0.249968  1
  Ge  Ge17  1  0.000000  0.000000  0.000000  1
