# generated using pymatgen
data_Tb3Dy(Ta3Ge4)2
_symmetry_space_group_name_H-M   'P 1'
_cell_length_a   7.04460900
_cell_length_b   7.16885545
_cell_length_c   13.57394100
_cell_angle_alpha   89.97965955
_cell_angle_beta   90.00000000
_cell_angle_gamma   90.00000000
_symmetry_Int_Tables_number   1
_chemical_formula_structural   Tb3Dy(Ta3Ge4)2
_chemical_formula_sum   'Tb6 Dy2 Ta12 Ge16'
_cell_volume   685.50818826
_cell_formula_units_Z   2
loop_
 _symmetry_equiv_pos_site_id
 _symmetry_equiv_pos_as_xyz
  1  'x, y, z'
loop_
 _atom_site_type_symbol
 _atom_site_label
 _atom_site_symmetry_multiplicity
 _atom_site_fract_x
 _atom_site_fract_y
 _atom_site_fract_z
 _atom_site_occupancy
  Tb  Tb0  1  0.504782  0.326286  0.094437  1
  Tb  Tb1  1  0.004782  0.173714  0.405563  1
  Tb  Tb2  1  0.504569  0.327823  0.405651  1
  Tb  Tb3  1  0.004569  0.172177  0.094349  1
  Tb  Tb4  1  0.494308  0.673687  0.906041  1
  Tb  Tb5  1  0.994308  0.826313  0.593959  1
  Dy  Dy6  1  0.495125  0.672809  0.594439  1
  Dy  Dy7  1  0.995125  0.827191  0.905561  1
  Ta  Ta8  1  0.657826  0.169671  0.626638  1
  Ta  Ta9  1  0.157826  0.330329  0.873362  1
  Ta  Ta10  1  0.339456  0.830096  0.125998  1
  Ta  Ta11  1  0.839456  0.669904  0.374002  1
  Ta  Ta12  1  0.341981  0.829941  0.373620  1
  Ta  Ta13  1  0.841981  0.670059  0.126380  1
  Ta  Ta14  1  0.661726  0.168456  0.874080  1
  Ta  Ta15  1  0.161726  0.331544  0.625920  1
  Ta  Ta16  1  0.835040  0.485177  0.750237  1
  Ta  Ta17  1  0.335040  0.014823  0.749763  1
  Ta  Ta18  1  0.165480  0.514883  0.249817  1
  Ta  Ta19  1  0.665480  0.985117  0.250183  1
  Ge  Ge20  1  0.675560  0.961170  0.458141  1
  Ge  Ge21  1  0.175560  0.538830  0.041859  1
  Ge  Ge22  1  0.324216  0.039848  0.957220  1
  Ge  Ge23  1  0.824216  0.460152  0.542780  1
  Ge  Ge24  1  0.323320  0.038947  0.542016  1
  Ge  Ge25  1  0.823320  0.461053  0.957984  1
  Ge  Ge26  1  0.675391  0.960196  0.042604  1
  Ge  Ge27  1  0.175391  0.539804  0.457396  1
  Ge  Ge28  1  0.460217  0.377740  0.751312  1
  Ge  Ge29  1  0.960217  0.122260  0.748688  1
  Ge  Ge30  1  0.540794  0.622394  0.249303  1
  Ge  Ge31  1  0.040794  0.877606  0.250697  1
  Ge  Ge32  1  0.693762  0.859442  0.750302  1
  Ge  Ge33  1  0.193762  0.640558  0.749698  1
  Ge  Ge34  1  0.306446  0.138970  0.250112  1
  Ge  Ge35  1  0.806446  0.361030  0.249888  1
