# generated using pymatgen
data_Ca2NbMoO6
_symmetry_space_group_name_H-M   'P 1'
_cell_length_a   5.55617282
_cell_length_b   5.75345652
_cell_length_c   7.97575931
_cell_angle_alpha   90.02375579
_cell_angle_beta   89.93737764
_cell_angle_gamma   90.01026170
_symmetry_Int_Tables_number   1
_chemical_formula_structural   Ca2NbMoO6
_chemical_formula_sum   'Ca4 Nb2 Mo2 O12'
_cell_volume   254.96250463
_cell_formula_units_Z   2
loop_
 _symmetry_equiv_pos_site_id
 _symmetry_equiv_pos_as_xyz
  1  'x, y, z'
loop_
 _atom_site_type_symbol
 _atom_site_label
 _atom_site_symmetry_multiplicity
 _atom_site_fract_x
 _atom_site_fract_y
 _atom_site_fract_z
 _atom_site_occupancy
  Ca  Ca0  1  0.011705  0.052044  0.751604  1
  Ca  Ca1  1  0.513853  0.446324  0.251596  1
  Ca  Ca2  1  0.486147  0.553676  0.748404  1
  Ca  Ca3  1  0.988295  0.947956  0.248396  1
  Nb  Nb4  1  0.500000  0.000000  0.000000  1
  Nb  Nb5  1  0.000000  0.500000  0.500000  1
  Mo  Mo6  1  0.000000  0.500000  0.000000  1
  Mo  Mo7  1  0.500000  0.000000  0.500000  1
  O  O8  1  0.294226  0.307776  0.549655  1
  O  O9  1  0.810840  0.210123  0.442351  1
  O  O10  1  0.206167  0.807404  0.948917  1
  O  O11  1  0.689012  0.710109  0.056708  1
  O  O12  1  0.705774  0.692224  0.450345  1
  O  O13  1  0.189160  0.789877  0.557649  1
  O  O14  1  0.793833  0.192596  0.051083  1
  O  O15  1  0.310988  0.289891  0.943292  1
  O  O16  1  0.896770  0.459920  0.741643  1
  O  O17  1  0.397610  0.038621  0.241614  1
  O  O18  1  0.602390  0.961379  0.758386  1
  O  O19  1  0.103230  0.540080  0.258357  1
