# generated using pymatgen
data_InSn3Pd8
_symmetry_space_group_name_H-M   'P 1'
_cell_length_a   5.77393603
_cell_length_b   4.34095500
_cell_length_c   8.27595827
_cell_angle_alpha   90.00000000
_cell_angle_beta   89.56272339
_cell_angle_gamma   90.00000000
_symmetry_Int_Tables_number   1
_chemical_formula_structural   InSn3Pd8
_chemical_formula_sum   'In1 Sn3 Pd8'
_cell_volume   207.42585824
_cell_formula_units_Z   1
loop_
 _symmetry_equiv_pos_site_id
 _symmetry_equiv_pos_as_xyz
  1  'x, y, z'
loop_
 _atom_site_type_symbol
 _atom_site_label
 _atom_site_symmetry_multiplicity
 _atom_site_fract_x
 _atom_site_fract_y
 _atom_site_fract_z
 _atom_site_occupancy
  In  In0  1  0.799667  0.750001  0.108084  1
  Sn  Sn1  1  0.295975  0.750001  0.389252  1
  Sn  Sn2  1  0.702923  0.249999  0.608577  1
  Sn  Sn3  1  0.198340  0.249999  0.894489  1
  Pd  Pd4  1  0.329413  0.750001  0.062680  1
  Pd  Pd5  1  0.050886  0.249999  0.216427  1
  Pd  Pd6  1  0.550318  0.249999  0.288259  1
  Pd  Pd7  1  0.830084  0.750001  0.437870  1
  Pd  Pd8  1  0.170675  0.249999  0.564904  1
  Pd  Pd9  1  0.451693  0.750001  0.710214  1
  Pd  Pd10  1  0.953899  0.750001  0.785540  1
  Pd  Pd11  1  0.666133  0.249999  0.933705  1
