# generated using pymatgen
data_UNbB6Ru
_symmetry_space_group_name_H-M   'P 1'
_cell_length_a   3.47143000
_cell_length_b   8.99441400
_cell_length_c   11.26187100
_cell_angle_alpha   90.00000000
_cell_angle_beta   90.00000000
_cell_angle_gamma   90.00000000
_symmetry_Int_Tables_number   1
_chemical_formula_structural   UNbB6Ru
_chemical_formula_sum   'U4 Nb4 B24 Ru4'
_cell_volume   351.63478807
_cell_formula_units_Z   4
loop_
 _symmetry_equiv_pos_site_id
 _symmetry_equiv_pos_as_xyz
  1  'x, y, z'
loop_
 _atom_site_type_symbol
 _atom_site_label
 _atom_site_symmetry_multiplicity
 _atom_site_fract_x
 _atom_site_fract_y
 _atom_site_fract_z
 _atom_site_occupancy
  U  U0  1  0.000000  0.323023  0.412893  1
  U  U1  1  0.000000  0.676977  0.587107  1
  U  U2  1  0.000000  0.823023  0.087107  1
  U  U3  1  0.000000  0.176977  0.912893  1
  Nb  Nb4  1  0.000000  0.946829  0.374301  1
  Nb  Nb5  1  0.000000  0.053171  0.625699  1
  Nb  Nb6  1  0.000000  0.446829  0.125699  1
  Nb  Nb7  1  0.000000  0.553171  0.874301  1
  B  B8  1  0.500000  0.551636  0.435718  1
  B  B9  1  0.500000  0.448364  0.564282  1
  B  B10  1  0.500000  0.051636  0.064282  1
  B  B11  1  0.500000  0.948364  0.935718  1
  B  B12  1  0.500000  0.754723  0.421189  1
  B  B13  1  0.500000  0.245277  0.578811  1
  B  B14  1  0.500000  0.254723  0.078811  1
  B  B15  1  0.500000  0.745277  0.921189  1
  B  B16  1  0.500000  0.798832  0.263770  1
  B  B17  1  0.500000  0.201168  0.736230  1
  B  B18  1  0.500000  0.298832  0.236230  1
  B  B19  1  0.500000  0.701168  0.763770  1
  B  B20  1  0.500000  0.631538  0.180137  1
  B  B21  1  0.500000  0.368462  0.819863  1
  B  B22  1  0.500000  0.131538  0.319863  1
  B  B23  1  0.500000  0.868462  0.680137  1
  B  B24  1  0.500000  0.979254  0.213871  1
  B  B25  1  0.500000  0.020746  0.786129  1
  B  B26  1  0.500000  0.479254  0.286129  1
  B  B27  1  0.500000  0.520746  0.713871  1
  B  B28  1  0.500000  0.600573  0.026388  1
  B  B29  1  0.500000  0.399427  0.973612  1
  B  B30  1  0.500000  0.100573  0.473612  1
  B  B31  1  0.500000  0.899427  0.526388  1
  Ru  Ru32  1  0.000000  0.641636  0.320689  1
  Ru  Ru33  1  0.000000  0.358364  0.679311  1
  Ru  Ru34  1  0.000000  0.141636  0.179311  1
  Ru  Ru35  1  0.000000  0.858364  0.820689  1
