# generated using pymatgen
data_YU(PS3)4
_symmetry_space_group_name_H-M   'P 1'
_cell_length_a   6.99030200
_cell_length_b   6.99030200
_cell_length_c   9.77282000
_cell_angle_alpha   90.00000000
_cell_angle_beta   90.00000000
_cell_angle_gamma   90.00000000
_symmetry_Int_Tables_number   1
_chemical_formula_structural   YU(PS3)4
_chemical_formula_sum   'Y1 U1 P4 S12'
_cell_volume   477.54222383
_cell_formula_units_Z   1
loop_
 _symmetry_equiv_pos_site_id
 _symmetry_equiv_pos_as_xyz
  1  'x, y, z'
loop_
 _atom_site_type_symbol
 _atom_site_label
 _atom_site_symmetry_multiplicity
 _atom_site_fract_x
 _atom_site_fract_y
 _atom_site_fract_z
 _atom_site_occupancy
  Y  Y0  1  0.000000  0.000000  0.750000  1
  U  U1  1  0.000000  0.000000  0.250000  1
  P  P2  1  0.057215  0.345202  0.500130  1
  P  P3  1  0.942785  0.654798  0.500130  1
  P  P4  1  0.345202  0.942785  0.999870  1
  P  P5  1  0.654798  0.057215  0.999870  1
  S  S6  1  0.211510  0.315727  0.671138  1
  S  S7  1  0.687403  0.204814  0.179474  1
  S  S8  1  0.168585  0.176734  0.009037  1
  S  S9  1  0.823266  0.168585  0.490963  1
  S  S10  1  0.176734  0.831415  0.490963  1
  S  S11  1  0.831415  0.823266  0.009037  1
  S  S12  1  0.204814  0.312597  0.320526  1
  S  S13  1  0.684273  0.211510  0.828862  1
  S  S14  1  0.315727  0.788490  0.828862  1
  S  S15  1  0.795186  0.687403  0.320526  1
  S  S16  1  0.788490  0.684273  0.671138  1
  S  S17  1  0.312597  0.795186  0.179474  1
