# generated using pymatgen
data_Nd5YRhBr10
_symmetry_space_group_name_H-M   'P 1'
_cell_length_a   7.58623225
_cell_length_b   9.44567831
_cell_length_c   9.60096528
_cell_angle_alpha   108.51418807
_cell_angle_beta   96.70043774
_cell_angle_gamma   105.38439944
_symmetry_Int_Tables_number   1
_chemical_formula_structural   Nd5YRhBr10
_chemical_formula_sum   'Nd5 Y1 Rh1 Br10'
_cell_volume   613.61874676
_cell_formula_units_Z   1
loop_
 _symmetry_equiv_pos_site_id
 _symmetry_equiv_pos_as_xyz
  1  'x, y, z'
loop_
 _atom_site_type_symbol
 _atom_site_label
 _atom_site_symmetry_multiplicity
 _atom_site_fract_x
 _atom_site_fract_y
 _atom_site_fract_z
 _atom_site_occupancy
  Nd  Nd0  1  0.466889  0.794354  0.590536  1
  Nd  Nd1  1  0.528933  0.204030  0.406612  1
  Nd  Nd2  1  0.368780  0.450485  0.749416  1
  Nd  Nd3  1  0.625136  0.546155  0.248345  1
  Nd  Nd4  1  0.869210  0.640514  0.684311  1
  Y  Y5  1  0.138135  0.364362  0.321119  1
  Rh  Rh6  1  0.499283  0.499518  0.500164  1
  Br  Br7  1  0.413706  0.130526  0.671257  1
  Br  Br8  1  0.585817  0.868483  0.327294  1
  Br  Br9  1  0.048023  0.670459  0.413471  1
  Br  Br10  1  0.953706  0.320656  0.575989  1
  Br  Br11  1  0.291688  0.758545  0.849076  1
  Br  Br12  1  0.726735  0.246424  0.158863  1
  Br  Br13  1  0.240664  0.411952  0.050881  1
  Br  Br14  1  0.750285  0.583565  0.953761  1
  Br  Br15  1  0.850744  0.956436  0.770774  1
  Br  Br16  1  0.142266  0.053536  0.228130  1
