# generated using pymatgen
data_KSrIn4Au3
_symmetry_space_group_name_H-M   'P 1'
_cell_length_a   15.38725500
_cell_length_b   15.37085206
_cell_length_c   4.72752800
_cell_angle_alpha   90.00000000
_cell_angle_beta   90.00000000
_cell_angle_gamma   120.03531365
_symmetry_Int_Tables_number   1
_chemical_formula_structural   KSrIn4Au3
_chemical_formula_sum   'K4 Sr4 In16 Au12'
_cell_volume   967.98624049
_cell_formula_units_Z   4
loop_
 _symmetry_equiv_pos_site_id
 _symmetry_equiv_pos_as_xyz
  1  'x, y, z'
loop_
 _atom_site_type_symbol
 _atom_site_label
 _atom_site_symmetry_multiplicity
 _atom_site_fract_x
 _atom_site_fract_y
 _atom_site_fract_z
 _atom_site_occupancy
  K  K0  1  0.333470  0.666782  0.000000  1
  K  K1  1  0.666688  0.333218  0.000000  1
  K  K2  1  0.999751  0.819371  0.500000  1
  K  K3  1  0.180381  0.180629  0.500000  1
  Sr  Sr4  1  0.452433  0.000000  0.000000  1
  Sr  Sr5  1  0.000389  0.450708  0.000000  1
  Sr  Sr6  1  0.549681  0.549292  0.000000  1
  Sr  Sr7  1  0.817245  0.000000  0.500000  1
  In  In8  1  0.181948  0.375410  0.000000  1
  In  In9  1  0.621734  0.805597  0.000000  1
  In  In10  1  0.377306  0.183760  0.000000  1
  In  In11  1  0.193544  0.816240  0.000000  1
  In  In12  1  0.806539  0.624590  0.000000  1
  In  In13  1  0.816139  0.194403  0.000000  1
  In  In14  1  0.277104  0.000000  0.500000  1
  In  In15  1  0.999823  0.276386  0.500000  1
  In  In16  1  0.723436  0.723614  0.500000  1
  In  In17  1  0.349004  0.476277  0.500000  1
  In  In18  1  0.525653  0.874857  0.500000  1
  In  In19  1  0.475824  0.349527  0.500000  1
  In  In20  1  0.126297  0.650473  0.500000  1
  In  In21  1  0.872726  0.523723  0.500000  1
  In  In22  1  0.650795  0.125143  0.500000  1
  In  In23  1  0.001889  0.000000  0.000000  1
  Au  Au24  1  0.166123  0.483203  0.500000  1
  Au  Au25  1  0.515098  0.682610  0.500000  1
  Au  Au26  1  0.485272  0.166423  0.500000  1
  Au  Au27  1  0.318849  0.833577  0.500000  1
  Au  Au28  1  0.682921  0.516797  0.500000  1
  Au  Au29  1  0.832489  0.317390  0.500000  1
  Au  Au30  1  0.180638  0.000000  0.000000  1
  Au  Au31  1  0.994105  0.175699  0.000000  1
  Au  Au32  1  0.818406  0.824301  0.000000  1
  Au  Au33  1  0.656432  0.000000  0.000000  1
  Au  Au34  1  0.999634  0.649399  0.000000  1
  Au  Au35  1  0.350235  0.350601  0.000000  1
