# generated using pymatgen
data_Cs3Ru2Br9
_symmetry_space_group_name_H-M   'P 1'
_cell_length_a   7.85236300
_cell_length_b   7.85234903
_cell_length_c   18.88529300
_cell_angle_alpha   90.00000000
_cell_angle_beta   90.00000000
_cell_angle_gamma   120.00004732
_symmetry_Int_Tables_number   1
_chemical_formula_structural   Cs3Ru2Br9
_chemical_formula_sum   'Cs6 Ru4 Br18'
_cell_volume   1008.44940801
_cell_formula_units_Z   2
loop_
 _symmetry_equiv_pos_site_id
 _symmetry_equiv_pos_as_xyz
  1  'x, y, z'
loop_
 _atom_site_type_symbol
 _atom_site_label
 _atom_site_symmetry_multiplicity
 _atom_site_fract_x
 _atom_site_fract_y
 _atom_site_fract_z
 _atom_site_occupancy
  Cs  Cs0  1  0.000002  0.000001  0.250000  1
  Cs  Cs1  1  0.999998  0.999999  0.750000  1
  Cs  Cs2  1  0.333333  0.666667  0.068911  1
  Cs  Cs3  1  0.666667  0.333333  0.568911  1
  Cs  Cs4  1  0.666667  0.333333  0.931089  1
  Cs  Cs5  1  0.333333  0.666667  0.431089  1
  Ru  Ru6  1  0.333333  0.666667  0.823130  1
  Ru  Ru7  1  0.666667  0.333333  0.323130  1
  Ru  Ru8  1  0.666667  0.333333  0.176870  1
  Ru  Ru9  1  0.333333  0.666667  0.676870  1
  Br  Br10  1  0.510149  0.020297  0.250000  1
  Br  Br11  1  0.489852  0.510148  0.750000  1
  Br  Br12  1  0.020297  0.510149  0.750000  1
  Br  Br13  1  0.979703  0.489851  0.250000  1
  Br  Br14  1  0.510148  0.489852  0.250000  1
  Br  Br15  1  0.489851  0.979703  0.750000  1
  Br  Br16  1  0.817707  0.635413  0.098650  1
  Br  Br17  1  0.182293  0.817707  0.598650  1
  Br  Br18  1  0.635413  0.817707  0.598650  1
  Br  Br19  1  0.364587  0.182293  0.098650  1
  Br  Br20  1  0.817707  0.182293  0.098650  1
  Br  Br21  1  0.182293  0.364587  0.901350  1
  Br  Br22  1  0.182293  0.817707  0.901350  1
  Br  Br23  1  0.182293  0.364587  0.598650  1
  Br  Br24  1  0.635413  0.817707  0.901350  1
  Br  Br25  1  0.364587  0.182293  0.401350  1
  Br  Br26  1  0.817707  0.635413  0.401350  1
  Br  Br27  1  0.817707  0.182293  0.401350  1
