# generated using pymatgen
data_TbHo3Ir4F28
_symmetry_space_group_name_H-M   'P 1'
_cell_length_a   5.54510601
_cell_length_b   8.91423448
_cell_length_c   11.95585624
_cell_angle_alpha   62.51629578
_cell_angle_beta   89.99893059
_cell_angle_gamma   90.00464545
_symmetry_Int_Tables_number   1
_chemical_formula_structural   TbHo3Ir4F28
_chemical_formula_sum   'Tb1 Ho3 Ir4 F28'
_cell_volume   524.28543274
_cell_formula_units_Z   1
loop_
 _symmetry_equiv_pos_site_id
 _symmetry_equiv_pos_as_xyz
  1  'x, y, z'
loop_
 _atom_site_type_symbol
 _atom_site_label
 _atom_site_symmetry_multiplicity
 _atom_site_fract_x
 _atom_site_fract_y
 _atom_site_fract_z
 _atom_site_occupancy
  Tb  Tb0  1  0.240081  0.814869  0.765066  1
  Ho  Ho1  1  0.260068  0.814801  0.265061  1
  Ho  Ho2  1  0.739782  0.187203  0.734637  1
  Ho  Ho3  1  0.760151  0.185095  0.235147  1
  Ir  Ir4  1  0.757276  0.725928  0.044679  1
  Ir  Ir5  1  0.242568  0.272892  0.956774  1
  Ir  Ir6  1  0.257679  0.274481  0.455722  1
  Ir  Ir7  1  0.742990  0.725956  0.542786  1
  F  F8  1  0.942853  0.706396  0.414357  1
  F  F9  1  0.057202  0.293816  0.584133  1
  F  F10  1  0.443560  0.292914  0.084844  1
  F  F11  1  0.558322  0.705949  0.916258  1
  F  F12  1  0.466342  0.730086  0.137979  1
  F  F13  1  0.533295  0.269879  0.862668  1
  F  F14  1  0.967537  0.270468  0.361789  1
  F  F15  1  0.033453  0.728802  0.636439  1
  F  F16  1  0.954086  0.745148  0.174759  1
  F  F17  1  0.045238  0.254331  0.826318  1
  F  F18  1  0.454910  0.255436  0.325609  1
  F  F19  1  0.548078  0.743881  0.673782  1
  F  F20  1  0.766411  0.480252  0.141364  1
  F  F21  1  0.232886  0.518442  0.859546  1
  F  F22  1  0.266949  0.520075  0.358839  1
  F  F23  1  0.733173  0.480255  0.640403  1
  F  F24  1  0.944969  0.280453  0.045961  1
  F  F25  1  0.054818  0.718000  0.956305  1
  F  F26  1  0.444378  0.719137  0.454262  1
  F  F27  1  0.554952  0.281545  0.544956  1
  F  F28  1  0.740732  0.971888  0.448725  1
  F  F29  1  0.259414  0.028924  0.549795  1
  F  F30  1  0.240646  0.027061  0.051148  1
  F  F31  1  0.759698  0.971423  0.949987  1
  F  F32  1  0.583588  0.970993  0.231433  1
  F  F33  1  0.416227  0.032191  0.768940  1
  F  F34  1  0.083556  0.029085  0.268471  1
  F  F35  1  0.912132  0.971947  0.731056  1
