# generated using pymatgen
data_ErLu3(HfRh)4
_symmetry_space_group_name_H-M   'P 1'
_cell_length_a   4.57309400
_cell_length_b   6.91150577
_cell_length_c   8.17788508
_cell_angle_alpha   90.07534004
_cell_angle_beta   90.00000000
_cell_angle_gamma   90.00000000
_symmetry_Int_Tables_number   1
_chemical_formula_structural   ErLu3(HfRh)4
_chemical_formula_sum   'Er1 Lu3 Hf4 Rh4'
_cell_volume   258.47790880
_cell_formula_units_Z   1
loop_
 _symmetry_equiv_pos_site_id
 _symmetry_equiv_pos_as_xyz
  1  'x, y, z'
loop_
 _atom_site_type_symbol
 _atom_site_label
 _atom_site_symmetry_multiplicity
 _atom_site_fract_x
 _atom_site_fract_y
 _atom_site_fract_z
 _atom_site_occupancy
  Er  Er0  1  0.250000  0.015250  0.322643  1
  Lu  Lu1  1  0.250000  0.516357  0.176661  1
  Lu  Lu2  1  0.750000  0.483518  0.822917  1
  Lu  Lu3  1  0.750000  0.983893  0.677740  1
  Hf  Hf4  1  0.250000  0.641739  0.575008  1
  Hf  Hf5  1  0.750000  0.359033  0.425908  1
  Hf  Hf6  1  0.750000  0.857698  0.072578  1
  Hf  Hf7  1  0.250000  0.142330  0.925336  1
  Rh  Rh8  1  0.250000  0.764920  0.909048  1
  Rh  Rh9  1  0.750000  0.235358  0.090281  1
  Rh  Rh10  1  0.750000  0.734063  0.409799  1
  Rh  Rh11  1  0.250000  0.265841  0.592080  1
