# generated using pymatgen
data_VPt3Rh5
_symmetry_space_group_name_H-M   'P 1'
_cell_length_a   6.14051221
_cell_length_b   6.14051086
_cell_length_c   6.14051174
_cell_angle_alpha   95.82613123
_cell_angle_beta   95.48698279
_cell_angle_gamma   143.40508894
_symmetry_Int_Tables_number   1
_chemical_formula_structural   VPt3Rh5
_chemical_formula_sum   'V1 Pt3 Rh5'
_cell_volume   131.04991483
_cell_formula_units_Z   1
loop_
 _symmetry_equiv_pos_site_id
 _symmetry_equiv_pos_as_xyz
  1  'x, y, z'
loop_
 _atom_site_type_symbol
 _atom_site_label
 _atom_site_symmetry_multiplicity
 _atom_site_fract_x
 _atom_site_fract_y
 _atom_site_fract_z
 _atom_site_occupancy
  V  V0  1  0.000000  0.003071  0.003071  1
  Pt  Pt1  1  0.000000  0.673769  0.673769  1
  Pt  Pt2  1  0.673552  0.998231  0.671782  1
  Pt  Pt3  1  0.326448  0.998231  0.324679  1
  Rh  Rh4  1  0.339024  0.340526  0.679550  1
  Rh  Rh5  1  0.658059  0.660939  0.318997  1
  Rh  Rh6  1  0.660976  0.340526  0.001502  1
  Rh  Rh7  1  0.341941  0.660939  0.002880  1
  Rh  Rh8  1  0.000000  0.323770  0.323770  1
