# generated using pymatgen
data_Sr6LaPr(Si3Pd)4
_symmetry_space_group_name_H-M   'P 1'
_cell_length_a   8.41073300
_cell_length_b   8.41073287
_cell_length_c   8.87805200
_cell_angle_alpha   90.00000000
_cell_angle_beta   90.00000000
_cell_angle_gamma   120.00000446
_symmetry_Int_Tables_number   1
_chemical_formula_structural   Sr6LaPr(Si3Pd)4
_chemical_formula_sum   'Sr6 La1 Pr1 Si12 Pd4'
_cell_volume   543.89614748
_cell_formula_units_Z   1
loop_
 _symmetry_equiv_pos_site_id
 _symmetry_equiv_pos_as_xyz
  1  'x, y, z'
loop_
 _atom_site_type_symbol
 _atom_site_label
 _atom_site_symmetry_multiplicity
 _atom_site_fract_x
 _atom_site_fract_y
 _atom_site_fract_z
 _atom_site_occupancy
  Sr  Sr0  1  0.500285  0.000573  0.250000  1
  Sr  Sr1  1  0.499709  0.999415  0.750000  1
  Sr  Sr2  1  0.999427  0.499715  0.250000  1
  Sr  Sr3  1  0.000585  0.500291  0.750000  1
  Sr  Sr4  1  0.500285  0.499715  0.250000  1
  Sr  Sr5  1  0.499709  0.500291  0.750000  1
  La  La6  1  0.000000  0.000000  0.750000  1
  Pr  Pr7  1  0.000000  0.000000  0.250000  1
  Si  Si8  1  0.163307  0.326612  0.999594  1
  Si  Si9  1  0.836675  0.673350  0.999131  1
  Si  Si10  1  0.673388  0.836693  0.999594  1
  Si  Si11  1  0.836675  0.673350  0.500869  1
  Si  Si12  1  0.326650  0.163325  0.999131  1
  Si  Si13  1  0.163307  0.326612  0.500406  1
  Si  Si14  1  0.163307  0.836693  0.999594  1
  Si  Si15  1  0.326650  0.163325  0.500869  1
  Si  Si16  1  0.836675  0.163325  0.999131  1
  Si  Si17  1  0.673388  0.836693  0.500406  1
  Si  Si18  1  0.836675  0.163325  0.500869  1
  Si  Si19  1  0.163307  0.836693  0.500406  1
  Pd  Pd20  1  0.333333  0.666667  0.001214  1
  Pd  Pd21  1  0.666667  0.333333  0.000056  1
  Pd  Pd22  1  0.666667  0.333333  0.499944  1
  Pd  Pd23  1  0.333333  0.666667  0.498786  1
