# generated using pymatgen
data_Tc3OsO12
_symmetry_space_group_name_H-M   'P 1'
_cell_length_a   6.54369131
_cell_length_b   6.54363483
_cell_length_c   6.54369100
_cell_angle_alpha   109.47103844
_cell_angle_beta   109.47138694
_cell_angle_gamma   109.47105378
_symmetry_Int_Tables_number   1
_chemical_formula_structural   Tc3OsO12
_chemical_formula_sum   'Tc3 Os1 O12'
_cell_volume   215.69681452
_cell_formula_units_Z   1
loop_
 _symmetry_equiv_pos_site_id
 _symmetry_equiv_pos_as_xyz
  1  'x, y, z'
loop_
 _atom_site_type_symbol
 _atom_site_label
 _atom_site_symmetry_multiplicity
 _atom_site_fract_x
 _atom_site_fract_y
 _atom_site_fract_z
 _atom_site_occupancy
  Tc  Tc0  1  0.000000  0.000000  0.500000  1
  Tc  Tc1  1  0.500000  0.000000  0.000000  1
  Tc  Tc2  1  0.500000  0.500000  0.500000  1
  Os  Os3  1  0.000000  0.500000  0.000000  1
  O  O4  1  0.741277  0.759010  0.500284  1
  O  O5  1  0.741715  0.241427  0.982120  1
  O  O6  1  0.258285  0.758573  0.017880  1
  O  O7  1  0.240405  0.499714  0.258285  1
  O  O8  1  0.258723  0.240990  0.499716  1
  O  O9  1  0.759007  0.017733  0.258723  1
  O  O10  1  0.982120  0.740693  0.240405  1
  O  O11  1  0.759595  0.500286  0.741715  1
  O  O12  1  0.017880  0.259307  0.759595  1
  O  O13  1  0.240993  0.982267  0.741277  1
  O  O14  1  0.500284  0.741275  0.759007  1
  O  O15  1  0.499716  0.258725  0.240993  1
