# generated using pymatgen
data_HoTm3Ga4CoRu3
_symmetry_space_group_name_H-M   'P 1'
_cell_length_a   4.44602100
_cell_length_b   7.04621729
_cell_length_c   7.09063000
_cell_angle_alpha   89.82279035
_cell_angle_beta   90.00000000
_cell_angle_gamma   90.00000000
_symmetry_Int_Tables_number   1
_chemical_formula_structural   HoTm3Ga4CoRu3
_chemical_formula_sum   'Ho1 Tm3 Ga4 Co1 Ru3'
_cell_volume   222.13157093
_cell_formula_units_Z   1
loop_
 _symmetry_equiv_pos_site_id
 _symmetry_equiv_pos_as_xyz
  1  'x, y, z'
loop_
 _atom_site_type_symbol
 _atom_site_label
 _atom_site_symmetry_multiplicity
 _atom_site_fract_x
 _atom_site_fract_y
 _atom_site_fract_z
 _atom_site_occupancy
  Ho  Ho0  1  0.250000  0.195639  0.021535  1
  Tm  Tm1  1  0.250000  0.303846  0.521673  1
  Tm  Tm2  1  0.750000  0.696899  0.478239  1
  Tm  Tm3  1  0.750000  0.801238  0.984464  1
  Ga  Ga4  1  0.250000  0.895289  0.699086  1
  Ga  Ga5  1  0.250000  0.599579  0.196988  1
  Ga  Ga6  1  0.750000  0.113008  0.297848  1
  Ga  Ga7  1  0.750000  0.392710  0.807912  1
  Co  Co8  1  0.750000  0.438506  0.156402  1
  Ru  Ru9  1  0.250000  0.934707  0.339047  1
  Ru  Ru10  1  0.250000  0.563795  0.839486  1
  Ru  Ru11  1  0.750000  0.064784  0.657321  1
