# generated using pymatgen
data_NaPr2Dy(Si5Pt3)2
_symmetry_space_group_name_H-M   'P 1'
_cell_length_a   8.23179796
_cell_length_b   8.27850110
_cell_length_c   8.27850043
_cell_angle_alpha   137.24729977
_cell_angle_beta   104.60420345
_cell_angle_gamma   90.86385943
_symmetry_Int_Tables_number   1
_chemical_formula_structural   NaPr2Dy(Si5Pt3)2
_chemical_formula_sum   'Na1 Pr2 Dy1 Si10 Pt6'
_cell_volume   352.96092230
_cell_formula_units_Z   1
loop_
 _symmetry_equiv_pos_site_id
 _symmetry_equiv_pos_as_xyz
  1  'x, y, z'
loop_
 _atom_site_type_symbol
 _atom_site_label
 _atom_site_symmetry_multiplicity
 _atom_site_fract_x
 _atom_site_fract_y
 _atom_site_fract_z
 _atom_site_occupancy
  Na  Na0  1  0.864014  0.628096  0.235918  1
  Pr  Pr1  1  0.395259  0.128812  0.266447  1
  Pr  Pr2  1  0.606978  0.873901  0.733078  1
  Dy  Dy3  1  0.138477  0.369189  0.769288  1
  Si  Si4  1  0.500384  0.746519  0.247224  1
  Si  Si5  1  0.500384  0.253159  0.753864  1
  Si  Si6  1  0.226354  0.980160  0.747248  1
  Si  Si7  1  0.772353  0.521515  0.751886  1
  Si  Si8  1  0.772353  0.020467  0.250838  1
  Si  Si9  1  0.226354  0.479105  0.246194  1
  Si  Si10  1  0.036691  0.885228  0.151463  1
  Si  Si11  1  0.962867  0.114662  0.848204  1
  Si  Si12  1  0.740696  0.391090  0.349606  1
  Si  Si13  1  0.258561  0.609147  0.649415  1
  Pt  Pt14  1  0.001658  0.752732  0.755414  1
  Pt  Pt15  1  0.001658  0.246243  0.248926  1
  Pt  Pt16  1  0.248298  0.862472  0.385826  1
  Pt  Pt17  1  0.749540  0.137813  0.611726  1
  Pt  Pt18  1  0.476216  0.364386  0.111829  1
  Pt  Pt19  1  0.520908  0.635302  0.885605  1
