# generated using pymatgen
data_YbGd6RuCl12
_symmetry_space_group_name_H-M   'P 1'
_cell_length_a   9.01922011
_cell_length_b   8.98641070
_cell_length_c   9.01326700
_cell_angle_alpha   107.24749393
_cell_angle_beta   107.14239313
_cell_angle_gamma   107.15636243
_symmetry_Int_Tables_number   1
_chemical_formula_structural   YbGd6RuCl12
_chemical_formula_sum   'Yb1 Gd6 Ru1 Cl12'
_cell_volume   605.34379602
_cell_formula_units_Z   1
loop_
 _symmetry_equiv_pos_site_id
 _symmetry_equiv_pos_as_xyz
  1  'x, y, z'
loop_
 _atom_site_type_symbol
 _atom_site_label
 _atom_site_symmetry_multiplicity
 _atom_site_fract_x
 _atom_site_fract_y
 _atom_site_fract_z
 _atom_site_occupancy
  Yb  Yb0  1  0.500000  0.500000  0.500000  1
  Gd  Gd1  1  0.110573  0.322957  0.020818  1
  Gd  Gd2  1  0.326981  0.021470  0.112473  1
  Gd  Gd3  1  0.021747  0.110793  0.324727  1
  Gd  Gd4  1  0.978254  0.889207  0.675274  1
  Gd  Gd5  1  0.673019  0.978531  0.887527  1
  Gd  Gd6  1  0.889427  0.677043  0.979182  1
  Ru  Ru7  1  0.000000  0.000000  0.000000  1
  Cl  Cl8  1  0.213567  0.680012  0.071751  1
  Cl  Cl9  1  0.451299  0.370376  0.166929  1
  Cl  Cl10  1  0.680363  0.072663  0.213604  1
  Cl  Cl11  1  0.927399  0.785596  0.319918  1
  Cl  Cl12  1  0.166821  0.450780  0.370307  1
  Cl  Cl13  1  0.371293  0.166440  0.451572  1
  Cl  Cl14  1  0.628707  0.833560  0.548429  1
  Cl  Cl15  1  0.833180  0.549220  0.629693  1
  Cl  Cl16  1  0.072602  0.214404  0.680083  1
  Cl  Cl17  1  0.319638  0.927338  0.786396  1
  Cl  Cl18  1  0.548701  0.629624  0.833072  1
  Cl  Cl19  1  0.786433  0.319988  0.928249  1
