# generated using pymatgen
data_Sm6Cd23Pb
_symmetry_space_group_name_H-M   'P 1'
_cell_length_a   10.07974368
_cell_length_b   10.07974374
_cell_length_c   10.07974400
_cell_angle_alpha   59.99999914
_cell_angle_beta   59.99999896
_cell_angle_gamma   59.99999570
_symmetry_Int_Tables_number   1
_chemical_formula_structural   Sm6Cd23Pb
_chemical_formula_sum   'Sm6 Cd23 Pb1'
_cell_volume   724.15821810
_cell_formula_units_Z   1
loop_
 _symmetry_equiv_pos_site_id
 _symmetry_equiv_pos_as_xyz
  1  'x, y, z'
loop_
 _atom_site_type_symbol
 _atom_site_label
 _atom_site_symmetry_multiplicity
 _atom_site_fract_x
 _atom_site_fract_y
 _atom_site_fract_z
 _atom_site_occupancy
  Sm  Sm0  1  0.777184  0.777184  0.222816  1
  Sm  Sm1  1  0.222816  0.777184  0.222816  1
  Sm  Sm2  1  0.777184  0.222816  0.222816  1
  Sm  Sm3  1  0.222816  0.222816  0.777184  1
  Sm  Sm4  1  0.777184  0.222816  0.777184  1
  Sm  Sm5  1  0.222816  0.777184  0.777184  1
  Cd  Cd6  1  0.840844  0.840844  0.477468  1
  Cd  Cd7  1  0.840844  0.477468  0.840844  1
  Cd  Cd8  1  0.477468  0.840844  0.840844  1
  Cd  Cd9  1  0.840844  0.840844  0.840844  1
  Cd  Cd10  1  0.159156  0.159156  0.522532  1
  Cd  Cd11  1  0.159156  0.522532  0.159156  1
  Cd  Cd12  1  0.522532  0.159156  0.159156  1
  Cd  Cd13  1  0.159156  0.159156  0.159156  1
  Cd  Cd14  1  0.624578  0.624578  0.126265  1
  Cd  Cd15  1  0.624578  0.126265  0.624578  1
  Cd  Cd16  1  0.126265  0.624578  0.624578  1
  Cd  Cd17  1  0.624578  0.624578  0.624578  1
  Cd  Cd18  1  0.375422  0.375422  0.873735  1
  Cd  Cd19  1  0.375422  0.873735  0.375422  1
  Cd  Cd20  1  0.873735  0.375422  0.375422  1
  Cd  Cd21  1  0.375422  0.375422  0.375422  1
  Cd  Cd22  1  0.000000  0.000000  0.500000  1
  Cd  Cd23  1  0.500000  0.000000  0.500000  1
  Cd  Cd24  1  0.000000  0.500000  0.500000  1
  Cd  Cd25  1  0.500000  0.500000  0.000000  1
  Cd  Cd26  1  0.000000  0.500000  0.000000  1
  Cd  Cd27  1  0.500000  0.000000  0.000000  1
  Cd  Cd28  1  0.500000  0.500000  0.500000  1
  Pb  Pb29  1  0.000000  0.000000  0.000000  1
