# generated using pymatgen
data_Y4Ga18PtRh5
_symmetry_space_group_name_H-M   'P 1'
_cell_length_a   7.60355630
_cell_length_b   7.60355588
_cell_length_c   9.52826605
_cell_angle_alpha   89.99409049
_cell_angle_beta   89.99408759
_cell_angle_gamma   119.88462176
_symmetry_Int_Tables_number   1
_chemical_formula_structural   Y4Ga18PtRh5
_chemical_formula_sum   'Y4 Ga18 Pt1 Rh5'
_cell_volume   477.61917663
_cell_formula_units_Z   1
loop_
 _symmetry_equiv_pos_site_id
 _symmetry_equiv_pos_as_xyz
  1  'x, y, z'
loop_
 _atom_site_type_symbol
 _atom_site_label
 _atom_site_symmetry_multiplicity
 _atom_site_fract_x
 _atom_site_fract_y
 _atom_site_fract_z
 _atom_site_occupancy
  Y  Y0  1  0.997495  0.667329  0.250305  1
  Y  Y1  1  0.001831  0.332098  0.749933  1
  Y  Y2  1  0.667902  0.998169  0.250067  1
  Y  Y3  1  0.332671  0.002505  0.749695  1
  Ga  Ga4  1  0.331690  0.331761  0.563252  1
  Ga  Ga5  1  0.668239  0.668310  0.436748  1
  Ga  Ga6  1  0.667773  0.671371  0.065242  1
  Ga  Ga7  1  0.328629  0.332227  0.934758  1
  Ga  Ga8  1  0.340768  0.547203  0.250341  1
  Ga  Ga9  1  0.659538  0.455863  0.746801  1
  Ga  Ga10  1  0.544137  0.340462  0.253199  1
  Ga  Ga11  1  0.452797  0.659232  0.749659  1
  Ga  Ga12  1  0.004112  0.334239  0.080721  1
  Ga  Ga13  1  0.003683  0.669494  0.919435  1
  Ga  Ga14  1  0.000424  0.665756  0.578873  1
  Ga  Ga15  1  0.334244  0.999576  0.421127  1
  Ga  Ga16  1  0.000036  0.334070  0.420827  1
  Ga  Ga17  1  0.665930  0.999964  0.579173  1
  Ga  Ga18  1  0.665761  0.995888  0.919279  1
  Ga  Ga19  1  0.330506  0.996317  0.080565  1
  Ga  Ga20  1  0.122743  0.122067  0.250248  1
  Ga  Ga21  1  0.877933  0.877257  0.749752  1
  Pt  Pt22  1  0.671584  0.328416  0.000000  1
  Rh  Rh23  1  0.000027  0.999973  0.000000  1
  Rh  Rh24  1  0.000077  0.999923  0.500000  1
  Rh  Rh25  1  0.328951  0.671049  0.000000  1
  Rh  Rh26  1  0.328793  0.671207  0.500000  1
  Rh  Rh27  1  0.671726  0.328274  0.500000  1
