# generated using pymatgen
data_Lu4AlTcOs6
_symmetry_space_group_name_H-M   'P 1'
_cell_length_a   5.37503100
_cell_length_b   5.28681885
_cell_length_c   8.64514764
_cell_angle_alpha   89.94025215
_cell_angle_beta   90.00000000
_cell_angle_gamma   120.55347850
_symmetry_Int_Tables_number   1
_chemical_formula_structural   Lu4AlTcOs6
_chemical_formula_sum   'Lu4 Al1 Tc1 Os6'
_cell_volume   211.55770989
_cell_formula_units_Z   1
loop_
 _symmetry_equiv_pos_site_id
 _symmetry_equiv_pos_as_xyz
  1  'x, y, z'
loop_
 _atom_site_type_symbol
 _atom_site_label
 _atom_site_symmetry_multiplicity
 _atom_site_fract_x
 _atom_site_fract_y
 _atom_site_fract_z
 _atom_site_occupancy
  Lu  Lu0  1  0.334261  0.668522  0.434895  1
  Lu  Lu1  1  0.668619  0.337237  0.563224  1
  Lu  Lu2  1  0.667300  0.334598  0.931411  1
  Lu  Lu3  1  0.332689  0.665380  0.070604  1
  Al  Al4  1  0.999237  0.998475  0.001305  1
  Tc  Tc5  1  0.170434  0.340869  0.748744  1
  Os  Os6  1  0.171783  0.829002  0.752534  1
  Os  Os7  1  0.341575  0.170335  0.248782  1
  Os  Os8  1  0.827094  0.654189  0.249222  1
  Os  Os9  1  0.657219  0.829002  0.752534  1
  Os  Os10  1  0.828761  0.170335  0.248782  1
  Os  Os11  1  0.001028  0.002056  0.497965  1
