# generated using pymatgen
data_Lu10Al3Co
_symmetry_space_group_name_H-M   'P 1'
_cell_length_a   9.24243700
_cell_length_b   9.24243878
_cell_length_c   9.41635100
_cell_angle_alpha   90.00000000
_cell_angle_beta   90.00000000
_cell_angle_gamma   119.99999721
_symmetry_Int_Tables_number   1
_chemical_formula_structural   Lu10Al3Co
_chemical_formula_sum   'Lu20 Al6 Co2'
_cell_volume   696.60464184
_cell_formula_units_Z   2
loop_
 _symmetry_equiv_pos_site_id
 _symmetry_equiv_pos_as_xyz
  1  'x, y, z'
loop_
 _atom_site_type_symbol
 _atom_site_label
 _atom_site_symmetry_multiplicity
 _atom_site_fract_x
 _atom_site_fract_y
 _atom_site_fract_z
 _atom_site_occupancy
  Lu  Lu0  1  0.000000  0.000000  0.500000  1
  Lu  Lu1  1  0.000000  0.000000  0.000000  1
  Lu  Lu2  1  0.541805  0.458195  0.250000  1
  Lu  Lu3  1  0.541805  0.083610  0.250000  1
  Lu  Lu4  1  0.916390  0.458195  0.250000  1
  Lu  Lu5  1  0.458195  0.541805  0.750000  1
  Lu  Lu6  1  0.458195  0.916390  0.750000  1
  Lu  Lu7  1  0.083610  0.541805  0.750000  1
  Lu  Lu8  1  0.209074  0.790926  0.436674  1
  Lu  Lu9  1  0.209074  0.418150  0.436674  1
  Lu  Lu10  1  0.581850  0.790926  0.436674  1
  Lu  Lu11  1  0.790926  0.209074  0.563326  1
  Lu  Lu12  1  0.790926  0.581850  0.563326  1
  Lu  Lu13  1  0.418150  0.209074  0.563326  1
  Lu  Lu14  1  0.790926  0.209074  0.936674  1
  Lu  Lu15  1  0.790926  0.581850  0.936674  1
  Lu  Lu16  1  0.418150  0.209074  0.936674  1
  Lu  Lu17  1  0.209074  0.790926  0.063326  1
  Lu  Lu18  1  0.209074  0.418150  0.063326  1
  Lu  Lu19  1  0.581850  0.790926  0.063326  1
  Al  Al20  1  0.889713  0.110287  0.250000  1
  Al  Al21  1  0.889713  0.779426  0.250000  1
  Al  Al22  1  0.220574  0.110287  0.250000  1
  Al  Al23  1  0.110287  0.889713  0.750000  1
  Al  Al24  1  0.110287  0.220574  0.750000  1
  Al  Al25  1  0.779426  0.889713  0.750000  1
  Co  Co26  1  0.333333  0.666667  0.250000  1
  Co  Co27  1  0.666667  0.333333  0.750000  1
