# generated using pymatgen
data_Ca5Ac3Ti3MnN12
_symmetry_space_group_name_H-M   'P 1'
_cell_length_a   6.17464338
_cell_length_b   6.17464200
_cell_length_c   12.09084866
_cell_angle_alpha   91.16246672
_cell_angle_beta   88.83753286
_cell_angle_gamma   125.08608208
_symmetry_Int_Tables_number   1
_chemical_formula_structural   Ca5Ac3Ti3MnN12
_chemical_formula_sum   'Ca5 Ac3 Ti3 Mn1 N12'
_cell_volume   377.11501372
_cell_formula_units_Z   1
loop_
 _symmetry_equiv_pos_site_id
 _symmetry_equiv_pos_as_xyz
  1  'x, y, z'
loop_
 _atom_site_type_symbol
 _atom_site_label
 _atom_site_symmetry_multiplicity
 _atom_site_fract_x
 _atom_site_fract_y
 _atom_site_fract_z
 _atom_site_occupancy
  Ca  Ca0  1  0.941047  0.058953  0.138198  1
  Ca  Ca1  1  0.144992  0.855008  0.424258  1
  Ca  Ca2  1  0.862968  0.137032  0.575010  1
  Ca  Ca3  1  0.356033  0.643967  0.926825  1
  Ca  Ca4  1  0.633744  0.366256  0.074963  1
  Ac  Ac5  1  0.462890  0.537110  0.341862  1
  Ac  Ac6  1  0.542080  0.457920  0.645877  1
  Ac  Ac7  1  0.038221  0.961779  0.858978  1
  Ti  Ti8  1  0.247061  0.752939  0.164230  1
  Ti  Ti9  1  0.746276  0.253724  0.839525  1
  Ti  Ti10  1  0.249223  0.750777  0.657867  1
  Mn  Mn11  1  0.760801  0.239199  0.342725  1
  N  N12  1  0.144801  0.855199  0.039783  1
  N  N13  1  0.838674  0.161326  0.969472  1
  N  N14  1  0.350429  0.649571  0.527253  1
  N  N15  1  0.667031  0.332969  0.465081  1
  N  N16  1  0.418207  0.581793  0.131183  1
  N  N17  1  0.570955  0.429045  0.865792  1
  N  N18  1  0.075757  0.924243  0.629765  1
  N  N19  1  0.921723  0.078277  0.361513  1
  N  N20  1  0.947912  0.532087  0.261997  1
  N  N21  1  0.555509  0.944246  0.747924  1
  N  N22  1  0.055754  0.444491  0.747924  1
  N  N23  1  0.467913  0.052088  0.261997  1
