# generated using pymatgen
data_La2Dy2P7Ir8
_symmetry_space_group_name_H-M   'P 1'
_cell_length_a   3.97160100
_cell_length_b   12.84149775
_cell_length_c   13.21818110
_cell_angle_alpha   81.01961150
_cell_angle_beta   90.00000000
_cell_angle_gamma   90.00000000
_symmetry_Int_Tables_number   1
_chemical_formula_structural   La2Dy2P7Ir8
_chemical_formula_sum   'La4 Dy4 P14 Ir16'
_cell_volume   665.88071048
_cell_formula_units_Z   2
loop_
 _symmetry_equiv_pos_site_id
 _symmetry_equiv_pos_as_xyz
  1  'x, y, z'
loop_
 _atom_site_type_symbol
 _atom_site_label
 _atom_site_symmetry_multiplicity
 _atom_site_fract_x
 _atom_site_fract_y
 _atom_site_fract_z
 _atom_site_occupancy
  La  La0  1  0.250000  0.106176  0.786611  1
  La  La1  1  0.750000  0.893824  0.213389  1
  La  La2  1  0.250000  0.280578  0.103601  1
  La  La3  1  0.750000  0.719422  0.896399  1
  Dy  Dy4  1  0.250000  0.520218  0.294451  1
  Dy  Dy5  1  0.750000  0.479782  0.705549  1
  Dy  Dy6  1  0.250000  0.208482  0.440198  1
  Dy  Dy7  1  0.750000  0.791518  0.559802  1
  P  P8  1  0.250000  0.052926  0.099221  1
  P  P9  1  0.750000  0.947074  0.900779  1
  P  P10  1  0.250000  0.317481  0.685354  1
  P  P11  1  0.750000  0.682519  0.314646  1
  P  P12  1  0.250000  0.607724  0.565613  1
  P  P13  1  0.750000  0.392276  0.434387  1
  P  P14  1  0.250000  0.842195  0.715547  1
  P  P15  1  0.750000  0.157805  0.284453  1
  P  P16  1  0.750000  0.258046  0.917095  1
  P  P17  1  0.250000  0.741954  0.082905  1
  P  P18  1  0.750000  0.092911  0.587634  1
  P  P19  1  0.250000  0.907089  0.412366  1
  P  P20  1  0.750000  0.473016  0.129680  1
  P  P21  1  0.250000  0.526984  0.870320  1
  Ir  Ir22  1  0.250000  0.989392  0.575548  1
  Ir  Ir23  1  0.750000  0.010608  0.424452  1
  Ir  Ir24  1  0.250000  0.660901  0.727256  1
  Ir  Ir25  1  0.750000  0.339099  0.272744  1
  Ir  Ir26  1  0.250000  0.550184  0.049912  1
  Ir  Ir27  1  0.750000  0.449816  0.950088  1
  Ir  Ir28  1  0.250000  0.063616  0.274140  1
  Ir  Ir29  1  0.750000  0.936384  0.725860  1
  Ir  Ir30  1  0.250000  0.423118  0.522354  1
  Ir  Ir31  1  0.750000  0.576882  0.477646  1
  Ir  Ir32  1  0.250000  0.915721  0.998191  1
  Ir  Ir33  1  0.750000  0.084279  0.001809  1
  Ir  Ir34  1  0.250000  0.727594  0.399136  1
  Ir  Ir35  1  0.750000  0.272406  0.600864  1
  Ir  Ir36  1  0.250000  0.344119  0.855280  1
  Ir  Ir37  1  0.750000  0.655881  0.144720  1
