# generated using pymatgen
data_Ho8TiSi16Tc10Mo
_symmetry_space_group_name_H-M   'P 1'
_cell_length_a   6.77655653
_cell_length_b   6.77492218
_cell_length_c   12.79606629
_cell_angle_alpha   90.05085472
_cell_angle_beta   90.07658500
_cell_angle_gamma   90.35014490
_symmetry_Int_Tables_number   1
_chemical_formula_structural   Ho8TiSi16Tc10Mo
_chemical_formula_sum   'Ho8 Ti1 Si16 Tc10 Mo1'
_cell_volume   587.46390249
_cell_formula_units_Z   1
loop_
 _symmetry_equiv_pos_site_id
 _symmetry_equiv_pos_as_xyz
  1  'x, y, z'
loop_
 _atom_site_type_symbol
 _atom_site_label
 _atom_site_symmetry_multiplicity
 _atom_site_fract_x
 _atom_site_fract_y
 _atom_site_fract_z
 _atom_site_occupancy
  Ho  Ho0  1  0.332314  0.992923  0.467950  1
  Ho  Ho1  1  0.502353  0.838619  0.721691  1
  Ho  Ho2  1  0.491151  0.160565  0.217455  1
  Ho  Ho3  1  0.837626  0.502651  0.277588  1
  Ho  Ho4  1  0.161980  0.492530  0.781961  1
  Ho  Ho5  1  0.662341  0.008932  0.968523  1
  Ho  Ho6  1  0.993273  0.333083  0.531946  1
  Ho  Ho7  1  0.009256  0.662106  0.031799  1
  Ti  Ti8  1  0.662803  0.662742  0.499812  1
  Si  Si9  1  0.195384  0.115675  0.683936  1
  Si  Si10  1  0.386165  0.695075  0.933567  1
  Si  Si11  1  0.621352  0.295184  0.432914  1
  Si  Si12  1  0.695244  0.385935  0.066533  1
  Si  Si13  1  0.294900  0.621633  0.567318  1
  Si  Si14  1  0.807802  0.888437  0.185411  1
  Si  Si15  1  0.113473  0.192136  0.315440  1
  Si  Si16  1  0.885230  0.804032  0.815256  1
  Si  Si17  1  0.273485  0.983322  0.059038  1
  Si  Si18  1  0.516557  0.771733  0.305965  1
  Si  Si19  1  0.481347  0.233103  0.811347  1
  Si  Si20  1  0.773479  0.520164  0.693153  1
  Si  Si21  1  0.234813  0.484964  0.190227  1
  Si  Si22  1  0.710547  0.029942  0.566315  1
  Si  Si23  1  0.983131  0.274784  0.940751  1
  Si  Si24  1  0.029584  0.710459  0.433163  1
  Tc  Tc25  1  0.337788  0.336001  0.999329  1
  Tc  Tc26  1  0.162844  0.833905  0.251067  1
  Tc  Tc27  1  0.185068  0.986149  0.869428  1
  Tc  Tc28  1  0.520686  0.690687  0.115697  1
  Tc  Tc29  1  0.488277  0.326107  0.616412  1
  Tc  Tc30  1  0.690917  0.517884  0.885154  1
  Tc  Tc31  1  0.324660  0.486127  0.383466  1
  Tc  Tc32  1  0.813408  0.996392  0.375562  1
  Tc  Tc33  1  0.987226  0.188582  0.131457  1
  Tc  Tc34  1  0.997493  0.814377  0.623328  1
  Mo  Mo35  1  0.836046  0.163057  0.750042  1
