# generated using pymatgen
data_Hf6Fe6Co16Mo
_symmetry_space_group_name_H-M   'P 1'
_cell_length_a   8.15235652
_cell_length_b   8.15235521
_cell_length_c   8.15235600
_cell_angle_alpha   59.99999680
_cell_angle_beta   60.00000212
_cell_angle_gamma   60.00000078
_symmetry_Int_Tables_number   1
_chemical_formula_structural   Hf6Fe6Co16Mo
_chemical_formula_sum   'Hf6 Fe6 Co16 Mo1'
_cell_volume   383.11962246
_cell_formula_units_Z   1
loop_
 _symmetry_equiv_pos_site_id
 _symmetry_equiv_pos_as_xyz
  1  'x, y, z'
loop_
 _atom_site_type_symbol
 _atom_site_label
 _atom_site_symmetry_multiplicity
 _atom_site_fract_x
 _atom_site_fract_y
 _atom_site_fract_z
 _atom_site_occupancy
  Hf  Hf0  1  0.210261  0.789739  0.789739  1
  Hf  Hf1  1  0.789739  0.789739  0.210261  1
  Hf  Hf2  1  0.789739  0.210261  0.210261  1
  Hf  Hf3  1  0.210261  0.210261  0.789739  1
  Hf  Hf4  1  0.789739  0.210261  0.789739  1
  Hf  Hf5  1  0.210261  0.789739  0.210261  1
  Fe  Fe6  1  0.500000  0.000000  0.500000  1
  Fe  Fe7  1  0.500000  0.500000  0.000000  1
  Fe  Fe8  1  0.000000  0.000000  0.500000  1
  Fe  Fe9  1  0.000000  0.500000  0.000000  1
  Fe  Fe10  1  0.000000  0.500000  0.500000  1
  Fe  Fe11  1  0.500000  0.000000  0.000000  1
  Co  Co12  1  0.622085  0.622085  0.133748  1
  Co  Co13  1  0.173633  0.479100  0.173633  1
  Co  Co14  1  0.866252  0.377915  0.377915  1
  Co  Co15  1  0.520900  0.826367  0.826367  1
  Co  Co16  1  0.479100  0.173633  0.173633  1
  Co  Co17  1  0.826367  0.826367  0.520900  1
  Co  Co18  1  0.173633  0.173633  0.479100  1
  Co  Co19  1  0.133748  0.622085  0.622085  1
  Co  Co20  1  0.173633  0.173633  0.173633  1
  Co  Co21  1  0.377915  0.377915  0.866252  1
  Co  Co22  1  0.622085  0.622085  0.622085  1
  Co  Co23  1  0.377915  0.866252  0.377915  1
  Co  Co24  1  0.377915  0.377915  0.377915  1
  Co  Co25  1  0.826367  0.826367  0.826367  1
  Co  Co26  1  0.622085  0.133748  0.622085  1
  Co  Co27  1  0.826367  0.520900  0.826367  1
  Mo  Mo28  1  0.500000  0.500000  0.500000  1
