# generated using pymatgen
data_Pa6Cu5Sn8Pd
_symmetry_space_group_name_H-M   'P 1'
_cell_length_a   8.30115012
_cell_length_b   8.30079140
_cell_length_c   8.30115894
_cell_angle_alpha   109.13846656
_cell_angle_beta   109.63956165
_cell_angle_gamma   109.63403105
_symmetry_Int_Tables_number   1
_chemical_formula_structural   Pa6Cu5Sn8Pd
_chemical_formula_sum   'Pa6 Cu5 Sn8 Pd1'
_cell_volume   440.32667206
_cell_formula_units_Z   1
loop_
 _symmetry_equiv_pos_site_id
 _symmetry_equiv_pos_as_xyz
  1  'x, y, z'
loop_
 _atom_site_type_symbol
 _atom_site_label
 _atom_site_symmetry_multiplicity
 _atom_site_fract_x
 _atom_site_fract_y
 _atom_site_fract_z
 _atom_site_occupancy
  Pa  Pa0  1  0.875499  0.750432  0.125674  1
  Pa  Pa1  1  0.124811  0.374385  0.249843  1
  Pa  Pa2  1  0.624457  0.250110  0.374907  1
  Pa  Pa3  1  0.749962  0.875021  0.624949  1
  Pa  Pa4  1  0.375285  0.125067  0.749645  1
  Pa  Pa5  1  0.250010  0.624986  0.874958  1
  Cu  Cu6  1  0.625254  0.875341  0.250422  1
  Cu  Cu7  1  0.249980  0.125106  0.375203  1
  Cu  Cu8  1  0.375131  0.749956  0.624576  1
  Cu  Cu9  1  0.874694  0.625152  0.750037  1
  Cu  Cu10  1  0.124943  0.249510  0.874812  1
  Sn  Sn11  1  0.171234  0.999676  0.000009  1
  Sn  Sn12  1  0.670552  0.993797  0.997958  1
  Sn  Sn13  1  0.495931  0.501948  0.172528  1
  Sn  Sn14  1  0.328549  0.828709  0.328305  1
  Sn  Sn15  1  0.004146  0.676735  0.506120  1
  Sn  Sn16  1  0.000201  0.171577  0.500246  1
  Sn  Sn17  1  0.499882  0.500001  0.671398  1
  Sn  Sn18  1  0.829452  0.327519  0.823373  1
  Pd  Pd19  1  0.750029  0.374972  0.125037  1
