# generated using pymatgen
data_Ca4NdEr3Cd8
_symmetry_space_group_name_H-M   'P 1'
_cell_length_a   7.54264600
_cell_length_b   7.54505600
_cell_length_c   7.47392800
_cell_angle_alpha   90.00000000
_cell_angle_beta   89.99972654
_cell_angle_gamma   90.00000000
_symmetry_Int_Tables_number   1
_chemical_formula_structural   Ca4NdEr3Cd8
_chemical_formula_sum   'Ca4 Nd1 Er3 Cd8'
_cell_volume   425.33889909
_cell_formula_units_Z   1
loop_
 _symmetry_equiv_pos_site_id
 _symmetry_equiv_pos_as_xyz
  1  'x, y, z'
loop_
 _atom_site_type_symbol
 _atom_site_label
 _atom_site_symmetry_multiplicity
 _atom_site_fract_x
 _atom_site_fract_y
 _atom_site_fract_z
 _atom_site_occupancy
  Ca  Ca0  1  0.749474  0.250000  0.000131  1
  Ca  Ca1  1  0.249753  0.750000  0.499856  1
  Ca  Ca2  1  0.750331  0.250000  0.500148  1
  Ca  Ca3  1  0.250402  0.750000  0.999858  1
  Nd  Nd4  1  0.751885  0.750000  0.500034  1
  Er  Er5  1  0.251611  0.250000  0.000019  1
  Er  Er6  1  0.748664  0.750000  0.999975  1
  Er  Er7  1  0.248437  0.250000  0.499972  1
  Cd  Cd8  1  0.004044  0.495995  0.243745  1
  Cd  Cd9  1  0.004044  0.004004  0.243745  1
  Cd  Cd10  1  0.496111  0.004088  0.248036  1
  Cd  Cd11  1  0.496111  0.495913  0.248036  1
  Cd  Cd12  1  0.495790  0.496024  0.751952  1
  Cd  Cd13  1  0.495790  0.003975  0.751952  1
  Cd  Cd14  1  0.003776  0.004134  0.756267  1
  Cd  Cd15  1  0.003776  0.495867  0.756267  1
