# generated using pymatgen
data_NaHo9S10
_symmetry_space_group_name_H-M   'P 1'
_cell_length_a   6.72515239
_cell_length_b   7.78333242
_cell_length_c   8.74753200
_cell_angle_alpha   103.24702652
_cell_angle_beta   97.19610149
_cell_angle_gamma   106.79192010
_symmetry_Int_Tables_number   1
_chemical_formula_structural   NaHo9S10
_chemical_formula_sum   'Na1 Ho9 S10'
_cell_volume   417.59011465
_cell_formula_units_Z   1
loop_
 _symmetry_equiv_pos_site_id
 _symmetry_equiv_pos_as_xyz
  1  'x, y, z'
loop_
 _atom_site_type_symbol
 _atom_site_label
 _atom_site_symmetry_multiplicity
 _atom_site_fract_x
 _atom_site_fract_y
 _atom_site_fract_z
 _atom_site_occupancy
  Na  Na0  1  0.000000  0.500000  0.000000  1
  Ho  Ho1  1  0.798598  0.600874  0.600547  1
  Ho  Ho2  1  0.604655  0.201948  0.206402  1
  Ho  Ho3  1  0.395345  0.798052  0.793598  1
  Ho  Ho4  1  0.601123  0.703725  0.204980  1
  Ho  Ho5  1  0.201402  0.399126  0.399453  1
  Ho  Ho6  1  0.398877  0.296275  0.795020  1
  Ho  Ho7  1  0.000000  0.000000  0.000000  1
  Ho  Ho8  1  0.201835  0.902191  0.404629  1
  Ho  Ho9  1  0.798165  0.097809  0.595371  1
  S  S10  1  0.696099  0.650731  0.901547  1
  S  S11  1  0.500897  0.251299  0.500056  1
  S  S12  1  0.697412  0.148066  0.900853  1
  S  S13  1  0.302588  0.851934  0.099147  1
  S  S14  1  0.499103  0.748701  0.499944  1
  S  S15  1  0.097819  0.448758  0.699117  1
  S  S16  1  0.303901  0.349269  0.098453  1
  S  S17  1  0.903651  0.049966  0.298899  1
  S  S18  1  0.096349  0.950034  0.701101  1
  S  S19  1  0.902181  0.551242  0.300883  1
