# generated using pymatgen
data_Tm6FeCo13(P3Ir)4
_symmetry_space_group_name_H-M   'P 1'
_cell_length_a   3.71470800
_cell_length_b   10.64937100
_cell_length_c   12.31423400
_cell_angle_alpha   90.00000000
_cell_angle_beta   90.00000000
_cell_angle_gamma   90.00000000
_symmetry_Int_Tables_number   1
_chemical_formula_structural   Tm6FeCo13(P3Ir)4
_chemical_formula_sum   'Tm6 Fe1 Co13 P12 Ir4'
_cell_volume   487.14252201
_cell_formula_units_Z   1
loop_
 _symmetry_equiv_pos_site_id
 _symmetry_equiv_pos_as_xyz
  1  'x, y, z'
loop_
 _atom_site_type_symbol
 _atom_site_label
 _atom_site_symmetry_multiplicity
 _atom_site_fract_x
 _atom_site_fract_y
 _atom_site_fract_z
 _atom_site_occupancy
  Tm  Tm0  1  0.000000  0.500000  0.520150  1
  Tm  Tm1  1  0.500000  0.000000  0.479701  1
  Tm  Tm2  1  0.500000  0.813900  0.206029  1
  Tm  Tm3  1  0.500000  0.186100  0.206029  1
  Tm  Tm4  1  0.000000  0.684306  0.795168  1
  Tm  Tm5  1  0.000000  0.315694  0.795168  1
  Fe  Fe6  1  0.000000  0.500000  0.990876  1
  Co  Co7  1  0.500000  0.000000  0.011260  1
  Co  Co8  1  0.500000  0.330594  0.993762  1
  Co  Co9  1  0.500000  0.669406  0.993762  1
  Co  Co10  1  0.000000  0.167125  0.006524  1
  Co  Co11  1  0.000000  0.832875  0.006524  1
  Co  Co12  1  0.500000  0.300343  0.428933  1
  Co  Co13  1  0.500000  0.699657  0.428933  1
  Co  Co14  1  0.000000  0.200037  0.571113  1
  Co  Co15  1  0.000000  0.799963  0.571113  1
  Co  Co16  1  0.500000  0.879628  0.710884  1
  Co  Co17  1  0.500000  0.120372  0.710884  1
  Co  Co18  1  0.000000  0.620063  0.288686  1
  Co  Co19  1  0.000000  0.379937  0.288686  1
  P  P20  1  0.500000  0.500000  0.890684  1
  P  P21  1  0.000000  0.000000  0.110955  1
  P  P22  1  0.500000  0.500000  0.351124  1
  P  P23  1  0.000000  0.000000  0.647948  1
  P  P24  1  0.500000  0.302878  0.613653  1
  P  P25  1  0.500000  0.697122  0.613653  1
  P  P26  1  0.000000  0.197272  0.386327  1
  P  P27  1  0.000000  0.802728  0.386327  1
  P  P28  1  0.500000  0.844279  0.893486  1
  P  P29  1  0.500000  0.155721  0.893486  1
  P  P30  1  0.000000  0.656296  0.105109  1
  P  P31  1  0.000000  0.343704  0.105109  1
  Ir  Ir32  1  0.500000  0.500000  0.159395  1
  Ir  Ir33  1  0.000000  0.000000  0.838769  1
  Ir  Ir34  1  0.500000  0.500000  0.702328  1
  Ir  Ir35  1  0.000000  0.000000  0.297463  1
