# generated using pymatgen
data_Dy9MgCuNi3Bi2
_symmetry_space_group_name_H-M   'P 1'
_cell_length_a   8.68851302
_cell_length_b   8.68851312
_cell_length_c   8.73643818
_cell_angle_alpha   128.11283868
_cell_angle_beta   127.82887095
_cell_angle_gamma   76.27247573
_symmetry_Int_Tables_number   1
_chemical_formula_structural   Dy9MgCuNi3Bi2
_chemical_formula_sum   'Dy9 Mg1 Cu1 Ni3 Bi2'
_cell_volume   399.13022678
_cell_formula_units_Z   1
loop_
 _symmetry_equiv_pos_site_id
 _symmetry_equiv_pos_as_xyz
  1  'x, y, z'
loop_
 _atom_site_type_symbol
 _atom_site_label
 _atom_site_symmetry_multiplicity
 _atom_site_fract_x
 _atom_site_fract_y
 _atom_site_fract_z
 _atom_site_occupancy
  Dy  Dy0  1  0.499026  0.497328  0.996354  1
  Dy  Dy1  1  0.802479  0.284227  0.825848  1
  Dy  Dy2  1  0.209449  0.722726  0.194798  1
  Dy  Dy3  1  0.472071  0.985349  0.194798  1
  Dy  Dy4  1  0.281343  0.456868  0.475706  1
  Dy  Dy5  1  0.018838  0.194364  0.475706  1
  Dy  Dy6  1  0.541623  0.023369  0.825848  1
  Dy  Dy7  1  0.706626  0.535787  0.506959  1
  Dy  Dy8  1  0.971172  0.800332  0.506959  1
  Mg  Mg9  1  0.000326  0.996969  0.997295  1
  Cu  Cu10  1  0.128648  0.627115  0.755762  1
  Ni  Ni11  1  0.871876  0.380618  0.252495  1
  Ni  Ni12  1  0.623137  0.867380  0.490517  1
  Ni  Ni13  1  0.378261  0.136199  0.514460  1
  Bi  Bi14  1  0.254500  0.252622  0.993248  1
  Bi  Bi15  1  0.740626  0.738747  0.993248  1
