# generated using pymatgen
data_Pr20Co3Sn8Pt
_symmetry_space_group_name_H-M   'P 1'
_cell_length_a   8.25238437
_cell_length_b   9.24361400
_cell_length_c   12.75942278
_cell_angle_alpha   90.00000000
_cell_angle_beta   90.23495227
_cell_angle_gamma   90.00000000
_symmetry_Int_Tables_number   1
_chemical_formula_structural   Pr20Co3Sn8Pt
_chemical_formula_sum   'Pr20 Co3 Sn8 Pt1'
_cell_volume   973.30426405
_cell_formula_units_Z   1
loop_
 _symmetry_equiv_pos_site_id
 _symmetry_equiv_pos_as_xyz
  1  'x, y, z'
loop_
 _atom_site_type_symbol
 _atom_site_label
 _atom_site_symmetry_multiplicity
 _atom_site_fract_x
 _atom_site_fract_y
 _atom_site_fract_z
 _atom_site_occupancy
  Pr  Pr0  1  0.841426  0.750000  0.793472  1
  Pr  Pr1  1  0.160094  0.250000  0.206404  1
  Pr  Pr2  1  0.339868  0.250000  0.708450  1
  Pr  Pr3  1  0.663632  0.750000  0.284323  1
  Pr  Pr4  1  0.363578  0.750000  0.700368  1
  Pr  Pr5  1  0.631633  0.250000  0.304403  1
  Pr  Pr6  1  0.870789  0.250000  0.806972  1
  Pr  Pr7  1  0.129602  0.750000  0.193562  1
  Pr  Pr8  1  0.950268  0.750000  0.501979  1
  Pr  Pr9  1  0.048966  0.250000  0.498184  1
  Pr  Pr10  1  0.449258  0.250000  0.998139  1
  Pr  Pr11  1  0.547484  0.750000  0.000574  1
  Pr  Pr12  1  0.680332  0.041630  0.573735  1
  Pr  Pr13  1  0.322505  0.976135  0.427871  1
  Pr  Pr14  1  0.177335  0.970019  0.930543  1
  Pr  Pr15  1  0.322505  0.523865  0.427871  1
  Pr  Pr16  1  0.822939  0.028874  0.069123  1
  Pr  Pr17  1  0.680332  0.458370  0.573735  1
  Pr  Pr18  1  0.822939  0.471126  0.069123  1
  Pr  Pr19  1  0.177335  0.529981  0.930543  1
  Co  Co20  1  0.421016  0.250000  0.490443  1
  Co  Co21  1  0.077843  0.250000  0.990555  1
  Co  Co22  1  0.917203  0.750000  0.011014  1
  Sn  Sn23  1  0.566755  0.494072  0.828358  1
  Sn  Sn24  1  0.434998  0.505630  0.171296  1
  Sn  Sn25  1  0.064912  0.505339  0.672348  1
  Sn  Sn26  1  0.434998  0.994370  0.171296  1
  Sn  Sn27  1  0.936492  0.494441  0.327358  1
  Sn  Sn28  1  0.566755  0.005928  0.828358  1
  Sn  Sn29  1  0.936492  0.005559  0.327358  1
  Sn  Sn30  1  0.064912  0.994661  0.672348  1
  Pt  Pt31  1  0.574806  0.750000  0.509893  1
