# generated using pymatgen
data_Th3AlGa2Ru3
_symmetry_space_group_name_H-M   'P 1'
_cell_length_a   7.26660615
_cell_length_b   7.26660567
_cell_length_c   4.03083000
_cell_angle_alpha   90.00000000
_cell_angle_beta   90.00000000
_cell_angle_gamma   119.99528787
_symmetry_Int_Tables_number   1
_chemical_formula_structural   Th3AlGa2Ru3
_chemical_formula_sum   'Th3 Al1 Ga2 Ru3'
_cell_volume   184.33548626
_cell_formula_units_Z   1
loop_
 _symmetry_equiv_pos_site_id
 _symmetry_equiv_pos_as_xyz
  1  'x, y, z'
loop_
 _atom_site_type_symbol
 _atom_site_label
 _atom_site_symmetry_multiplicity
 _atom_site_fract_x
 _atom_site_fract_y
 _atom_site_fract_z
 _atom_site_occupancy
  Th  Th0  1  0.419765  0.419765  0.500000  1
  Th  Th1  1  0.579728  0.002178  0.500000  1
  Th  Th2  1  0.002178  0.579728  0.500000  1
  Al  Al3  1  0.768224  0.768224  0.000000  1
  Ga  Ga4  1  0.233868  0.997278  0.000000  1
  Ga  Ga5  1  0.997278  0.233868  0.000000  1
  Ru  Ru6  1  0.665087  0.338698  0.000000  1
  Ru  Ru7  1  0.338698  0.665087  0.000000  1
  Ru  Ru8  1  0.995171  0.995171  0.500000  1
