# generated using pymatgen
data_Hf16Ni5Mo3
_symmetry_space_group_name_H-M   'P 1'
_cell_length_a   8.65604107
_cell_length_b   8.65604115
_cell_length_c   8.65604166
_cell_angle_alpha   60.21003092
_cell_angle_beta   60.21002122
_cell_angle_gamma   60.21002849
_symmetry_Int_Tables_number   1
_chemical_formula_structural   Hf16Ni5Mo3
_chemical_formula_sum   'Hf16 Ni5 Mo3'
_cell_volume   460.79032176
_cell_formula_units_Z   1
loop_
 _symmetry_equiv_pos_site_id
 _symmetry_equiv_pos_as_xyz
  1  'x, y, z'
loop_
 _atom_site_type_symbol
 _atom_site_label
 _atom_site_symmetry_multiplicity
 _atom_site_fract_x
 _atom_site_fract_y
 _atom_site_fract_z
 _atom_site_occupancy
  Hf  Hf0  1  0.687094  0.104827  0.104827  1
  Hf  Hf1  1  0.104827  0.687094  0.104827  1
  Hf  Hf2  1  0.104827  0.104827  0.687094  1
  Hf  Hf3  1  0.103244  0.103244  0.103244  1
  Hf  Hf4  1  0.316341  0.316341  0.686774  1
  Hf  Hf5  1  0.684941  0.684941  0.315521  1
  Hf  Hf6  1  0.316341  0.686774  0.316341  1
  Hf  Hf7  1  0.684941  0.315521  0.684941  1
  Hf  Hf8  1  0.686774  0.316341  0.316341  1
  Hf  Hf9  1  0.315521  0.684941  0.684941  1
  Hf  Hf10  1  0.951933  0.951933  0.547206  1
  Hf  Hf11  1  0.550549  0.550549  0.948410  1
  Hf  Hf12  1  0.951933  0.547206  0.951933  1
  Hf  Hf13  1  0.550549  0.948410  0.550549  1
  Hf  Hf14  1  0.547206  0.951933  0.951933  1
  Hf  Hf15  1  0.948410  0.550549  0.550549  1
  Ni  Ni16  1  0.322789  0.890896  0.890896  1
  Ni  Ni17  1  0.890896  0.322789  0.890896  1
  Ni  Ni18  1  0.890896  0.890896  0.322789  1
  Ni  Ni19  1  0.892549  0.892549  0.892549  1
  Ni  Ni20  1  0.331817  0.331817  0.331817  1
  Mo  Mo21  1  0.999653  0.332982  0.332982  1
  Mo  Mo22  1  0.332982  0.999653  0.332982  1
  Mo  Mo23  1  0.332982  0.332982  0.999653  1
