# generated using pymatgen
data_Hf6Mn5Si6Tc
_symmetry_space_group_name_H-M   'P 1'
_cell_length_a   7.56017005
_cell_length_b   7.55939421
_cell_length_c   7.55939465
_cell_angle_alpha   126.61706150
_cell_angle_beta   126.70617818
_cell_angle_gamma   78.80102082
_symmetry_Int_Tables_number   1
_chemical_formula_structural   Hf6Mn5Si6Tc
_chemical_formula_sum   'Hf6 Mn5 Si6 Tc1'
_cell_volume   269.01228951
_cell_formula_units_Z   1
loop_
 _symmetry_equiv_pos_site_id
 _symmetry_equiv_pos_as_xyz
  1  'x, y, z'
loop_
 _atom_site_type_symbol
 _atom_site_label
 _atom_site_symmetry_multiplicity
 _atom_site_fract_x
 _atom_site_fract_y
 _atom_site_fract_z
 _atom_site_occupancy
  Hf  Hf0  1  0.547763  0.091054  0.043351  1
  Hf  Hf1  1  0.452237  0.495589  0.543291  1
  Hf  Hf2  1  0.953044  0.495402  0.042511  1
  Hf  Hf3  1  0.046956  0.089467  0.542360  1
  Hf  Hf4  1  0.749338  0.899674  0.648650  1
  Hf  Hf5  1  0.250662  0.899312  0.150335  1
  Mn  Mn6  1  0.126505  0.750041  0.624780  1
  Mn  Mn7  1  0.873495  0.498275  0.623537  1
  Mn  Mn8  1  0.625857  0.749884  0.122783  1
  Mn  Mn9  1  0.374143  0.496926  0.124028  1
  Mn  Mn10  1  0.500000  0.245940  0.745940  1
  Si  Si11  1  0.333305  0.829994  0.497483  1
  Si  Si12  1  0.666695  0.164177  0.496688  1
  Si  Si13  1  0.831536  0.825668  0.993346  1
  Si  Si14  1  0.168464  0.161810  0.994131  1
  Si  Si15  1  0.745378  0.502274  0.246587  1
  Si  Si16  1  0.254622  0.501209  0.756897  1
  Tc  Tc17  1  0.000000  0.247301  0.247301  1
