# generated using pymatgen
data_La5Zn2Ir3
_symmetry_space_group_name_H-M   'P 1'
_cell_length_a   8.68942679
_cell_length_b   8.68942586
_cell_length_c   8.68942700
_cell_angle_alpha   109.47122563
_cell_angle_beta   109.47122346
_cell_angle_gamma   109.47121998
_symmetry_Int_Tables_number   1
_chemical_formula_structural   La5Zn2Ir3
_chemical_formula_sum   'La10 Zn4 Ir6'
_cell_volume   505.06982234
_cell_formula_units_Z   2
loop_
 _symmetry_equiv_pos_site_id
 _symmetry_equiv_pos_as_xyz
  1  'x, y, z'
loop_
 _atom_site_type_symbol
 _atom_site_label
 _atom_site_symmetry_multiplicity
 _atom_site_fract_x
 _atom_site_fract_y
 _atom_site_fract_z
 _atom_site_occupancy
  La  La0  1  0.250000  0.683881  0.433882  1
  La  La1  1  0.750000  0.816119  0.066119  1
  La  La2  1  0.433882  0.250000  0.683881  1
  La  La3  1  0.683881  0.433882  0.250000  1
  La  La4  1  0.066119  0.750000  0.816119  1
  La  La5  1  0.816119  0.066119  0.750000  1
  La  La6  1  0.217503  0.217503  0.217503  1
  La  La7  1  0.500001  0.000000  0.282497  1
  La  La8  1  0.282497  0.500001  0.000000  1
  La  La9  1  0.000000  0.282497  0.500001  1
  Zn  Zn10  1  0.500001  0.000000  0.904155  1
  Zn  Zn11  1  0.595845  0.595845  0.595845  1
  Zn  Zn12  1  0.904155  0.500001  0.000000  1
  Zn  Zn13  1  0.000000  0.904155  0.500001  1
  Ir  Ir14  1  0.250001  0.127491  0.877491  1
  Ir  Ir15  1  0.750000  0.372508  0.622508  1
  Ir  Ir16  1  0.877491  0.250001  0.127491  1
  Ir  Ir17  1  0.127491  0.877491  0.250001  1
  Ir  Ir18  1  0.622508  0.750000  0.372508  1
  Ir  Ir19  1  0.372508  0.622508  0.750000  1
