# generated using pymatgen
data_Y12Ga3Si5Rh8
_symmetry_space_group_name_H-M   'P 1'
_cell_length_a   5.54431900
_cell_length_b   7.96648819
_cell_length_c   13.16255484
_cell_angle_alpha   90.30092061
_cell_angle_beta   90.00000000
_cell_angle_gamma   90.00000000
_symmetry_Int_Tables_number   1
_chemical_formula_structural   Y12Ga3Si5Rh8
_chemical_formula_sum   'Y12 Ga3 Si5 Rh8'
_cell_volume   581.36560025
_cell_formula_units_Z   1
loop_
 _symmetry_equiv_pos_site_id
 _symmetry_equiv_pos_as_xyz
  1  'x, y, z'
loop_
 _atom_site_type_symbol
 _atom_site_label
 _atom_site_symmetry_multiplicity
 _atom_site_fract_x
 _atom_site_fract_y
 _atom_site_fract_z
 _atom_site_occupancy
  Y  Y0  1  0.146548  0.603951  0.103353  1
  Y  Y1  1  0.146548  0.896049  0.896647  1
  Y  Y2  1  0.857629  0.106390  0.397686  1
  Y  Y3  1  0.857629  0.393610  0.602314  1
  Y  Y4  1  0.854279  0.397344  0.896961  1
  Y  Y5  1  0.854279  0.102656  0.103039  1
  Y  Y6  1  0.143559  0.896035  0.602700  1
  Y  Y7  1  0.143559  0.603965  0.397300  1
  Y  Y8  1  0.366476  0.246382  0.251131  1
  Y  Y9  1  0.366476  0.253618  0.748869  1
  Y  Y10  1  0.634068  0.746170  0.250809  1
  Y  Y11  1  0.634068  0.753830  0.749191  1
  Ga  Ga12  1  0.366497  0.250000  0.000000  1
  Ga  Ga13  1  0.628974  0.750000  0.500000  1
  Ga  Ga14  1  0.633396  0.750000  0.000000  1
  Si  Si15  1  0.862213  0.391943  0.250376  1
  Si  Si16  1  0.862213  0.108057  0.749624  1
  Si  Si17  1  0.139431  0.891264  0.251832  1
  Si  Si18  1  0.139431  0.608736  0.748168  1
  Si  Si19  1  0.382822  0.250000  0.500000  1
  Rh  Rh20  1  0.643559  0.469705  0.095212  1
  Rh  Rh21  1  0.643559  0.030295  0.904788  1
  Rh  Rh22  1  0.355751  0.978982  0.407606  1
  Rh  Rh23  1  0.355751  0.521018  0.592394  1
  Rh  Rh24  1  0.354518  0.530160  0.904762  1
  Rh  Rh25  1  0.354518  0.969840  0.095238  1
  Rh  Rh26  1  0.636125  0.035567  0.593784  1
  Rh  Rh27  1  0.636125  0.464433  0.406216  1
