# generated using pymatgen
data_Tb(DyHg2)5
_symmetry_space_group_name_H-M   'P 1'
_cell_length_a   6.39165164
_cell_length_b   6.39165126
_cell_length_c   10.18302416
_cell_angle_alpha   89.98791982
_cell_angle_beta   89.98791486
_cell_angle_gamma   105.16271337
_symmetry_Int_Tables_number   1
_chemical_formula_structural   Tb(DyHg2)5
_chemical_formula_sum   'Tb1 Dy5 Hg10'
_cell_volume   401.52661933
_cell_formula_units_Z   1
loop_
 _symmetry_equiv_pos_site_id
 _symmetry_equiv_pos_as_xyz
  1  'x, y, z'
loop_
 _atom_site_type_symbol
 _atom_site_label
 _atom_site_symmetry_multiplicity
 _atom_site_fract_x
 _atom_site_fract_y
 _atom_site_fract_z
 _atom_site_occupancy
  Tb  Tb0  1  0.787515  0.212485  0.000000  1
  Dy  Dy1  1  0.212575  0.787425  0.000000  1
  Dy  Dy2  1  0.212814  0.787186  0.500000  1
  Dy  Dy3  1  0.787258  0.212742  0.500000  1
  Dy  Dy4  1  0.568239  0.568756  0.250070  1
  Dy  Dy5  1  0.431244  0.431761  0.749930  1
  Hg  Hg6  1  0.037242  0.477630  0.250319  1
  Hg  Hg7  1  0.963314  0.523062  0.749711  1
  Hg  Hg8  1  0.476938  0.036686  0.250289  1
  Hg  Hg9  1  0.522370  0.962758  0.749681  1
  Hg  Hg10  1  0.970898  0.970735  0.250208  1
  Hg  Hg11  1  0.029265  0.029102  0.749792  1
  Hg  Hg12  1  0.293411  0.293132  0.029169  1
  Hg  Hg13  1  0.706868  0.706589  0.970831  1
  Hg  Hg14  1  0.707135  0.707086  0.529035  1
  Hg  Hg15  1  0.292914  0.292865  0.470965  1
