# generated using pymatgen
data_CePr3Tm4(ReB6)4
_symmetry_space_group_name_H-M   'P 1'
_cell_length_a   3.71811600
_cell_length_b   9.21241890
_cell_length_c   11.66512615
_cell_angle_alpha   90.05071998
_cell_angle_beta   90.00000000
_cell_angle_gamma   90.00000000
_symmetry_Int_Tables_number   1
_chemical_formula_structural   CePr3Tm4(ReB6)4
_chemical_formula_sum   'Ce1 Pr3 Tm4 Re4 B24'
_cell_volume   399.56356752
_cell_formula_units_Z   1
loop_
 _symmetry_equiv_pos_site_id
 _symmetry_equiv_pos_as_xyz
  1  'x, y, z'
loop_
 _atom_site_type_symbol
 _atom_site_label
 _atom_site_symmetry_multiplicity
 _atom_site_fract_x
 _atom_site_fract_y
 _atom_site_fract_z
 _atom_site_occupancy
  Ce  Ce0  1  0.000000  0.323128  0.414759  1
  Pr  Pr1  1  0.000000  0.677759  0.585312  1
  Pr  Pr2  1  0.000000  0.822593  0.085269  1
  Pr  Pr3  1  0.000000  0.177161  0.914556  1
  Tm  Tm4  1  0.000000  0.943004  0.369478  1
  Tm  Tm5  1  0.000000  0.057059  0.630380  1
  Tm  Tm6  1  0.000000  0.442952  0.130614  1
  Tm  Tm7  1  0.000000  0.556899  0.868863  1
  Re  Re8  1  0.000000  0.637267  0.319703  1
  Re  Re9  1  0.000000  0.360340  0.678987  1
  Re  Re10  1  0.000000  0.141616  0.183519  1
  Re  Re11  1  0.000000  0.860301  0.818605  1
  B  B12  1  0.500000  0.553581  0.429712  1
  B  B13  1  0.500000  0.443199  0.568572  1
  B  B14  1  0.500000  0.056179  0.070810  1
  B  B15  1  0.500000  0.944533  0.929808  1
  B  B16  1  0.500000  0.750739  0.414847  1
  B  B17  1  0.500000  0.249174  0.582960  1
  B  B18  1  0.500000  0.250991  0.085402  1
  B  B19  1  0.500000  0.748883  0.915093  1
  B  B20  1  0.500000  0.791505  0.266024  1
  B  B21  1  0.500000  0.208474  0.733615  1
  B  B22  1  0.500000  0.292451  0.235874  1
  B  B23  1  0.500000  0.708090  0.765558  1
  B  B24  1  0.500000  0.628859  0.186049  1
  B  B25  1  0.500000  0.370871  0.813799  1
  B  B26  1  0.500000  0.130843  0.315705  1
  B  B27  1  0.500000  0.870903  0.685613  1
  B  B28  1  0.500000  0.984796  0.214212  1
  B  B29  1  0.500000  0.016108  0.786083  1
  B  B30  1  0.500000  0.482667  0.287147  1
  B  B31  1  0.500000  0.515605  0.713661  1
  B  B32  1  0.500000  0.594980  0.026027  1
  B  B33  1  0.500000  0.404812  0.973807  1
  B  B34  1  0.500000  0.097671  0.473294  1
  B  B35  1  0.500000  0.904006  0.526285  1
