# generated using pymatgen
data_Pr3Mg2CdGa2Hg
_symmetry_space_group_name_H-M   'P 1'
_cell_length_a   7.60682546
_cell_length_b   7.63504171
_cell_length_c   4.55040700
_cell_angle_alpha   90.00000000
_cell_angle_beta   90.00000000
_cell_angle_gamma   120.12277544
_symmetry_Int_Tables_number   1
_chemical_formula_structural   Pr3Mg2CdGa2Hg
_chemical_formula_sum   'Pr3 Mg2 Cd1 Ga2 Hg1'
_cell_volume   228.58994072
_cell_formula_units_Z   1
loop_
 _symmetry_equiv_pos_site_id
 _symmetry_equiv_pos_as_xyz
  1  'x, y, z'
loop_
 _atom_site_type_symbol
 _atom_site_label
 _atom_site_symmetry_multiplicity
 _atom_site_fract_x
 _atom_site_fract_y
 _atom_site_fract_z
 _atom_site_occupancy
  Pr  Pr0  1  0.000000  0.428394  0.000000  1
  Pr  Pr1  1  0.577351  0.576440  0.000000  1
  Pr  Pr2  1  0.422649  0.999089  0.000000  1
  Mg  Mg3  1  0.245185  0.244173  0.500000  1
  Mg  Mg4  1  0.754815  0.998988  0.500000  1
  Cd  Cd5  1  0.000000  0.747827  0.500000  1
  Ga  Ga6  1  0.335859  0.666580  0.500000  1
  Ga  Ga7  1  0.664141  0.330720  0.500000  1
  Hg  Hg8  1  0.000000  0.007788  0.000000  1
