# generated using pymatgen
data_Zr8CuTc3Os4
_symmetry_space_group_name_H-M   'P 1'
_cell_length_a   6.57415500
_cell_length_b   4.65325400
_cell_length_c   9.32684900
_cell_angle_alpha   90.00000000
_cell_angle_beta   90.00008915
_cell_angle_gamma   90.00000000
_symmetry_Int_Tables_number   1
_chemical_formula_structural   Zr8CuTc3Os4
_chemical_formula_sum   'Zr8 Cu1 Tc3 Os4'
_cell_volume   285.31962485
_cell_formula_units_Z   1
loop_
 _symmetry_equiv_pos_site_id
 _symmetry_equiv_pos_as_xyz
  1  'x, y, z'
loop_
 _atom_site_type_symbol
 _atom_site_label
 _atom_site_symmetry_multiplicity
 _atom_site_fract_x
 _atom_site_fract_y
 _atom_site_fract_z
 _atom_site_occupancy
  Zr  Zr0  1  0.003626  0.749999  0.125010  1
  Zr  Zr1  1  0.496465  0.749999  0.125016  1
  Zr  Zr2  1  0.001122  0.249999  0.376408  1
  Zr  Zr3  1  0.498984  0.249999  0.376419  1
  Zr  Zr4  1  0.499950  0.749999  0.625017  1
  Zr  Zr5  1  0.999945  0.749999  0.625017  1
  Zr  Zr6  1  0.498898  0.249999  0.873569  1
  Zr  Zr7  1  0.001024  0.249999  0.873567  1
  Cu  Cu8  1  0.750012  0.249999  0.124981  1
  Tc  Tc9  1  0.250043  0.749999  0.373874  1
  Tc  Tc10  1  0.749960  0.249999  0.625000  1
  Tc  Tc11  1  0.249960  0.749999  0.876125  1
  Os  Os12  1  0.250045  0.249999  0.124998  1
  Os  Os13  1  0.750045  0.749999  0.372920  1
  Os  Os14  1  0.249960  0.249999  0.624998  1
  Os  Os15  1  0.749965  0.749999  0.877080  1
