# generated using pymatgen
data_Gd3(PbS3)2
_symmetry_space_group_name_H-M   'P 1'
_cell_length_a   7.00458437
_cell_length_b   19.83690860
_cell_length_c   21.08122429
_cell_angle_alpha   93.19323623
_cell_angle_beta   82.16122846
_cell_angle_gamma   105.95518119
_symmetry_Int_Tables_number   1
_chemical_formula_structural   Gd3(PbS3)2
_chemical_formula_sum   'Gd3 Pb2 S6'
_cell_volume   2789.55201220
_cell_formula_units_Z   1
loop_
 _symmetry_equiv_pos_site_id
 _symmetry_equiv_pos_as_xyz
  1  'x, y, z'
loop_
 _atom_site_type_symbol
 _atom_site_label
 _atom_site_symmetry_multiplicity
 _atom_site_fract_x
 _atom_site_fract_y
 _atom_site_fract_z
 _atom_site_occupancy
  Gd  Gd0  1  0.633489  0.466000  0.386532  1
  Gd  Gd1  1  0.063546  0.209834  0.394290  1
  Gd  Gd2  1  0.650214  0.699418  0.086381  1
  Pb  Pb3  1  0.695182  0.444132  0.909498  1
  Pb  Pb4  1  0.130511  0.701851  0.231371  1
  S  S5  1  0.655427  0.261189  0.502903  1
  S  S6  1  0.698621  0.075964  0.679447  1
  S  S7  1  0.051156  0.030213  0.354428  1
  S  S8  1  0.727481  0.790185  0.774389  1
  S  S9  1  0.987948  0.595546  0.023154  1
  S  S10  1  0.304224  0.625873  0.927558  1
