# generated using pymatgen
data_Y3Lu9Tc3Rh
_symmetry_space_group_name_H-M   'P 1'
_cell_length_a   6.17368076
_cell_length_b   7.41544762
_cell_length_c   8.91807400
_cell_angle_alpha   90.00000000
_cell_angle_beta   90.00000000
_cell_angle_gamma   89.67146539
_symmetry_Int_Tables_number   1
_chemical_formula_structural   Y3Lu9Tc3Rh
_chemical_formula_sum   'Y3 Lu9 Tc3 Rh1'
_cell_volume   408.26812345
_cell_formula_units_Z   1
loop_
 _symmetry_equiv_pos_site_id
 _symmetry_equiv_pos_as_xyz
  1  'x, y, z'
loop_
 _atom_site_type_symbol
 _atom_site_label
 _atom_site_symmetry_multiplicity
 _atom_site_fract_x
 _atom_site_fract_y
 _atom_site_fract_z
 _atom_site_occupancy
  Y  Y0  1  0.628264  0.044207  0.250000  1
  Y  Y1  1  0.120175  0.466791  0.750000  1
  Y  Y2  1  0.879309  0.533790  0.250000  1
  Lu  Lu3  1  0.374963  0.958589  0.750000  1
  Lu  Lu4  1  0.159145  0.171522  0.059984  1
  Lu  Lu5  1  0.834833  0.828369  0.934623  1
  Lu  Lu6  1  0.652620  0.321683  0.936259  1
  Lu  Lu7  1  0.834833  0.828369  0.565377  1
  Lu  Lu8  1  0.346963  0.676022  0.060494  1
  Lu  Lu9  1  0.159145  0.171522  0.440016  1
  Lu  Lu10  1  0.346963  0.676022  0.439506  1
  Lu  Lu11  1  0.652620  0.321683  0.563741  1
  Tc  Tc12  1  0.445304  0.382994  0.250000  1
  Tc  Tc13  1  0.549786  0.619843  0.750000  1
  Tc  Tc14  1  0.961097  0.117221  0.750000  1
  Rh  Rh15  1  0.053982  0.881372  0.250000  1
