# generated using pymatgen
data_Tb16MgHg3Ir3Rh
_symmetry_space_group_name_H-M   'P 1'
_cell_length_a   9.68252117
_cell_length_b   9.67389520
_cell_length_c   9.64630279
_cell_angle_alpha   59.90533003
_cell_angle_beta   59.95554475
_cell_angle_gamma   60.02945804
_symmetry_Int_Tables_number   1
_chemical_formula_structural   Tb16MgHg3Ir3Rh
_chemical_formula_sum   'Tb16 Mg1 Hg3 Ir3 Rh1'
_cell_volume   638.37300402
_cell_formula_units_Z   1
loop_
 _symmetry_equiv_pos_site_id
 _symmetry_equiv_pos_as_xyz
  1  'x, y, z'
loop_
 _atom_site_type_symbol
 _atom_site_label
 _atom_site_symmetry_multiplicity
 _atom_site_fract_x
 _atom_site_fract_y
 _atom_site_fract_z
 _atom_site_occupancy
  Tb  Tb0  1  0.192872  0.806729  0.809339  1
  Tb  Tb1  1  0.813438  0.188484  0.188815  1
  Tb  Tb2  1  0.062683  0.438630  0.060057  1
  Tb  Tb3  1  0.056542  0.647663  0.648132  1
  Tb  Tb4  1  0.649606  0.652611  0.651869  1
  Tb  Tb5  1  0.063178  0.061493  0.438858  1
  Tb  Tb6  1  0.192897  0.808180  0.190743  1
  Tb  Tb7  1  0.813438  0.809262  0.188815  1
  Tb  Tb8  1  0.811645  0.188898  0.810558  1
  Tb  Tb9  1  0.437770  0.062319  0.437592  1
  Tb  Tb10  1  0.440217  0.437525  0.060396  1
  Tb  Tb11  1  0.440217  0.061861  0.060396  1
  Tb  Tb12  1  0.063178  0.436470  0.438858  1
  Tb  Tb13  1  0.192872  0.191060  0.809339  1
  Tb  Tb14  1  0.648525  0.652210  0.047054  1
  Tb  Tb15  1  0.649606  0.045914  0.651869  1
  Mg  Mg16  1  0.718100  0.426908  0.428085  1
  Hg  Hg17  1  0.417166  0.412777  0.757280  1
  Hg  Hg18  1  0.417321  0.756532  0.413274  1
  Hg  Hg19  1  0.417321  0.412873  0.413274  1
  Ir  Ir20  1  0.859172  0.425392  0.856624  1
  Ir  Ir21  1  0.859172  0.858813  0.856624  1
  Ir  Ir22  1  0.424572  0.859310  0.856809  1
  Rh  Rh23  1  0.858494  0.858084  0.425339  1
