# generated using pymatgen
data_Yb3DyNi2Sn5
_symmetry_space_group_name_H-M   'P 1'
_cell_length_a   4.42724400
_cell_length_b   8.76378900
_cell_length_c   13.83616300
_cell_angle_alpha   90.00000000
_cell_angle_beta   90.00000000
_cell_angle_gamma   90.00000000
_symmetry_Int_Tables_number   1
_chemical_formula_structural   Yb3DyNi2Sn5
_chemical_formula_sum   'Yb6 Dy2 Ni4 Sn10'
_cell_volume   536.83526916
_cell_formula_units_Z   2
loop_
 _symmetry_equiv_pos_site_id
 _symmetry_equiv_pos_as_xyz
  1  'x, y, z'
loop_
 _atom_site_type_symbol
 _atom_site_label
 _atom_site_symmetry_multiplicity
 _atom_site_fract_x
 _atom_site_fract_y
 _atom_site_fract_z
 _atom_site_occupancy
  Yb  Yb0  1  0.500000  0.789142  0.741172  1
  Yb  Yb1  1  0.000000  0.210858  0.758828  1
  Yb  Yb2  1  0.000000  0.210858  0.241172  1
  Yb  Yb3  1  0.500000  0.137109  0.000000  1
  Yb  Yb4  1  0.000000  0.862891  0.500000  1
  Yb  Yb5  1  0.500000  0.789142  0.258828  1
  Dy  Dy6  1  0.500000  0.702416  0.000000  1
  Dy  Dy7  1  0.000000  0.297584  0.500000  1
  Ni  Ni8  1  0.500000  0.380716  0.648262  1
  Ni  Ni9  1  0.000000  0.619284  0.851738  1
  Ni  Ni10  1  0.000000  0.619284  0.148262  1
  Ni  Ni11  1  0.500000  0.380716  0.351738  1
  Sn  Sn12  1  0.500000  0.088922  0.393435  1
  Sn  Sn13  1  0.000000  0.550677  0.664964  1
  Sn  Sn14  1  0.000000  0.414025  0.000000  1
  Sn  Sn15  1  0.500000  0.449323  0.164964  1
  Sn  Sn16  1  0.500000  0.585975  0.500000  1
  Sn  Sn17  1  0.500000  0.449323  0.835036  1
  Sn  Sn18  1  0.000000  0.911078  0.893435  1
  Sn  Sn19  1  0.000000  0.550677  0.335036  1
  Sn  Sn20  1  0.500000  0.088922  0.606565  1
  Sn  Sn21  1  0.000000  0.911078  0.106565  1
