# generated using pymatgen
data_Y2Si5Ru3
_symmetry_space_group_name_H-M   'P 1'
_cell_length_a   8.25136773
_cell_length_b   8.25136837
_cell_length_c   8.25136884
_cell_angle_alpha   140.18370698
_cell_angle_beta   108.49858660
_cell_angle_gamma   85.10196159
_symmetry_Int_Tables_number   1
_chemical_formula_structural   Y2Si5Ru3
_chemical_formula_sum   'Y4 Si10 Ru6'
_cell_volume   329.34744513
_cell_formula_units_Z   2
loop_
 _symmetry_equiv_pos_site_id
 _symmetry_equiv_pos_as_xyz
  1  'x, y, z'
loop_
 _atom_site_type_symbol
 _atom_site_label
 _atom_site_symmetry_multiplicity
 _atom_site_fract_x
 _atom_site_fract_y
 _atom_site_fract_z
 _atom_site_occupancy
  Y  Y0  1  0.904153  0.136098  0.768055  1
  Y  Y1  1  0.095847  0.863902  0.231945  1
  Y  Y2  1  0.631957  0.363902  0.268055  1
  Y  Y3  1  0.368043  0.636098  0.731945  1
  Si  Si4  1  0.000000  0.750000  0.750000  1
  Si  Si5  1  0.000000  0.250000  0.250000  1
  Si  Si6  1  0.707685  0.457685  0.750000  1
  Si  Si7  1  0.292315  0.042315  0.750000  1
  Si  Si8  1  0.292315  0.542315  0.250000  1
  Si  Si9  1  0.707685  0.957685  0.250000  1
  Si  Si10  1  0.235459  0.404111  0.831348  1
  Si  Si11  1  0.572762  0.904111  0.668652  1
  Si  Si12  1  0.427238  0.095889  0.331348  1
  Si  Si13  1  0.764541  0.595889  0.168652  1
  Ru  Ru14  1  0.761349  0.854145  0.907205  1
  Ru  Ru15  1  0.500000  0.250000  0.750000  1
  Ru  Ru16  1  0.946941  0.354145  0.592795  1
  Ru  Ru17  1  0.053059  0.645855  0.407205  1
  Ru  Ru18  1  0.238651  0.145855  0.092795  1
  Ru  Ru19  1  0.500000  0.750000  0.250000  1
