# generated using pymatgen
data_TmLu5(FeCo3)4
_symmetry_space_group_name_H-M   'P 1'
_cell_length_a   7.50979983
_cell_length_b   7.51209682
_cell_length_c   7.51209619
_cell_angle_alpha   109.49588298
_cell_angle_beta   109.45862332
_cell_angle_gamma   109.45861199
_symmetry_Int_Tables_number   1
_chemical_formula_structural   TmLu5(FeCo3)4
_chemical_formula_sum   'Tm1 Lu5 Fe4 Co12'
_cell_volume   326.23582833
_cell_formula_units_Z   1
loop_
 _symmetry_equiv_pos_site_id
 _symmetry_equiv_pos_as_xyz
  1  'x, y, z'
loop_
 _atom_site_type_symbol
 _atom_site_label
 _atom_site_symmetry_multiplicity
 _atom_site_fract_x
 _atom_site_fract_y
 _atom_site_fract_z
 _atom_site_occupancy
  Tm  Tm0  1  0.999906  0.718114  0.718114  1
  Lu  Lu1  1  0.717107  0.717238  0.000172  1
  Lu  Lu2  1  0.282887  0.000220  0.283196  1
  Lu  Lu3  1  0.000072  0.282617  0.282617  1
  Lu  Lu4  1  0.282887  0.283196  0.000220  1
  Lu  Lu5  1  0.717107  0.000172  0.717238  1
  Fe  Fe6  1  0.000045  0.000158  0.499751  1
  Fe  Fe7  1  0.000045  0.499751  0.000158  1
  Fe  Fe8  1  0.500381  0.000115  0.000115  1
  Fe  Fe9  1  0.499566  0.499724  0.499724  1
  Co  Co10  1  0.336001  0.335968  0.672042  1
  Co  Co11  1  0.663996  0.999944  0.336010  1
  Co  Co12  1  0.000021  0.664043  0.335488  1
  Co  Co13  1  0.663996  0.336010  0.999944  1
  Co  Co14  1  0.336001  0.672042  0.335968  1
  Co  Co15  1  0.000021  0.335488  0.664043  1
  Co  Co16  1  0.336298  0.663876  0.000266  1
  Co  Co17  1  0.336298  0.000266  0.663876  1
  Co  Co18  1  0.671529  0.335528  0.335528  1
  Co  Co19  1  0.663662  0.663957  0.327573  1
  Co  Co20  1  0.663662  0.327573  0.663957  1
  Co  Co21  1  0.328511  0.664000  0.664000  1
