# generated using pymatgen
data_Ho8Ti8Re3Si16W
_symmetry_space_group_name_H-M   'P 1'
_cell_length_a   6.93435552
_cell_length_b   6.93435552
_cell_length_c   12.78508066
_cell_angle_alpha   89.97398163
_cell_angle_beta   90.02601837
_cell_angle_gamma   90.03597830
_symmetry_Int_Tables_number   1
_chemical_formula_structural   Ho8Ti8Re3Si16W
_chemical_formula_sum   'Ho8 Ti8 Re3 Si16 W1'
_cell_volume   614.77401830
_cell_formula_units_Z   1
loop_
 _symmetry_equiv_pos_site_id
 _symmetry_equiv_pos_as_xyz
  1  'x, y, z'
loop_
 _atom_site_type_symbol
 _atom_site_label
 _atom_site_symmetry_multiplicity
 _atom_site_fract_x
 _atom_site_fract_y
 _atom_site_fract_z
 _atom_site_occupancy
  Ho  Ho0  1  0.340476  0.000986  0.469161  1
  Ho  Ho1  1  0.499397  0.840546  0.718868  1
  Ho  Ho2  1  0.501040  0.159191  0.219351  1
  Ho  Ho3  1  0.840546  0.499397  0.281132  1
  Ho  Ho4  1  0.159191  0.501040  0.780649  1
  Ho  Ho5  1  0.659519  0.999007  0.968887  1
  Ho  Ho6  1  0.000986  0.340476  0.530839  1
  Ho  Ho7  1  0.999007  0.659519  0.031113  1
  Ti  Ti8  1  0.153197  0.006998  0.876136  1
  Ti  Ti9  1  0.493762  0.651344  0.126232  1
  Ti  Ti10  1  0.506432  0.347347  0.625885  1
  Ti  Ti11  1  0.651344  0.493762  0.873768  1
  Ti  Ti12  1  0.347347  0.506432  0.374115  1
  Ti  Ti13  1  0.847656  0.994200  0.376256  1
  Ti  Ti14  1  0.006998  0.153197  0.123864  1
  Ti  Ti15  1  0.994200  0.847656  0.623744  1
  Re  Re16  1  0.171696  0.827231  0.250552  1
  Re  Re17  1  0.827231  0.171696  0.749448  1
  Re  Re18  1  0.672132  0.672132  0.500000  1
  Si  Si19  1  0.200098  0.130055  0.683360  1
  Si  Si20  1  0.368698  0.701255  0.933850  1
  Si  Si21  1  0.630194  0.300362  0.433460  1
  Si  Si22  1  0.701255  0.368698  0.066150  1
  Si  Si23  1  0.300362  0.630194  0.566540  1
  Si  Si24  1  0.800398  0.869810  0.183579  1
  Si  Si25  1  0.130055  0.200098  0.316640  1
  Si  Si26  1  0.869810  0.800398  0.816421  1
  Si  Si27  1  0.292255  0.952332  0.066826  1
  Si  Si28  1  0.547264  0.791221  0.316480  1
  Si  Si29  1  0.453670  0.207750  0.815738  1
  Si  Si30  1  0.791221  0.547264  0.683520  1
  Si  Si31  1  0.207750  0.453670  0.184262  1
  Si  Si32  1  0.708239  0.047060  0.566590  1
  Si  Si33  1  0.952332  0.292255  0.933174  1
  Si  Si34  1  0.047060  0.708239  0.433410  1
  W  W35  1  0.327181  0.327181  0.000000  1
