# generated using pymatgen
data_Y3Sc4U(ReB6)4
_symmetry_space_group_name_H-M   'P 1'
_cell_length_a   3.59853900
_cell_length_b   8.99721201
_cell_length_c   11.37152779
_cell_angle_alpha   89.90636556
_cell_angle_beta   90.00000000
_cell_angle_gamma   90.00000000
_symmetry_Int_Tables_number   1
_chemical_formula_structural   Y3Sc4U(ReB6)4
_chemical_formula_sum   'Y3 Sc4 U1 Re4 B24'
_cell_volume   368.17339745
_cell_formula_units_Z   1
loop_
 _symmetry_equiv_pos_site_id
 _symmetry_equiv_pos_as_xyz
  1  'x, y, z'
loop_
 _atom_site_type_symbol
 _atom_site_label
 _atom_site_symmetry_multiplicity
 _atom_site_fract_x
 _atom_site_fract_y
 _atom_site_fract_z
 _atom_site_occupancy
  Y  Y0  1  0.000000  0.322225  0.413480  1
  Y  Y1  1  0.000000  0.678594  0.585523  1
  Y  Y2  1  0.000000  0.818674  0.086068  1
  Sc  Sc3  1  0.000000  0.943891  0.371009  1
  Sc  Sc4  1  0.000000  0.055575  0.627297  1
  Sc  Sc5  1  0.000000  0.445928  0.127856  1
  Sc  Sc6  1  0.000000  0.556119  0.873030  1
  U  U7  1  0.000000  0.177663  0.914574  1
  Re  Re8  1  0.000000  0.640922  0.318607  1
  Re  Re9  1  0.000000  0.355651  0.685144  1
  Re  Re10  1  0.000000  0.140437  0.177461  1
  Re  Re11  1  0.000000  0.863074  0.819810  1
  B  B12  1  0.500000  0.554031  0.433151  1
  B  B13  1  0.500000  0.444800  0.568419  1
  B  B14  1  0.500000  0.056063  0.066138  1
  B  B15  1  0.500000  0.947354  0.931907  1
  B  B16  1  0.500000  0.753956  0.418491  1
  B  B17  1  0.500000  0.246210  0.581868  1
  B  B18  1  0.500000  0.253583  0.079825  1
  B  B19  1  0.500000  0.746416  0.918226  1
  B  B20  1  0.500000  0.794709  0.264897  1
  B  B21  1  0.500000  0.205075  0.736295  1
  B  B22  1  0.500000  0.294668  0.234349  1
  B  B23  1  0.500000  0.705431  0.765595  1
  B  B24  1  0.500000  0.629085  0.183447  1
  B  B25  1  0.500000  0.369012  0.818424  1
  B  B26  1  0.500000  0.128980  0.316115  1
  B  B27  1  0.500000  0.871302  0.682903  1
  B  B28  1  0.500000  0.981570  0.213977  1
  B  B29  1  0.500000  0.019106  0.786846  1
  B  B30  1  0.500000  0.481567  0.285741  1
  B  B31  1  0.500000  0.518048  0.714862  1
  B  B32  1  0.500000  0.598756  0.026628  1
  B  B33  1  0.500000  0.400890  0.973138  1
  B  B34  1  0.500000  0.096738  0.473026  1
  B  B35  1  0.500000  0.903899  0.525874  1
