# generated using pymatgen
data_LiTb3Y6Cd3Ru
_symmetry_space_group_name_H-M   'P 1'
_cell_length_a   9.50551700
_cell_length_b   9.50551658
_cell_length_c   9.74931000
_cell_angle_alpha   90.00000000
_cell_angle_beta   90.00000000
_cell_angle_gamma   119.99999799
_symmetry_Int_Tables_number   1
_chemical_formula_structural   LiTb3Y6Cd3Ru
_chemical_formula_sum   'Li2 Tb6 Y12 Cd6 Ru2'
_cell_volume   762.87957413
_cell_formula_units_Z   2
loop_
 _symmetry_equiv_pos_site_id
 _symmetry_equiv_pos_as_xyz
  1  'x, y, z'
loop_
 _atom_site_type_symbol
 _atom_site_label
 _atom_site_symmetry_multiplicity
 _atom_site_fract_x
 _atom_site_fract_y
 _atom_site_fract_z
 _atom_site_occupancy
  Li  Li0  1  0.000000  0.000000  0.500000  1
  Li  Li1  1  0.000000  0.000000  0.000000  1
  Tb  Tb2  1  0.208174  0.791826  0.441199  1
  Tb  Tb3  1  0.208174  0.416350  0.441199  1
  Tb  Tb4  1  0.583650  0.791826  0.441199  1
  Tb  Tb5  1  0.791826  0.208174  0.558801  1
  Tb  Tb6  1  0.791826  0.583650  0.558801  1
  Tb  Tb7  1  0.416350  0.208174  0.558801  1
  Y  Y8  1  0.792030  0.207970  0.941668  1
  Y  Y9  1  0.792030  0.584058  0.941668  1
  Y  Y10  1  0.415942  0.207970  0.941668  1
  Y  Y11  1  0.207970  0.792030  0.058332  1
  Y  Y12  1  0.207970  0.415942  0.058332  1
  Y  Y13  1  0.584058  0.792030  0.058332  1
  Y  Y14  1  0.542414  0.457586  0.250003  1
  Y  Y15  1  0.542414  0.084829  0.250003  1
  Y  Y16  1  0.915171  0.457586  0.250003  1
  Y  Y17  1  0.457586  0.542414  0.749997  1
  Y  Y18  1  0.457586  0.915171  0.749997  1
  Y  Y19  1  0.084829  0.542414  0.749997  1
  Cd  Cd20  1  0.891677  0.108323  0.249659  1
  Cd  Cd21  1  0.891677  0.783355  0.249659  1
  Cd  Cd22  1  0.216645  0.108323  0.249659  1
  Cd  Cd23  1  0.108323  0.891677  0.750341  1
  Cd  Cd24  1  0.108323  0.216645  0.750341  1
  Cd  Cd25  1  0.783355  0.891677  0.750341  1
  Ru  Ru26  1  0.333333  0.666667  0.251891  1
  Ru  Ru27  1  0.666667  0.333333  0.748109  1
