# generated using pymatgen
data_Tb2DyTh(Al3Rh)6
_symmetry_space_group_name_H-M   'P 1'
_cell_length_a   7.58492302
_cell_length_b   7.60010499
_cell_length_c   9.49107900
_cell_angle_alpha   90.00000000
_cell_angle_beta   90.00000000
_cell_angle_gamma   119.39253501
_symmetry_Int_Tables_number   1
_chemical_formula_structural   Tb2DyTh(Al3Rh)6
_chemical_formula_sum   'Tb2 Dy1 Th1 Al18 Rh6'
_cell_volume   476.69762402
_cell_formula_units_Z   1
loop_
 _symmetry_equiv_pos_site_id
 _symmetry_equiv_pos_as_xyz
  1  'x, y, z'
loop_
 _atom_site_type_symbol
 _atom_site_label
 _atom_site_symmetry_multiplicity
 _atom_site_fract_x
 _atom_site_fract_y
 _atom_site_fract_z
 _atom_site_occupancy
  Tb  Tb0  1  0.004414  0.328539  0.250000  1
  Tb  Tb1  1  0.671395  0.994455  0.750000  1
  Dy  Dy2  1  0.328490  0.005024  0.250000  1
  Th  Th3  1  0.994795  0.670899  0.750000  1
  Al  Al4  1  0.130575  0.132057  0.750000  1
  Al  Al5  1  0.872454  0.874729  0.250000  1
  Al  Al6  1  0.001355  0.330892  0.572267  1
  Al  Al7  1  0.999075  0.664499  0.417923  1
  Al  Al8  1  0.999075  0.664499  0.082077  1
  Al  Al9  1  0.339957  0.005301  0.927681  1
  Al  Al10  1  0.001355  0.330892  0.927733  1
  Al  Al11  1  0.664594  0.000459  0.076343  1
  Al  Al12  1  0.664594  0.000459  0.423657  1
  Al  Al13  1  0.339957  0.005301  0.572319  1
  Al  Al14  1  0.332380  0.332386  0.053996  1
  Al  Al15  1  0.663330  0.666633  0.955807  1
  Al  Al16  1  0.663330  0.666633  0.544193  1
  Al  Al17  1  0.332380  0.332386  0.446004  1
  Al  Al18  1  0.343570  0.548333  0.750000  1
  Al  Al19  1  0.657996  0.448322  0.250000  1
  Al  Al20  1  0.544948  0.336557  0.750000  1
  Al  Al21  1  0.449431  0.660926  0.250000  1
  Rh  Rh22  1  0.673133  0.329479  0.500181  1
  Rh  Rh23  1  0.326700  0.671655  0.500328  1
  Rh  Rh24  1  0.326700  0.671655  0.999672  1
  Rh  Rh25  1  0.673133  0.329479  0.999819  1
  Rh  Rh26  1  0.000440  0.998773  0.500399  1
  Rh  Rh27  1  0.000440  0.998773  0.999601  1
