# generated using pymatgen
data_La8Yb12Si15Pt
_symmetry_space_group_name_H-M   'P 1'
_cell_length_a   7.98966198
_cell_length_b   7.93147867
_cell_length_c   14.71427106
_cell_angle_alpha   89.91274998
_cell_angle_beta   89.24946533
_cell_angle_gamma   89.90981264
_symmetry_Int_Tables_number   1
_chemical_formula_structural   La8Yb12Si15Pt
_chemical_formula_sum   'La8 Yb12 Si15 Pt1'
_cell_volume   932.35870230
_cell_formula_units_Z   1
loop_
 _symmetry_equiv_pos_site_id
 _symmetry_equiv_pos_as_xyz
  1  'x, y, z'
loop_
 _atom_site_type_symbol
 _atom_site_label
 _atom_site_symmetry_multiplicity
 _atom_site_fract_x
 _atom_site_fract_y
 _atom_site_fract_z
 _atom_site_occupancy
  La  La0  1  0.988020  0.626606  0.046878  1
  La  La1  1  0.011994  0.377781  0.546363  1
  La  La2  1  0.622922  0.990045  0.952797  1
  La  La3  1  0.126846  0.510683  0.796318  1
  La  La4  1  0.869364  0.490983  0.297388  1
  La  La5  1  0.508163  0.122966  0.202709  1
  La  La6  1  0.493419  0.873778  0.703604  1
  La  La7  1  0.379938  0.012034  0.454134  1
  Yb  Yb8  1  0.368020  0.495363  0.377063  1
  Yb  Yb9  1  0.871281  0.997052  0.374021  1
  Yb  Yb10  1  0.990065  0.131014  0.126657  1
  Yb  Yb11  1  0.013083  0.867722  0.622610  1
  Yb  Yb12  1  0.628940  0.507639  0.875377  1
  Yb  Yb13  1  0.495359  0.374844  0.625312  1
  Yb  Yb14  1  0.503724  0.630483  0.124315  1
  Yb  Yb15  1  0.128788  0.991604  0.874294  1
  Yb  Yb16  1  0.690958  0.686897  0.498160  1
  Yb  Yb17  1  0.814150  0.187130  0.749535  1
  Yb  Yb18  1  0.181521  0.809248  0.254083  1
  Yb  Yb19  1  0.310322  0.312271  0.000047  1
  Si  Si20  1  0.919001  0.290342  0.941915  1
  Si  Si21  1  0.716199  0.081348  0.557166  1
  Si  Si22  1  0.206426  0.420113  0.193762  1
  Si  Si23  1  0.795962  0.579535  0.691895  1
  Si  Si24  1  0.417641  0.212163  0.807318  1
  Si  Si25  1  0.575430  0.790461  0.306774  1
  Si  Si26  1  0.286099  0.920004  0.058319  1
  Si  Si27  1  0.836272  0.794231  0.806642  1
  Si  Si28  1  0.167653  0.204524  0.310627  1
  Si  Si29  1  0.788721  0.837366  0.190245  1
  Si  Si30  1  0.305749  0.671412  0.559523  1
  Si  Si31  1  0.703929  0.335724  0.056927  1
  Si  Si32  1  0.665273  0.292884  0.442185  1
  Si  Si33  1  0.334024  0.705667  0.942683  1
  Si  Si34  1  0.208052  0.164342  0.690622  1
  Pt  Pt35  1  0.076691  0.703740  0.441730  1
