# generated using pymatgen
data_Li2Tb2As6Ir7
_symmetry_space_group_name_H-M   'P 1'
_cell_length_a   7.11460182
_cell_length_b   7.11460156
_cell_length_c   7.20311271
_cell_angle_alpha   109.20575004
_cell_angle_beta   109.20575630
_cell_angle_gamma   109.50517085
_symmetry_Int_Tables_number   1
_chemical_formula_structural   Li2Tb2As6Ir7
_chemical_formula_sum   'Li2 Tb2 As6 Ir7'
_cell_volume   282.37870472
_cell_formula_units_Z   1
loop_
 _symmetry_equiv_pos_site_id
 _symmetry_equiv_pos_as_xyz
  1  'x, y, z'
loop_
 _atom_site_type_symbol
 _atom_site_label
 _atom_site_symmetry_multiplicity
 _atom_site_fract_x
 _atom_site_fract_y
 _atom_site_fract_z
 _atom_site_occupancy
  Li  Li0  1  0.000000  0.000000  0.500000  1
  Li  Li1  1  0.500000  0.500000  0.500000  1
  Tb  Tb2  1  0.500000  0.000000  0.000000  1
  Tb  Tb3  1  0.000000  0.500000  0.000000  1
  As  As4  1  0.684724  0.684724  0.000000  1
  As  As5  1  0.315276  0.315276  0.000000  1
  As  As6  1  0.985871  0.684580  0.670452  1
  As  As7  1  0.014129  0.315420  0.329548  1
  As  As8  1  0.684580  0.985871  0.670452  1
  As  As9  1  0.315420  0.014129  0.329548  1
  Ir  Ir10  1  0.000000  0.000000  0.000000  1
  Ir  Ir11  1  0.250768  0.496515  0.747283  1
  Ir  Ir12  1  0.750000  0.250000  0.500000  1
  Ir  Ir13  1  0.496515  0.250768  0.747283  1
  Ir  Ir14  1  0.503485  0.749232  0.252717  1
  Ir  Ir15  1  0.749232  0.503485  0.252717  1
  Ir  Ir16  1  0.250000  0.750000  0.500000  1
