# generated using pymatgen
data_Dy4GaB4Ir9
_symmetry_space_group_name_H-M   'P 1'
_cell_length_a   10.81259987
_cell_length_b   10.81259956
_cell_length_c   10.81260009
_cell_angle_alpha   29.57046918
_cell_angle_beta   29.57047198
_cell_angle_gamma   29.57048130
_symmetry_Int_Tables_number   1
_chemical_formula_structural   Dy4GaB4Ir9
_chemical_formula_sum   'Dy4 Ga1 B4 Ir9'
_cell_volume   272.52467403
_cell_formula_units_Z   1
loop_
 _symmetry_equiv_pos_site_id
 _symmetry_equiv_pos_as_xyz
  1  'x, y, z'
loop_
 _atom_site_type_symbol
 _atom_site_label
 _atom_site_symmetry_multiplicity
 _atom_site_fract_x
 _atom_site_fract_y
 _atom_site_fract_z
 _atom_site_occupancy
  Dy  Dy0  1  0.150095  0.150095  0.150095  1
  Dy  Dy1  1  0.950233  0.950233  0.950233  1
  Dy  Dy2  1  0.849905  0.849905  0.849905  1
  Dy  Dy3  1  0.049767  0.049767  0.049767  1
  Ga  Ga4  1  0.500000  0.500000  0.500000  1
  B  B5  1  0.615896  0.615896  0.615896  1
  B  B6  1  0.717777  0.717777  0.717777  1
  B  B7  1  0.384104  0.384104  0.384104  1
  B  B8  1  0.282223  0.282223  0.282223  1
  Ir  Ir9  1  0.402066  0.902482  0.402066  1
  Ir  Ir10  1  0.902482  0.402066  0.402066  1
  Ir  Ir11  1  0.500000  0.500000  0.000000  1
  Ir  Ir12  1  0.500000  0.000000  0.500000  1
  Ir  Ir13  1  0.000000  0.500000  0.500000  1
  Ir  Ir14  1  0.597934  0.097518  0.597934  1
  Ir  Ir15  1  0.597934  0.597934  0.097518  1
  Ir  Ir16  1  0.097518  0.597934  0.597934  1
  Ir  Ir17  1  0.402066  0.402066  0.902482  1
