# generated using pymatgen
data_BaCrCu(Sb6Os)2
_symmetry_space_group_name_H-M   'P 1'
_cell_length_a   8.24217751
_cell_length_b   8.25686066
_cell_length_c   8.22178653
_cell_angle_alpha   109.51496208
_cell_angle_beta   109.27865018
_cell_angle_gamma   109.78757294
_symmetry_Int_Tables_number   1
_chemical_formula_structural   BaCrCu(Sb6Os)2
_chemical_formula_sum   'Ba1 Cr1 Cu1 Sb12 Os2'
_cell_volume   429.82695381
_cell_formula_units_Z   1
loop_
 _symmetry_equiv_pos_site_id
 _symmetry_equiv_pos_as_xyz
  1  'x, y, z'
loop_
 _atom_site_type_symbol
 _atom_site_label
 _atom_site_symmetry_multiplicity
 _atom_site_fract_x
 _atom_site_fract_y
 _atom_site_fract_z
 _atom_site_occupancy
  Ba  Ba0  1  0.000000  0.000000  0.000000  1
  Cr  Cr1  1  0.500000  0.500000  0.500000  1
  Cu  Cu2  1  0.000000  0.000000  0.500000  1
  Sb  Sb3  1  0.349019  0.187627  0.847707  1
  Sb  Sb4  1  0.650981  0.812373  0.152293  1
  Sb  Sb5  1  0.659702  0.499642  0.841419  1
  Sb  Sb6  1  0.340298  0.500358  0.158581  1
  Sb  Sb7  1  0.188254  0.839796  0.341643  1
  Sb  Sb8  1  0.811746  0.160204  0.658357  1
  Sb  Sb9  1  0.499296  0.840879  0.659181  1
  Sb  Sb10  1  0.500704  0.159121  0.340819  1
  Sb  Sb11  1  0.842376  0.340212  0.181524  1
  Sb  Sb12  1  0.157624  0.659788  0.818476  1
  Sb  Sb13  1  0.840470  0.649922  0.497378  1
  Sb  Sb14  1  0.159530  0.350078  0.502622  1
  Os  Os15  1  0.500000  0.000000  0.000000  1
  Os  Os16  1  0.000000  0.500000  0.000000  1
