# generated using pymatgen
data_YbHoMnIr3
_symmetry_space_group_name_H-M   'P 1'
_cell_length_a   5.16217602
_cell_length_b   5.16217843
_cell_length_c   5.16217680
_cell_angle_alpha   63.78090247
_cell_angle_beta   63.78088499
_cell_angle_gamma   63.78089780
_symmetry_Int_Tables_number   1
_chemical_formula_structural   YbHoMnIr3
_chemical_formula_sum   'Yb1 Ho1 Mn1 Ir3'
_cell_volume   105.38532130
_cell_formula_units_Z   1
loop_
 _symmetry_equiv_pos_site_id
 _symmetry_equiv_pos_as_xyz
  1  'x, y, z'
loop_
 _atom_site_type_symbol
 _atom_site_label
 _atom_site_symmetry_multiplicity
 _atom_site_fract_x
 _atom_site_fract_y
 _atom_site_fract_z
 _atom_site_occupancy
  Yb  Yb0  1  0.250282  0.250282  0.250282  1
  Ho  Ho1  1  0.000356  0.000356  0.000356  1
  Mn  Mn2  1  0.625210  0.625210  0.625210  1
  Ir  Ir3  1  0.624101  0.624101  0.125946  1
  Ir  Ir4  1  0.624101  0.125946  0.624101  1
  Ir  Ir5  1  0.125946  0.624101  0.624101  1
