# generated using pymatgen
data_Tm6P13Rh20
_symmetry_space_group_name_H-M   'P 1'
_cell_length_a   13.29373200
_cell_length_b   13.29373096
_cell_length_c   3.90871400
_cell_angle_alpha   90.00000000
_cell_angle_beta   90.00000000
_cell_angle_gamma   119.99999761
_symmetry_Int_Tables_number   1
_chemical_formula_structural   Tm6P13Rh20
_chemical_formula_sum   'Tm6 P13 Rh20'
_cell_volume   598.21643576
_cell_formula_units_Z   1
loop_
 _symmetry_equiv_pos_site_id
 _symmetry_equiv_pos_as_xyz
  1  'x, y, z'
loop_
 _atom_site_type_symbol
 _atom_site_label
 _atom_site_symmetry_multiplicity
 _atom_site_fract_x
 _atom_site_fract_y
 _atom_site_fract_z
 _atom_site_occupancy
  Tm  Tm0  1  0.529086  0.717654  0.248789  1
  Tm  Tm1  1  0.282346  0.811432  0.248789  1
  Tm  Tm2  1  0.188568  0.470914  0.248789  1
  Tm  Tm3  1  0.470914  0.282346  0.751211  1
  Tm  Tm4  1  0.717654  0.188568  0.751211  1
  Tm  Tm5  1  0.811432  0.529086  0.751211  1
  P  P6  1  0.526991  0.139942  0.250336  1
  P  P7  1  0.860058  0.387050  0.250336  1
  P  P8  1  0.612950  0.473009  0.250336  1
  P  P9  1  0.943989  0.713699  0.254299  1
  P  P10  1  0.286301  0.230291  0.254299  1
  P  P11  1  0.769709  0.056011  0.254299  1
  P  P12  1  0.387050  0.526991  0.749664  1
  P  P13  1  0.473009  0.860058  0.749664  1
  P  P14  1  0.139942  0.612950  0.749664  1
  P  P15  1  0.713699  0.769709  0.745701  1
  P  P16  1  0.230291  0.943989  0.745701  1
  P  P17  1  0.056011  0.286301  0.745701  1
  P  P18  1  0.000000  0.000000  0.000000  1
  Rh  Rh19  1  0.333333  0.666667  0.752061  1
  Rh  Rh20  1  0.920690  0.250710  0.252821  1
  Rh  Rh21  1  0.749290  0.669981  0.252821  1
  Rh  Rh22  1  0.330019  0.079310  0.252821  1
  Rh  Rh23  1  0.437944  0.021547  0.751177  1
  Rh  Rh24  1  0.978453  0.416397  0.751177  1
  Rh  Rh25  1  0.583603  0.562056  0.751177  1
  Rh  Rh26  1  0.666667  0.333333  0.247939  1
  Rh  Rh27  1  0.094707  0.187477  0.248241  1
  Rh  Rh28  1  0.812523  0.907229  0.248241  1
  Rh  Rh29  1  0.092771  0.905293  0.248241  1
  Rh  Rh30  1  0.021547  0.583603  0.248823  1
  Rh  Rh31  1  0.416397  0.437944  0.248823  1
  Rh  Rh32  1  0.562056  0.978453  0.248823  1
  Rh  Rh33  1  0.669981  0.920690  0.747179  1
  Rh  Rh34  1  0.079310  0.749290  0.747179  1
  Rh  Rh35  1  0.250710  0.330019  0.747179  1
  Rh  Rh36  1  0.905293  0.812523  0.751759  1
  Rh  Rh37  1  0.187477  0.092771  0.751759  1
  Rh  Rh38  1  0.907229  0.094707  0.751759  1
