# generated using pymatgen
data_Zn3Mo3C
_symmetry_space_group_name_H-M   'P 1'
_cell_length_a   8.07370507
_cell_length_b   8.07370517
_cell_length_c   8.07370600
_cell_angle_alpha   60.00000480
_cell_angle_beta   60.00000438
_cell_angle_gamma   60.00000334
_symmetry_Int_Tables_number   1
_chemical_formula_structural   Zn3Mo3C
_chemical_formula_sum   'Zn12 Mo12 C4'
_cell_volume   372.13776135
_cell_formula_units_Z   4
loop_
 _symmetry_equiv_pos_site_id
 _symmetry_equiv_pos_as_xyz
  1  'x, y, z'
loop_
 _atom_site_type_symbol
 _atom_site_label
 _atom_site_symmetry_multiplicity
 _atom_site_fract_x
 _atom_site_fract_y
 _atom_site_fract_z
 _atom_site_occupancy
  Zn  Zn0  1  0.835074  0.835074  0.494778  1
  Zn  Zn1  1  0.835074  0.494778  0.835074  1
  Zn  Zn2  1  0.494778  0.835074  0.835074  1
  Zn  Zn3  1  0.835074  0.835074  0.835074  1
  Zn  Zn4  1  0.414926  0.414926  0.755222  1
  Zn  Zn5  1  0.414926  0.755222  0.414926  1
  Zn  Zn6  1  0.755222  0.414926  0.414926  1
  Zn  Zn7  1  0.414926  0.414926  0.414926  1
  Zn  Zn8  1  0.625000  0.625000  0.125000  1
  Zn  Zn9  1  0.625000  0.125000  0.625000  1
  Zn  Zn10  1  0.125000  0.625000  0.625000  1
  Zn  Zn11  1  0.625000  0.625000  0.625000  1
  Mo  Mo12  1  0.438134  0.438134  0.061866  1
  Mo  Mo13  1  0.061866  0.438134  0.061866  1
  Mo  Mo14  1  0.438134  0.061866  0.061866  1
  Mo  Mo15  1  0.061866  0.061866  0.438134  1
  Mo  Mo16  1  0.438134  0.061866  0.438134  1
  Mo  Mo17  1  0.061866  0.438134  0.438134  1
  Mo  Mo18  1  0.811866  0.811866  0.188134  1
  Mo  Mo19  1  0.188134  0.811866  0.188134  1
  Mo  Mo20  1  0.811866  0.188134  0.188134  1
  Mo  Mo21  1  0.188134  0.188134  0.811866  1
  Mo  Mo22  1  0.811866  0.188134  0.811866  1
  Mo  Mo23  1  0.188134  0.811866  0.811866  1
  C  C24  1  0.125000  0.125000  0.625000  1
  C  C25  1  0.125000  0.625000  0.125000  1
  C  C26  1  0.625000  0.125000  0.125000  1
  C  C27  1  0.125000  0.125000  0.125000  1
