# generated using pymatgen
data_Tb9Ho11(InBi)8
_symmetry_space_group_name_H-M   'P 1'
_cell_length_a   8.17963419
_cell_length_b   8.20597414
_cell_length_c   15.63714600
_cell_angle_alpha   90.00830882
_cell_angle_beta   90.01246134
_cell_angle_gamma   90.02903718
_symmetry_Int_Tables_number   1
_chemical_formula_structural   Tb9Ho11(InBi)8
_chemical_formula_sum   'Tb9 Ho11 In8 Bi8'
_cell_volume   1049.59425821
_cell_formula_units_Z   1
loop_
 _symmetry_equiv_pos_site_id
 _symmetry_equiv_pos_as_xyz
  1  'x, y, z'
loop_
 _atom_site_type_symbol
 _atom_site_label
 _atom_site_symmetry_multiplicity
 _atom_site_fract_x
 _atom_site_fract_y
 _atom_site_fract_z
 _atom_site_occupancy
  Tb  Tb0  1  0.889698  0.663677  0.878355  1
  Tb  Tb1  1  0.550577  0.326913  0.891834  1
  Tb  Tb2  1  0.050608  0.172991  0.607955  1
  Tb  Tb3  1  0.449440  0.672971  0.391898  1
  Tb  Tb4  1  0.949225  0.827309  0.108415  1
  Tb  Tb5  1  0.449539  0.672842  0.108197  1
  Tb  Tb6  1  0.949454  0.827077  0.391819  1
  Tb  Tb7  1  0.550348  0.326917  0.607981  1
  Tb  Tb8  1  0.050627  0.172670  0.891701  1
  Ho  Ho9  1  0.388824  0.836947  0.877516  1
  Ho  Ho10  1  0.888780  0.662972  0.622307  1
  Ho  Ho11  1  0.611154  0.162994  0.377630  1
  Ho  Ho12  1  0.110997  0.337042  0.122282  1
  Ho  Ho13  1  0.610742  0.162912  0.122625  1
  Ho  Ho14  1  0.111023  0.336919  0.377662  1
  Ho  Ho15  1  0.389037  0.836971  0.622206  1
  Ho  Ho16  1  0.221312  0.500404  0.749788  1
  Ho  Ho17  1  0.720820  0.999508  0.749870  1
  Ho  Ho18  1  0.778903  0.499352  0.250201  1
  Ho  Ho19  1  0.278883  0.000614  0.249966  1
  In  In20  1  0.589760  0.620866  0.749696  1
  In  In21  1  0.090195  0.879494  0.749537  1
  In  In22  1  0.409994  0.378994  0.250127  1
  In  In23  1  0.910139  0.121041  0.250092  1
  In  In24  1  0.349849  0.137631  0.749835  1
  In  In25  1  0.849709  0.362162  0.749728  1
  In  In26  1  0.650173  0.862313  0.250082  1
  In  In27  1  0.150272  0.637561  0.250050  1
  Bi  Bi28  1  0.271917  0.021749  0.043818  1
  Bi  Bi29  1  0.772070  0.478106  0.456187  1
  Bi  Bi30  1  0.727863  0.978025  0.543700  1
  Bi  Bi31  1  0.229251  0.521071  0.956198  1
  Bi  Bi32  1  0.727226  0.979532  0.956368  1
  Bi  Bi33  1  0.227682  0.521923  0.543724  1
  Bi  Bi34  1  0.272216  0.021945  0.456145  1
  Bi  Bi35  1  0.771690  0.477585  0.044503  1
