# generated using pymatgen
data_Yb2Ga9NiIr2
_symmetry_space_group_name_H-M   'P 1'
_cell_length_a   7.51656806
_cell_length_b   7.51656998
_cell_length_c   9.53405300
_cell_angle_alpha   90.00000000
_cell_angle_beta   90.00000000
_cell_angle_gamma   120.34789676
_symmetry_Int_Tables_number   1
_chemical_formula_structural   Yb2Ga9NiIr2
_chemical_formula_sum   'Yb4 Ga18 Ni2 Ir4'
_cell_volume   464.85158247
_cell_formula_units_Z   2
loop_
 _symmetry_equiv_pos_site_id
 _symmetry_equiv_pos_as_xyz
  1  'x, y, z'
loop_
 _atom_site_type_symbol
 _atom_site_label
 _atom_site_symmetry_multiplicity
 _atom_site_fract_x
 _atom_site_fract_y
 _atom_site_fract_z
 _atom_site_occupancy
  Yb  Yb0  1  0.996339  0.657278  0.250000  1
  Yb  Yb1  1  0.003661  0.342722  0.750000  1
  Yb  Yb2  1  0.657278  0.996339  0.250000  1
  Yb  Yb3  1  0.342722  0.003661  0.750000  1
  Ga  Ga4  1  0.109250  0.109250  0.250000  1
  Ga  Ga5  1  0.890750  0.890750  0.750000  1
  Ga  Ga6  1  0.998501  0.325334  0.075569  1
  Ga  Ga7  1  0.001499  0.674666  0.924431  1
  Ga  Ga8  1  0.001499  0.674666  0.575569  1
  Ga  Ga9  1  0.325334  0.998501  0.424431  1
  Ga  Ga10  1  0.998501  0.325334  0.424431  1
  Ga  Ga11  1  0.674666  0.001499  0.575569  1
  Ga  Ga12  1  0.674666  0.001499  0.924431  1
  Ga  Ga13  1  0.325334  0.998501  0.075569  1
  Ga  Ga14  1  0.326895  0.326895  0.562574  1
  Ga  Ga15  1  0.673105  0.673105  0.437426  1
  Ga  Ga16  1  0.673105  0.673105  0.062574  1
  Ga  Ga17  1  0.326895  0.326895  0.937426  1
  Ga  Ga18  1  0.335992  0.541019  0.250000  1
  Ga  Ga19  1  0.664008  0.458981  0.750000  1
  Ga  Ga20  1  0.541019  0.335992  0.250000  1
  Ga  Ga21  1  0.458981  0.664008  0.750000  1
  Ni  Ni22  1  0.000000  0.000000  0.000000  1
  Ni  Ni23  1  0.000000  0.000000  0.500000  1
  Ir  Ir24  1  0.671238  0.328762  0.000000  1
  Ir  Ir25  1  0.328762  0.671238  0.000000  1
  Ir  Ir26  1  0.328762  0.671238  0.500000  1
  Ir  Ir27  1  0.671238  0.328762  0.500000  1
