# generated using pymatgen
data_Li4ScCoNi8As7
_symmetry_space_group_name_H-M   'P 1'
_cell_length_a   9.39865295
_cell_length_b   9.34989978
_cell_length_c   3.79567000
_cell_angle_alpha   90.00000000
_cell_angle_beta   90.00000000
_cell_angle_gamma   119.92990232
_symmetry_Int_Tables_number   1
_chemical_formula_structural   Li4ScCoNi8As7
_chemical_formula_sum   'Li4 Sc1 Co1 Ni8 As7'
_cell_volume   289.06664315
_cell_formula_units_Z   1
loop_
 _symmetry_equiv_pos_site_id
 _symmetry_equiv_pos_as_xyz
  1  'x, y, z'
loop_
 _atom_site_type_symbol
 _atom_site_label
 _atom_site_symmetry_multiplicity
 _atom_site_fract_x
 _atom_site_fract_y
 _atom_site_fract_z
 _atom_site_occupancy
  Li  Li0  1  0.769896  0.547321  0.500000  1
  Li  Li1  1  0.452926  0.222616  0.500000  1
  Li  Li2  1  0.777493  0.230385  0.500000  1
  Li  Li3  1  0.000273  0.000618  0.500000  1
  Sc  Sc4  1  0.332577  0.666508  0.000000  1
  Co  Co5  1  0.275968  0.376229  0.500000  1
  Ni  Ni6  1  0.624019  0.899331  0.500000  1
  Ni  Ni7  1  0.100836  0.725147  0.500000  1
  Ni  Ni8  1  0.495472  0.452775  0.000000  1
  Ni  Ni9  1  0.548161  0.043143  0.000000  1
  Ni  Ni10  1  0.957713  0.505186  0.000000  1
  Ni  Ni11  1  0.714110  0.761403  0.000000  1
  Ni  Ni12  1  0.238100  0.952143  0.000000  1
  Ni  Ni13  1  0.046912  0.286088  0.000000  1
  As  As14  1  0.961689  0.756905  0.000000  1
  As  As15  1  0.243497  0.207963  0.000000  1
  As  As16  1  0.794846  0.038145  0.000000  1
  As  As17  1  0.667294  0.333803  0.000000  1
  As  As18  1  0.535399  0.617105  0.500000  1
  As  As19  1  0.380183  0.917913  0.500000  1
  As  As20  1  0.082639  0.459273  0.500000  1
