# generated using pymatgen
data_Ho3Er3(Zr2Sn3)2
_symmetry_space_group_name_H-M   'P 1'
_cell_length_a   8.81325005
_cell_length_b   8.81006056
_cell_length_c   6.10864400
_cell_angle_alpha   90.00000000
_cell_angle_beta   90.00000000
_cell_angle_gamma   119.99945877
_symmetry_Int_Tables_number   1
_chemical_formula_structural   Ho3Er3(Zr2Sn3)2
_chemical_formula_sum   'Ho3 Er3 Zr4 Sn6'
_cell_volume   410.76440466
_cell_formula_units_Z   1
loop_
 _symmetry_equiv_pos_site_id
 _symmetry_equiv_pos_as_xyz
  1  'x, y, z'
loop_
 _atom_site_type_symbol
 _atom_site_label
 _atom_site_symmetry_multiplicity
 _atom_site_fract_x
 _atom_site_fract_y
 _atom_site_fract_z
 _atom_site_occupancy
  Ho  Ho0  1  0.000027  0.759791  0.750000  1
  Ho  Ho1  1  0.000023  0.240238  0.250000  1
  Ho  Ho2  1  0.759728  0.759737  0.250000  1
  Er  Er3  1  0.759719  0.000026  0.750000  1
  Er  Er4  1  0.240263  0.240259  0.750000  1
  Er  Er5  1  0.240332  0.000028  0.250000  1
  Zr  Zr6  1  0.333313  0.666648  0.500002  1
  Zr  Zr7  1  0.666675  0.333343  0.999994  1
  Zr  Zr8  1  0.666675  0.333343  0.500006  1
  Zr  Zr9  1  0.333313  0.666648  0.999998  1
  Sn  Sn10  1  0.400062  0.000055  0.750000  1
  Sn  Sn11  1  0.399998  0.399941  0.250000  1
  Sn  Sn12  1  0.000050  0.600039  0.250000  1
  Sn  Sn13  1  0.999995  0.399925  0.750000  1
  Sn  Sn14  1  0.599923  0.599979  0.750000  1
  Sn  Sn15  1  0.599905  0.999999  0.250000  1
