# generated using pymatgen
data_TbDyLu2(ReB6)2
_symmetry_space_group_name_H-M   'P 1'
_cell_length_a   3.64809400
_cell_length_b   9.10871600
_cell_length_c   11.49918400
_cell_angle_alpha   89.99857669
_cell_angle_beta   90.00000000
_cell_angle_gamma   90.00000000
_symmetry_Int_Tables_number   1
_chemical_formula_structural   TbDyLu2(ReB6)2
_chemical_formula_sum   'Tb2 Dy2 Lu4 Re4 B24'
_cell_volume   382.11158486
_cell_formula_units_Z   2
loop_
 _symmetry_equiv_pos_site_id
 _symmetry_equiv_pos_as_xyz
  1  'x, y, z'
loop_
 _atom_site_type_symbol
 _atom_site_label
 _atom_site_symmetry_multiplicity
 _atom_site_fract_x
 _atom_site_fract_y
 _atom_site_fract_z
 _atom_site_occupancy
  Tb  Tb0  1  0.000000  0.323040  0.413972  1
  Tb  Tb1  1  0.000000  0.676960  0.586028  1
  Dy  Dy2  1  0.000000  0.823148  0.086017  1
  Dy  Dy3  1  0.000000  0.176852  0.913983  1
  Lu  Lu4  1  0.000000  0.943580  0.370120  1
  Lu  Lu5  1  0.000000  0.056420  0.629880  1
  Lu  Lu6  1  0.000000  0.443582  0.129680  1
  Lu  Lu7  1  0.000000  0.556418  0.870320  1
  Re  Re8  1  0.000000  0.639901  0.319774  1
  Re  Re9  1  0.000000  0.360099  0.680226  1
  Re  Re10  1  0.000000  0.139641  0.179858  1
  Re  Re11  1  0.000000  0.860359  0.820142  1
  B  B12  1  0.500000  0.554058  0.432377  1
  B  B13  1  0.500000  0.445942  0.567623  1
  B  B14  1  0.500000  0.053890  0.067394  1
  B  B15  1  0.500000  0.946110  0.932606  1
  B  B16  1  0.500000  0.751209  0.418184  1
  B  B17  1  0.500000  0.248791  0.581816  1
  B  B18  1  0.500000  0.251124  0.081549  1
  B  B19  1  0.500000  0.748876  0.918451  1
  B  B20  1  0.500000  0.793353  0.265445  1
  B  B21  1  0.500000  0.206647  0.734555  1
  B  B22  1  0.500000  0.293233  0.234303  1
  B  B23  1  0.500000  0.706767  0.765697  1
  B  B24  1  0.500000  0.630463  0.184789  1
  B  B25  1  0.500000  0.369537  0.815211  1
  B  B26  1  0.500000  0.130282  0.314976  1
  B  B27  1  0.500000  0.869718  0.685024  1
  B  B28  1  0.500000  0.982027  0.212675  1
  B  B29  1  0.500000  0.017973  0.787325  1
  B  B30  1  0.500000  0.482227  0.287107  1
  B  B31  1  0.500000  0.517773  0.712893  1
  B  B32  1  0.500000  0.598005  0.027208  1
  B  B33  1  0.500000  0.401995  0.972792  1
  B  B34  1  0.500000  0.097734  0.472854  1
  B  B35  1  0.500000  0.902266  0.527146  1
