# generated using pymatgen
data_PrDy3Ir3RhO14
_symmetry_space_group_name_H-M   'P 1'
_cell_length_a   7.32178760
_cell_length_b   7.25641276
_cell_length_c   7.24962400
_cell_angle_alpha   60.03094301
_cell_angle_beta   60.32550208
_cell_angle_gamma   60.25701127
_symmetry_Int_Tables_number   1
_chemical_formula_structural   PrDy3Ir3RhO14
_chemical_formula_sum   'Pr1 Dy3 Ir3 Rh1 O14'
_cell_volume   273.61479162
_cell_formula_units_Z   1
loop_
 _symmetry_equiv_pos_site_id
 _symmetry_equiv_pos_as_xyz
  1  'x, y, z'
loop_
 _atom_site_type_symbol
 _atom_site_label
 _atom_site_symmetry_multiplicity
 _atom_site_fract_x
 _atom_site_fract_y
 _atom_site_fract_z
 _atom_site_occupancy
  Pr  Pr0  1  0.625000  0.125000  0.125000  1
  Dy  Dy1  1  0.125000  0.125000  0.625000  1
  Dy  Dy2  1  0.125000  0.125000  0.125000  1
  Dy  Dy3  1  0.125000  0.625000  0.125000  1
  Ir  Ir4  1  0.625000  0.625000  0.625000  1
  Ir  Ir5  1  0.125000  0.625000  0.625000  1
  Ir  Ir6  1  0.625000  0.625000  0.125000  1
  Rh  Rh7  1  0.625000  0.125000  0.625000  1
  O  O8  1  0.959895  0.544071  0.537243  1
  O  O9  1  0.284332  0.290559  0.712555  1
  O  O10  1  0.959895  0.544071  0.958791  1
  O  O11  1  0.722032  0.290638  0.284766  1
  O  O12  1  0.528644  0.553880  0.958738  1
  O  O13  1  0.527968  0.959362  0.547434  1
  O  O14  1  0.527968  0.959362  0.965234  1
  O  O15  1  0.238536  0.255342  0.253060  1
  O  O16  1  0.290105  0.705929  0.712757  1
  O  O17  1  0.722032  0.290638  0.702566  1
  O  O18  1  0.011464  0.994658  0.996940  1
  O  O19  1  0.965668  0.959441  0.537445  1
  O  O20  1  0.290105  0.705929  0.291209  1
  O  O21  1  0.721356  0.696120  0.291262  1
