# generated using pymatgen
data_Tb3ZrGa20Ni11
_symmetry_space_group_name_H-M   'P 1'
_cell_length_a   4.04773456
_cell_length_b   10.54840345
_cell_length_c   12.90317416
_cell_angle_alpha   80.87968795
_cell_angle_beta   80.85232751
_cell_angle_gamma   78.70359037
_symmetry_Int_Tables_number   1
_chemical_formula_structural   Tb3ZrGa20Ni11
_chemical_formula_sum   'Tb3 Zr1 Ga20 Ni11'
_cell_volume   528.74861529
_cell_formula_units_Z   1
loop_
 _symmetry_equiv_pos_site_id
 _symmetry_equiv_pos_as_xyz
  1  'x, y, z'
loop_
 _atom_site_type_symbol
 _atom_site_label
 _atom_site_symmetry_multiplicity
 _atom_site_fract_x
 _atom_site_fract_y
 _atom_site_fract_z
 _atom_site_occupancy
  Tb  Tb0  1  0.231937  0.365644  0.178622  1
  Tb  Tb1  1  0.774440  0.633814  0.820116  1
  Tb  Tb2  1  0.883858  0.904188  0.334351  1
  Zr  Zr3  1  0.120634  0.096537  0.665115  1
  Ga  Ga4  1  0.067539  0.666210  0.202837  1
  Ga  Ga5  1  0.297703  0.904622  0.503387  1
  Ga  Ga6  1  0.608808  0.793724  0.002481  1
  Ga  Ga7  1  0.249745  0.799745  0.704232  1
  Ga  Ga8  1  0.890403  0.670484  0.549495  1
  Ga  Ga9  1  0.753744  0.202954  0.296807  1
  Ga  Ga10  1  0.633204  0.944451  0.798911  1
  Ga  Ga11  1  0.702726  0.096997  0.501006  1
  Ga  Ga12  1  0.398777  0.206783  0.994741  1
  Ga  Ga13  1  0.938967  0.331707  0.795563  1
  Ga  Ga14  1  0.463287  0.703335  0.377206  1
  Ga  Ga15  1  0.996052  0.922273  0.088980  1
  Ga  Ga16  1  0.803978  0.398417  0.002918  1
  Ga  Ga17  1  0.543381  0.292117  0.623326  1
  Ga  Ga18  1  0.010411  0.078955  0.907172  1
  Ga  Ga19  1  0.201118  0.601351  0.996063  1
  Ga  Ga20  1  0.112234  0.330005  0.450359  1
  Ga  Ga21  1  0.372513  0.058780  0.197077  1
  Ga  Ga22  1  0.614165  0.472342  0.306998  1
  Ga  Ga23  1  0.391295  0.527111  0.691550  1
  Ni  Ni24  1  0.138766  0.841595  0.893435  1
  Ni  Ni25  1  0.507920  0.181353  0.809069  1
  Ni  Ni26  1  0.866504  0.160688  0.104796  1
  Ni  Ni27  1  0.976415  0.434447  0.612749  1
  Ni  Ni28  1  0.503592  0.497458  0.499625  1
  Ni  Ni29  1  0.652682  0.580646  0.113542  1
  Ni  Ni30  1  0.029134  0.563725  0.387238  1
  Ni  Ni31  1  0.351294  0.419844  0.884641  1
  Ni  Ni32  1  0.248709  0.119738  0.389216  1
  Ni  Ni33  1  0.500097  0.817076  0.188076  1
  Ni  Ni34  1  0.752777  0.882808  0.613935  1
