# generated using pymatgen
data_Ta12Cr9Si2IrN4
_symmetry_space_group_name_H-M   'P 1'
_cell_length_a   8.10986827
_cell_length_b   8.09626659
_cell_length_c   8.08468200
_cell_angle_alpha   60.04732924
_cell_angle_beta   60.10268858
_cell_angle_gamma   60.38888755
_symmetry_Int_Tables_number   1
_chemical_formula_structural   Ta12Cr9Si2IrN4
_chemical_formula_sum   'Ta12 Cr9 Si2 Ir1 N4'
_cell_volume   376.87807304
_cell_formula_units_Z   1
loop_
 _symmetry_equiv_pos_site_id
 _symmetry_equiv_pos_as_xyz
  1  'x, y, z'
loop_
 _atom_site_type_symbol
 _atom_site_label
 _atom_site_symmetry_multiplicity
 _atom_site_fract_x
 _atom_site_fract_y
 _atom_site_fract_z
 _atom_site_occupancy
  Ta  Ta0  1  0.806655  0.806667  0.193339  1
  Ta  Ta1  1  0.197334  0.197367  0.802650  1
  Ta  Ta2  1  0.806664  0.191230  0.807053  1
  Ta  Ta3  1  0.192941  0.805133  0.197088  1
  Ta  Ta4  1  0.192941  0.805133  0.804838  1
  Ta  Ta5  1  0.806664  0.191230  0.195052  1
  Ta  Ta6  1  0.439305  0.439662  0.060516  1
  Ta  Ta7  1  0.057392  0.045408  0.448600  1
  Ta  Ta8  1  0.443215  0.059036  0.445028  1
  Ta  Ta9  1  0.060679  0.446570  0.045645  1
  Ta  Ta10  1  0.060679  0.446570  0.447106  1
  Ta  Ta11  1  0.443215  0.059036  0.052721  1
  Cr  Cr12  1  0.624450  0.630422  0.113599  1
  Cr  Cr13  1  0.624450  0.630422  0.631529  1
  Cr  Cr14  1  0.425329  0.736790  0.418940  1
  Cr  Cr15  1  0.423585  0.427940  0.734413  1
  Cr  Cr16  1  0.423585  0.427940  0.414062  1
  Cr  Cr17  1  0.504889  0.828762  0.833175  1
  Cr  Cr18  1  0.825649  0.508006  0.833173  1
  Cr  Cr19  1  0.823448  0.825919  0.515753  1
  Cr  Cr20  1  0.823448  0.825919  0.834881  1
  Si  Si21  1  0.123532  0.625661  0.625403  1
  Si  Si22  1  0.619516  0.124462  0.628011  1
  Ir  Ir23  1  0.752083  0.414957  0.416480  1
  N  N24  1  0.626895  0.123383  0.124860  1
  N  N25  1  0.122731  0.625719  0.125775  1
  N  N26  1  0.124364  0.125329  0.624720  1
  N  N27  1  0.124364  0.125329  0.125588  1
