# generated using pymatgen
data_Na4TbUSe6
_symmetry_space_group_name_H-M   'P 1'
_cell_length_a   7.25701236
_cell_length_b   7.25701237
_cell_length_c   7.37429084
_cell_angle_alpha   80.46100407
_cell_angle_beta   80.46100398
_cell_angle_gamma   120.01525203
_symmetry_Int_Tables_number   1
_chemical_formula_structural   Na4TbUSe6
_chemical_formula_sum   'Na4 Tb1 U1 Se6'
_cell_volume   317.26258721
_cell_formula_units_Z   1
loop_
 _symmetry_equiv_pos_site_id
 _symmetry_equiv_pos_as_xyz
  1  'x, y, z'
loop_
 _atom_site_type_symbol
 _atom_site_label
 _atom_site_symmetry_multiplicity
 _atom_site_fract_x
 _atom_site_fract_y
 _atom_site_fract_z
 _atom_site_occupancy
  Na  Na0  1  0.999987  0.000013  0.000000  1
  Na  Na1  1  0.499676  0.500324  0.500000  1
  Na  Na2  1  0.839603  0.160397  0.500000  1
  Na  Na3  1  0.160543  0.839457  0.500000  1
  Tb  Tb4  1  0.667165  0.332835  0.000000  1
  U  U5  1  0.332734  0.667266  0.000000  1
  Se  Se6  1  0.272695  0.283272  0.230236  1
  Se  Se7  1  0.427040  0.066130  0.770284  1
  Se  Se8  1  0.087976  0.438017  0.772688  1
  Se  Se9  1  0.716728  0.727305  0.769764  1
  Se  Se10  1  0.561983  0.912024  0.227312  1
  Se  Se11  1  0.933870  0.572960  0.229716  1
