# generated using pymatgen
data_HoEr9Cd4(InNi)4
_symmetry_space_group_name_H-M   'P 1'
_cell_length_a   7.83537602
_cell_length_b   17.98807205
_cell_length_c   3.56379500
_cell_angle_alpha   90.00000000
_cell_angle_beta   90.00000000
_cell_angle_gamma   89.99175412
_symmetry_Int_Tables_number   1
_chemical_formula_structural   HoEr9Cd4(InNi)4
_chemical_formula_sum   'Ho1 Er9 Cd4 In4 Ni4'
_cell_volume   502.29305243
_cell_formula_units_Z   1
loop_
 _symmetry_equiv_pos_site_id
 _symmetry_equiv_pos_as_xyz
  1  'x, y, z'
loop_
 _atom_site_type_symbol
 _atom_site_label
 _atom_site_symmetry_multiplicity
 _atom_site_fract_x
 _atom_site_fract_y
 _atom_site_fract_z
 _atom_site_occupancy
  Ho  Ho0  1  0.000000  0.000000  0.000000  1
  Er  Er1  1  0.500000  0.500000  0.000000  1
  Er  Er2  1  0.758731  0.278681  0.000000  1
  Er  Er3  1  0.241269  0.721319  0.000000  1
  Er  Er4  1  0.741271  0.778688  0.000000  1
  Er  Er5  1  0.258729  0.221312  0.000000  1
  Er  Er6  1  0.618360  0.089582  0.000000  1
  Er  Er7  1  0.381640  0.910418  0.000000  1
  Er  Er8  1  0.881606  0.589553  0.000000  1
  Er  Er9  1  0.118394  0.410447  0.000000  1
  Cd  Cd10  1  0.705412  0.930700  0.500000  1
  Cd  Cd11  1  0.294588  0.069300  0.500000  1
  Cd  Cd12  1  0.794422  0.430770  0.500000  1
  Cd  Cd13  1  0.205578  0.569230  0.500000  1
  In  In14  1  0.562379  0.650285  0.500000  1
  In  In15  1  0.437621  0.349715  0.500000  1
  In  In16  1  0.937623  0.150413  0.500000  1
  In  In17  1  0.062377  0.849587  0.500000  1
  Ni  Ni18  1  0.536403  0.197149  0.500000  1
  Ni  Ni19  1  0.463597  0.802851  0.500000  1
  Ni  Ni20  1  0.963591  0.697132  0.500000  1
  Ni  Ni21  1  0.036409  0.302868  0.500000  1
