# generated using pymatgen
data_Sr10Si5AsF
_symmetry_space_group_name_H-M   'P 1'
_cell_length_a   9.64971628
_cell_length_b   9.64971553
_cell_length_c   9.64971526
_cell_angle_alpha   130.00581553
_cell_angle_beta   130.36543869
_cell_angle_gamma   73.11056373
_symmetry_Int_Tables_number   1
_chemical_formula_structural   Sr10Si5AsF
_chemical_formula_sum   'Sr10 Si5 As1 F1'
_cell_volume   512.08092647
_cell_formula_units_Z   1
loop_
 _symmetry_equiv_pos_site_id
 _symmetry_equiv_pos_as_xyz
  1  'x, y, z'
loop_
 _atom_site_type_symbol
 _atom_site_label
 _atom_site_symmetry_multiplicity
 _atom_site_fract_x
 _atom_site_fract_y
 _atom_site_fract_z
 _atom_site_occupancy
  Sr  Sr0  1  0.772041  0.434365  0.998202  1
  Sr  Sr1  1  0.436162  0.773841  0.001798  1
  Sr  Sr2  1  0.932652  0.932166  0.644227  1
  Sr  Sr3  1  0.287939  0.288425  0.355773  1
  Sr  Sr4  1  0.712061  0.067834  0.000486  1
  Sr  Sr5  1  0.067348  0.711575  0.999514  1
  Sr  Sr6  1  0.563838  0.565635  0.337676  1
  Sr  Sr7  1  0.227958  0.226159  0.662324  1
  Sr  Sr8  1  0.253639  0.753639  0.500000  1
  Sr  Sr9  1  0.746361  0.246361  0.500000  1
  Si  Si10  1  0.500000  0.000000  0.500000  1
  Si  Si11  1  0.138376  0.356389  0.999682  1
  Si  Si12  1  0.356708  0.138694  0.000318  1
  Si  Si13  1  0.861624  0.861306  0.218013  1
  Si  Si14  1  0.643292  0.643611  0.781987  1
  As  As15  1  0.000000  0.500000  0.500000  1
  F  F16  1  0.500000  0.500000  0.000000  1
