# generated using pymatgen
data_V5Si6Mo5H2
_symmetry_space_group_name_H-M   'P 1'
_cell_length_a   4.87205101
_cell_length_b   7.24848650
_cell_length_c   7.24732106
_cell_angle_alpha   119.97624861
_cell_angle_beta   90.00335730
_cell_angle_gamma   89.99269400
_symmetry_Int_Tables_number   1
_chemical_formula_structural   V5Si6Mo5H2
_chemical_formula_sum   'V5 Si6 Mo5 H2'
_cell_volume   221.70280232
_cell_formula_units_Z   1
loop_
 _symmetry_equiv_pos_site_id
 _symmetry_equiv_pos_as_xyz
  1  'x, y, z'
loop_
 _atom_site_type_symbol
 _atom_site_label
 _atom_site_symmetry_multiplicity
 _atom_site_fract_x
 _atom_site_fract_y
 _atom_site_fract_z
 _atom_site_occupancy
  V  V0  1  0.498007  0.333196  0.668252  1
  V  V1  1  0.498097  0.666780  0.334979  1
  V  V2  1  0.001894  0.666775  0.335005  1
  V  V3  1  0.001989  0.333188  0.668250  1
  V  V4  1  0.250009  0.000131  0.755431  1
  Si  Si5  1  0.750074  0.599132  0.000968  1
  Si  Si6  1  0.750079  0.400929  0.401628  1
  Si  Si7  1  0.750087  0.999903  0.598299  1
  Si  Si8  1  0.249921  0.399337  0.999073  1
  Si  Si9  1  0.249951  0.600785  0.599534  1
  Si  Si10  1  0.249916  0.999878  0.404909  1
  Mo  Mo11  1  0.749968  0.244191  0.996937  1
  Mo  Mo12  1  0.749985  0.755753  0.752870  1
  Mo  Mo13  1  0.749972  0.000098  0.246656  1
  Mo  Mo14  1  0.250032  0.754618  0.999742  1
  Mo  Mo15  1  0.250029  0.245321  0.245208  1
  H  H16  1  0.496094  0.999993  0.996132  1
  H  H17  1  0.003902  0.999991  0.996126  1
