# generated using pymatgen
data_Y2Th(InPd)3
_symmetry_space_group_name_H-M   'P 1'
_cell_length_a   7.76167681
_cell_length_b   7.76167644
_cell_length_c   3.91851300
_cell_angle_alpha   90.00000000
_cell_angle_beta   90.00000000
_cell_angle_gamma   119.90257461
_symmetry_Int_Tables_number   1
_chemical_formula_structural   Y2Th(InPd)3
_chemical_formula_sum   'Y2 Th1 In3 Pd3'
_cell_volume   204.63906051
_cell_formula_units_Z   1
loop_
 _symmetry_equiv_pos_site_id
 _symmetry_equiv_pos_as_xyz
  1  'x, y, z'
loop_
 _atom_site_type_symbol
 _atom_site_label
 _atom_site_symmetry_multiplicity
 _atom_site_fract_x
 _atom_site_fract_y
 _atom_site_fract_z
 _atom_site_occupancy
  Y  Y0  1  0.592420  0.997897  0.500000  1
  Y  Y1  1  0.997897  0.592420  0.500000  1
  Th  Th2  1  0.409669  0.409669  0.500000  1
  In  In3  1  0.752210  0.752210  0.000000  1
  In  In4  1  0.257297  0.989119  0.000000  1
  In  In5  1  0.989119  0.257297  0.000000  1
  Pd  Pd6  1  0.659054  0.333864  0.000000  1
  Pd  Pd7  1  0.333864  0.659054  0.000000  1
  Pd  Pd8  1  0.008470  0.008470  0.500000  1
