# generated using pymatgen
data_NaCa(InPt)2
_symmetry_space_group_name_H-M   'P 1'
_cell_length_a   4.46922500
_cell_length_b   7.43393200
_cell_length_c   8.22099800
_cell_angle_alpha   90.00000000
_cell_angle_beta   90.00000000
_cell_angle_gamma   90.00000000
_symmetry_Int_Tables_number   1
_chemical_formula_structural   NaCa(InPt)2
_chemical_formula_sum   'Na2 Ca2 In4 Pt4'
_cell_volume   273.13373665
_cell_formula_units_Z   2
loop_
 _symmetry_equiv_pos_site_id
 _symmetry_equiv_pos_as_xyz
  1  'x, y, z'
loop_
 _atom_site_type_symbol
 _atom_site_label
 _atom_site_symmetry_multiplicity
 _atom_site_fract_x
 _atom_site_fract_y
 _atom_site_fract_z
 _atom_site_occupancy
  Na  Na0  1  0.250000  0.026409  0.323302  1
  Na  Na1  1  0.250000  0.526409  0.176698  1
  Ca  Ca2  1  0.750000  0.974268  0.671177  1
  Ca  Ca3  1  0.750000  0.474268  0.828823  1
  In  In4  1  0.750000  0.348057  0.427030  1
  In  In5  1  0.250000  0.150693  0.939260  1
  In  In6  1  0.750000  0.848057  0.072970  1
  In  In7  1  0.250000  0.650693  0.560740  1
  Pt  Pt8  1  0.750000  0.221868  0.116212  1
  Pt  Pt9  1  0.750000  0.721868  0.383788  1
  Pt  Pt10  1  0.250000  0.778707  0.874434  1
  Pt  Pt11  1  0.250000  0.278707  0.625566  1
