# generated using pymatgen
data_TbDyPa2(VB4)4
_symmetry_space_group_name_H-M   'P 1'
_cell_length_a   3.53601100
_cell_length_b   5.97607227
_cell_length_c   11.57399713
_cell_angle_alpha   89.82322233
_cell_angle_beta   90.00000000
_cell_angle_gamma   90.00000000
_symmetry_Int_Tables_number   1
_chemical_formula_structural   TbDyPa2(VB4)4
_chemical_formula_sum   'Tb1 Dy1 Pa2 V4 B16'
_cell_volume   244.57426164
_cell_formula_units_Z   1
loop_
 _symmetry_equiv_pos_site_id
 _symmetry_equiv_pos_as_xyz
  1  'x, y, z'
loop_
 _atom_site_type_symbol
 _atom_site_label
 _atom_site_symmetry_multiplicity
 _atom_site_fract_x
 _atom_site_fract_y
 _atom_site_fract_z
 _atom_site_occupancy
  Tb  Tb0  1  0.000000  0.122919  0.148961  1
  Dy  Dy1  1  0.000000  0.877146  0.850991  1
  Pa  Pa2  1  0.000000  0.625746  0.347570  1
  Pa  Pa3  1  0.000000  0.374377  0.652535  1
  V  V4  1  0.000000  0.624273  0.083279  1
  V  V5  1  0.000000  0.375807  0.916580  1
  V  V6  1  0.000000  0.127340  0.417541  1
  V  V7  1  0.000000  0.872432  0.582642  1
  B  B8  1  0.500000  0.782821  0.185002  1
  B  B9  1  0.500000  0.216707  0.815047  1
  B  B10  1  0.500000  0.283643  0.314699  1
  B  B11  1  0.500000  0.716725  0.685405  1
  B  B12  1  0.500000  0.863907  0.032510  1
  B  B13  1  0.500000  0.135971  0.967114  1
  B  B14  1  0.500000  0.363944  0.467166  1
  B  B15  1  0.500000  0.636282  0.532872  1
  B  B16  1  0.500000  0.886834  0.453332  1
  B  B17  1  0.500000  0.112851  0.546845  1
  B  B18  1  0.500000  0.386147  0.045860  1
  B  B19  1  0.500000  0.614231  0.953824  1
  B  B20  1  0.500000  0.973862  0.308392  1
  B  B21  1  0.500000  0.025722  0.691816  1
  B  B22  1  0.500000  0.476647  0.191191  1
  B  B23  1  0.500000  0.523665  0.808827  1
