# generated using pymatgen
data_Lu3ThAgIr
_symmetry_space_group_name_H-M   'P 1'
_cell_length_a   9.52085090
_cell_length_b   9.52085053
_cell_length_c   9.52085100
_cell_angle_alpha   60.00000184
_cell_angle_beta   60.00000311
_cell_angle_gamma   60.00000080
_symmetry_Int_Tables_number   1
_chemical_formula_structural   Lu3ThAgIr
_chemical_formula_sum   'Lu12 Th4 Ag4 Ir4'
_cell_volume   610.25634076
_cell_formula_units_Z   4
loop_
 _symmetry_equiv_pos_site_id
 _symmetry_equiv_pos_as_xyz
  1  'x, y, z'
loop_
 _atom_site_type_symbol
 _atom_site_label
 _atom_site_symmetry_multiplicity
 _atom_site_fract_x
 _atom_site_fract_y
 _atom_site_fract_z
 _atom_site_occupancy
  Lu  Lu0  1  0.812353  0.187647  0.187647  1
  Lu  Lu1  1  0.187647  0.812353  0.812353  1
  Lu  Lu2  1  0.187647  0.812353  0.187647  1
  Lu  Lu3  1  0.812353  0.187647  0.812353  1
  Lu  Lu4  1  0.187647  0.187647  0.812353  1
  Lu  Lu5  1  0.812353  0.812353  0.187647  1
  Lu  Lu6  1  0.932821  0.567179  0.567179  1
  Lu  Lu7  1  0.567179  0.932821  0.932821  1
  Lu  Lu8  1  0.567179  0.932821  0.567179  1
  Lu  Lu9  1  0.932821  0.567179  0.932821  1
  Lu  Lu10  1  0.567179  0.567179  0.932821  1
  Lu  Lu11  1  0.932821  0.932821  0.567179  1
  Th  Th12  1  0.353086  0.353086  0.353086  1
  Th  Th13  1  0.353086  0.353086  0.940740  1
  Th  Th14  1  0.353086  0.940740  0.353086  1
  Th  Th15  1  0.940740  0.353086  0.353086  1
  Ag  Ag16  1  0.584270  0.584270  0.584270  1
  Ag  Ag17  1  0.584270  0.584270  0.247188  1
  Ag  Ag18  1  0.584270  0.247188  0.584270  1
  Ag  Ag19  1  0.247188  0.584270  0.584270  1
  Ir  Ir20  1  0.141914  0.141914  0.141914  1
  Ir  Ir21  1  0.141914  0.141914  0.574257  1
  Ir  Ir22  1  0.141914  0.574257  0.141914  1
  Ir  Ir23  1  0.574257  0.141914  0.141914  1
