# generated using pymatgen
data_Nd10In3Bi3Br2
_symmetry_space_group_name_H-M   'P 1'
_cell_length_a   9.64685911
_cell_length_b   9.62160849
_cell_length_c   6.81087900
_cell_angle_alpha   90.00000000
_cell_angle_beta   90.00000000
_cell_angle_gamma   120.35745354
_symmetry_Int_Tables_number   1
_chemical_formula_structural   Nd10In3Bi3Br2
_chemical_formula_sum   'Nd10 In3 Bi3 Br2'
_cell_volume   545.49630756
_cell_formula_units_Z   1
loop_
 _symmetry_equiv_pos_site_id
 _symmetry_equiv_pos_as_xyz
  1  'x, y, z'
loop_
 _atom_site_type_symbol
 _atom_site_label
 _atom_site_symmetry_multiplicity
 _atom_site_fract_x
 _atom_site_fract_y
 _atom_site_fract_z
 _atom_site_occupancy
  Nd  Nd0  1  0.267022  0.994964  0.750000  1
  Nd  Nd1  1  0.730516  0.999364  0.250000  1
  Nd  Nd2  1  0.996628  0.266458  0.750000  1
  Nd  Nd3  1  0.003473  0.736308  0.250000  1
  Nd  Nd4  1  0.736396  0.734799  0.750000  1
  Nd  Nd5  1  0.266422  0.263738  0.250000  1
  Nd  Nd6  1  0.332186  0.673030  0.499844  1
  Nd  Nd7  1  0.667071  0.328874  0.500007  1
  Nd  Nd8  1  0.667071  0.328874  0.999993  1
  Nd  Nd9  1  0.332186  0.673030  0.000156  1
  In  In10  1  0.610772  0.999151  0.750000  1
  In  In11  1  0.390631  0.001182  0.250000  1
  In  In12  1  0.998892  0.612815  0.750000  1
  Bi  Bi13  1  0.000299  0.386366  0.250000  1
  Bi  Bi14  1  0.385226  0.384824  0.750000  1
  Bi  Bi15  1  0.615452  0.613715  0.250000  1
  Br  Br16  1  0.999879  0.001255  0.499821  1
  Br  Br17  1  0.999879  0.001255  0.000179  1
