# generated using pymatgen
data_Ce2SiIrRh2
_symmetry_space_group_name_H-M   'P 1'
_cell_length_a   5.09211153
_cell_length_b   5.63226759
_cell_length_c   5.09211012
_cell_angle_alpha   124.04445086
_cell_angle_beta   113.05733290
_cell_angle_gamma   89.43671390
_symmetry_Int_Tables_number   1
_chemical_formula_structural   Ce2SiIrRh2
_chemical_formula_sum   'Ce2 Si1 Ir1 Rh2'
_cell_volume   107.06082789
_cell_formula_units_Z   1
loop_
 _symmetry_equiv_pos_site_id
 _symmetry_equiv_pos_as_xyz
  1  'x, y, z'
loop_
 _atom_site_type_symbol
 _atom_site_label
 _atom_site_symmetry_multiplicity
 _atom_site_fract_x
 _atom_site_fract_y
 _atom_site_fract_z
 _atom_site_occupancy
  Ce  Ce0  1  0.376633  0.121887  0.245252  1
  Ce  Ce1  1  0.623367  0.878113  0.754748  1
  Si  Si2  1  0.000000  0.500000  0.000000  1
  Ir  Ir3  1  0.000000  0.000000  0.500000  1
  Rh  Rh4  1  0.500000  0.500000  0.000000  1
  Rh  Rh5  1  0.000000  0.500000  0.500000  1
