# generated using pymatgen
data_MgMn3Cu2(B2Rh5)2
_symmetry_space_group_name_H-M   'P 1'
_cell_length_a   9.32642389
_cell_length_b   2.92920500
_cell_length_c   9.32642389
_cell_angle_alpha   90.00000000
_cell_angle_beta   90.23061041
_cell_angle_gamma   90.00000000
_symmetry_Int_Tables_number   1
_chemical_formula_structural   MgMn3Cu2(B2Rh5)2
_chemical_formula_sum   'Mg1 Mn3 Cu2 B4 Rh10'
_cell_volume   254.78658011
_cell_formula_units_Z   1
loop_
 _symmetry_equiv_pos_site_id
 _symmetry_equiv_pos_as_xyz
  1  'x, y, z'
loop_
 _atom_site_type_symbol
 _atom_site_label
 _atom_site_symmetry_multiplicity
 _atom_site_fract_x
 _atom_site_fract_y
 _atom_site_fract_z
 _atom_site_occupancy
  Mg  Mg0  1  0.676355  0.000000  0.823645  1
  Mn  Mn1  1  0.321652  0.000000  0.178348  1
  Mn  Mn2  1  0.822572  0.000000  0.323719  1
  Mn  Mn3  1  0.176281  0.000000  0.677428  1
  Cu  Cu4  1  0.998906  0.000000  0.999223  1
  Cu  Cu5  1  0.500776  0.000000  0.501093  1
  B  B6  1  0.628461  0.000000  0.128726  1
  B  B7  1  0.129257  0.000000  0.370743  1
  B  B8  1  0.872736  0.000000  0.627264  1
  B  B9  1  0.371274  0.000000  0.871539  1
  Rh  Rh10  1  0.496962  0.500001  0.003037  1
  Rh  Rh11  1  0.785753  0.500001  0.075859  1
  Rh  Rh12  1  0.070377  0.500001  0.215060  1
  Rh  Rh13  1  0.570041  0.500001  0.285071  1
  Rh  Rh14  1  0.284940  0.500001  0.429623  1
  Rh  Rh15  1  0.001270  0.500001  0.498729  1
  Rh  Rh16  1  0.718275  0.500001  0.564957  1
  Rh  Rh17  1  0.424141  0.500001  0.714248  1
  Rh  Rh18  1  0.935044  0.500001  0.781726  1
  Rh  Rh19  1  0.214929  0.500001  0.929960  1
