# generated using pymatgen
data_Al2Pd5
_symmetry_space_group_name_H-M   'P 1'
_cell_length_a   4.09494000
_cell_length_b   5.45775100
_cell_length_c   18.69666700
_cell_angle_alpha   90.00000000
_cell_angle_beta   90.00000000
_cell_angle_gamma   90.00000000
_symmetry_Int_Tables_number   1
_chemical_formula_structural   Al2Pd5
_chemical_formula_sum   'Al8 Pd20'
_cell_volume   417.85485609
_cell_formula_units_Z   4
loop_
 _symmetry_equiv_pos_site_id
 _symmetry_equiv_pos_as_xyz
  1  'x, y, z'
loop_
 _atom_site_type_symbol
 _atom_site_label
 _atom_site_symmetry_multiplicity
 _atom_site_fract_x
 _atom_site_fract_y
 _atom_site_fract_z
 _atom_site_occupancy
  Al  Al0  1  0.750000  0.700617  0.456569  1
  Al  Al1  1  0.250000  0.299383  0.543431  1
  Al  Al2  1  0.750000  0.200617  0.043431  1
  Al  Al3  1  0.250000  0.799383  0.956569  1
  Al  Al4  1  0.750000  0.167857  0.324116  1
  Al  Al5  1  0.250000  0.832143  0.675884  1
  Al  Al6  1  0.750000  0.667857  0.175884  1
  Al  Al7  1  0.250000  0.332143  0.824116  1
  Pd  Pd8  1  0.750000  0.639202  0.733833  1
  Pd  Pd9  1  0.250000  0.360798  0.266167  1
  Pd  Pd10  1  0.750000  0.139202  0.766167  1
  Pd  Pd11  1  0.250000  0.860798  0.233833  1
  Pd  Pd12  1  0.750000  0.170654  0.469990  1
  Pd  Pd13  1  0.250000  0.829346  0.530010  1
  Pd  Pd14  1  0.750000  0.670654  0.030010  1
  Pd  Pd15  1  0.250000  0.329346  0.969990  1
  Pd  Pd16  1  0.750000  0.533172  0.588140  1
  Pd  Pd17  1  0.250000  0.466828  0.411860  1
  Pd  Pd18  1  0.750000  0.033172  0.911860  1
  Pd  Pd19  1  0.250000  0.966828  0.088140  1
  Pd  Pd20  1  0.750000  0.664862  0.320467  1
  Pd  Pd21  1  0.250000  0.335138  0.679533  1
  Pd  Pd22  1  0.750000  0.164862  0.179533  1
  Pd  Pd23  1  0.250000  0.835138  0.820467  1
  Pd  Pd24  1  0.750000  0.534524  0.881965  1
  Pd  Pd25  1  0.250000  0.465476  0.118035  1
  Pd  Pd26  1  0.750000  0.034524  0.618035  1
  Pd  Pd27  1  0.250000  0.965476  0.381965  1
