# generated using pymatgen
data_Sr3LaIr8
_symmetry_space_group_name_H-M   'P 1'
_cell_length_a   9.48941905
_cell_length_b   9.48941874
_cell_length_c   9.48941892
_cell_angle_alpha   33.58538863
_cell_angle_beta   33.58539234
_cell_angle_gamma   33.58538696
_symmetry_Int_Tables_number   1
_chemical_formula_structural   Sr3LaIr8
_chemical_formula_sum   'Sr3 La1 Ir8'
_cell_volume   232.92356406
_cell_formula_units_Z   1
loop_
 _symmetry_equiv_pos_site_id
 _symmetry_equiv_pos_as_xyz
  1  'x, y, z'
loop_
 _atom_site_type_symbol
 _atom_site_label
 _atom_site_symmetry_multiplicity
 _atom_site_fract_x
 _atom_site_fract_y
 _atom_site_fract_z
 _atom_site_occupancy
  Sr  Sr0  1  0.625003  0.625003  0.625003  1
  Sr  Sr1  1  0.998704  0.998704  0.998704  1
  Sr  Sr2  1  0.501327  0.501327  0.501327  1
  La  La3  1  0.125167  0.125167  0.125167  1
  Ir  Ir4  1  0.562650  0.562650  0.063725  1
  Ir  Ir5  1  0.062316  0.062316  0.561193  1
  Ir  Ir6  1  0.562650  0.063725  0.562650  1
  Ir  Ir7  1  0.062316  0.561193  0.062316  1
  Ir  Ir8  1  0.812526  0.812526  0.812526  1
  Ir  Ir9  1  0.312424  0.312424  0.312424  1
  Ir  Ir10  1  0.063725  0.562650  0.562650  1
  Ir  Ir11  1  0.561193  0.062316  0.062316  1
