# generated using pymatgen
data_Cs2CuHgF6
_symmetry_space_group_name_H-M   'P 1'
_cell_length_a   6.30696312
_cell_length_b   6.43353410
_cell_length_c   6.43353463
_cell_angle_alpha   92.88415393
_cell_angle_beta   118.97125731
_cell_angle_gamma   118.97126570
_symmetry_Int_Tables_number   1
_chemical_formula_structural   Cs2CuHgF6
_chemical_formula_sum   'Cs2 Cu1 Hg1 F6'
_cell_volume   185.44073421
_cell_formula_units_Z   1
loop_
 _symmetry_equiv_pos_site_id
 _symmetry_equiv_pos_as_xyz
  1  'x, y, z'
loop_
 _atom_site_type_symbol
 _atom_site_label
 _atom_site_symmetry_multiplicity
 _atom_site_fract_x
 _atom_site_fract_y
 _atom_site_fract_z
 _atom_site_occupancy
  Cs  Cs0  1  0.500003  0.750002  0.250001  1
  Cs  Cs1  1  0.500002  0.250002  0.750001  1
  Cu  Cu2  1  0.000000  0.000000  0.000000  1
  Hg  Hg3  1  0.000000  0.500001  0.500000  1
  F  F4  1  0.000000  0.217867  0.217867  1
  F  F5  1  0.429750  0.214876  0.214875  1
  F  F6  1  0.000000  0.726654  0.273345  1
  F  F7  1  0.570249  0.785125  0.785124  1
  F  F8  1  0.000000  0.273346  0.726656  1
  F  F9  1  0.000000  0.782133  0.782134  1
