# generated using pymatgen
data_Li8Pr3Dy5Pt8
_symmetry_space_group_name_H-M   'P 1'
_cell_length_a   9.42966226
_cell_length_b   7.82177497
_cell_length_c   7.06089600
_cell_angle_alpha   90.00000000
_cell_angle_beta   90.12449984
_cell_angle_gamma   114.50314047
_symmetry_Int_Tables_number   1
_chemical_formula_structural   Li8Pr3Dy5Pt8
_chemical_formula_sum   'Li8 Pr3 Dy5 Pt8'
_cell_volume   473.88404981
_cell_formula_units_Z   1
loop_
 _symmetry_equiv_pos_site_id
 _symmetry_equiv_pos_as_xyz
  1  'x, y, z'
loop_
 _atom_site_type_symbol
 _atom_site_label
 _atom_site_symmetry_multiplicity
 _atom_site_fract_x
 _atom_site_fract_y
 _atom_site_fract_z
 _atom_site_occupancy
  Li  Li0  1  0.800358  0.153907  0.623973  1
  Li  Li1  1  0.800616  0.647175  0.624399  1
  Li  Li2  1  0.308820  0.155508  0.878225  1
  Li  Li3  1  0.199833  0.847928  0.124641  1
  Li  Li4  1  0.200248  0.351716  0.124720  1
  Li  Li5  1  0.689179  0.844092  0.381075  1
  Li  Li6  1  0.688187  0.343200  0.385406  1
  Li  Li7  1  0.313532  0.656908  0.878790  1
  Pr  Pr8  1  0.931342  0.465573  0.950881  1
  Pr  Pr9  1  0.071645  0.035181  0.450880  1
  Pr  Pr10  1  0.932233  0.966418  0.952764  1
  Dy  Dy11  1  0.433274  0.468944  0.551444  1
  Dy  Dy12  1  0.432478  0.963286  0.550904  1
  Dy  Dy13  1  0.071704  0.536166  0.448634  1
  Dy  Dy14  1  0.566484  0.533863  0.052452  1
  Dy  Dy15  1  0.565921  0.032917  0.053296  1
  Pt  Pt16  1  0.865430  0.186775  0.254800  1
  Pt  Pt17  1  0.863608  0.677427  0.254797  1
  Pt  Pt18  1  0.381778  0.191061  0.255761  1
  Pt  Pt19  1  0.136259  0.811362  0.744510  1
  Pt  Pt20  1  0.135705  0.324931  0.743013  1
  Pt  Pt21  1  0.622053  0.811918  0.757017  1
  Pt  Pt22  1  0.615677  0.307386  0.759031  1
  Pt  Pt23  1  0.373634  0.686359  0.256593  1
