# generated using pymatgen
data_TbYV3P7Rh9
_symmetry_space_group_name_H-M   'P 1'
_cell_length_a   3.86563700
_cell_length_b   9.55927381
_cell_length_c   9.55355005
_cell_angle_alpha   120.02208597
_cell_angle_beta   90.00005745
_cell_angle_gamma   90.00039600
_symmetry_Int_Tables_number   1
_chemical_formula_structural   TbYV3P7Rh9
_chemical_formula_sum   'Tb1 Y1 V3 P7 Rh9'
_cell_volume   305.66427956
_cell_formula_units_Z   1
loop_
 _symmetry_equiv_pos_site_id
 _symmetry_equiv_pos_as_xyz
  1  'x, y, z'
loop_
 _atom_site_type_symbol
 _atom_site_label
 _atom_site_symmetry_multiplicity
 _atom_site_fract_x
 _atom_site_fract_y
 _atom_site_fract_z
 _atom_site_occupancy
  Tb  Tb0  1  0.261756  0.666446  0.333315  1
  Y  Y1  1  0.761559  0.333239  0.666540  1
  V  V2  1  0.762107  0.092475  0.876009  1
  V  V3  1  0.762067  0.124409  0.217003  1
  V  V4  1  0.762054  0.782819  0.907257  1
  P  P5  1  0.262432  0.000136  0.000068  1
  P  P6  1  0.761912  0.885143  0.596925  1
  P  P7  1  0.761904  0.403292  0.288182  1
  P  P8  1  0.761922  0.711801  0.115143  1
  P  P9  1  0.261720  0.116704  0.412081  1
  P  P10  1  0.261672  0.587950  0.704610  1
  P  P11  1  0.261701  0.295434  0.883153  1
  Rh  Rh12  1  0.261995  0.885630  0.158439  1
  Rh  Rh13  1  0.261994  0.841570  0.727235  1
  Rh  Rh14  1  0.262007  0.273069  0.114338  1
  Rh  Rh15  1  0.761850  0.612324  0.561027  1
  Rh  Rh16  1  0.761888  0.438809  0.050949  1
  Rh  Rh17  1  0.761884  0.948749  0.387696  1
  Rh  Rh18  1  0.261832  0.367732  0.436755  1
  Rh  Rh19  1  0.261878  0.563335  0.930988  1
  Rh  Rh20  1  0.261869  0.068934  0.632287  1
