# generated using pymatgen
data_IrPtCl8
_symmetry_space_group_name_H-M   'P 1'
_cell_length_a   6.29027542
_cell_length_b   7.36485100
_cell_length_c   6.18402822
_cell_angle_alpha   90.00000000
_cell_angle_beta   106.95045897
_cell_angle_gamma   90.00000000
_symmetry_Int_Tables_number   1
_chemical_formula_structural   IrPtCl8
_chemical_formula_sum   'Ir1 Pt1 Cl8'
_cell_volume   274.04130898
_cell_formula_units_Z   1
loop_
 _symmetry_equiv_pos_site_id
 _symmetry_equiv_pos_as_xyz
  1  'x, y, z'
loop_
 _atom_site_type_symbol
 _atom_site_label
 _atom_site_symmetry_multiplicity
 _atom_site_fract_x
 _atom_site_fract_y
 _atom_site_fract_z
 _atom_site_occupancy
  Ir  Ir0  1  0.000000  0.377267  0.250000  1
  Pt  Pt1  1  0.000000  0.617243  0.750000  1
  Cl  Cl2  1  0.792329  0.613110  0.013241  1
  Cl  Cl3  1  0.767341  0.168676  0.035740  1
  Cl  Cl4  1  0.232659  0.168676  0.464260  1
  Cl  Cl5  1  0.207671  0.613110  0.486759  1
  Cl  Cl6  1  0.783865  0.384887  0.507686  1
  Cl  Cl7  1  0.770047  0.836074  0.536305  1
  Cl  Cl8  1  0.229954  0.836074  0.963695  1
  Cl  Cl9  1  0.216136  0.384887  0.992314  1
