# generated using pymatgen
data_TcW2Br9
_symmetry_space_group_name_H-M   'P 1'
_cell_length_a   8.69987929
_cell_length_b   11.12082400
_cell_length_c   9.32785444
_cell_angle_alpha   90.00000000
_cell_angle_beta   110.89288212
_cell_angle_gamma   90.00000000
_symmetry_Int_Tables_number   1
_chemical_formula_structural   TcW2Br9
_chemical_formula_sum   'Tc2 W4 Br18'
_cell_volume   843.12991027
_cell_formula_units_Z   2
loop_
 _symmetry_equiv_pos_site_id
 _symmetry_equiv_pos_as_xyz
  1  'x, y, z'
loop_
 _atom_site_type_symbol
 _atom_site_label
 _atom_site_symmetry_multiplicity
 _atom_site_fract_x
 _atom_site_fract_y
 _atom_site_fract_z
 _atom_site_occupancy
  Tc  Tc0  1  0.826915  0.250000  0.137273  1
  Tc  Tc1  1  0.173084  0.750000  0.862727  1
  W  W2  1  0.830880  0.130947  0.362715  1
  W  W3  1  0.830880  0.369052  0.362715  1
  W  W4  1  0.169120  0.630947  0.637285  1
  W  W5  1  0.169120  0.869053  0.637285  1
  Br  Br6  1  0.448708  0.750000  0.048881  1
  Br  Br7  1  0.096156  0.250000  0.113199  1
  Br  Br8  1  0.828168  0.016995  0.124581  1
  Br  Br9  1  0.828168  0.483005  0.124581  1
  Br  Br10  1  0.540972  0.088389  0.304738  1
  Br  Br11  1  0.540972  0.411611  0.304738  1
  Br  Br12  1  0.138819  0.750000  0.392204  1
  Br  Br13  1  0.143004  0.089578  0.475868  1
  Br  Br14  1  0.143004  0.410421  0.475868  1
  Br  Br15  1  0.856995  0.589578  0.524131  1
  Br  Br16  1  0.856995  0.910422  0.524131  1
  Br  Br17  1  0.861181  0.250000  0.607796  1
  Br  Br18  1  0.459028  0.588388  0.695262  1
  Br  Br19  1  0.459028  0.911612  0.695262  1
  Br  Br20  1  0.171832  0.516995  0.875419  1
  Br  Br21  1  0.171832  0.983006  0.875419  1
  Br  Br22  1  0.903843  0.750000  0.886801  1
  Br  Br23  1  0.551292  0.250000  0.951119  1
