# generated using pymatgen
data_HoEr19Si15Rh
_symmetry_space_group_name_H-M   'P 1'
_cell_length_a   7.37120955
_cell_length_b   7.61319511
_cell_length_c   14.44861200
_cell_angle_alpha   90.29602318
_cell_angle_beta   90.34489406
_cell_angle_gamma   90.19845521
_symmetry_Int_Tables_number   1
_chemical_formula_structural   HoEr19Si15Rh
_chemical_formula_sum   'Ho1 Er19 Si15 Rh1'
_cell_volume   810.80333952
_cell_formula_units_Z   1
loop_
 _symmetry_equiv_pos_site_id
 _symmetry_equiv_pos_as_xyz
  1  'x, y, z'
loop_
 _atom_site_type_symbol
 _atom_site_label
 _atom_site_symmetry_multiplicity
 _atom_site_fract_x
 _atom_site_fract_y
 _atom_site_fract_z
 _atom_site_occupancy
  Ho  Ho0  1  0.024836  0.818809  0.599331  1
  Er  Er1  1  0.525500  0.683561  0.597656  1
  Er  Er2  1  0.321421  0.818958  0.121969  1
  Er  Er3  1  0.816854  0.680156  0.122634  1
  Er  Er4  1  0.851483  0.506439  0.749336  1
  Er  Er5  1  0.471408  0.315993  0.099639  1
  Er  Er6  1  0.028134  0.818399  0.901815  1
  Er  Er7  1  0.472095  0.316067  0.401570  1
  Er  Er8  1  0.652770  0.012155  0.257670  1
  Er  Er9  1  0.529512  0.682473  0.900666  1
  Er  Er10  1  0.681218  0.179747  0.877755  1
  Er  Er11  1  0.178111  0.321010  0.623764  1
  Er  Er12  1  0.184208  0.322726  0.875724  1
  Er  Er13  1  0.816519  0.688216  0.382074  1
  Er  Er14  1  0.323319  0.825177  0.377665  1
  Er  Er15  1  0.352380  0.990662  0.747592  1
  Er  Er16  1  0.683244  0.164946  0.618103  1
  Er  Er17  1  0.147288  0.490230  0.252172  1
  Er  Er18  1  0.971272  0.181163  0.098372  1
  Er  Er19  1  0.971745  0.177104  0.401231  1
  Si  Si20  1  0.233452  0.629077  0.750897  1
  Si  Si21  1  0.343212  0.028553  0.540959  1
  Si  Si22  1  0.027057  0.892870  0.246674  1
  Si  Si23  1  0.733719  0.869460  0.752233  1
  Si  Si24  1  0.265723  0.128409  0.246189  1
  Si  Si25  1  0.851025  0.471534  0.541753  1
  Si  Si26  1  0.481321  0.391802  0.748710  1
  Si  Si27  1  0.148277  0.531300  0.461411  1
  Si  Si28  1  0.147390  0.528078  0.039928  1
  Si  Si29  1  0.977797  0.104197  0.751854  1
  Si  Si30  1  0.768422  0.375794  0.248820  1
  Si  Si31  1  0.350800  0.029949  0.959922  1
  Si  Si32  1  0.856016  0.471360  0.959275  1
  Si  Si33  1  0.646868  0.970833  0.039208  1
  Si  Si34  1  0.521911  0.603407  0.248476  1
  Rh  Rh35  1  0.643696  0.979381  0.456955  1
