# generated using pymatgen
data_Li3Tb4Si6Ag
_symmetry_space_group_name_H-M   'P 1'
_cell_length_a   9.30465983
_cell_length_b   9.30466008
_cell_length_c   6.75476898
_cell_angle_alpha   89.59335305
_cell_angle_beta   90.40664531
_cell_angle_gamma   153.46165522
_symmetry_Int_Tables_number   1
_chemical_formula_structural   Li3Tb4Si6Ag
_chemical_formula_sum   'Li3 Tb4 Si6 Ag1'
_cell_volume   261.28222537
_cell_formula_units_Z   1
loop_
 _symmetry_equiv_pos_site_id
 _symmetry_equiv_pos_as_xyz
  1  'x, y, z'
loop_
 _atom_site_type_symbol
 _atom_site_label
 _atom_site_symmetry_multiplicity
 _atom_site_fract_x
 _atom_site_fract_y
 _atom_site_fract_z
 _atom_site_occupancy
  Li  Li0  1  0.191520  0.808480  0.441440  1
  Li  Li1  1  0.189526  0.810474  0.060557  1
  Li  Li2  1  0.810863  0.189137  0.942787  1
  Tb  Tb3  1  0.551539  0.448461  0.250110  1
  Tb  Tb4  1  0.447099  0.552901  0.749058  1
  Tb  Tb5  1  0.345445  0.654555  0.239308  1
  Tb  Tb6  1  0.653893  0.346107  0.752769  1
  Si  Si7  1  0.941174  0.058826  0.071483  1
  Si  Si8  1  0.059246  0.940754  0.927683  1
  Si  Si9  1  0.059254  0.940746  0.574425  1
  Si  Si10  1  0.941427  0.058573  0.423565  1
  Si  Si11  1  0.719802  0.280198  0.243782  1
  Si  Si12  1  0.279374  0.720626  0.762405  1
  Ag  Ag13  1  0.809839  0.190161  0.560629  1
