# generated using pymatgen
data_DyCu6IO8
_symmetry_space_group_name_H-M   'P 1'
_cell_length_a   6.59325447
_cell_length_b   6.59325386
_cell_length_c   6.59325400
_cell_angle_alpha   59.99999932
_cell_angle_beta   60.00000236
_cell_angle_gamma   59.99999564
_symmetry_Int_Tables_number   1
_chemical_formula_structural   DyCu6IO8
_chemical_formula_sum   'Dy1 Cu6 I1 O8'
_cell_volume   202.66765204
_cell_formula_units_Z   1
loop_
 _symmetry_equiv_pos_site_id
 _symmetry_equiv_pos_as_xyz
  1  'x, y, z'
loop_
 _atom_site_type_symbol
 _atom_site_label
 _atom_site_symmetry_multiplicity
 _atom_site_fract_x
 _atom_site_fract_y
 _atom_site_fract_z
 _atom_site_occupancy
  Dy  Dy0  1  0.000000  0.000000  0.000000  1
  Cu  Cu1  1  0.000000  0.000000  0.500000  1
  Cu  Cu2  1  0.500000  0.000000  0.500000  1
  Cu  Cu3  1  0.000000  0.500000  0.500000  1
  Cu  Cu4  1  0.500000  0.500000  0.000000  1
  Cu  Cu5  1  0.000000  0.500000  0.000000  1
  Cu  Cu6  1  0.500000  0.000000  0.000000  1
  I  I7  1  0.500000  0.500000  0.500000  1
  O  O8  1  0.855782  0.855782  0.432653  1
  O  O9  1  0.855782  0.432653  0.855782  1
  O  O10  1  0.432653  0.855782  0.855782  1
  O  O11  1  0.855782  0.855782  0.855782  1
  O  O12  1  0.144218  0.144218  0.567347  1
  O  O13  1  0.144218  0.567347  0.144218  1
  O  O14  1  0.567347  0.144218  0.144218  1
  O  O15  1  0.144218  0.144218  0.144218  1
