# generated using pymatgen
data_Ca10SiGeSb4
_symmetry_space_group_name_H-M   'P 1'
_cell_length_a   8.03095400
_cell_length_b   9.48199700
_cell_length_c   12.79825800
_cell_angle_alpha   90.00000000
_cell_angle_beta   90.00000000
_cell_angle_gamma   90.00000000
_symmetry_Int_Tables_number   1
_chemical_formula_structural   Ca10SiGeSb4
_chemical_formula_sum   'Ca20 Si2 Ge2 Sb8'
_cell_volume   974.58071381
_cell_formula_units_Z   2
loop_
 _symmetry_equiv_pos_site_id
 _symmetry_equiv_pos_as_xyz
  1  'x, y, z'
loop_
 _atom_site_type_symbol
 _atom_site_label
 _atom_site_symmetry_multiplicity
 _atom_site_fract_x
 _atom_site_fract_y
 _atom_site_fract_z
 _atom_site_occupancy
  Ca  Ca0  1  0.326823  0.972684  0.078171  1
  Ca  Ca1  1  0.826823  0.027316  0.421829  1
  Ca  Ca2  1  0.673371  0.473703  0.921820  1
  Ca  Ca3  1  0.173371  0.526297  0.578180  1
  Ca  Ca4  1  0.673371  0.026297  0.921820  1
  Ca  Ca5  1  0.173371  0.973703  0.578180  1
  Ca  Ca6  1  0.326823  0.527316  0.078171  1
  Ca  Ca7  1  0.826823  0.472684  0.421829  1
  Ca  Ca8  1  0.674358  0.750000  0.217177  1
  Ca  Ca9  1  0.174358  0.250000  0.282823  1
  Ca  Ca10  1  0.325364  0.250000  0.782346  1
  Ca  Ca11  1  0.825364  0.750000  0.717654  1
  Ca  Ca12  1  0.150146  0.750000  0.304703  1
  Ca  Ca13  1  0.650146  0.250000  0.195297  1
  Ca  Ca14  1  0.850357  0.250000  0.694896  1
  Ca  Ca15  1  0.350357  0.750000  0.805104  1
  Ca  Ca16  1  0.552500  0.750000  0.500882  1
  Ca  Ca17  1  0.052500  0.250000  0.999118  1
  Ca  Ca18  1  0.446843  0.250000  0.499164  1
  Ca  Ca19  1  0.946843  0.750000  0.000836  1
  Si  Si20  1  0.558061  0.750000  0.992256  1
  Si  Si21  1  0.058061  0.250000  0.507744  1
  Ge  Ge22  1  0.442001  0.250000  0.007668  1
  Ge  Ge23  1  0.942001  0.750000  0.492332  1
  Sb  Sb24  1  0.946901  0.006918  0.169197  1
  Sb  Sb25  1  0.446901  0.993082  0.330803  1
  Sb  Sb26  1  0.053090  0.506916  0.830797  1
  Sb  Sb27  1  0.553090  0.493084  0.669203  1
  Sb  Sb28  1  0.053090  0.993084  0.830797  1
  Sb  Sb29  1  0.553090  0.006916  0.669203  1
  Sb  Sb30  1  0.946901  0.493082  0.169197  1
  Sb  Sb31  1  0.446901  0.506918  0.330803  1
