# generated using pymatgen
data_ScTa5Fe2(BRu2)4
_symmetry_space_group_name_H-M   'P 1'
_cell_length_a   9.29054333
_cell_length_b   9.29054361
_cell_length_c   3.05560500
_cell_angle_alpha   90.00000000
_cell_angle_beta   90.00000000
_cell_angle_gamma   90.11740941
_symmetry_Int_Tables_number   1
_chemical_formula_structural   ScTa5Fe2(BRu2)4
_chemical_formula_sum   'Sc1 Ta5 Fe2 B4 Ru8'
_cell_volume   263.74154119
_cell_formula_units_Z   1
loop_
 _symmetry_equiv_pos_site_id
 _symmetry_equiv_pos_as_xyz
  1  'x, y, z'
loop_
 _atom_site_type_symbol
 _atom_site_label
 _atom_site_symmetry_multiplicity
 _atom_site_fract_x
 _atom_site_fract_y
 _atom_site_fract_z
 _atom_site_occupancy
  Sc  Sc0  1  0.826008  0.673992  0.000000  1
  Ta  Ta1  1  0.170609  0.329391  0.000000  1
  Ta  Ta2  1  0.327247  0.828144  0.000000  1
  Ta  Ta3  1  0.671856  0.172753  0.000000  1
  Ta  Ta4  1  0.502845  0.500848  0.000000  1
  Ta  Ta5  1  0.999152  0.997155  0.000000  1
  Fe  Fe6  1  0.497700  0.002300  0.500000  1
  Fe  Fe7  1  0.006905  0.493095  0.500000  1
  B  B8  1  0.611944  0.888056  0.000000  1
  B  B9  1  0.387585  0.112415  0.000000  1
  B  B10  1  0.112786  0.610661  0.000000  1
  B  B11  1  0.889339  0.387214  0.000000  1
  Ru  Ru12  1  0.559975  0.726518  0.500000  1
  Ru  Ru13  1  0.430647  0.278606  0.500000  1
  Ru  Ru14  1  0.073957  0.777323  0.500000  1
  Ru  Ru15  1  0.934150  0.220259  0.500000  1
  Ru  Ru16  1  0.279741  0.565850  0.500000  1
  Ru  Ru17  1  0.722677  0.426043  0.500000  1
  Ru  Ru18  1  0.221394  0.069353  0.500000  1
  Ru  Ru19  1  0.773482  0.940025  0.500000  1
