# generated using pymatgen
data_GdYSi3Pd
_symmetry_space_group_name_H-M   'P 1'
_cell_length_a   8.20496300
_cell_length_b   8.20496271
_cell_length_c   7.86140800
_cell_angle_alpha   90.00000000
_cell_angle_beta   90.00000000
_cell_angle_gamma   120.09671578
_symmetry_Int_Tables_number   1
_chemical_formula_structural   GdYSi3Pd
_chemical_formula_sum   'Gd4 Y4 Si12 Pd4'
_cell_volume   457.88891490
_cell_formula_units_Z   4
loop_
 _symmetry_equiv_pos_site_id
 _symmetry_equiv_pos_as_xyz
  1  'x, y, z'
loop_
 _atom_site_type_symbol
 _atom_site_label
 _atom_site_symmetry_multiplicity
 _atom_site_fract_x
 _atom_site_fract_y
 _atom_site_fract_z
 _atom_site_occupancy
  Gd  Gd0  1  0.511547  0.022647  0.250000  1
  Gd  Gd1  1  0.488453  0.977353  0.750000  1
  Gd  Gd2  1  0.977353  0.488453  0.250000  1
  Gd  Gd3  1  0.022647  0.511547  0.750000  1
  Y  Y4  1  0.511001  0.488999  0.250000  1
  Y  Y5  1  0.488999  0.511001  0.750000  1
  Y  Y6  1  0.000099  0.999901  0.250000  1
  Y  Y7  1  0.999901  0.000099  0.750000  1
  Si  Si8  1  0.165733  0.330474  0.002068  1
  Si  Si9  1  0.834267  0.669526  0.997932  1
  Si  Si10  1  0.669526  0.834267  0.002068  1
  Si  Si11  1  0.834267  0.669526  0.502068  1
  Si  Si12  1  0.330474  0.165733  0.997932  1
  Si  Si13  1  0.165733  0.330474  0.497932  1
  Si  Si14  1  0.164930  0.835070  0.002313  1
  Si  Si15  1  0.330474  0.165733  0.502068  1
  Si  Si16  1  0.835070  0.164930  0.997687  1
  Si  Si17  1  0.669526  0.834267  0.497932  1
  Si  Si18  1  0.835070  0.164930  0.502313  1
  Si  Si19  1  0.164930  0.835070  0.497687  1
  Pd  Pd20  1  0.333638  0.666362  0.040007  1
  Pd  Pd21  1  0.666362  0.333638  0.959993  1
  Pd  Pd22  1  0.666362  0.333638  0.540007  1
  Pd  Pd23  1  0.333638  0.666362  0.459993  1
