# generated using pymatgen
data_Ho2Th(RhPb)3
_symmetry_space_group_name_H-M   'P 1'
_cell_length_a   7.72781234
_cell_length_b   7.83889203
_cell_length_c   3.92860300
_cell_angle_alpha   90.00000000
_cell_angle_beta   90.00000000
_cell_angle_gamma   120.47662932
_symmetry_Int_Tables_number   1
_chemical_formula_structural   Ho2Th(RhPb)3
_chemical_formula_sum   'Ho2 Th1 Rh3 Pb3'
_cell_volume   205.10397674
_cell_formula_units_Z   1
loop_
 _symmetry_equiv_pos_site_id
 _symmetry_equiv_pos_as_xyz
  1  'x, y, z'
loop_
 _atom_site_type_symbol
 _atom_site_label
 _atom_site_symmetry_multiplicity
 _atom_site_fract_x
 _atom_site_fract_y
 _atom_site_fract_z
 _atom_site_occupancy
  Ho  Ho0  1  0.403894  0.403966  0.500000  1
  Ho  Ho1  1  0.596106  0.000072  0.500000  1
  Th  Th2  1  0.000000  0.588772  0.500000  1
  Rh  Rh3  1  0.000000  0.992972  0.500000  1
  Rh  Rh4  1  0.681358  0.347492  0.000000  1
  Rh  Rh5  1  0.318642  0.666135  0.000000  1
  Pb  Pb6  1  0.726134  0.738143  0.000000  1
  Pb  Pb7  1  0.273866  0.012009  0.000000  1
  Pb  Pb8  1  0.000000  0.250438  0.000000  1
