# generated using pymatgen
data_Ti2Tc3Ge2BMo
_symmetry_space_group_name_H-M   'P 1'
_cell_length_a   6.74551295
_cell_length_b   6.82631061
_cell_length_c   3.14986000
_cell_angle_alpha   90.00000000
_cell_angle_beta   90.00000000
_cell_angle_gamma   120.39703226
_symmetry_Int_Tables_number   1
_chemical_formula_structural   Ti2Tc3Ge2BMo
_chemical_formula_sum   'Ti2 Tc3 Ge2 B1 Mo1'
_cell_volume   125.10407632
_cell_formula_units_Z   1
loop_
 _symmetry_equiv_pos_site_id
 _symmetry_equiv_pos_as_xyz
  1  'x, y, z'
loop_
 _atom_site_type_symbol
 _atom_site_label
 _atom_site_symmetry_multiplicity
 _atom_site_fract_x
 _atom_site_fract_y
 _atom_site_fract_z
 _atom_site_occupancy
  Ti  Ti0  1  0.617570  0.614418  0.500000  1
  Ti  Ti1  1  0.382430  0.996848  0.500000  1
  Tc  Tc2  1  0.000000  0.758717  0.000000  1
  Tc  Tc3  1  0.239773  0.240346  0.000000  1
  Tc  Tc4  1  0.760227  0.000572  0.000000  1
  Ge  Ge5  1  0.335278  0.668106  0.000000  1
  Ge  Ge6  1  0.664722  0.332827  0.000000  1
  B  B7  1  0.000000  0.000312  0.500000  1
  Mo  Mo8  1  0.000000  0.387854  0.500000  1
