# generated using pymatgen
data_Cs6TbDyI12
_symmetry_space_group_name_H-M   'P 1'
_cell_length_a   10.70594301
_cell_length_b   10.70769101
_cell_length_c   8.87414800
_cell_angle_alpha   90.00000000
_cell_angle_beta   90.00000000
_cell_angle_gamma   89.99541926
_symmetry_Int_Tables_number   1
_chemical_formula_structural   Cs6TbDyI12
_chemical_formula_sum   'Cs6 Tb1 Dy1 I12'
_cell_volume   1017.29620294
_cell_formula_units_Z   1
loop_
 _symmetry_equiv_pos_site_id
 _symmetry_equiv_pos_as_xyz
  1  'x, y, z'
loop_
 _atom_site_type_symbol
 _atom_site_label
 _atom_site_symmetry_multiplicity
 _atom_site_fract_x
 _atom_site_fract_y
 _atom_site_fract_z
 _atom_site_occupancy
  Cs  Cs0  1  0.000000  0.000000  0.500000  1
  Cs  Cs1  1  0.000000  0.000000  0.000000  1
  Cs  Cs2  1  0.233537  0.586666  0.500000  1
  Cs  Cs3  1  0.766463  0.413334  0.500000  1
  Cs  Cs4  1  0.413331  0.233532  0.000000  1
  Cs  Cs5  1  0.586669  0.766468  0.000000  1
  Tb  Tb6  1  0.500000  0.000000  0.500000  1
  Dy  Dy7  1  0.000000  0.500000  0.000000  1
  I  I8  1  0.694546  0.058762  0.744070  1
  I  I9  1  0.305454  0.941238  0.744070  1
  I  I10  1  0.941304  0.694296  0.243765  1
  I  I11  1  0.058696  0.305704  0.243765  1
  I  I12  1  0.305454  0.941238  0.255930  1
  I  I13  1  0.694546  0.058762  0.255930  1
  I  I14  1  0.058696  0.305704  0.756235  1
  I  I15  1  0.941304  0.694296  0.756235  1
  I  I16  1  0.570964  0.725207  0.500000  1
  I  I17  1  0.429036  0.274793  0.500000  1
  I  I18  1  0.274410  0.570861  0.000000  1
  I  I19  1  0.725590  0.429139  0.000000  1
