# generated using pymatgen
data_Ho20Si15P
_symmetry_space_group_name_H-M   'P 1'
_cell_length_a   7.43827553
_cell_length_b   7.59983554
_cell_length_c   14.53416745
_cell_angle_alpha   89.76055440
_cell_angle_beta   86.30013283
_cell_angle_gamma   89.92108371
_symmetry_Int_Tables_number   1
_chemical_formula_structural   Ho20Si15P
_chemical_formula_sum   'Ho20 Si15 P1'
_cell_volume   819.89160482
_cell_formula_units_Z   1
loop_
 _symmetry_equiv_pos_site_id
 _symmetry_equiv_pos_as_xyz
  1  'x, y, z'
loop_
 _atom_site_type_symbol
 _atom_site_label
 _atom_site_symmetry_multiplicity
 _atom_site_fract_x
 _atom_site_fract_y
 _atom_site_fract_z
 _atom_site_occupancy
  Ho  Ho0  1  0.024873  0.185135  0.101071  1
  Ho  Ho1  1  0.975784  0.815954  0.898389  1
  Ho  Ho2  1  0.476690  0.684583  0.899183  1
  Ho  Ho3  1  0.002688  0.820329  0.599342  1
  Ho  Ho4  1  0.523836  0.316237  0.100329  1
  Ho  Ho5  1  0.992955  0.174494  0.398713  1
  Ho  Ho6  1  0.495506  0.316562  0.400717  1
  Ho  Ho7  1  0.503925  0.680921  0.598743  1
  Ho  Ho8  1  0.170561  0.507429  0.747110  1
  Ho  Ho9  1  0.829978  0.493536  0.254488  1
  Ho  Ho10  1  0.328473  0.005351  0.254221  1
  Ho  Ho11  1  0.670878  0.994165  0.745578  1
  Ho  Ho12  1  0.355795  0.169466  0.619462  1
  Ho  Ho13  1  0.643481  0.834577  0.379603  1
  Ho  Ho14  1  0.144904  0.658763  0.385423  1
  Ho  Ho15  1  0.672288  0.821815  0.122757  1
  Ho  Ho16  1  0.860527  0.336329  0.617242  1
  Ho  Ho17  1  0.327774  0.178221  0.876562  1
  Ho  Ho18  1  0.827435  0.322588  0.876937  1
  Ho  Ho19  1  0.172751  0.677757  0.122276  1
  Si  Si20  1  0.044372  0.108792  0.750609  1
  Si  Si21  1  0.955980  0.890382  0.248758  1
  Si  Si22  1  0.454454  0.607110  0.249364  1
  Si  Si23  1  0.545619  0.392303  0.749927  1
  Si  Si24  1  0.287541  0.871303  0.751118  1
  Si  Si25  1  0.713242  0.128998  0.247938  1
  Si  Si26  1  0.213499  0.370823  0.248707  1
  Si  Si27  1  0.787513  0.629138  0.751006  1
  Si  Si28  1  0.789653  0.533020  0.456659  1
  Si  Si29  1  0.294272  0.964204  0.458746  1
  Si  Si30  1  0.853283  0.529214  0.041024  1
  Si  Si31  1  0.702646  0.036525  0.542012  1
  Si  Si32  1  0.146594  0.472066  0.958115  1
  Si  Si33  1  0.645796  0.028903  0.958123  1
  Si  Si34  1  0.353888  0.971954  0.041668  1
  P  P35  1  0.210549  0.471048  0.548081  1
