# generated using pymatgen
data_Ho2TmIn3AgAu2
_symmetry_space_group_name_H-M   'P 1'
_cell_length_a   7.80287013
_cell_length_b   7.81676743
_cell_length_c   3.91685100
_cell_angle_alpha   90.00000000
_cell_angle_beta   90.00000000
_cell_angle_gamma   120.05893664
_symmetry_Int_Tables_number   1
_chemical_formula_structural   Ho2TmIn3AgAu2
_chemical_formula_sum   'Ho2 Tm1 In3 Ag1 Au2'
_cell_volume   206.77166474
_cell_formula_units_Z   1
loop_
 _symmetry_equiv_pos_site_id
 _symmetry_equiv_pos_as_xyz
  1  'x, y, z'
loop_
 _atom_site_type_symbol
 _atom_site_label
 _atom_site_symmetry_multiplicity
 _atom_site_fract_x
 _atom_site_fract_y
 _atom_site_fract_z
 _atom_site_occupancy
  Ho  Ho0  1  0.406918  0.407112  0.500000  1
  Ho  Ho1  1  0.593082  0.000194  0.500000  1
  Tm  Tm2  1  0.000000  0.593010  0.500000  1
  In  In3  1  0.739308  0.738781  0.000000  1
  In  In4  1  0.260692  0.999472  0.000000  1
  In  In5  1  0.000000  0.260966  0.000000  1
  Ag  Ag6  1  0.000000  0.998991  0.500000  1
  Au  Au7  1  0.668805  0.335139  0.000000  1
  Au  Au8  1  0.331195  0.666335  0.000000  1
