# generated using pymatgen
data_Er2SiGe4(PRh6)2
_symmetry_space_group_name_H-M   'P 1'
_cell_length_a   9.85074970
_cell_length_b   9.83131540
_cell_length_c   3.85455530
_cell_angle_alpha   89.95651895
_cell_angle_beta   90.03049123
_cell_angle_gamma   119.77611480
_symmetry_Int_Tables_number   1
_chemical_formula_structural   Er2SiGe4(PRh6)2
_chemical_formula_sum   'Er2 Si1 Ge4 P2 Rh12'
_cell_volume   324.01196999
_cell_formula_units_Z   1
loop_
 _symmetry_equiv_pos_site_id
 _symmetry_equiv_pos_as_xyz
  1  'x, y, z'
loop_
 _atom_site_type_symbol
 _atom_site_label
 _atom_site_symmetry_multiplicity
 _atom_site_fract_x
 _atom_site_fract_y
 _atom_site_fract_z
 _atom_site_occupancy
  Er  Er0  1  0.333945  0.665960  0.740624  1
  Er  Er1  1  0.665505  0.334456  0.241931  1
  Si  Si2  1  0.597752  0.708893  0.240899  1
  Ge  Ge3  1  0.000142  0.998189  0.683385  1
  Ge  Ge4  1  0.402619  0.287512  0.741345  1
  Ge  Ge5  1  0.712692  0.117536  0.742198  1
  Ge  Ge6  1  0.882996  0.597294  0.741082  1
  P  P7  1  0.290189  0.886485  0.239623  1
  P  P8  1  0.112043  0.401562  0.240582  1
  Rh  Rh9  1  0.442396  0.060226  0.741198  1
  Rh  Rh10  1  0.941864  0.384453  0.741649  1
  Rh  Rh11  1  0.616190  0.559356  0.741187  1
  Rh  Rh12  1  0.545348  0.929429  0.241070  1
  Rh  Rh13  1  0.072936  0.618164  0.240033  1
  Rh  Rh14  1  0.376309  0.448381  0.240299  1
  Rh  Rh15  1  0.149160  0.279171  0.740145  1
  Rh  Rh16  1  0.721011  0.872949  0.739982  1
  Rh  Rh17  1  0.131932  0.846784  0.739218  1
  Rh  Rh18  1  0.863093  0.753275  0.240835  1
  Rh  Rh19  1  0.248697  0.104037  0.240782  1
  Rh  Rh20  1  0.893180  0.145889  0.241936  1
