# generated using pymatgen
data_Pr2Th2AgAs8Au3
_symmetry_space_group_name_H-M   'P 1'
_cell_length_a   5.88035500
_cell_length_b   5.88935900
_cell_length_c   20.45634300
_cell_angle_alpha   90.00000000
_cell_angle_beta   90.00000000
_cell_angle_gamma   90.00000000
_symmetry_Int_Tables_number   1
_chemical_formula_structural   Pr2Th2AgAs8Au3
_chemical_formula_sum   'Pr4 Th4 Ag2 As16 Au6'
_cell_volume   708.43428533
_cell_formula_units_Z   2
loop_
 _symmetry_equiv_pos_site_id
 _symmetry_equiv_pos_as_xyz
  1  'x, y, z'
loop_
 _atom_site_type_symbol
 _atom_site_label
 _atom_site_symmetry_multiplicity
 _atom_site_fract_x
 _atom_site_fract_y
 _atom_site_fract_z
 _atom_site_occupancy
  Pr  Pr0  1  0.751525  0.489759  0.612554  1
  Pr  Pr1  1  0.251525  0.510241  0.387446  1
  Pr  Pr2  1  0.248475  0.489759  0.887446  1
  Pr  Pr3  1  0.748475  0.510241  0.112554  1
  Th  Th4  1  0.248146  0.992835  0.615369  1
  Th  Th5  1  0.748146  0.007165  0.384631  1
  Th  Th6  1  0.751854  0.992835  0.884631  1
  Th  Th7  1  0.251854  0.007165  0.115369  1
  Ag  Ag8  1  0.500000  0.732971  0.750000  1
  Ag  Ag9  1  0.000000  0.267029  0.250000  1
  As  As10  1  0.748816  0.990207  0.656265  1
  As  As11  1  0.248816  0.009793  0.343735  1
  As  As12  1  0.251184  0.990207  0.843735  1
  As  As13  1  0.751184  0.009793  0.156265  1
  As  As14  1  0.250274  0.491546  0.656848  1
  As  As15  1  0.750274  0.508454  0.343152  1
  As  As16  1  0.749726  0.491546  0.843152  1
  As  As17  1  0.249726  0.508454  0.156848  1
  As  As18  1  0.003212  0.233985  0.499870  1
  As  As19  1  0.503212  0.766015  0.500130  1
  As  As20  1  0.996788  0.233985  0.000130  1
  As  As21  1  0.496788  0.766015  0.999870  1
  As  As22  1  0.996376  0.765834  0.499867  1
  As  As23  1  0.496376  0.234166  0.500133  1
  As  As24  1  0.003624  0.765834  0.000133  1
  As  As25  1  0.503624  0.234166  0.999867  1
  Au  Au26  1  0.500000  0.266066  0.250000  1
  Au  Au27  1  0.000000  0.733934  0.750000  1
  Au  Au28  1  0.500000  0.232874  0.750000  1
  Au  Au29  1  0.000000  0.767126  0.250000  1
  Au  Au30  1  0.500000  0.766450  0.250000  1
  Au  Au31  1  0.000000  0.233550  0.750000  1
