# generated using pymatgen
data_LiTb2Y4Co17P12
_symmetry_space_group_name_H-M   'P 1'
_cell_length_a   3.71449000
_cell_length_b   10.55348000
_cell_length_c   12.20097100
_cell_angle_alpha   90.00000000
_cell_angle_beta   90.00000000
_cell_angle_gamma   90.00000000
_symmetry_Int_Tables_number   1
_chemical_formula_structural   LiTb2Y4Co17P12
_chemical_formula_sum   'Li1 Tb2 Y4 Co17 P12'
_cell_volume   478.28777426
_cell_formula_units_Z   1
loop_
 _symmetry_equiv_pos_site_id
 _symmetry_equiv_pos_as_xyz
  1  'x, y, z'
loop_
 _atom_site_type_symbol
 _atom_site_label
 _atom_site_symmetry_multiplicity
 _atom_site_fract_x
 _atom_site_fract_y
 _atom_site_fract_z
 _atom_site_occupancy
  Li  Li0  1  0.500000  0.500000  0.152226  1
  Tb  Tb1  1  0.000000  0.500000  0.522646  1
  Tb  Tb2  1  0.500000  0.000000  0.478359  1
  Y  Y3  1  0.500000  0.818761  0.206107  1
  Y  Y4  1  0.500000  0.181239  0.206107  1
  Y  Y5  1  0.000000  0.682679  0.794375  1
  Y  Y6  1  0.000000  0.317321  0.794375  1
  Co  Co7  1  0.000000  0.000000  0.841334  1
  Co  Co8  1  0.500000  0.500000  0.703770  1
  Co  Co9  1  0.000000  0.000000  0.296739  1
  Co  Co10  1  0.000000  0.500000  0.985613  1
  Co  Co11  1  0.500000  0.000000  0.012434  1
  Co  Co12  1  0.500000  0.331254  0.995038  1
  Co  Co13  1  0.500000  0.668746  0.995038  1
  Co  Co14  1  0.000000  0.165018  0.003556  1
  Co  Co15  1  0.000000  0.834982  0.003556  1
  Co  Co16  1  0.500000  0.296385  0.431684  1
  Co  Co17  1  0.500000  0.703615  0.431684  1
  Co  Co18  1  0.000000  0.202320  0.570288  1
  Co  Co19  1  0.000000  0.797680  0.570288  1
  Co  Co20  1  0.500000  0.880019  0.709669  1
  Co  Co21  1  0.500000  0.119981  0.709669  1
  Co  Co22  1  0.000000  0.621888  0.292546  1
  Co  Co23  1  0.000000  0.378112  0.292546  1
  P  P24  1  0.500000  0.500000  0.884115  1
  P  P25  1  0.000000  0.000000  0.116856  1
  P  P26  1  0.500000  0.500000  0.344941  1
  P  P27  1  0.000000  0.000000  0.656763  1
  P  P28  1  0.500000  0.309340  0.616423  1
  P  P29  1  0.500000  0.690660  0.616423  1
  P  P30  1  0.000000  0.190258  0.384979  1
  P  P31  1  0.000000  0.809742  0.384979  1
  P  P32  1  0.500000  0.847712  0.892418  1
  P  P33  1  0.500000  0.152288  0.892418  1
  P  P34  1  0.000000  0.656566  0.105022  1
  P  P35  1  0.000000  0.343434  0.105022  1
