# generated using pymatgen
data_FeNF10
_symmetry_space_group_name_H-M   'P 1'
_cell_length_a   5.42946817
_cell_length_b   5.42946986
_cell_length_c   6.16586297
_cell_angle_alpha   90.74722359
_cell_angle_beta   89.25277151
_cell_angle_gamma   100.92591697
_symmetry_Int_Tables_number   1
_chemical_formula_structural   FeNF10
_chemical_formula_sum   'Fe1 N1 F10'
_cell_volume   178.44395395
_cell_formula_units_Z   1
loop_
 _symmetry_equiv_pos_site_id
 _symmetry_equiv_pos_as_xyz
  1  'x, y, z'
loop_
 _atom_site_type_symbol
 _atom_site_label
 _atom_site_symmetry_multiplicity
 _atom_site_fract_x
 _atom_site_fract_y
 _atom_site_fract_z
 _atom_site_occupancy
  Fe  Fe0  1  0.314839  0.685162  0.240463  1
  N  N1  1  0.758239  0.241762  0.738919  1
  F  F2  1  0.157539  0.842462  0.047346  1
  F  F3  1  0.056543  0.427521  0.242796  1
  F  F4  1  0.572480  0.943458  0.242796  1
  F  F5  1  0.172651  0.827350  0.461844  1
  F  F6  1  0.473620  0.526381  0.431249  1
  F  F7  1  0.863749  0.136252  0.572815  1
  F  F8  1  0.508907  0.172841  0.728323  1
  F  F9  1  0.827160  0.491094  0.728323  1
  F  F10  1  0.837344  0.162657  0.925562  1
  F  F11  1  0.456935  0.543066  0.019562  1
