# generated using pymatgen
data_Y8Zn3Si12Ru
_symmetry_space_group_name_H-M   'P 1'
_cell_length_a   8.14091600
_cell_length_b   8.14091681
_cell_length_c   8.10750400
_cell_angle_alpha   90.00000000
_cell_angle_beta   90.00000000
_cell_angle_gamma   119.99999671
_symmetry_Int_Tables_number   1
_chemical_formula_structural   Y8Zn3Si12Ru
_chemical_formula_sum   'Y8 Zn3 Si12 Ru1'
_cell_volume   465.33359529
_cell_formula_units_Z   1
loop_
 _symmetry_equiv_pos_site_id
 _symmetry_equiv_pos_as_xyz
  1  'x, y, z'
loop_
 _atom_site_type_symbol
 _atom_site_label
 _atom_site_symmetry_multiplicity
 _atom_site_fract_x
 _atom_site_fract_y
 _atom_site_fract_z
 _atom_site_occupancy
  Y  Y0  1  0.000000  0.000000  0.248576  1
  Y  Y1  1  0.000000  0.000000  0.751561  1
  Y  Y2  1  0.998030  0.499014  0.251792  1
  Y  Y3  1  0.500986  0.499014  0.251792  1
  Y  Y4  1  0.502879  0.005759  0.747952  1
  Y  Y5  1  0.500986  0.001970  0.251792  1
  Y  Y6  1  0.502879  0.497121  0.747952  1
  Y  Y7  1  0.994241  0.497121  0.747952  1
  Zn  Zn8  1  0.333333  0.666667  0.995109  1
  Zn  Zn9  1  0.333333  0.666667  0.500589  1
  Zn  Zn10  1  0.666667  0.333333  0.007230  1
  Si  Si11  1  0.165991  0.331983  0.002251  1
  Si  Si12  1  0.668017  0.834009  0.002251  1
  Si  Si13  1  0.162833  0.325665  0.501774  1
  Si  Si14  1  0.333738  0.166869  0.997342  1
  Si  Si15  1  0.165991  0.834009  0.002251  1
  Si  Si16  1  0.674335  0.837167  0.501774  1
  Si  Si17  1  0.833131  0.666262  0.997342  1
  Si  Si18  1  0.340873  0.170437  0.498082  1
  Si  Si19  1  0.162833  0.837167  0.501774  1
  Si  Si20  1  0.829563  0.659127  0.498082  1
  Si  Si21  1  0.833131  0.166869  0.997342  1
  Si  Si22  1  0.829563  0.170437  0.498082  1
  Ru  Ru23  1  0.666667  0.333333  0.499357  1
