# generated using pymatgen
data_LiTbEr2(Co4P3)2
_symmetry_space_group_name_H-M   'P 1'
_cell_length_a   3.71646700
_cell_length_b   10.57804700
_cell_length_c   12.18450900
_cell_angle_alpha   90.00000000
_cell_angle_beta   90.00000000
_cell_angle_gamma   90.00000000
_symmetry_Int_Tables_number   1
_chemical_formula_structural   LiTbEr2(Co4P3)2
_chemical_formula_sum   'Li2 Tb2 Er4 Co16 P12'
_cell_volume   479.00914662
_cell_formula_units_Z   2
loop_
 _symmetry_equiv_pos_site_id
 _symmetry_equiv_pos_as_xyz
  1  'x, y, z'
loop_
 _atom_site_type_symbol
 _atom_site_label
 _atom_site_symmetry_multiplicity
 _atom_site_fract_x
 _atom_site_fract_y
 _atom_site_fract_z
 _atom_site_occupancy
  Li  Li0  1  0.250000  0.250000  0.846944  1
  Li  Li1  1  0.750000  0.750000  0.153056  1
  Tb  Tb2  1  0.750000  0.250000  0.476583  1
  Tb  Tb3  1  0.250000  0.750000  0.523417  1
  Er  Er4  1  0.250000  0.929935  0.794125  1
  Er  Er5  1  0.250000  0.570065  0.794125  1
  Er  Er6  1  0.750000  0.070065  0.205875  1
  Er  Er7  1  0.750000  0.429935  0.205875  1
  Co  Co8  1  0.250000  0.250000  0.294705  1
  Co  Co9  1  0.750000  0.750000  0.705295  1
  Co  Co10  1  0.750000  0.250000  0.012620  1
  Co  Co11  1  0.250000  0.750000  0.987380  1
  Co  Co12  1  0.250000  0.417225  0.002966  1
  Co  Co13  1  0.250000  0.082775  0.002966  1
  Co  Co14  1  0.750000  0.582775  0.997034  1
  Co  Co15  1  0.750000  0.917225  0.997034  1
  Co  Co16  1  0.250000  0.453687  0.569255  1
  Co  Co17  1  0.250000  0.046313  0.569255  1
  Co  Co18  1  0.750000  0.546313  0.430745  1
  Co  Co19  1  0.750000  0.953687  0.430745  1
  Co  Co20  1  0.250000  0.871690  0.292893  1
  Co  Co21  1  0.250000  0.628310  0.292893  1
  Co  Co22  1  0.750000  0.128310  0.707107  1
  Co  Co23  1  0.750000  0.371690  0.707107  1
  P  P24  1  0.250000  0.250000  0.114884  1
  P  P25  1  0.750000  0.750000  0.885116  1
  P  P26  1  0.250000  0.250000  0.654442  1
  P  P27  1  0.750000  0.750000  0.345558  1
  P  P28  1  0.250000  0.440528  0.383380  1
  P  P29  1  0.250000  0.059472  0.383380  1
  P  P30  1  0.750000  0.559472  0.616620  1
  P  P31  1  0.750000  0.940528  0.616620  1
  P  P32  1  0.250000  0.907225  0.106968  1
  P  P33  1  0.250000  0.592775  0.106968  1
  P  P34  1  0.750000  0.092775  0.893032  1
  P  P35  1  0.750000  0.407225  0.893032  1
