# generated using pymatgen
data_NdEr2Co8P6W
_symmetry_space_group_name_H-M   'P 1'
_cell_length_a   3.74737800
_cell_length_b   10.59343100
_cell_length_c   12.32599900
_cell_angle_alpha   90.00000000
_cell_angle_beta   90.00000000
_cell_angle_gamma   90.00000000
_symmetry_Int_Tables_number   1
_chemical_formula_structural   NdEr2Co8P6W
_chemical_formula_sum   'Nd2 Er4 Co16 P12 W2'
_cell_volume   489.31245802
_cell_formula_units_Z   2
loop_
 _symmetry_equiv_pos_site_id
 _symmetry_equiv_pos_as_xyz
  1  'x, y, z'
loop_
 _atom_site_type_symbol
 _atom_site_label
 _atom_site_symmetry_multiplicity
 _atom_site_fract_x
 _atom_site_fract_y
 _atom_site_fract_z
 _atom_site_occupancy
  Nd  Nd0  1  0.750000  0.250000  0.475243  1
  Nd  Nd1  1  0.250000  0.750000  0.524757  1
  Er  Er2  1  0.250000  0.930831  0.796378  1
  Er  Er3  1  0.250000  0.569169  0.796378  1
  Er  Er4  1  0.750000  0.069169  0.203622  1
  Er  Er5  1  0.750000  0.430831  0.203622  1
  Co  Co6  1  0.250000  0.250000  0.295154  1
  Co  Co7  1  0.750000  0.750000  0.704846  1
  Co  Co8  1  0.750000  0.250000  0.012989  1
  Co  Co9  1  0.250000  0.750000  0.987011  1
  Co  Co10  1  0.250000  0.417406  0.009661  1
  Co  Co11  1  0.250000  0.082594  0.009661  1
  Co  Co12  1  0.750000  0.582594  0.990339  1
  Co  Co13  1  0.750000  0.917406  0.990339  1
  Co  Co14  1  0.250000  0.454910  0.570332  1
  Co  Co15  1  0.250000  0.045090  0.570332  1
  Co  Co16  1  0.750000  0.545090  0.429668  1
  Co  Co17  1  0.750000  0.954910  0.429668  1
  Co  Co18  1  0.250000  0.871541  0.289476  1
  Co  Co19  1  0.250000  0.628459  0.289476  1
  Co  Co20  1  0.750000  0.128459  0.710524  1
  Co  Co21  1  0.750000  0.371541  0.710524  1
  P  P22  1  0.250000  0.250000  0.118646  1
  P  P23  1  0.750000  0.750000  0.881354  1
  P  P24  1  0.250000  0.250000  0.654029  1
  P  P25  1  0.750000  0.750000  0.345971  1
  P  P26  1  0.250000  0.441706  0.381919  1
  P  P27  1  0.250000  0.058294  0.381919  1
  P  P28  1  0.750000  0.558294  0.618081  1
  P  P29  1  0.750000  0.941706  0.618081  1
  P  P30  1  0.250000  0.906030  0.106528  1
  P  P31  1  0.250000  0.593970  0.106528  1
  P  P32  1  0.750000  0.093970  0.893472  1
  P  P33  1  0.750000  0.406030  0.893472  1
  W  W34  1  0.250000  0.250000  0.845682  1
  W  W35  1  0.750000  0.750000  0.154318  1
