# generated using pymatgen
data_Hf5CrSb2
_symmetry_space_group_name_H-M   'P 1'
_cell_length_a   5.55454510
_cell_length_b   8.26415965
_cell_length_c   8.26416060
_cell_angle_alpha   83.51530589
_cell_angle_beta   70.36285519
_cell_angle_gamma   70.36284861
_symmetry_Int_Tables_number   1
_chemical_formula_structural   Hf5CrSb2
_chemical_formula_sum   'Hf10 Cr2 Sb4'
_cell_volume   336.51155955
_cell_formula_units_Z   2
loop_
 _symmetry_equiv_pos_site_id
 _symmetry_equiv_pos_as_xyz
  1  'x, y, z'
loop_
 _atom_site_type_symbol
 _atom_site_label
 _atom_site_symmetry_multiplicity
 _atom_site_fract_x
 _atom_site_fract_y
 _atom_site_fract_z
 _atom_site_occupancy
  Hf  Hf0  1  0.070664  0.130279  0.728394  1
  Hf  Hf1  1  0.929336  0.869721  0.271606  1
  Hf  Hf2  1  0.799058  0.271606  0.130279  1
  Hf  Hf3  1  0.429336  0.271606  0.869721  1
  Hf  Hf4  1  0.200942  0.728394  0.869721  1
  Hf  Hf5  1  0.570664  0.728394  0.130279  1
  Hf  Hf6  1  0.700942  0.869721  0.728394  1
  Hf  Hf7  1  0.299058  0.130279  0.271606  1
  Hf  Hf8  1  0.250000  0.500000  0.500000  1
  Hf  Hf9  1  0.750000  0.500000  0.500000  1
  Cr  Cr10  1  0.250000  0.000000  0.000000  1
  Cr  Cr11  1  0.750000  0.000000  0.000000  1
  Sb  Sb12  1  0.163797  0.500000  0.172406  1
  Sb  Sb13  1  0.836203  0.500000  0.827594  1
  Sb  Sb14  1  0.336203  0.827594  0.500000  1
  Sb  Sb15  1  0.663797  0.172406  0.500000  1
