# generated using pymatgen
data_Hf2B(PtRh2)2
_symmetry_space_group_name_H-M   'P 1'
_cell_length_a   5.74697001
_cell_length_b   5.74697056
_cell_length_c   5.72933300
_cell_angle_alpha   60.10146477
_cell_angle_beta   60.10146159
_cell_angle_gamma   59.99027597
_symmetry_Int_Tables_number   1
_chemical_formula_structural   Hf2B(PtRh2)2
_chemical_formula_sum   'Hf2 B1 Pt2 Rh4'
_cell_volume   133.99829978
_cell_formula_units_Z   1
loop_
 _symmetry_equiv_pos_site_id
 _symmetry_equiv_pos_as_xyz
  1  'x, y, z'
loop_
 _atom_site_type_symbol
 _atom_site_label
 _atom_site_symmetry_multiplicity
 _atom_site_fract_x
 _atom_site_fract_y
 _atom_site_fract_z
 _atom_site_occupancy
  Hf  Hf0  1  0.250172  0.250172  0.249114  1
  Hf  Hf1  1  0.749829  0.749829  0.749455  1
  B  B2  1  0.500000  0.500000  0.508487  1
  Pt  Pt3  1  0.757461  0.242539  0.242235  1
  Pt  Pt4  1  0.242539  0.757461  0.242235  1
  Rh  Rh5  1  0.755211  0.755211  0.243155  1
  Rh  Rh6  1  0.244789  0.244789  0.753576  1
  Rh  Rh7  1  0.757364  0.242636  0.755872  1
  Rh  Rh8  1  0.242636  0.757364  0.755872  1
