# generated using pymatgen
data_YbSb12(OsRh)2
_symmetry_space_group_name_H-M   'P 1'
_cell_length_a   8.16302846
_cell_length_b   8.16302790
_cell_length_c   8.14144344
_cell_angle_alpha   109.46848085
_cell_angle_beta   109.45504653
_cell_angle_gamma   109.59726660
_symmetry_Int_Tables_number   1
_chemical_formula_structural   YbSb12(OsRh)2
_chemical_formula_sum   'Yb1 Sb12 Os2 Rh2'
_cell_volume   417.06713052
_cell_formula_units_Z   1
loop_
 _symmetry_equiv_pos_site_id
 _symmetry_equiv_pos_as_xyz
  1  'x, y, z'
loop_
 _atom_site_type_symbol
 _atom_site_label
 _atom_site_symmetry_multiplicity
 _atom_site_fract_x
 _atom_site_fract_y
 _atom_site_fract_z
 _atom_site_occupancy
  Yb  Yb0  1  0.000000  0.000000  0.000000  1
  Sb  Sb1  1  0.843057  0.661353  0.504410  1
  Sb  Sb2  1  0.156943  0.338647  0.495590  1
  Sb  Sb3  1  0.155290  0.659170  0.814461  1
  Sb  Sb4  1  0.844710  0.340830  0.185539  1
  Sb  Sb5  1  0.659580  0.504077  0.843543  1
  Sb  Sb6  1  0.340420  0.495923  0.156457  1
  Sb  Sb7  1  0.660534  0.816038  0.156457  1
  Sb  Sb8  1  0.339466  0.183962  0.843543  1
  Sb  Sb9  1  0.503840  0.842835  0.659029  1
  Sb  Sb10  1  0.496160  0.157165  0.340971  1
  Sb  Sb11  1  0.183805  0.844811  0.340971  1
  Sb  Sb12  1  0.816195  0.155189  0.659029  1
  Os  Os13  1  0.500000  0.500000  0.500000  1
  Os  Os14  1  0.000000  0.000000  0.500000  1
  Rh  Rh15  1  0.500000  0.000000  0.000000  1
  Rh  Rh16  1  0.000000  0.500000  0.000000  1
