# generated using pymatgen
data_Y12AlCo5
_symmetry_space_group_name_H-M   'P 1'
_cell_length_a   8.34151332
_cell_length_b   8.34151365
_cell_length_c   8.34151277
_cell_angle_alpha   110.59724277
_cell_angle_beta   110.68790069
_cell_angle_gamma   107.15310511
_symmetry_Int_Tables_number   1
_chemical_formula_structural   Y12AlCo5
_chemical_formula_sum   'Y12 Al1 Co5'
_cell_volume   446.25342175
_cell_formula_units_Z   1
loop_
 _symmetry_equiv_pos_site_id
 _symmetry_equiv_pos_as_xyz
  1  'x, y, z'
loop_
 _atom_site_type_symbol
 _atom_site_label
 _atom_site_symmetry_multiplicity
 _atom_site_fract_x
 _atom_site_fract_y
 _atom_site_fract_z
 _atom_site_occupancy
  Y  Y0  1  0.293632  0.186859  0.480492  1
  Y  Y1  1  0.706368  0.813141  0.519508  1
  Y  Y2  1  0.293632  0.813141  0.106774  1
  Y  Y3  1  0.706368  0.186859  0.893226  1
  Y  Y4  1  0.619071  0.315376  0.303695  1
  Y  Y5  1  0.380929  0.684624  0.696305  1
  Y  Y6  1  0.011681  0.315376  0.696305  1
  Y  Y7  1  0.988319  0.684624  0.303695  1
  Y  Y8  1  0.209844  0.401130  0.191285  1
  Y  Y9  1  0.790156  0.598870  0.808715  1
  Y  Y10  1  0.209844  0.018559  0.808715  1
  Y  Y11  1  0.790156  0.981441  0.191285  1
  Al  Al12  1  0.500000  0.500000  0.000000  1
  Co  Co13  1  0.000000  0.380864  0.380864  1
  Co  Co14  1  0.000000  0.619136  0.619136  1
  Co  Co15  1  0.388572  0.888572  0.500000  1
  Co  Co16  1  0.611428  0.111428  0.500000  1
  Co  Co17  1  0.000000  0.000000  0.000000  1
