# generated using pymatgen
data_Ce3Ga4S
_symmetry_space_group_name_H-M   'P 1'
_cell_length_a   7.92132714
_cell_length_b   7.92132664
_cell_length_c   7.92132678
_cell_angle_alpha   119.55227692
_cell_angle_beta   119.55227109
_cell_angle_gamma   90.77724882
_symmetry_Int_Tables_number   1
_chemical_formula_structural   Ce3Ga4S
_chemical_formula_sum   'Ce6 Ga8 S2'
_cell_volume   353.80557999
_cell_formula_units_Z   2
loop_
 _symmetry_equiv_pos_site_id
 _symmetry_equiv_pos_as_xyz
  1  'x, y, z'
loop_
 _atom_site_type_symbol
 _atom_site_label
 _atom_site_symmetry_multiplicity
 _atom_site_fract_x
 _atom_site_fract_y
 _atom_site_fract_z
 _atom_site_occupancy
  Ce  Ce0  1  0.836318  0.663682  0.500000  1
  Ce  Ce1  1  0.663682  0.163682  0.827364  1
  Ce  Ce2  1  0.336318  0.836318  0.172636  1
  Ce  Ce3  1  0.163682  0.336318  0.500000  1
  Ce  Ce4  1  0.250000  0.250000  0.000000  1
  Ce  Ce5  1  0.750000  0.750000  0.000000  1
  Ga  Ga6  1  0.162826  0.948717  0.500000  1
  Ga  Ga7  1  0.448717  0.662826  0.500000  1
  Ga  Ga8  1  0.551283  0.337174  0.500000  1
  Ga  Ga9  1  0.662826  0.162826  0.214109  1
  Ga  Ga10  1  0.837174  0.051283  0.500000  1
  Ga  Ga11  1  0.051283  0.551283  0.214109  1
  Ga  Ga12  1  0.337174  0.837174  0.785891  1
  Ga  Ga13  1  0.948717  0.448717  0.785891  1
  S  S14  1  0.000000  0.000000  0.000000  1
  S  S15  1  0.500000  0.500000  0.000000  1
