# generated using pymatgen
data_Tb10Ga3Bi2Pt
_symmetry_space_group_name_H-M   'P 1'
_cell_length_a   8.67060504
_cell_length_b   8.67060495
_cell_length_c   8.81276278
_cell_angle_alpha   124.13604264
_cell_angle_beta   124.13604344
_cell_angle_gamma   81.91045794
_symmetry_Int_Tables_number   1
_chemical_formula_structural   Tb10Ga3Bi2Pt
_chemical_formula_sum   'Tb10 Ga3 Bi2 Pt1'
_cell_volume   438.98988418
_cell_formula_units_Z   1
loop_
 _symmetry_equiv_pos_site_id
 _symmetry_equiv_pos_as_xyz
  1  'x, y, z'
loop_
 _atom_site_type_symbol
 _atom_site_label
 _atom_site_symmetry_multiplicity
 _atom_site_fract_x
 _atom_site_fract_y
 _atom_site_fract_z
 _atom_site_occupancy
  Tb  Tb0  1  0.995256  0.997455  0.992712  1
  Tb  Tb1  1  0.502545  0.504744  0.007288  1
  Tb  Tb2  1  0.784532  0.296183  0.799124  1
  Tb  Tb3  1  0.203817  0.715468  0.200876  1
  Tb  Tb4  1  0.485407  0.997058  0.200876  1
  Tb  Tb5  1  0.300600  0.466725  0.500000  1
  Tb  Tb6  1  0.033275  0.199400  0.500000  1
  Tb  Tb7  1  0.502942  0.014593  0.799124  1
  Tb  Tb8  1  0.704987  0.515883  0.500000  1
  Tb  Tb9  1  0.984117  0.795013  0.500000  1
  Ga  Ga10  1  0.145756  0.645068  0.790825  1
  Ga  Ga11  1  0.854932  0.354244  0.209175  1
  Ga  Ga12  1  0.637681  0.862319  0.500000  1
  Bi  Bi13  1  0.245871  0.254129  0.000000  1
  Bi  Bi14  1  0.745871  0.754129  0.000000  1
  Pt  Pt15  1  0.372410  0.127590  0.500000  1
