# generated using pymatgen
data_PuTaB4
_symmetry_space_group_name_H-M   'P 1'
_cell_length_a   3.11184100
_cell_length_b   3.11184044
_cell_length_c   7.31675100
_cell_angle_alpha   90.00000000
_cell_angle_beta   90.00000000
_cell_angle_gamma   119.99999533
_symmetry_Int_Tables_number   1
_chemical_formula_structural   PuTaB4
_chemical_formula_sum   'Pu1 Ta1 B4'
_cell_volume   61.35975920
_cell_formula_units_Z   1
loop_
 _symmetry_equiv_pos_site_id
 _symmetry_equiv_pos_as_xyz
  1  'x, y, z'
loop_
 _atom_site_type_symbol
 _atom_site_label
 _atom_site_symmetry_multiplicity
 _atom_site_fract_x
 _atom_site_fract_y
 _atom_site_fract_z
 _atom_site_occupancy
  Pu  Pu0  1  0.000000  0.000000  0.500000  1
  Ta  Ta1  1  0.000000  0.000000  0.000000  1
  B  B2  1  0.666666  0.333333  0.227066  1
  B  B3  1  0.333333  0.666666  0.227066  1
  B  B4  1  0.666666  0.333333  0.772933  1
  B  B5  1  0.333333  0.666666  0.772933  1
