# generated using pymatgen
data_UI2Br
_symmetry_space_group_name_H-M   'P 1'
_cell_length_a   7.81953043
_cell_length_b   7.81953083
_cell_length_c   9.91517200
_cell_angle_alpha   90.00000000
_cell_angle_beta   90.00000000
_cell_angle_gamma   149.30781758
_symmetry_Int_Tables_number   1
_chemical_formula_structural   UI2Br
_chemical_formula_sum   'U2 I4 Br2'
_cell_volume   309.45254919
_cell_formula_units_Z   2
loop_
 _symmetry_equiv_pos_site_id
 _symmetry_equiv_pos_as_xyz
  1  'x, y, z'
loop_
 _atom_site_type_symbol
 _atom_site_label
 _atom_site_symmetry_multiplicity
 _atom_site_fract_x
 _atom_site_fract_y
 _atom_site_fract_z
 _atom_site_occupancy
  U  U0  1  0.264664  0.735336  0.250000  1
  U  U1  1  0.735336  0.264664  0.750000  1
  I  I2  1  0.650425  0.349575  0.434007  1
  I  I3  1  0.349575  0.650425  0.565993  1
  I  I4  1  0.650425  0.349575  0.065993  1
  I  I5  1  0.349575  0.650425  0.934007  1
  Br  Br6  1  0.100098  0.899902  0.750000  1
  Br  Br7  1  0.899902  0.100098  0.250000  1
