# generated using pymatgen
data_Ca2B4Ir3Rh
_symmetry_space_group_name_H-M   'P 1'
_cell_length_a   7.10015755
_cell_length_b   6.13842950
_cell_length_c   5.51008172
_cell_angle_alpha   74.89398028
_cell_angle_beta   56.58192628
_cell_angle_gamma   48.81586843
_symmetry_Int_Tables_number   1
_chemical_formula_structural   Ca2B4Ir3Rh
_chemical_formula_sum   'Ca2 B4 Ir3 Rh1'
_cell_volume   148.85219414
_cell_formula_units_Z   1
loop_
 _symmetry_equiv_pos_site_id
 _symmetry_equiv_pos_as_xyz
  1  'x, y, z'
loop_
 _atom_site_type_symbol
 _atom_site_label
 _atom_site_symmetry_multiplicity
 _atom_site_fract_x
 _atom_site_fract_y
 _atom_site_fract_z
 _atom_site_occupancy
  Ca  Ca0  1  0.499439  0.499439  0.500561  1
  Ca  Ca1  1  0.751566  0.751566  0.748434  1
  B  B2  1  0.817625  0.185733  0.825237  1
  B  B3  1  0.073001  0.425311  0.075463  1
  B  B4  1  0.185733  0.817625  0.171405  1
  B  B5  1  0.425311  0.073001  0.426225  1
  Ir  Ir6  1  0.129729  0.129729  0.870271  1
  Ir  Ir7  1  0.378819  0.378819  0.121181  1
  Ir  Ir8  1  0.118706  0.118706  0.381294  1
  Rh  Rh9  1  0.870071  0.870071  0.129929  1
