# generated using pymatgen
data_Er4ThMn2O12
_symmetry_space_group_name_H-M   'P 1'
_cell_length_a   6.81271119
_cell_length_b   6.81271190
_cell_length_c   7.19656660
_cell_angle_alpha   74.65549642
_cell_angle_beta   74.65549625
_cell_angle_gamma   50.17859152
_symmetry_Int_Tables_number   1
_chemical_formula_structural   Er4ThMn2O12
_chemical_formula_sum   'Er4 Th1 Mn2 O12'
_cell_volume   245.34263129
_cell_formula_units_Z   1
loop_
 _symmetry_equiv_pos_site_id
 _symmetry_equiv_pos_as_xyz
  1  'x, y, z'
loop_
 _atom_site_type_symbol
 _atom_site_label
 _atom_site_symmetry_multiplicity
 _atom_site_fract_x
 _atom_site_fract_y
 _atom_site_fract_z
 _atom_site_occupancy
  Er  Er0  1  0.305844  0.305844  0.351435  1
  Er  Er1  1  0.694156  0.694156  0.648565  1
  Er  Er2  1  0.303378  0.303378  0.843773  1
  Er  Er3  1  0.696622  0.696622  0.156227  1
  Th  Th4  1  0.000000  0.000000  0.500000  1
  Mn  Mn5  1  0.753227  0.246773  0.000000  1
  Mn  Mn6  1  0.246773  0.753227  0.000000  1
  O  O7  1  0.901183  0.423729  0.917701  1
  O  O8  1  0.423729  0.901183  0.917701  1
  O  O9  1  0.098817  0.576271  0.082299  1
  O  O10  1  0.576271  0.098817  0.082299  1
  O  O11  1  0.096319  0.594703  0.575396  1
  O  O12  1  0.594703  0.096319  0.575396  1
  O  O13  1  0.903681  0.405297  0.424604  1
  O  O14  1  0.405297  0.903681  0.424604  1
  O  O15  1  0.999598  0.999598  0.823054  1
  O  O16  1  0.000402  0.000402  0.176946  1
  O  O17  1  0.499449  0.499449  0.816974  1
  O  O18  1  0.500551  0.500551  0.183026  1
