# generated using pymatgen
data_Ho(AlBr4)3
_symmetry_space_group_name_H-M   'P 1'
_cell_length_a   11.61025900
_cell_length_b   11.61025904
_cell_length_c   17.17868900
_cell_angle_alpha   90.00000000
_cell_angle_beta   90.00000000
_cell_angle_gamma   120.00000273
_symmetry_Int_Tables_number   1
_chemical_formula_structural   Ho(AlBr4)3
_chemical_formula_sum   'Ho3 Al9 Br36'
_cell_volume   2005.41590404
_cell_formula_units_Z   3
loop_
 _symmetry_equiv_pos_site_id
 _symmetry_equiv_pos_as_xyz
  1  'x, y, z'
loop_
 _atom_site_type_symbol
 _atom_site_label
 _atom_site_symmetry_multiplicity
 _atom_site_fract_x
 _atom_site_fract_y
 _atom_site_fract_z
 _atom_site_occupancy
  Ho  Ho0  1  0.990572  0.495286  0.000000  1
  Ho  Ho1  1  0.504714  0.009428  0.666667  1
  Ho  Ho2  1  0.504714  0.495286  0.333333  1
  Al  Al3  1  0.731286  0.268714  0.833333  1
  Al  Al4  1  0.132899  0.765760  0.603636  1
  Al  Al5  1  0.234240  0.367139  0.936969  1
  Al  Al6  1  0.632861  0.867101  0.270302  1
  Al  Al7  1  0.731286  0.462572  0.166667  1
  Al  Al8  1  0.537428  0.268714  0.500000  1
  Al  Al9  1  0.132899  0.367139  0.396364  1
  Al  Al10  1  0.632861  0.765760  0.729698  1
  Al  Al11  1  0.234240  0.867101  0.063031  1
  Br  Br12  1  0.009483  0.841497  0.543775  1
  Br  Br13  1  0.832014  0.990517  0.210442  1
  Br  Br14  1  0.158503  0.167986  0.877109  1
  Br  Br15  1  0.788229  0.590061  0.280630  1
  Br  Br16  1  0.409939  0.198168  0.613964  1
  Br  Br17  1  0.801832  0.211771  0.947297  1
  Br  Br18  1  0.409939  0.211771  0.386036  1
  Br  Br19  1  0.801832  0.590061  0.052703  1
  Br  Br20  1  0.788229  0.198168  0.719370  1
  Br  Br21  1  0.229912  0.345549  0.277376  1
  Br  Br22  1  0.654451  0.884364  0.610709  1
  Br  Br23  1  0.115636  0.770088  0.944043  1
  Br  Br24  1  0.654451  0.770088  0.389291  1
  Br  Br25  1  0.115636  0.345549  0.055957  1
  Br  Br26  1  0.229912  0.884364  0.722624  1
  Br  Br27  1  0.502091  0.656783  0.205777  1
  Br  Br28  1  0.343217  0.845308  0.539111  1
  Br  Br29  1  0.154692  0.497909  0.872444  1
  Br  Br30  1  0.343217  0.497909  0.460889  1
  Br  Br31  1  0.154692  0.656783  0.127556  1
  Br  Br32  1  0.502091  0.845308  0.794223  1
  Br  Br33  1  0.662297  0.498207  0.481784  1
  Br  Br34  1  0.501793  0.164090  0.815118  1
  Br  Br35  1  0.835910  0.337703  0.148451  1
  Br  Br36  1  0.501793  0.337703  0.184882  1
  Br  Br37  1  0.835910  0.498207  0.851549  1
  Br  Br38  1  0.662297  0.164090  0.518216  1
  Br  Br39  1  0.032985  0.490285  0.376021  1
  Br  Br40  1  0.509715  0.542700  0.709354  1
  Br  Br41  1  0.457300  0.967015  0.042687  1
  Br  Br42  1  0.509715  0.967015  0.290646  1
  Br  Br43  1  0.457300  0.490285  0.957313  1
  Br  Br44  1  0.032985  0.542700  0.623979  1
  Br  Br45  1  0.009483  0.167986  0.456225  1
  Br  Br46  1  0.832014  0.841497  0.789558  1
  Br  Br47  1  0.158503  0.990517  0.122891  1
