# generated using pymatgen
data_Ce2Pr(SnIr)3
_symmetry_space_group_name_H-M   'P 1'
_cell_length_a   7.55764663
_cell_length_b   7.55764756
_cell_length_c   4.09418600
_cell_angle_alpha   90.00000000
_cell_angle_beta   90.00000000
_cell_angle_gamma   120.48836264
_symmetry_Int_Tables_number   1
_chemical_formula_structural   Ce2Pr(SnIr)3
_chemical_formula_sum   'Ce2 Pr1 Sn3 Ir3'
_cell_volume   201.51766497
_cell_formula_units_Z   1
loop_
 _symmetry_equiv_pos_site_id
 _symmetry_equiv_pos_as_xyz
  1  'x, y, z'
loop_
 _atom_site_type_symbol
 _atom_site_label
 _atom_site_symmetry_multiplicity
 _atom_site_fract_x
 _atom_site_fract_y
 _atom_site_fract_z
 _atom_site_occupancy
  Ce  Ce0  1  0.586671  0.999872  0.000000  1
  Ce  Ce1  1  0.999872  0.586671  0.000000  1
  Pr  Pr2  1  0.410445  0.410445  0.000000  1
  Sn  Sn3  1  0.003302  0.252428  0.500000  1
  Sn  Sn4  1  0.743765  0.743765  0.500000  1
  Sn  Sn5  1  0.252428  0.003302  0.500000  1
  Ir  Ir6  1  0.991993  0.991993  0.000000  1
  Ir  Ir7  1  0.680562  0.330963  0.500000  1
  Ir  Ir8  1  0.330963  0.680562  0.500000  1
