# generated using pymatgen
data_Na3Yb3AlSb4
_symmetry_space_group_name_H-M   'P 1'
_cell_length_a   10.07948700
_cell_length_b   10.07948606
_cell_length_c   7.58690500
_cell_angle_alpha   90.00000000
_cell_angle_beta   90.00000000
_cell_angle_gamma   119.99999981
_symmetry_Int_Tables_number   1
_chemical_formula_structural   Na3Yb3AlSb4
_chemical_formula_sum   'Na6 Yb6 Al2 Sb8'
_cell_volume   667.53200993
_cell_formula_units_Z   2
loop_
 _symmetry_equiv_pos_site_id
 _symmetry_equiv_pos_as_xyz
  1  'x, y, z'
loop_
 _atom_site_type_symbol
 _atom_site_label
 _atom_site_symmetry_multiplicity
 _atom_site_fract_x
 _atom_site_fract_y
 _atom_site_fract_z
 _atom_site_occupancy
  Na  Na0  1  0.855451  0.144549  0.548691  1
  Na  Na1  1  0.289096  0.144549  0.548691  1
  Na  Na2  1  0.855451  0.710904  0.548691  1
  Na  Na3  1  0.144549  0.855451  0.048691  1
  Na  Na4  1  0.710904  0.855451  0.048691  1
  Na  Na5  1  0.144549  0.289096  0.048691  1
  Yb  Yb6  1  0.479642  0.520358  0.730339  1
  Yb  Yb7  1  0.040716  0.520358  0.730339  1
  Yb  Yb8  1  0.479642  0.959284  0.730339  1
  Yb  Yb9  1  0.520358  0.479642  0.230339  1
  Yb  Yb10  1  0.959284  0.479642  0.230339  1
  Yb  Yb11  1  0.520358  0.040716  0.230339  1
  Al  Al12  1  0.666667  0.333333  0.859653  1
  Al  Al13  1  0.333333  0.666667  0.359653  1
  Sb  Sb14  1  0.812673  0.187327  0.963965  1
  Sb  Sb15  1  0.374655  0.187327  0.963965  1
  Sb  Sb16  1  0.812673  0.625345  0.963965  1
  Sb  Sb17  1  0.187327  0.812673  0.463965  1
  Sb  Sb18  1  0.625345  0.812673  0.463965  1
  Sb  Sb19  1  0.187327  0.374655  0.463965  1
  Sb  Sb20  1  0.666667  0.333333  0.496726  1
  Sb  Sb21  1  0.333333  0.666667  0.996726  1
