# generated using pymatgen
data_YHg4Se2Br5
_symmetry_space_group_name_H-M   'P 1'
_cell_length_a   8.64207999
_cell_length_b   11.07423800
_cell_length_c   9.39965747
_cell_angle_alpha   90.00000000
_cell_angle_beta   113.60683441
_cell_angle_gamma   90.00000000
_symmetry_Int_Tables_number   1
_chemical_formula_structural   YHg4Se2Br5
_chemical_formula_sum   'Y2 Hg8 Se4 Br10'
_cell_volume   824.30691574
_cell_formula_units_Z   2
loop_
 _symmetry_equiv_pos_site_id
 _symmetry_equiv_pos_as_xyz
  1  'x, y, z'
loop_
 _atom_site_type_symbol
 _atom_site_label
 _atom_site_symmetry_multiplicity
 _atom_site_fract_x
 _atom_site_fract_y
 _atom_site_fract_z
 _atom_site_occupancy
  Y  Y0  1  0.503051  0.432017  0.508609  1
  Y  Y1  1  0.496949  0.932017  0.491391  1
  Hg  Hg2  1  0.926584  0.185987  0.333276  1
  Hg  Hg3  1  0.073416  0.685987  0.666724  1
  Hg  Hg4  1  0.952036  0.664346  0.361922  1
  Hg  Hg5  1  0.047964  0.164346  0.638078  1
  Hg  Hg6  1  0.497344  0.181998  0.987566  1
  Hg  Hg7  1  0.502656  0.681998  0.012434  1
  Hg  Hg8  1  0.800787  0.432423  0.015516  1
  Hg  Hg9  1  0.199213  0.932423  0.984484  1
  Se  Se10  1  0.804656  0.200175  0.027942  1
  Se  Se11  1  0.195344  0.700175  0.972058  1
  Se  Se12  1  0.189212  0.162513  0.943199  1
  Se  Se13  1  0.810788  0.662513  0.056801  1
  Br  Br14  1  0.839239  0.924595  0.684095  1
  Br  Br15  1  0.160761  0.424595  0.315905  1
  Br  Br16  1  0.848210  0.438783  0.710026  1
  Br  Br17  1  0.151790  0.938783  0.289974  1
  Br  Br18  1  0.408073  0.458176  0.762019  1
  Br  Br19  1  0.591927  0.958176  0.237981  1
  Br  Br20  1  0.592996  0.392088  0.261020  1
  Br  Br21  1  0.407004  0.892088  0.738980  1
  Br  Br22  1  0.496524  0.180500  0.564562  1
  Br  Br23  1  0.503476  0.680500  0.435438  1
