# generated using pymatgen
data_La5Er27B8(C8I19)2
_symmetry_space_group_name_H-M   'P 1'
_cell_length_a   12.58134080
_cell_length_b   14.59806982
_cell_length_c   19.85239131
_cell_angle_alpha   104.86583781
_cell_angle_beta   89.91874153
_cell_angle_gamma   112.60379966
_symmetry_Int_Tables_number   1
_chemical_formula_structural   La5Er27B8(C8I19)2
_chemical_formula_sum   'La5 Er27 B8 C16 I38'
_cell_volume   3234.05254173
_cell_formula_units_Z   1
loop_
 _symmetry_equiv_pos_site_id
 _symmetry_equiv_pos_as_xyz
  1  'x, y, z'
loop_
 _atom_site_type_symbol
 _atom_site_label
 _atom_site_symmetry_multiplicity
 _atom_site_fract_x
 _atom_site_fract_y
 _atom_site_fract_z
 _atom_site_occupancy
  La  La0  1  0.601684  0.750283  0.459421  1
  La  La1  1  0.649618  0.505582  0.597876  1
  La  La2  1  0.560335  0.339832  0.720910  1
  La  La3  1  0.281769  0.325462  0.720932  1
  La  La4  1  0.604902  0.747053  0.637667  1
  Er  Er5  1  0.316805  0.344720  0.221006  1
  Er  Er6  1  0.568237  0.351175  0.222370  1
  Er  Er7  1  0.679360  0.649997  0.782968  1
  Er  Er8  1  0.397710  0.269389  0.045038  1
  Er  Er9  1  0.315534  0.702267  0.538873  1
  Er  Er10  1  0.863257  0.723647  0.541619  1
  Er  Er11  1  0.638531  0.507961  0.409255  1
  Er  Er12  1  0.442685  0.648616  0.277393  1
  Er  Er13  1  0.400872  0.272635  0.373392  1
  Er  Er14  1  0.139601  0.281101  0.957895  1
  Er  Er15  1  0.326001  0.711231  0.042303  1
  Er  Er16  1  0.405926  0.266507  0.878779  1
  Er  Er17  1  0.857408  0.717970  0.045152  1
  Er  Er18  1  0.678666  0.291415  0.449447  1
  Er  Er19  1  0.598393  0.726250  0.959734  1
  Er  Er20  1  0.592957  0.731423  0.126965  1
  Er  Er21  1  0.634781  0.501770  0.093454  1
  Er  Er22  1  0.361666  0.495997  0.911226  1
  Er  Er23  1  0.145262  0.280109  0.456389  1
  Er  Er24  1  0.695957  0.657990  0.277297  1
  Er  Er25  1  0.407484  0.270842  0.539481  1
  Er  Er26  1  0.372046  0.500801  0.409376  1
  Er  Er27  1  0.366627  0.497407  0.092816  1
  Er  Er28  1  0.630291  0.500148  0.911887  1
  Er  Er29  1  0.427245  0.643781  0.780958  1
  Er  Er30  1  0.366389  0.496713  0.591660  1
  Er  Er31  1  0.672425  0.287015  0.962481  1
  B  B32  1  0.507686  0.502002  0.205819  1
  B  B33  1  0.475358  0.434507  0.487283  1
  B  B34  1  0.486355  0.492386  0.796560  1
  B  B35  1  0.469617  0.430439  0.989407  1
  B  B36  1  0.527412  0.566962  0.014911  1
  B  B37  1  0.486982  0.494563  0.707163  1
  B  B38  1  0.508011  0.501544  0.294571  1
  B  B39  1  0.533302  0.573317  0.514402  1
  C  C40  1  0.669860  0.638080  0.526034  1
  C  C41  1  0.461370  0.395690  0.315845  1
  C  C42  1  0.447057  0.388417  0.819858  1
  C  C43  1  0.443870  0.627568  0.026239  1
  C  C44  1  0.556669  0.371519  0.472962  1
  C  C45  1  0.534280  0.604093  0.688551  1
  C  C46  1  0.332802  0.364284  0.978020  1
  C  C47  1  0.443320  0.391539  0.644113  1
  C  C48  1  0.554338  0.370683  0.978295  1
  C  C49  1  0.664249  0.633123  0.026011  1
  C  C50  1  0.548973  0.607567  0.183869  1
  C  C51  1  0.460087  0.396659  0.145259  1
  C  C52  1  0.445251  0.629805  0.525068  1
  C  C53  1  0.337530  0.368998  0.474351  1
  C  C54  1  0.549672  0.607706  0.355490  1
  C  C55  1  0.535935  0.598930  0.857956  1
  I  I56  1  0.454464  0.091288  0.954287  1
  I  I57  1  0.614444  0.859652  0.822766  1
  I  I58  1  0.496688  0.910018  0.617336  1
  I  I59  1  0.103844  0.364942  0.835617  1
  I  I60  1  0.618393  0.204203  0.572869  1
  I  I61  1  0.872134  0.199312  0.429399  1
  I  I62  1  0.840799  0.904852  0.141510  1
  I  I63  1  0.868464  0.502690  0.953257  1
  I  I64  1  0.871746  0.782756  0.702687  1
  I  I65  1  0.384543  0.138885  0.165594  1
  I  I66  1  0.142100  0.193855  0.296950  1
  I  I67  1  0.770232  0.372948  0.322625  1
  I  I68  1  0.858813  0.802829  0.919199  1
  I  I69  1  0.748467  0.342208  0.117156  1
  I  I70  1  0.539503  0.906204  0.046072  1
  I  I71  1  0.102621  0.341872  0.608819  1
  I  I72  1  0.887625  0.679239  0.385259  1
  I  I73  1  0.844991  0.926854  0.553683  1
  I  I74  1  0.130333  0.800260  0.058303  1
  I  I75  1  0.817537  0.516896  0.758031  1
  I  I76  1  0.866255  0.196332  0.949613  1
  I  I77  1  0.130559  0.490026  0.441237  1
  I  I78  1  0.253766  0.664271  0.887481  1
  I  I79  1  0.131296  0.800926  0.560067  1
  I  I80  1  0.619372  0.198198  0.805111  1
  I  I81  1  0.196457  0.489719  0.244688  1
  I  I82  1  0.181005  0.089241  0.463232  1
  I  I83  1  0.493323  0.100875  0.355174  1
  I  I84  1  0.361261  0.776394  0.406291  1
  I  I85  1  0.154508  0.100687  0.850390  1
  I  I86  1  0.884415  0.505718  0.536710  1
  I  I87  1  0.683531  0.866683  0.324628  1
  I  I88  1  0.134813  0.195551  0.082780  1
  I  I89  1  0.129544  0.496912  0.051407  1
  I  I90  1  0.242608  0.643885  0.675833  1
  I  I91  1  0.382032  0.788294  0.200752  1
  I  I92  1  0.323023  0.121069  0.662857  1
  I  I93  1  0.884081  0.645987  0.176270  1
