# generated using pymatgen
data_Tb16Cd4Pd3Pt
_symmetry_space_group_name_H-M   'P 1'
_cell_length_a   9.76854692
_cell_length_b   9.76139767
_cell_length_c   9.76139700
_cell_angle_alpha   59.99999888
_cell_angle_beta   60.02420582
_cell_angle_gamma   60.02420986
_symmetry_Int_Tables_number   1
_chemical_formula_structural   Tb16Cd4Pd3Pt
_chemical_formula_sum   'Tb16 Cd4 Pd3 Pt1'
_cell_volume   658.41203322
_cell_formula_units_Z   1
loop_
 _symmetry_equiv_pos_site_id
 _symmetry_equiv_pos_as_xyz
  1  'x, y, z'
loop_
 _atom_site_type_symbol
 _atom_site_label
 _atom_site_symmetry_multiplicity
 _atom_site_fract_x
 _atom_site_fract_y
 _atom_site_fract_z
 _atom_site_occupancy
  Tb  Tb0  1  0.353916  0.351776  0.351776  1
  Tb  Tb1  1  0.353916  0.351776  0.942533  1
  Tb  Tb2  1  0.353916  0.942533  0.351776  1
  Tb  Tb3  1  0.941902  0.352699  0.352699  1
  Tb  Tb4  1  0.809146  0.189504  0.189504  1
  Tb  Tb5  1  0.189851  0.810378  0.810378  1
  Tb  Tb6  1  0.189851  0.810378  0.189393  1
  Tb  Tb7  1  0.809146  0.189504  0.811845  1
  Tb  Tb8  1  0.189851  0.189393  0.810378  1
  Tb  Tb9  1  0.809146  0.811845  0.189504  1
  Tb  Tb10  1  0.933808  0.566123  0.566123  1
  Tb  Tb11  1  0.566055  0.934574  0.934574  1
  Tb  Tb12  1  0.566055  0.934574  0.564798  1
  Tb  Tb13  1  0.933808  0.566123  0.933946  1
  Tb  Tb14  1  0.566055  0.564798  0.934574  1
  Tb  Tb15  1  0.933808  0.933946  0.566123  1
  Cd  Cd16  1  0.581984  0.581921  0.581921  1
  Cd  Cd17  1  0.581984  0.581921  0.254172  1
  Cd  Cd18  1  0.581984  0.254172  0.581921  1
  Cd  Cd19  1  0.254472  0.581842  0.581842  1
  Pd  Pd20  1  0.143466  0.143784  0.143784  1
  Pd  Pd21  1  0.143466  0.143784  0.568967  1
  Pd  Pd22  1  0.143466  0.568967  0.143784  1
  Pt  Pt23  1  0.568945  0.143685  0.143685  1
