# generated using pymatgen
data_Sm4Co17Si10P2Ru3
_symmetry_space_group_name_H-M   'P 1'
_cell_length_a   3.74835400
_cell_length_b   10.55407170
_cell_length_c   11.99505183
_cell_angle_alpha   90.11695915
_cell_angle_beta   90.00000000
_cell_angle_gamma   90.00000000
_symmetry_Int_Tables_number   1
_chemical_formula_structural   Sm4Co17Si10P2Ru3
_chemical_formula_sum   'Sm4 Co17 Si10 P2 Ru3'
_cell_volume   474.52802216
_cell_formula_units_Z   1
loop_
 _symmetry_equiv_pos_site_id
 _symmetry_equiv_pos_as_xyz
  1  'x, y, z'
loop_
 _atom_site_type_symbol
 _atom_site_label
 _atom_site_symmetry_multiplicity
 _atom_site_fract_x
 _atom_site_fract_y
 _atom_site_fract_z
 _atom_site_occupancy
  Sm  Sm0  1  0.250000  0.583149  0.702373  1
  Sm  Sm1  1  0.250000  0.916384  0.204271  1
  Sm  Sm2  1  0.750000  0.416305  0.297407  1
  Sm  Sm3  1  0.750000  0.081902  0.797517  1
  Co  Co4  1  0.750000  0.206150  0.508855  1
  Co  Co5  1  0.250000  0.408188  0.488560  1
  Co  Co6  1  0.250000  0.089967  0.989315  1
  Co  Co7  1  0.750000  0.592403  0.506347  1
  Co  Co8  1  0.750000  0.906605  0.007681  1
  Co  Co9  1  0.250000  0.214320  0.175296  1
  Co  Co10  1  0.250000  0.285619  0.672553  1
  Co  Co11  1  0.750000  0.786769  0.826365  1
  Co  Co12  1  0.750000  0.713366  0.326233  1
  Co  Co13  1  0.250000  0.886722  0.703096  1
  Co  Co14  1  0.250000  0.613725  0.203013  1
  Co  Co15  1  0.750000  0.115592  0.302962  1
  Co  Co16  1  0.750000  0.384814  0.798880  1
  Co  Co17  1  0.250000  0.470121  0.931183  1
  Co  Co18  1  0.250000  0.030652  0.432068  1
  Co  Co19  1  0.750000  0.531617  0.068224  1
  Co  Co20  1  0.750000  0.971603  0.569201  1
  Si  Si21  1  0.250000  0.415500  0.110044  1
  Si  Si22  1  0.250000  0.086042  0.608945  1
  Si  Si23  1  0.750000  0.584074  0.888869  1
  Si  Si24  1  0.750000  0.916260  0.390888  1
  Si  Si25  1  0.250000  0.274122  0.867450  1
  Si  Si26  1  0.250000  0.225215  0.370883  1
  Si  Si27  1  0.750000  0.726157  0.132884  1
  Si  Si28  1  0.750000  0.775756  0.632158  1
  Si  Si29  1  0.750000  0.395155  0.604379  1
  Si  Si30  1  0.750000  0.101712  0.107982  1
  P  P31  1  0.250000  0.600679  0.392186  1
  P  P32  1  0.250000  0.899329  0.893124  1
  Ru  Ru33  1  0.250000  0.708148  0.989358  1
  Ru  Ru34  1  0.250000  0.790818  0.489857  1
  Ru  Ru35  1  0.750000  0.295061  0.009595  1
