# generated using pymatgen
data_Ta3Mn(NbN2)6
_symmetry_space_group_name_H-M   'P 1'
_cell_length_a   5.26256100
_cell_length_b   5.26256030
_cell_length_c   10.36884600
_cell_angle_alpha   90.00000000
_cell_angle_beta   90.00000000
_cell_angle_gamma   119.99999809
_symmetry_Int_Tables_number   1
_chemical_formula_structural   Ta3Mn(NbN2)6
_chemical_formula_sum   'Ta3 Mn1 Nb6 N12'
_cell_volume   248.68826518
_cell_formula_units_Z   1
loop_
 _symmetry_equiv_pos_site_id
 _symmetry_equiv_pos_as_xyz
  1  'x, y, z'
loop_
 _atom_site_type_symbol
 _atom_site_label
 _atom_site_symmetry_multiplicity
 _atom_site_fract_x
 _atom_site_fract_y
 _atom_site_fract_z
 _atom_site_occupancy
  Ta  Ta0  1  0.333333  0.666667  0.000000  1
  Ta  Ta1  1  0.333333  0.666667  0.500000  1
  Ta  Ta2  1  0.666667  0.333333  0.500000  1
  Mn  Mn3  1  0.666667  0.333333  0.000000  1
  Nb  Nb4  1  0.678532  0.675390  0.749697  1
  Nb  Nb5  1  0.324610  0.003141  0.749697  1
  Nb  Nb6  1  0.996859  0.321468  0.749697  1
  Nb  Nb7  1  0.324610  0.321468  0.250303  1
  Nb  Nb8  1  0.678532  0.003141  0.250303  1
  Nb  Nb9  1  0.996859  0.675390  0.250303  1
  N  N10  1  0.658026  0.658729  0.381348  1
  N  N11  1  0.341271  0.999298  0.381348  1
  N  N12  1  0.000702  0.341974  0.381348  1
  N  N13  1  0.341271  0.341974  0.618652  1
  N  N14  1  0.658026  0.999298  0.618652  1
  N  N15  1  0.000702  0.658729  0.618652  1
  N  N16  1  0.346139  0.350945  0.876687  1
  N  N17  1  0.649055  0.995194  0.876687  1
  N  N18  1  0.004806  0.653861  0.876687  1
  N  N19  1  0.649055  0.653861  0.123313  1
  N  N20  1  0.346139  0.995194  0.123313  1
  N  N21  1  0.004806  0.350945  0.123313  1
