# generated using pymatgen
data_BeCrInO4
_symmetry_space_group_name_H-M   'P 1'
_cell_length_a   4.69524601
_cell_length_b   6.03842501
_cell_length_c   10.54186701
_cell_angle_alpha   89.99980718
_cell_angle_beta   90.00007270
_cell_angle_gamma   89.99955201
_symmetry_Int_Tables_number   1
_chemical_formula_structural   BeCrInO4
_chemical_formula_sum   'Be4 Cr4 In4 O16'
_cell_volume   298.88186334
_cell_formula_units_Z   4
loop_
 _symmetry_equiv_pos_site_id
 _symmetry_equiv_pos_as_xyz
  1  'x, y, z'
loop_
 _atom_site_type_symbol
 _atom_site_label
 _atom_site_symmetry_multiplicity
 _atom_site_fract_x
 _atom_site_fract_y
 _atom_site_fract_z
 _atom_site_occupancy
  Be  Be0  1  0.923928  0.749976  0.414845  1
  Be  Be1  1  0.576056  0.750018  0.914872  1
  Be  Be2  1  0.075980  0.250001  0.585145  1
  Be  Be3  1  0.423989  0.250000  0.085168  1
  Cr  Cr4  1  0.500071  0.500067  0.499990  1
  Cr  Cr5  1  0.999966  0.999956  0.000033  1
  Cr  Cr6  1  0.500068  0.999918  0.499983  1
  Cr  Cr7  1  0.000009  0.500077  0.000019  1
  In  In8  1  0.485795  0.749977  0.224408  1
  In  In9  1  0.014232  0.750017  0.724379  1
  In  In10  1  0.514282  0.250006  0.775605  1
  In  In11  1  0.985731  0.249978  0.275596  1
  O  O12  1  0.265266  0.749991  0.418300  1
  O  O13  1  0.234708  0.750015  0.918304  1
  O  O14  1  0.734652  0.249991  0.581691  1
  O  O15  1  0.765313  0.250014  0.081690  1
  O  O16  1  0.747885  0.750004  0.056058  1
  O  O17  1  0.752104  0.750000  0.556056  1
  O  O18  1  0.252212  0.250003  0.943920  1
  O  O19  1  0.247766  0.250004  0.443919  1
  O  O20  1  0.760120  0.966777  0.346733  1
  O  O21  1  0.739873  0.533214  0.846720  1
  O  O22  1  0.239836  0.466776  0.653279  1
  O  O23  1  0.260162  0.033231  0.153272  1
  O  O24  1  0.239850  0.033237  0.653279  1
  O  O25  1  0.260145  0.466755  0.153266  1
  O  O26  1  0.760125  0.533174  0.346740  1
  O  O27  1  0.739873  0.966827  0.846731  1
