# generated using pymatgen
data_Tb16Y4Co2Bi8OsRu
_symmetry_space_group_name_H-M   'P 1'
_cell_length_a   8.04347813
_cell_length_b   8.91655200
_cell_length_c   12.50753200
_cell_angle_alpha   90.00000000
_cell_angle_beta   90.27718847
_cell_angle_gamma   90.00000000
_symmetry_Int_Tables_number   1
_chemical_formula_structural   Tb16Y4Co2Bi8OsRu
_chemical_formula_sum   'Tb16 Y4 Co2 Bi8 Os1 Ru1'
_cell_volume   897.03083555
_cell_formula_units_Z   1
loop_
 _symmetry_equiv_pos_site_id
 _symmetry_equiv_pos_as_xyz
  1  'x, y, z'
loop_
 _atom_site_type_symbol
 _atom_site_label
 _atom_site_symmetry_multiplicity
 _atom_site_fract_x
 _atom_site_fract_y
 _atom_site_fract_z
 _atom_site_occupancy
  Tb  Tb0  1  0.380198  0.750000  0.694429  1
  Tb  Tb1  1  0.618107  0.250000  0.308841  1
  Tb  Tb2  1  0.881373  0.250000  0.808738  1
  Tb  Tb3  1  0.120122  0.750000  0.193296  1
  Tb  Tb4  1  0.944346  0.750000  0.502877  1
  Tb  Tb5  1  0.053932  0.250000  0.495875  1
  Tb  Tb6  1  0.449205  0.250000  0.997171  1
  Tb  Tb7  1  0.553110  0.750000  0.002322  1
  Tb  Tb8  1  0.678638  0.044533  0.564380  1
  Tb  Tb9  1  0.325656  0.962870  0.437600  1
  Tb  Tb10  1  0.173060  0.965575  0.937333  1
  Tb  Tb11  1  0.325656  0.537130  0.437600  1
  Tb  Tb12  1  0.821406  0.044801  0.065207  1
  Tb  Tb13  1  0.678638  0.455467  0.564380  1
  Tb  Tb14  1  0.821406  0.455199  0.065207  1
  Tb  Tb15  1  0.173060  0.534425  0.937333  1
  Y  Y16  1  0.842830  0.750000  0.791452  1
  Y  Y17  1  0.154659  0.250000  0.201506  1
  Y  Y18  1  0.346955  0.250000  0.700333  1
  Y  Y19  1  0.656118  0.750000  0.292725  1
  Co  Co20  1  0.429714  0.250000  0.488514  1
  Co  Co21  1  0.067943  0.250000  0.989392  1
  Bi  Bi22  1  0.571501  0.490359  0.827347  1
  Bi  Bi23  1  0.427221  0.508126  0.173368  1
  Bi  Bi24  1  0.073118  0.507564  0.673193  1
  Bi  Bi25  1  0.427221  0.991874  0.173368  1
  Bi  Bi26  1  0.928851  0.491010  0.326658  1
  Bi  Bi27  1  0.571501  0.009641  0.827347  1
  Bi  Bi28  1  0.928851  0.008990  0.326658  1
  Bi  Bi29  1  0.073118  0.992436  0.673193  1
  Os  Os30  1  0.575375  0.750000  0.511656  1
  Ru  Ru31  1  0.927112  0.750000  0.010695  1
