# generated using pymatgen
data_Ti(Pd3Pt)2
_symmetry_space_group_name_H-M   'P 1'
_cell_length_a   6.27006423
_cell_length_b   6.27006440
_cell_length_c   6.21120268
_cell_angle_alpha   95.74064222
_cell_angle_beta   95.74064373
_cell_angle_gamma   143.30492518
_symmetry_Int_Tables_number   1
_chemical_formula_structural   Ti(Pd3Pt)2
_chemical_formula_sum   'Ti1 Pd6 Pt2'
_cell_volume   138.35176425
_cell_formula_units_Z   1
loop_
 _symmetry_equiv_pos_site_id
 _symmetry_equiv_pos_as_xyz
  1  'x, y, z'
loop_
 _atom_site_type_symbol
 _atom_site_label
 _atom_site_symmetry_multiplicity
 _atom_site_fract_x
 _atom_site_fract_y
 _atom_site_fract_z
 _atom_site_occupancy
  Ti  Ti0  1  0.000000  0.000000  0.000000  1
  Pd  Pd1  1  0.329200  0.999364  0.328564  1
  Pd  Pd2  1  0.670800  0.000636  0.671436  1
  Pd  Pd3  1  0.999364  0.329200  0.328564  1
  Pd  Pd4  1  0.000636  0.670800  0.671436  1
  Pd  Pd5  1  0.335762  0.335762  0.671523  1
  Pd  Pd6  1  0.664238  0.664238  0.328477  1
  Pt  Pt7  1  0.661678  0.338322  0.000000  1
  Pt  Pt8  1  0.338322  0.661678  0.000000  1
