# generated using pymatgen
data_CaPrB4OsRh3
_symmetry_space_group_name_H-M   'P 1'
_cell_length_a   7.00882410
_cell_length_b   6.07952269
_cell_length_c   5.57122460
_cell_angle_alpha   73.82071636
_cell_angle_beta   56.41393014
_cell_angle_gamma   49.92961933
_symmetry_Int_Tables_number   1
_chemical_formula_structural   CaPrB4OsRh3
_chemical_formula_sum   'Ca1 Pr1 B4 Os1 Rh3'
_cell_volume   150.21572527
_cell_formula_units_Z   1
loop_
 _symmetry_equiv_pos_site_id
 _symmetry_equiv_pos_as_xyz
  1  'x, y, z'
loop_
 _atom_site_type_symbol
 _atom_site_label
 _atom_site_symmetry_multiplicity
 _atom_site_fract_x
 _atom_site_fract_y
 _atom_site_fract_z
 _atom_site_occupancy
  Ca  Ca0  1  0.753292  0.753292  0.746708  1
  Pr  Pr1  1  0.498818  0.498818  0.501182  1
  B  B2  1  0.818918  0.192910  0.837137  1
  B  B3  1  0.058775  0.433626  0.072801  1
  B  B4  1  0.192910  0.818918  0.151035  1
  B  B5  1  0.433626  0.058775  0.434798  1
  Os  Os6  1  0.133861  0.133861  0.866139  1
  Rh  Rh7  1  0.377629  0.377629  0.122371  1
  Rh  Rh8  1  0.116002  0.116002  0.383998  1
  Rh  Rh9  1  0.866168  0.866168  0.133832  1
