# generated using pymatgen
data_Ta3Ti3Cr2(Si3Ru2)2
_symmetry_space_group_name_H-M   'P 1'
_cell_length_a   7.40172908
_cell_length_b   7.40754054
_cell_length_c   7.40172934
_cell_angle_alpha   127.56458938
_cell_angle_beta   124.07357488
_cell_angle_gamma   80.19721359
_symmetry_Int_Tables_number   1
_chemical_formula_structural   Ta3Ti3Cr2(Si3Ru2)2
_chemical_formula_sum   'Ta3 Ti3 Cr2 Si6 Ru4'
_cell_volume   257.22880853
_cell_formula_units_Z   1
loop_
 _symmetry_equiv_pos_site_id
 _symmetry_equiv_pos_as_xyz
  1  'x, y, z'
loop_
 _atom_site_type_symbol
 _atom_site_label
 _atom_site_symmetry_multiplicity
 _atom_site_fract_x
 _atom_site_fract_y
 _atom_site_fract_z
 _atom_site_occupancy
  Ta  Ta0  1  0.464118  0.938668  0.974551  1
  Ta  Ta1  1  0.744854  0.072080  0.827226  1
  Ta  Ta2  1  0.254710  0.082754  0.328044  1
  Ti  Ti3  1  0.940453  0.898977  0.458525  1
  Ti  Ti4  1  0.059867  0.517445  0.957578  1
  Ti  Ti5  1  0.535069  0.509346  0.474276  1
  Cr  Cr6  1  0.499866  0.757629  0.256616  1
  Cr  Cr7  1  0.001013  0.757629  0.757763  1
  Si  Si8  1  0.722407  0.467228  0.244821  1
  Si  Si9  1  0.276640  0.518981  0.742341  1
  Si  Si10  1  0.679365  0.177749  0.516982  1
  Si  Si11  1  0.321301  0.833541  0.494055  1
  Si  Si12  1  0.160767  0.177749  0.998384  1
  Si  Si13  1  0.839487  0.833541  0.012241  1
  Ru  Ru14  1  0.907322  0.251437  0.412476  1
  Ru  Ru15  1  0.092511  0.505804  0.344515  1
  Ru  Ru16  1  0.338961  0.251437  0.844115  1
  Ru  Ru17  1  0.661289  0.505804  0.913293  1
