# generated using pymatgen
data_Pr3Nd2Dy3(CdPt)2
_symmetry_space_group_name_H-M   'P 1'
_cell_length_a   9.91399070
_cell_length_b   9.91399104
_cell_length_c   9.91399000
_cell_angle_alpha   60.00000347
_cell_angle_beta   60.00000233
_cell_angle_gamma   60.00000077
_symmetry_Int_Tables_number   1
_chemical_formula_structural   Pr3Nd2Dy3(CdPt)2
_chemical_formula_sum   'Pr6 Nd4 Dy6 Cd4 Pt4'
_cell_volume   689.01793948
_cell_formula_units_Z   2
loop_
 _symmetry_equiv_pos_site_id
 _symmetry_equiv_pos_as_xyz
  1  'x, y, z'
loop_
 _atom_site_type_symbol
 _atom_site_label
 _atom_site_symmetry_multiplicity
 _atom_site_fract_x
 _atom_site_fract_y
 _atom_site_fract_z
 _atom_site_occupancy
  Pr  Pr0  1  0.937399  0.562601  0.562601  1
  Pr  Pr1  1  0.562601  0.937399  0.937399  1
  Pr  Pr2  1  0.562601  0.937399  0.562601  1
  Pr  Pr3  1  0.937399  0.562601  0.937399  1
  Pr  Pr4  1  0.562601  0.562601  0.937399  1
  Pr  Pr5  1  0.937399  0.937399  0.562601  1
  Nd  Nd6  1  0.351835  0.351835  0.351835  1
  Nd  Nd7  1  0.351835  0.351835  0.944496  1
  Nd  Nd8  1  0.351835  0.944496  0.351835  1
  Nd  Nd9  1  0.944496  0.351835  0.351835  1
  Dy  Dy10  1  0.813702  0.186298  0.186298  1
  Dy  Dy11  1  0.186298  0.813702  0.813702  1
  Dy  Dy12  1  0.186298  0.813702  0.186298  1
  Dy  Dy13  1  0.813702  0.186298  0.813702  1
  Dy  Dy14  1  0.186298  0.186298  0.813702  1
  Dy  Dy15  1  0.813702  0.813702  0.186298  1
  Cd  Cd16  1  0.580023  0.580023  0.580023  1
  Cd  Cd17  1  0.580023  0.580023  0.259928  1
  Cd  Cd18  1  0.580023  0.259928  0.580023  1
  Cd  Cd19  1  0.259928  0.580023  0.580023  1
  Pt  Pt20  1  0.140934  0.140934  0.140934  1
  Pt  Pt21  1  0.140934  0.140934  0.577196  1
  Pt  Pt22  1  0.140934  0.577196  0.140934  1
  Pt  Pt23  1  0.577196  0.140934  0.140934  1
