# generated using pymatgen
data_Dy2Er3Cr3(P3Ir4)4
_symmetry_space_group_name_H-M   'P 1'
_cell_length_a   12.62250401
_cell_length_b   12.62174045
_cell_length_c   3.95180100
_cell_angle_alpha   90.00000000
_cell_angle_beta   90.00000000
_cell_angle_gamma   119.99799704
_symmetry_Int_Tables_number   1
_chemical_formula_structural   Dy2Er3Cr3(P3Ir4)4
_chemical_formula_sum   'Dy2 Er3 Cr3 P12 Ir16'
_cell_volume   545.25445924
_cell_formula_units_Z   1
loop_
 _symmetry_equiv_pos_site_id
 _symmetry_equiv_pos_as_xyz
  1  'x, y, z'
loop_
 _atom_site_type_symbol
 _atom_site_label
 _atom_site_symmetry_multiplicity
 _atom_site_fract_x
 _atom_site_fract_y
 _atom_site_fract_z
 _atom_site_occupancy
  Dy  Dy0  1  0.189345  0.189354  0.000000  1
  Dy  Dy1  1  0.810655  0.000009  0.000000  1
  Er  Er2  1  0.333330  0.666693  0.500000  1
  Er  Er3  1  0.666670  0.333362  0.500000  1
  Er  Er4  1  0.000000  0.810602  0.000000  1
  Cr  Cr5  1  0.000000  0.453429  0.500000  1
  Cr  Cr6  1  0.546608  0.546595  0.500000  1
  Cr  Cr7  1  0.453392  0.999987  0.500000  1
  P  P8  1  0.000000  0.632699  0.500000  1
  P  P9  1  0.367539  0.367546  0.500000  1
  P  P10  1  0.632461  0.000007  0.500000  1
  P  P11  1  0.516015  0.684221  0.000000  1
  P  P12  1  0.315810  0.831762  0.000000  1
  P  P13  1  0.168225  0.484037  0.000000  1
  P  P14  1  0.483985  0.168206  0.000000  1
  P  P15  1  0.684190  0.515952  0.000000  1
  P  P16  1  0.831775  0.315813  0.000000  1
  P  P17  1  0.000000  0.177581  0.500000  1
  P  P18  1  0.822505  0.822304  0.500000  1
  P  P19  1  0.177495  0.999799  0.500000  1
  Ir  Ir20  1  0.509025  0.868155  0.000000  1
  Ir  Ir21  1  0.131861  0.640952  0.000000  1
  Ir  Ir22  1  0.359159  0.491015  0.000000  1
  Ir  Ir23  1  0.490975  0.359129  0.000000  1
  Ir  Ir24  1  0.868139  0.509090  0.000000  1
  Ir  Ir25  1  0.640841  0.131855  0.000000  1
  Ir  Ir26  1  0.000000  0.287207  0.000000  1
  Ir  Ir27  1  0.712996  0.712851  0.000000  1
  Ir  Ir28  1  0.287004  0.999856  0.000000  1
  Ir  Ir29  1  0.623563  0.802644  0.500000  1
  Ir  Ir30  1  0.196792  0.820832  0.500000  1
  Ir  Ir31  1  0.179110  0.376424  0.500000  1
  Ir  Ir32  1  0.376437  0.179081  0.500000  1
  Ir  Ir33  1  0.803208  0.624040  0.500000  1
  Ir  Ir34  1  0.820890  0.197314  0.500000  1
  Ir  Ir35  1  0.000000  0.999594  0.500000  1
