# generated using pymatgen
data_Y2Tm3Pt4
_symmetry_space_group_name_H-M   'P 1'
_cell_length_a   7.46097700
_cell_length_b   7.53198400
_cell_length_c   14.63027900
_cell_angle_alpha   90.00000000
_cell_angle_beta   90.00000000
_cell_angle_gamma   90.00000000
_symmetry_Int_Tables_number   1
_chemical_formula_structural   Y2Tm3Pt4
_chemical_formula_sum   'Y8 Tm12 Pt16'
_cell_volume   822.16256452
_cell_formula_units_Z   4
loop_
 _symmetry_equiv_pos_site_id
 _symmetry_equiv_pos_as_xyz
  1  'x, y, z'
loop_
 _atom_site_type_symbol
 _atom_site_label
 _atom_site_symmetry_multiplicity
 _atom_site_fract_x
 _atom_site_fract_y
 _atom_site_fract_z
 _atom_site_occupancy
  Y  Y0  1  0.998025  0.819828  0.407001  1
  Y  Y1  1  0.498025  0.680172  0.092999  1
  Y  Y2  1  0.501975  0.319828  0.592999  1
  Y  Y3  1  0.001975  0.180172  0.907001  1
  Y  Y4  1  0.001975  0.180172  0.592999  1
  Y  Y5  1  0.501975  0.319828  0.907001  1
  Y  Y6  1  0.498025  0.680172  0.407001  1
  Y  Y7  1  0.998025  0.819828  0.092999  1
  Tm  Tm8  1  0.681439  0.989388  0.250000  1
  Tm  Tm9  1  0.181439  0.510612  0.250000  1
  Tm  Tm10  1  0.818561  0.489388  0.750000  1
  Tm  Tm11  1  0.318561  0.010612  0.750000  1
  Tm  Tm12  1  0.656170  0.832453  0.622540  1
  Tm  Tm13  1  0.156170  0.667547  0.877460  1
  Tm  Tm14  1  0.843830  0.332453  0.377460  1
  Tm  Tm15  1  0.343830  0.167547  0.122540  1
  Tm  Tm16  1  0.343830  0.167547  0.377460  1
  Tm  Tm17  1  0.843830  0.332453  0.122540  1
  Tm  Tm18  1  0.156170  0.667547  0.622540  1
  Tm  Tm19  1  0.656170  0.832453  0.877460  1
  Pt  Pt20  1  0.815907  0.641141  0.250000  1
  Pt  Pt21  1  0.315907  0.858859  0.250000  1
  Pt  Pt22  1  0.684093  0.141141  0.750000  1
  Pt  Pt23  1  0.184093  0.358859  0.750000  1
  Pt  Pt24  1  0.546367  0.385645  0.250000  1
  Pt  Pt25  1  0.046367  0.114355  0.250000  1
  Pt  Pt26  1  0.953633  0.885645  0.750000  1
  Pt  Pt27  1  0.453633  0.614355  0.750000  1
  Pt  Pt28  1  0.817548  0.533176  0.542224  1
  Pt  Pt29  1  0.317548  0.966824  0.957776  1
  Pt  Pt30  1  0.682452  0.033176  0.457776  1
  Pt  Pt31  1  0.182452  0.466824  0.042224  1
  Pt  Pt32  1  0.182452  0.466824  0.457776  1
  Pt  Pt33  1  0.682452  0.033176  0.042224  1
  Pt  Pt34  1  0.317548  0.966824  0.542224  1
  Pt  Pt35  1  0.817548  0.533176  0.957776  1
