# generated using pymatgen
data_La4Tb8Tc3Ni
_symmetry_space_group_name_H-M   'P 1'
_cell_length_a   6.48127596
_cell_length_b   7.32249785
_cell_length_c   9.54916000
_cell_angle_alpha   90.00000000
_cell_angle_beta   90.00000000
_cell_angle_gamma   89.87180741
_symmetry_Int_Tables_number   1
_chemical_formula_structural   La4Tb8Tc3Ni
_chemical_formula_sum   'La4 Tb8 Tc3 Ni1'
_cell_volume   453.19368434
_cell_formula_units_Z   1
loop_
 _symmetry_equiv_pos_site_id
 _symmetry_equiv_pos_as_xyz
  1  'x, y, z'
loop_
 _atom_site_type_symbol
 _atom_site_label
 _atom_site_symmetry_multiplicity
 _atom_site_fract_x
 _atom_site_fract_y
 _atom_site_fract_z
 _atom_site_occupancy
  La  La0  1  0.867122  0.553992  0.250000  1
  La  La1  1  0.629512  0.051523  0.250000  1
  La  La2  1  0.135258  0.445267  0.750000  1
  La  La3  1  0.369331  0.948147  0.750000  1
  Tb  Tb4  1  0.326317  0.673881  0.069822  1
  Tb  Tb5  1  0.166163  0.176497  0.433659  1
  Tb  Tb6  1  0.665710  0.327462  0.565066  1
  Tb  Tb7  1  0.833762  0.827029  0.934384  1
  Tb  Tb8  1  0.665710  0.327462  0.934934  1
  Tb  Tb9  1  0.833762  0.827029  0.565616  1
  Tb  Tb10  1  0.326317  0.673881  0.430178  1
  Tb  Tb11  1  0.166163  0.176497  0.066341  1
  Tc  Tc12  1  0.024278  0.876401  0.250000  1
  Tc  Tc13  1  0.466298  0.376729  0.250000  1
  Tc  Tc14  1  0.966940  0.121921  0.750000  1
  Ni  Ni15  1  0.557357  0.616281  0.750000  1
