# generated using pymatgen
data_Tb3DyHo2Ta2O14
_symmetry_space_group_name_H-M   'P 1'
_cell_length_a   6.50758988
_cell_length_b   6.50851253
_cell_length_c   7.47571913
_cell_angle_alpha   89.97009896
_cell_angle_beta   89.96584416
_cell_angle_gamma   108.47802876
_symmetry_Int_Tables_number   1
_chemical_formula_structural   Tb3DyHo2Ta2O14
_chemical_formula_sum   'Tb3 Dy1 Ho2 Ta2 O14'
_cell_volume   300.30804662
_cell_formula_units_Z   1
loop_
 _symmetry_equiv_pos_site_id
 _symmetry_equiv_pos_as_xyz
  1  'x, y, z'
loop_
 _atom_site_type_symbol
 _atom_site_label
 _atom_site_symmetry_multiplicity
 _atom_site_fract_x
 _atom_site_fract_y
 _atom_site_fract_z
 _atom_site_occupancy
  Tb  Tb0  1  0.462471  0.461572  0.000631  1
  Tb  Tb1  1  0.538509  0.538051  0.499384  1
  Tb  Tb2  1  0.000356  0.464448  0.740728  1
  Dy  Dy3  1  0.534843  0.000113  0.759103  1
  Ho  Ho4  1  0.000388  0.535231  0.240638  1
  Ho  Ho5  1  0.464992  0.999547  0.259274  1
  Ta  Ta6  1  0.002347  0.002324  0.499120  1
  Ta  Ta7  1  0.997478  0.997821  0.000934  1
  O  O8  1  0.932201  0.067187  0.749993  1
  O  O9  1  0.639073  0.359190  0.749936  1
  O  O10  1  0.306503  0.048295  0.544398  1
  O  O11  1  0.951039  0.693364  0.956583  1
  O  O12  1  0.630284  0.369683  0.249970  1
  O  O13  1  0.917563  0.672092  0.522398  1
  O  O14  1  0.327981  0.081717  0.976659  1
  O  O15  1  0.081877  0.327807  0.025700  1
  O  O16  1  0.671999  0.918686  0.474976  1
  O  O17  1  0.372022  0.630545  0.750208  1
  O  O18  1  0.694236  0.954181  0.046696  1
  O  O19  1  0.046130  0.305454  0.452602  1
  O  O20  1  0.358200  0.641849  0.250068  1
  O  O21  1  0.069511  0.930840  0.250001  1
