# generated using pymatgen
data_Tm4Cd2CuPd3
_symmetry_space_group_name_H-M   'P 1'
_cell_length_a   7.64791124
_cell_length_b   7.64791124
_cell_length_c   3.64449400
_cell_angle_alpha   90.00000000
_cell_angle_beta   90.00000000
_cell_angle_gamma   90.41118978
_symmetry_Int_Tables_number   1
_chemical_formula_structural   Tm4Cd2CuPd3
_chemical_formula_sum   'Tm4 Cd2 Cu1 Pd3'
_cell_volume   213.16295554
_cell_formula_units_Z   1
loop_
 _symmetry_equiv_pos_site_id
 _symmetry_equiv_pos_as_xyz
  1  'x, y, z'
loop_
 _atom_site_type_symbol
 _atom_site_label
 _atom_site_symmetry_multiplicity
 _atom_site_fract_x
 _atom_site_fract_y
 _atom_site_fract_z
 _atom_site_occupancy
  Tm  Tm0  1  0.671701  0.171701  0.500000  1
  Tm  Tm1  1  0.328176  0.828176  0.500000  1
  Tm  Tm2  1  0.171301  0.328640  0.500000  1
  Tm  Tm3  1  0.828640  0.671301  0.500000  1
  Cd  Cd4  1  0.001267  0.997263  0.000000  1
  Cd  Cd5  1  0.497263  0.501267  0.000000  1
  Cu  Cu6  1  0.124692  0.624692  0.000000  1
  Pd  Pd7  1  0.877019  0.377019  0.000000  1
  Pd  Pd8  1  0.629190  0.870750  0.000000  1
  Pd  Pd9  1  0.370750  0.129190  0.000000  1
