# generated using pymatgen
data_NdEr2Cu4Ni9B2
_symmetry_space_group_name_H-M   'P 1'
_cell_length_a   5.02282200
_cell_length_b   5.02282074
_cell_length_c   10.89855500
_cell_angle_alpha   90.00000000
_cell_angle_beta   90.00000000
_cell_angle_gamma   120.00000827
_symmetry_Int_Tables_number   1
_chemical_formula_structural   NdEr2Cu4Ni9B2
_chemical_formula_sum   'Nd1 Er2 Cu4 Ni9 B2'
_cell_volume   238.11951136
_cell_formula_units_Z   1
loop_
 _symmetry_equiv_pos_site_id
 _symmetry_equiv_pos_as_xyz
  1  'x, y, z'
loop_
 _atom_site_type_symbol
 _atom_site_label
 _atom_site_symmetry_multiplicity
 _atom_site_fract_x
 _atom_site_fract_y
 _atom_site_fract_z
 _atom_site_occupancy
  Nd  Nd0  1  0.000000  0.000000  0.332271  1
  Er  Er1  1  0.000000  0.000000  0.669630  1
  Er  Er2  1  0.000000  0.000000  0.997467  1
  Cu  Cu3  1  0.333333  0.666667  0.317211  1
  Cu  Cu4  1  0.666667  0.333333  0.317211  1
  Cu  Cu5  1  0.666667  0.333333  0.683495  1
  Cu  Cu6  1  0.333333  0.666667  0.683495  1
  Ni  Ni7  1  0.000000  0.500000  0.869824  1
  Ni  Ni8  1  0.500000  0.000000  0.502204  1
  Ni  Ni9  1  0.500000  0.500000  0.502204  1
  Ni  Ni10  1  0.000000  0.500000  0.502204  1
  Ni  Ni11  1  0.500000  0.000000  0.128151  1
  Ni  Ni12  1  0.500000  0.500000  0.128151  1
  Ni  Ni13  1  0.000000  0.500000  0.128151  1
  Ni  Ni14  1  0.500000  0.000000  0.869824  1
  Ni  Ni15  1  0.500000  0.500000  0.869824  1
  B  B16  1  0.666667  0.333333  0.999343  1
  B  B17  1  0.333333  0.666667  0.999343  1
