# generated using pymatgen
data_NdMnSi2Tc
_symmetry_space_group_name_H-M   'P 1'
_cell_length_a   6.00726307
_cell_length_b   6.00726283
_cell_length_c   6.00726354
_cell_angle_alpha   140.48419286
_cell_angle_beta   140.48419057
_cell_angle_gamma   57.11885544
_symmetry_Int_Tables_number   1
_chemical_formula_structural   NdMnSi2Tc
_chemical_formula_sum   'Nd1 Mn1 Si2 Tc1'
_cell_volume   87.03553652
_cell_formula_units_Z   1
loop_
 _symmetry_equiv_pos_site_id
 _symmetry_equiv_pos_as_xyz
  1  'x, y, z'
loop_
 _atom_site_type_symbol
 _atom_site_label
 _atom_site_symmetry_multiplicity
 _atom_site_fract_x
 _atom_site_fract_y
 _atom_site_fract_z
 _atom_site_occupancy
  Nd  Nd0  1  0.000000  0.000000  0.000000  1
  Mn  Mn1  1  0.250000  0.750000  0.500000  1
  Si  Si2  1  0.623073  0.623073  0.000000  1
  Si  Si3  1  0.376927  0.376927  0.000000  1
  Tc  Tc4  1  0.750000  0.250000  0.500000  1
