# generated using pymatgen
data_Tb18Ho2(Ir3Pt)3
_symmetry_space_group_name_H-M   'P 1'
_cell_length_a   11.01074776
_cell_length_b   11.01074735
_cell_length_c   6.36009101
_cell_angle_alpha   89.98169129
_cell_angle_beta   89.98168940
_cell_angle_gamma   90.19921895
_symmetry_Int_Tables_number   1
_chemical_formula_structural   Tb18Ho2(Ir3Pt)3
_chemical_formula_sum   'Tb18 Ho2 Ir9 Pt3'
_cell_volume   771.07082644
_cell_formula_units_Z   1
loop_
 _symmetry_equiv_pos_site_id
 _symmetry_equiv_pos_as_xyz
  1  'x, y, z'
loop_
 _atom_site_type_symbol
 _atom_site_label
 _atom_site_symmetry_multiplicity
 _atom_site_fract_x
 _atom_site_fract_y
 _atom_site_fract_z
 _atom_site_occupancy
  Tb  Tb0  1  0.293604  0.086979  0.371906  1
  Tb  Tb1  1  0.292884  0.908500  0.876924  1
  Tb  Tb2  1  0.705423  0.090064  0.873840  1
  Tb  Tb3  1  0.704549  0.909765  0.373330  1
  Tb  Tb4  1  0.585254  0.790673  0.878307  1
  Tb  Tb5  1  0.585609  0.209330  0.378276  1
  Tb  Tb6  1  0.410778  0.790904  0.378111  1
  Tb  Tb7  1  0.414119  0.209375  0.878190  1
  Tb  Tb8  1  0.209327  0.414746  0.621693  1
  Tb  Tb9  1  0.209096  0.589222  0.121889  1
  Tb  Tb10  1  0.790670  0.414391  0.121724  1
  Tb  Tb11  1  0.790625  0.585881  0.621810  1
  Tb  Tb12  1  0.913021  0.706396  0.128094  1
  Tb  Tb13  1  0.909936  0.294577  0.626160  1
  Tb  Tb14  1  0.091500  0.707116  0.623076  1
  Tb  Tb15  1  0.090235  0.295451  0.126670  1
  Tb  Tb16  1  0.001190  0.998093  0.499604  1
  Tb  Tb17  1  0.001907  0.998810  0.000396  1
  Ho  Ho18  1  0.499724  0.499930  0.000422  1
  Ho  Ho19  1  0.500070  0.500276  0.499578  1
  Ir  Ir20  1  0.152528  0.847472  0.250000  1
  Ir  Ir21  1  0.653957  0.346043  0.750000  1
  Ir  Ir22  1  0.654369  0.653956  0.249594  1
  Ir  Ir23  1  0.346044  0.345631  0.250406  1
  Ir  Ir24  1  0.346891  0.653109  0.750000  1
  Ir  Ir25  1  0.500465  0.000058  0.122256  1
  Ir  Ir26  1  0.500251  0.000294  0.623417  1
  Ir  Ir27  1  0.999706  0.499749  0.876583  1
  Ir  Ir28  1  0.999942  0.499535  0.377744  1
  Pt  Pt29  1  0.846739  0.153261  0.250000  1
  Pt  Pt30  1  0.845499  0.845910  0.749922  1
  Pt  Pt31  1  0.154090  0.154501  0.750078  1
