# generated using pymatgen
data_LiMn5(SnRh2)6
_symmetry_space_group_name_H-M   'P 1'
_cell_length_a   4.43131400
_cell_length_b   6.36384400
_cell_length_c   13.23980101
_cell_angle_alpha   90.00000000
_cell_angle_beta   89.99928410
_cell_angle_gamma   90.00000000
_symmetry_Int_Tables_number   1
_chemical_formula_structural   LiMn5(SnRh2)6
_chemical_formula_sum   'Li1 Mn5 Sn6 Rh12'
_cell_volume   373.36491753
_cell_formula_units_Z   1
loop_
 _symmetry_equiv_pos_site_id
 _symmetry_equiv_pos_as_xyz
  1  'x, y, z'
loop_
 _atom_site_type_symbol
 _atom_site_label
 _atom_site_symmetry_multiplicity
 _atom_site_fract_x
 _atom_site_fract_y
 _atom_site_fract_z
 _atom_site_occupancy
  Li  Li0  1  0.000000  0.000000  0.000000  1
  Mn  Mn1  1  0.500085  0.500000  0.166367  1
  Mn  Mn2  1  0.000074  0.000000  0.332799  1
  Mn  Mn3  1  0.500000  0.500000  0.500000  1
  Mn  Mn4  1  0.999925  0.000000  0.667201  1
  Mn  Mn5  1  0.499916  0.500000  0.833633  1
  Sn  Sn6  1  0.000000  0.500000  0.000000  1
  Sn  Sn7  1  0.500049  0.000000  0.164281  1
  Sn  Sn8  1  0.000023  0.500000  0.332700  1
  Sn  Sn9  1  0.500000  0.000000  0.500000  1
  Sn  Sn10  1  0.999977  0.500000  0.667300  1
  Sn  Sn11  1  0.499953  0.000000  0.835719  1
  Rh  Rh12  1  0.500000  0.255236  0.000000  1
  Rh  Rh13  1  0.500000  0.744764  0.000000  1
  Rh  Rh14  1  0.000063  0.250012  0.167542  1
  Rh  Rh15  1  0.000063  0.749988  0.167542  1
  Rh  Rh16  1  0.500039  0.250618  0.333430  1
  Rh  Rh17  1  0.500039  0.749382  0.333430  1
  Rh  Rh18  1  0.000000  0.249235  0.500000  1
  Rh  Rh19  1  0.000000  0.750763  0.500000  1
  Rh  Rh20  1  0.499960  0.250618  0.666569  1
  Rh  Rh21  1  0.499960  0.749382  0.666569  1
  Rh  Rh22  1  0.999937  0.250012  0.832459  1
  Rh  Rh23  1  0.999937  0.749988  0.832459  1
