# generated using pymatgen
data_NpUTcB6
_symmetry_space_group_name_H-M   'P 1'
_cell_length_a   3.62853900
_cell_length_b   9.27406500
_cell_length_c   11.31587400
_cell_angle_alpha   90.00000000
_cell_angle_beta   90.00000000
_cell_angle_gamma   90.00000000
_symmetry_Int_Tables_number   1
_chemical_formula_structural   NpUTcB6
_chemical_formula_sum   'Np4 U4 Tc4 B24'
_cell_volume   380.79394475
_cell_formula_units_Z   4
loop_
 _symmetry_equiv_pos_site_id
 _symmetry_equiv_pos_as_xyz
  1  'x, y, z'
loop_
 _atom_site_type_symbol
 _atom_site_label
 _atom_site_symmetry_multiplicity
 _atom_site_fract_x
 _atom_site_fract_y
 _atom_site_fract_z
 _atom_site_occupancy
  Np  Np0  1  0.000000  0.958789  0.399788  1
  Np  Np1  1  0.000000  0.041211  0.600212  1
  Np  Np2  1  0.000000  0.458789  0.100212  1
  Np  Np3  1  0.000000  0.541211  0.899788  1
  U  U4  1  0.000000  0.338100  0.407228  1
  U  U5  1  0.000000  0.661900  0.592772  1
  U  U6  1  0.000000  0.838100  0.092772  1
  U  U7  1  0.000000  0.161900  0.907228  1
  Tc  Tc8  1  0.000000  0.645190  0.319675  1
  Tc  Tc9  1  0.000000  0.354810  0.680325  1
  Tc  Tc10  1  0.000000  0.145190  0.180325  1
  Tc  Tc11  1  0.000000  0.854810  0.819675  1
  B  B12  1  0.500000  0.550705  0.432606  1
  B  B13  1  0.500000  0.449295  0.567394  1
  B  B14  1  0.500000  0.050705  0.067394  1
  B  B15  1  0.500000  0.949295  0.932606  1
  B  B16  1  0.500000  0.743099  0.423888  1
  B  B17  1  0.500000  0.256901  0.576112  1
  B  B18  1  0.500000  0.243099  0.076112  1
  B  B19  1  0.500000  0.756901  0.923888  1
  B  B20  1  0.500000  0.805601  0.274019  1
  B  B21  1  0.500000  0.194399  0.725981  1
  B  B22  1  0.500000  0.305601  0.225981  1
  B  B23  1  0.500000  0.694399  0.774019  1
  B  B24  1  0.500000  0.646548  0.188138  1
  B  B25  1  0.500000  0.353452  0.811862  1
  B  B26  1  0.500000  0.146548  0.311862  1
  B  B27  1  0.500000  0.853452  0.688138  1
  B  B28  1  0.500000  0.987172  0.220306  1
  B  B29  1  0.500000  0.012828  0.779694  1
  B  B30  1  0.500000  0.487172  0.279694  1
  B  B31  1  0.500000  0.512828  0.720306  1
  B  B32  1  0.500000  0.643749  0.039787  1
  B  B33  1  0.500000  0.356251  0.960213  1
  B  B34  1  0.500000  0.143749  0.460213  1
  B  B35  1  0.500000  0.856251  0.539787  1
