# generated using pymatgen
data_La16MgHg3Ru3Rh
_symmetry_space_group_name_H-M   'P 1'
_cell_length_a   10.03215189
_cell_length_b   10.10332972
_cell_length_c   10.10332900
_cell_angle_alpha   59.99999907
_cell_angle_beta   59.76502045
_cell_angle_gamma   59.76502606
_symmetry_Int_Tables_number   1
_chemical_formula_structural   La16MgHg3Ru3Rh
_chemical_formula_sum   'La16 Mg1 Hg3 Ru3 Rh1'
_cell_volume   721.53347114
_cell_formula_units_Z   1
loop_
 _symmetry_equiv_pos_site_id
 _symmetry_equiv_pos_as_xyz
  1  'x, y, z'
loop_
 _atom_site_type_symbol
 _atom_site_label
 _atom_site_symmetry_multiplicity
 _atom_site_fract_x
 _atom_site_fract_y
 _atom_site_fract_z
 _atom_site_occupancy
  La  La0  1  0.344855  0.347320  0.347320  1
  La  La1  1  0.344855  0.347320  0.960504  1
  La  La2  1  0.344855  0.960504  0.347320  1
  La  La3  1  0.954033  0.348655  0.348655  1
  La  La4  1  0.812604  0.190814  0.190814  1
  La  La5  1  0.186399  0.813444  0.813444  1
  La  La6  1  0.186399  0.813443  0.186713  1
  La  La7  1  0.812604  0.190815  0.805769  1
  La  La8  1  0.186399  0.186713  0.813444  1
  La  La9  1  0.812603  0.805769  0.190815  1
  La  La10  1  0.940235  0.560190  0.560190  1
  La  La11  1  0.557624  0.940406  0.940406  1
  La  La12  1  0.557624  0.940406  0.561564  1
  La  La13  1  0.940235  0.560190  0.939386  1
  La  La14  1  0.557624  0.561564  0.940406  1
  La  La15  1  0.940235  0.939386  0.560190  1
  Mg  Mg16  1  0.285955  0.571349  0.571349  1
  Hg  Hg17  1  0.579878  0.585954  0.585954  1
  Hg  Hg18  1  0.579878  0.585954  0.248216  1
  Hg  Hg19  1  0.579878  0.248216  0.585954  1
  Ru  Ru20  1  0.137922  0.137445  0.137445  1
  Ru  Ru21  1  0.137922  0.137445  0.587188  1
  Ru  Ru22  1  0.137922  0.587188  0.137445  1
  Rh  Rh23  1  0.581464  0.139513  0.139513  1
