# generated using pymatgen
data_TbDy3UP12Ru19
_symmetry_space_group_name_H-M   'P 1'
_cell_length_a   3.96181200
_cell_length_b   12.57129981
_cell_length_c   12.53613100
_cell_angle_alpha   119.90456146
_cell_angle_beta   90.00000000
_cell_angle_gamma   90.00000000
_symmetry_Int_Tables_number   1
_chemical_formula_structural   TbDy3UP12Ru19
_chemical_formula_sum   'Tb1 Dy3 U1 P12 Ru19'
_cell_volume   541.23398572
_cell_formula_units_Z   1
loop_
 _symmetry_equiv_pos_site_id
 _symmetry_equiv_pos_as_xyz
  1  'x, y, z'
loop_
 _atom_site_type_symbol
 _atom_site_label
 _atom_site_symmetry_multiplicity
 _atom_site_fract_x
 _atom_site_fract_y
 _atom_site_fract_z
 _atom_site_occupancy
  Tb  Tb0  1  0.000000  0.668765  0.333246  1
  Dy  Dy1  1  0.500000  0.187767  0.999190  1
  Dy  Dy2  1  0.500000  0.812236  0.811436  1
  Dy  Dy3  1  0.000000  0.331207  0.664456  1
  U  U4  1  0.500000  0.000002  0.178258  1
  P  P5  1  0.000000  0.000031  0.817794  1
  P  P6  1  0.000000  0.811600  0.993994  1
  P  P7  1  0.000000  0.188354  0.182424  1
  P  P8  1  0.500000  0.306797  0.478272  1
  P  P9  1  0.500000  0.171572  0.694332  1
  P  P10  1  0.500000  0.520605  0.828828  1
  P  P11  1  0.500000  0.828605  0.522983  1
  P  P12  1  0.500000  0.479195  0.308194  1
  P  P13  1  0.500000  0.693215  0.171279  1
  P  P14  1  0.000000  0.999970  0.374161  1
  P  P15  1  0.000000  0.374218  0.000865  1
  P  P16  1  0.000000  0.625786  0.626625  1
  Ru  Ru17  1  0.000000  0.999994  0.555636  1
  Ru  Ru18  1  0.000000  0.558518  0.004880  1
  Ru  Ru19  1  0.000000  0.441486  0.446343  1
  Ru  Ru20  1  0.500000  0.000061  0.718495  1
  Ru  Ru21  1  0.500000  0.718295  0.001441  1
  Ru  Ru22  1  0.500000  0.281645  0.283228  1
  Ru  Ru23  1  0.000000  0.184502  0.368313  1
  Ru  Ru24  1  0.000000  0.184868  0.807475  1
  Ru  Ru25  1  0.000000  0.620479  0.815245  1
  Ru  Ru26  1  0.000000  0.815263  0.622822  1
  Ru  Ru27  1  0.000000  0.379320  0.194687  1
  Ru  Ru28  1  0.000000  0.815529  0.183686  1
  Ru  Ru29  1  0.500000  0.126247  0.490909  1
  Ru  Ru30  1  0.500000  0.366699  0.876433  1
  Ru  Ru31  1  0.500000  0.506687  0.634820  1
  Ru  Ru32  1  0.500000  0.633291  0.510026  1
  Ru  Ru33  1  0.500000  0.493018  0.127814  1
  Ru  Ru34  1  0.500000  0.874076  0.364667  1
  Ru  Ru35  1  0.000000  0.999999  0.006743  1
