# generated using pymatgen
data_Pr4Zr3NpF28
_symmetry_space_group_name_H-M   'P 1'
_cell_length_a   5.85454609
_cell_length_b   9.38994231
_cell_length_c   12.62311700
_cell_angle_alpha   62.25593962
_cell_angle_beta   90.00977676
_cell_angle_gamma   89.92970021
_symmetry_Int_Tables_number   1
_chemical_formula_structural   Pr4Zr3NpF28
_chemical_formula_sum   'Pr4 Zr3 Np1 F28'
_cell_volume   614.16232147
_cell_formula_units_Z   1
loop_
 _symmetry_equiv_pos_site_id
 _symmetry_equiv_pos_as_xyz
  1  'x, y, z'
loop_
 _atom_site_type_symbol
 _atom_site_label
 _atom_site_symmetry_multiplicity
 _atom_site_fract_x
 _atom_site_fract_y
 _atom_site_fract_z
 _atom_site_occupancy
  Pr  Pr0  1  0.758408  0.809465  0.766772  1
  Pr  Pr1  1  0.256274  0.186057  0.738067  1
  Pr  Pr2  1  0.241574  0.185955  0.232223  1
  Pr  Pr3  1  0.743054  0.816742  0.264687  1
  Zr  Zr4  1  0.753754  0.274622  0.956905  1
  Zr  Zr5  1  0.256480  0.724230  0.544589  1
  Zr  Zr6  1  0.246134  0.724912  0.044507  1
  Np  Np7  1  0.745276  0.271000  0.459160  1
  F  F8  1  0.456212  0.712733  0.920147  1
  F  F9  1  0.948773  0.294947  0.593421  1
  F  F10  1  0.540353  0.289420  0.078166  1
  F  F11  1  0.045276  0.712692  0.420355  1
  F  F12  1  0.427077  0.281658  0.545166  1
  F  F13  1  0.957158  0.719092  0.954422  1
  F  F14  1  0.544106  0.718068  0.453810  1
  F  F15  1  0.043227  0.281927  0.045567  1
  F  F16  1  0.770032  0.518436  0.861783  1
  F  F17  1  0.275392  0.480687  0.641113  1
  F  F18  1  0.229215  0.481207  0.136706  1
  F  F19  1  0.729608  0.529718  0.354322  1
  F  F20  1  0.762359  0.030375  0.056437  1
  F  F21  1  0.264664  0.968807  0.443832  1
  F  F22  1  0.240736  0.969431  0.944665  1
  F  F23  1  0.736733  0.010891  0.557008  1
  F  F24  1  0.983148  0.726439  0.643758  1
  F  F25  1  0.480371  0.268773  0.859705  1
  F  F26  1  0.048689  0.272091  0.359403  1
  F  F27  1  0.521327  0.733160  0.139952  1
  F  F28  1  0.045871  0.746468  0.169394  1
  F  F29  1  0.552142  0.257385  0.317135  1
  F  F30  1  0.955447  0.254517  0.832702  1
  F  F31  1  0.453976  0.740886  0.672430  1
  F  F32  1  0.408913  0.965686  0.229758  1
  F  F33  1  0.907179  0.036703  0.269294  1
  F  F34  1  0.588407  0.035334  0.761833  1
  F  F35  1  0.082653  0.969489  0.730811  1
