# generated using pymatgen
data_Zr10Ge6C
_symmetry_space_group_name_H-M   'P 1'
_cell_length_a   8.06988800
_cell_length_b   8.06988799
_cell_length_c   5.68541100
_cell_angle_alpha   90.00000000
_cell_angle_beta   90.00000000
_cell_angle_gamma   120.00000005
_symmetry_Int_Tables_number   1
_chemical_formula_structural   Zr10Ge6C
_chemical_formula_sum   'Zr10 Ge6 C1'
_cell_volume   320.64724357
_cell_formula_units_Z   1
loop_
 _symmetry_equiv_pos_site_id
 _symmetry_equiv_pos_as_xyz
  1  'x, y, z'
loop_
 _atom_site_type_symbol
 _atom_site_label
 _atom_site_symmetry_multiplicity
 _atom_site_fract_x
 _atom_site_fract_y
 _atom_site_fract_z
 _atom_site_occupancy
  Zr  Zr0  1  0.000000  0.760875  0.260099  1
  Zr  Zr1  1  0.239125  0.239125  0.260099  1
  Zr  Zr2  1  0.760875  0.000000  0.260099  1
  Zr  Zr3  1  0.000000  0.239125  0.739901  1
  Zr  Zr4  1  0.760875  0.760875  0.739901  1
  Zr  Zr5  1  0.239125  0.000000  0.739901  1
  Zr  Zr6  1  0.333333  0.666667  0.000000  1
  Zr  Zr7  1  0.666667  0.333333  0.000000  1
  Zr  Zr8  1  0.666667  0.333333  0.500000  1
  Zr  Zr9  1  0.333333  0.666667  0.500000  1
  Ge  Ge10  1  0.000000  0.396645  0.247503  1
  Ge  Ge11  1  0.603355  0.603355  0.247503  1
  Ge  Ge12  1  0.396645  0.000000  0.247503  1
  Ge  Ge13  1  0.000000  0.603355  0.752497  1
  Ge  Ge14  1  0.396645  0.396645  0.752497  1
  Ge  Ge15  1  0.603355  0.000000  0.752497  1
  C  C16  1  0.000000  0.000000  0.500000  1
