# generated using pymatgen
data_TbYLu2(FeB6)2
_symmetry_space_group_name_H-M   'P 1'
_cell_length_a   3.51847600
_cell_length_b   9.02898409
_cell_length_c   11.40702912
_cell_angle_alpha   89.98367722
_cell_angle_beta   90.00000000
_cell_angle_gamma   90.00000000
_symmetry_Int_Tables_number   1
_chemical_formula_structural   TbYLu2(FeB6)2
_chemical_formula_sum   'Tb2 Y2 Lu4 Fe4 B24'
_cell_volume   362.38149577
_cell_formula_units_Z   2
loop_
 _symmetry_equiv_pos_site_id
 _symmetry_equiv_pos_as_xyz
  1  'x, y, z'
loop_
 _atom_site_type_symbol
 _atom_site_label
 _atom_site_symmetry_multiplicity
 _atom_site_fract_x
 _atom_site_fract_y
 _atom_site_fract_z
 _atom_site_occupancy
  Tb  Tb0  1  0.000000  0.823385  0.085650  1
  Tb  Tb1  1  0.000000  0.176615  0.914350  1
  Y  Y2  1  0.000000  0.323233  0.414468  1
  Y  Y3  1  0.000000  0.676767  0.585532  1
  Lu  Lu4  1  0.000000  0.443384  0.129355  1
  Lu  Lu5  1  0.000000  0.556616  0.870645  1
  Lu  Lu6  1  0.000000  0.943424  0.370716  1
  Lu  Lu7  1  0.000000  0.056576  0.629284  1
  Fe  Fe8  1  0.000000  0.139438  0.180491  1
  Fe  Fe9  1  0.000000  0.860562  0.819509  1
  Fe  Fe10  1  0.000000  0.639430  0.319514  1
  Fe  Fe11  1  0.000000  0.360570  0.680486  1
  B  B12  1  0.500000  0.055096  0.068788  1
  B  B13  1  0.500000  0.944904  0.931212  1
  B  B14  1  0.500000  0.554992  0.431385  1
  B  B15  1  0.500000  0.445008  0.568615  1
  B  B16  1  0.500000  0.248292  0.082210  1
  B  B17  1  0.500000  0.751708  0.917790  1
  B  B18  1  0.500000  0.748279  0.417875  1
  B  B19  1  0.500000  0.251721  0.582125  1
  B  B20  1  0.500000  0.290236  0.233640  1
  B  B21  1  0.500000  0.709764  0.766360  1
  B  B22  1  0.500000  0.790129  0.266436  1
  B  B23  1  0.500000  0.209871  0.733564  1
  B  B24  1  0.500000  0.131090  0.314692  1
  B  B25  1  0.500000  0.868910  0.685308  1
  B  B26  1  0.500000  0.631085  0.185367  1
  B  B27  1  0.500000  0.368915  0.814633  1
  B  B28  1  0.500000  0.485585  0.287456  1
  B  B29  1  0.500000  0.514415  0.712544  1
  B  B30  1  0.500000  0.985726  0.212570  1
  B  B31  1  0.500000  0.014274  0.787430  1
  B  B32  1  0.500000  0.105248  0.471265  1
  B  B33  1  0.500000  0.894752  0.528735  1
  B  B34  1  0.500000  0.605057  0.028671  1
  B  B35  1  0.500000  0.394943  0.971329  1
