# generated using pymatgen
data_Tm8B24RhW3
_symmetry_space_group_name_H-M   'P 1'
_cell_length_a   3.58347700
_cell_length_b   9.20577088
_cell_length_c   11.59366902
_cell_angle_alpha   90.15856899
_cell_angle_beta   90.00000000
_cell_angle_gamma   90.00000000
_symmetry_Int_Tables_number   1
_chemical_formula_structural   Tm8B24RhW3
_chemical_formula_sum   'Tm8 B24 Rh1 W3'
_cell_volume   382.45823591
_cell_formula_units_Z   1
loop_
 _symmetry_equiv_pos_site_id
 _symmetry_equiv_pos_as_xyz
  1  'x, y, z'
loop_
 _atom_site_type_symbol
 _atom_site_label
 _atom_site_symmetry_multiplicity
 _atom_site_fract_x
 _atom_site_fract_y
 _atom_site_fract_z
 _atom_site_occupancy
  Tm  Tm0  1  0.500000  0.318091  0.414416  1
  Tm  Tm1  1  0.500000  0.679538  0.588698  1
  Tm  Tm2  1  0.500000  0.178822  0.912618  1
  Tm  Tm3  1  0.500000  0.824308  0.082982  1
  Tm  Tm4  1  0.500000  0.444839  0.129365  1
  Tm  Tm5  1  0.500000  0.555967  0.873357  1
  Tm  Tm6  1  0.500000  0.054063  0.626441  1
  Tm  Tm7  1  0.500000  0.941689  0.371316  1
  B  B8  1  0.000000  0.100282  0.470882  1
  B  B9  1  0.000000  0.893663  0.527085  1
  B  B10  1  0.000000  0.398214  0.972777  1
  B  B11  1  0.000000  0.604129  0.030593  1
  B  B12  1  0.000000  0.130865  0.318344  1
  B  B13  1  0.000000  0.867417  0.682424  1
  B  B14  1  0.000000  0.369079  0.816741  1
  B  B15  1  0.000000  0.632742  0.184153  1
  B  B16  1  0.000000  0.051866  0.065252  1
  B  B17  1  0.000000  0.949412  0.935030  1
  B  B18  1  0.000000  0.449447  0.563045  1
  B  B19  1  0.000000  0.554790  0.433250  1
  B  B20  1  0.000000  0.483476  0.288744  1
  B  B21  1  0.000000  0.522130  0.712695  1
  B  B22  1  0.000000  0.021650  0.786149  1
  B  B23  1  0.000000  0.977341  0.212459  1
  B  B24  1  0.000000  0.252549  0.078901  1
  B  B25  1  0.000000  0.749019  0.922756  1
  B  B26  1  0.000000  0.247073  0.576788  1
  B  B27  1  0.000000  0.748737  0.420380  1
  B  B28  1  0.000000  0.296784  0.238174  1
  B  B29  1  0.000000  0.704485  0.764464  1
  B  B30  1  0.000000  0.204928  0.735389  1
  B  B31  1  0.000000  0.791282  0.264443  1
  Rh  Rh32  1  0.500000  0.639039  0.320712  1
  W  W33  1  0.500000  0.139952  0.181001  1
  W  W34  1  0.500000  0.861033  0.820512  1
  W  W35  1  0.500000  0.361295  0.677663  1
