# generated using pymatgen
data_Tb2Y3GaSb2
_symmetry_space_group_name_H-M   'P 1'
_cell_length_a   8.88086019
_cell_length_b   8.87303794
_cell_length_c   6.44522300
_cell_angle_alpha   90.00000000
_cell_angle_beta   90.00000000
_cell_angle_gamma   119.97086128
_symmetry_Int_Tables_number   1
_chemical_formula_structural   Tb2Y3GaSb2
_chemical_formula_sum   'Tb4 Y6 Ga2 Sb4'
_cell_volume   439.97033458
_cell_formula_units_Z   2
loop_
 _symmetry_equiv_pos_site_id
 _symmetry_equiv_pos_as_xyz
  1  'x, y, z'
loop_
 _atom_site_type_symbol
 _atom_site_label
 _atom_site_symmetry_multiplicity
 _atom_site_fract_x
 _atom_site_fract_y
 _atom_site_fract_z
 _atom_site_occupancy
  Tb  Tb0  1  0.336667  0.668334  0.500000  1
  Tb  Tb1  1  0.653826  0.326912  0.000000  1
  Tb  Tb2  1  0.653826  0.326912  0.500000  1
  Tb  Tb3  1  0.336667  0.668334  0.000000  1
  Y  Y4  1  0.010155  0.765476  0.750000  1
  Y  Y5  1  0.010155  0.244678  0.250000  1
  Y  Y6  1  0.752333  0.752909  0.250000  1
  Y  Y7  1  0.752333  0.999424  0.750000  1
  Y  Y8  1  0.244074  0.233208  0.750000  1
  Y  Y9  1  0.244074  0.010867  0.250000  1
  Ga  Ga10  1  0.394725  0.997782  0.750000  1
  Ga  Ga11  1  0.394725  0.396943  0.250000  1
  Sb  Sb12  1  0.999207  0.607670  0.250000  1
  Sb  Sb13  1  0.999207  0.391535  0.750000  1
  Sb  Sb14  1  0.609015  0.607786  0.750000  1
  Sb  Sb15  1  0.609015  0.001230  0.250000  1
