# generated using pymatgen
data_K7Li4Al4TlBi8
_symmetry_space_group_name_H-M   'P 1'
_cell_length_a   10.77862399
_cell_length_b   10.77862521
_cell_length_c   6.84850897
_cell_angle_alpha   90.07823004
_cell_angle_beta   89.92177461
_cell_angle_gamma   100.82265710
_symmetry_Int_Tables_number   1
_chemical_formula_structural   K7Li4Al4TlBi8
_chemical_formula_sum   'K7 Li4 Al4 Tl1 Bi8'
_cell_volume   781.49778529
_cell_formula_units_Z   1
loop_
 _symmetry_equiv_pos_site_id
 _symmetry_equiv_pos_as_xyz
  1  'x, y, z'
loop_
 _atom_site_type_symbol
 _atom_site_label
 _atom_site_symmetry_multiplicity
 _atom_site_fract_x
 _atom_site_fract_y
 _atom_site_fract_z
 _atom_site_occupancy
  K  K0  1  0.575422  0.919205  0.249514  1
  K  K1  1  0.668949  0.331051  0.222987  1
  K  K2  1  0.328463  0.671537  0.777087  1
  K  K3  1  0.080795  0.424578  0.249514  1
  K  K4  1  0.921756  0.578876  0.748746  1
  K  K5  1  0.421124  0.078244  0.748746  1
  K  K6  1  0.829975  0.170025  0.722649  1
  Li  Li7  1  0.883398  0.878323  0.500054  1
  Li  Li8  1  0.121677  0.116602  0.500054  1
  Li  Li9  1  0.621055  0.621704  0.999548  1
  Li  Li10  1  0.378296  0.378945  0.999548  1
  Al  Al11  1  0.870794  0.869816  0.999616  1
  Al  Al12  1  0.130184  0.129206  0.999616  1
  Al  Al13  1  0.369523  0.369132  0.499270  1
  Al  Al14  1  0.630868  0.630477  0.499270  1
  Tl  Tl15  1  0.159146  0.840854  0.278776  1
  Bi  Bi16  1  0.102677  0.897323  0.787318  1
  Bi  Bi17  1  0.598576  0.401424  0.717839  1
  Bi  Bi18  1  0.902119  0.097881  0.219521  1
  Bi  Bi19  1  0.401433  0.598567  0.283040  1
  Bi  Bi20  1  0.349322  0.149201  0.249655  1
  Bi  Bi21  1  0.150469  0.346816  0.748988  1
  Bi  Bi22  1  0.653184  0.849531  0.748988  1
  Bi  Bi23  1  0.850799  0.650678  0.249655  1
