# generated using pymatgen
data_LiY13Er3Cd3Pt4
_symmetry_space_group_name_H-M   'P 1'
_cell_length_a   9.70548458
_cell_length_b   9.71364691
_cell_length_c   9.71364754
_cell_angle_alpha   59.95477808
_cell_angle_beta   59.85861589
_cell_angle_gamma   59.85861691
_symmetry_Int_Tables_number   1
_chemical_formula_structural   LiY13Er3Cd3Pt4
_chemical_formula_sum   'Li1 Y13 Er3 Cd3 Pt4'
_cell_volume   645.93298880
_cell_formula_units_Z   1
loop_
 _symmetry_equiv_pos_site_id
 _symmetry_equiv_pos_as_xyz
  1  'x, y, z'
loop_
 _atom_site_type_symbol
 _atom_site_label
 _atom_site_symmetry_multiplicity
 _atom_site_fract_x
 _atom_site_fract_y
 _atom_site_fract_z
 _atom_site_occupancy
  Li  Li0  1  0.570766  0.571799  0.571799  1
  Y  Y1  1  0.943196  0.352639  0.352639  1
  Y  Y2  1  0.809462  0.192369  0.192369  1
  Y  Y3  1  0.189292  0.811486  0.811486  1
  Y  Y4  1  0.192961  0.808852  0.192838  1
  Y  Y5  1  0.812107  0.188457  0.812157  1
  Y  Y6  1  0.192961  0.192838  0.808852  1
  Y  Y7  1  0.812107  0.812157  0.188457  1
  Y  Y8  1  0.936612  0.564769  0.564769  1
  Y  Y9  1  0.562508  0.936840  0.936840  1
  Y  Y10  1  0.563967  0.937129  0.564500  1
  Y  Y11  1  0.936469  0.563333  0.936062  1
  Y  Y12  1  0.563967  0.564500  0.937129  1
  Y  Y13  1  0.936469  0.936062  0.563333  1
  Er  Er14  1  0.350563  0.350665  0.350665  1
  Er  Er15  1  0.351475  0.351505  0.946420  1
  Er  Er16  1  0.351475  0.946420  0.351505  1
  Cd  Cd17  1  0.581420  0.582385  0.254333  1
  Cd  Cd18  1  0.581420  0.254333  0.582385  1
  Cd  Cd19  1  0.254660  0.581924  0.581924  1
  Pt  Pt20  1  0.146499  0.143524  0.143524  1
  Pt  Pt21  1  0.145893  0.142647  0.569224  1
  Pt  Pt22  1  0.145893  0.569224  0.142647  1
  Pt  Pt23  1  0.567857  0.144142  0.144142  1
