# generated using pymatgen
data_Sc11Os3Rh
_symmetry_space_group_name_H-M   'P 1'
_cell_length_a   9.47690372
_cell_length_b   9.47690404
_cell_length_c   9.47661500
_cell_angle_alpha   60.00101240
_cell_angle_beta   60.00101128
_cell_angle_gamma   59.99798386
_symmetry_Int_Tables_number   1
_chemical_formula_structural   Sc11Os3Rh
_chemical_formula_sum   'Sc22 Os6 Rh2'
_cell_volume   601.82637239
_cell_formula_units_Z   2
loop_
 _symmetry_equiv_pos_site_id
 _symmetry_equiv_pos_as_xyz
  1  'x, y, z'
loop_
 _atom_site_type_symbol
 _atom_site_label
 _atom_site_symmetry_multiplicity
 _atom_site_fract_x
 _atom_site_fract_y
 _atom_site_fract_z
 _atom_site_occupancy
  Sc  Sc0  1  0.843311  0.843311  0.845404  1
  Sc  Sc1  1  0.532026  0.154596  0.156689  1
  Sc  Sc2  1  0.156689  0.156689  0.532026  1
  Sc  Sc3  1  0.154596  0.532026  0.156689  1
  Sc  Sc4  1  0.843311  0.843311  0.467974  1
  Sc  Sc5  1  0.845404  0.467974  0.843311  1
  Sc  Sc6  1  0.467974  0.845404  0.843311  1
  Sc  Sc7  1  0.156689  0.156689  0.154596  1
  Sc  Sc8  1  0.197806  0.802194  0.197806  1
  Sc  Sc9  1  0.197806  0.802194  0.802194  1
  Sc  Sc10  1  0.802194  0.197806  0.197806  1
  Sc  Sc11  1  0.801009  0.801009  0.198991  1
  Sc  Sc12  1  0.198991  0.198991  0.801009  1
  Sc  Sc13  1  0.802194  0.197806  0.802194  1
  Sc  Sc14  1  0.381757  0.381757  0.386335  1
  Sc  Sc15  1  0.149850  0.613665  0.618243  1
  Sc  Sc16  1  0.613665  0.149850  0.618243  1
  Sc  Sc17  1  0.618243  0.618243  0.149850  1
  Sc  Sc18  1  0.386335  0.850150  0.381757  1
  Sc  Sc19  1  0.381757  0.381757  0.850150  1
  Sc  Sc20  1  0.850150  0.386335  0.381757  1
  Sc  Sc21  1  0.618243  0.618243  0.613665  1
  Os  Os22  1  0.500000  0.000000  0.500000  1
  Os  Os23  1  0.000000  0.500000  0.500000  1
  Os  Os24  1  0.500000  0.000000  0.000000  1
  Os  Os25  1  0.000000  0.500000  0.000000  1
  Os  Os26  1  0.500000  0.500000  0.500000  1
  Os  Os27  1  0.000000  0.000000  0.000000  1
  Rh  Rh28  1  0.500000  0.500000  0.000000  1
  Rh  Rh29  1  0.000000  0.000000  0.500000  1
