# generated using pymatgen
data_La2NdAl2Sn3
_symmetry_space_group_name_H-M   'P 1'
_cell_length_a   6.57368173
_cell_length_b   6.57368201
_cell_length_c   10.32728700
_cell_angle_alpha   90.00000000
_cell_angle_beta   90.00000000
_cell_angle_gamma   102.76039376
_symmetry_Int_Tables_number   1
_chemical_formula_structural   La2NdAl2Sn3
_chemical_formula_sum   'La4 Nd2 Al4 Sn6'
_cell_volume   435.25407602
_cell_formula_units_Z   2
loop_
 _symmetry_equiv_pos_site_id
 _symmetry_equiv_pos_as_xyz
  1  'x, y, z'
loop_
 _atom_site_type_symbol
 _atom_site_label
 _atom_site_symmetry_multiplicity
 _atom_site_fract_x
 _atom_site_fract_y
 _atom_site_fract_z
 _atom_site_occupancy
  La  La0  1  0.201942  0.798058  0.500000  1
  La  La1  1  0.201942  0.798058  0.000000  1
  La  La2  1  0.798058  0.201942  0.500000  1
  La  La3  1  0.798058  0.201942  0.000000  1
  Nd  Nd4  1  0.643105  0.643105  0.250000  1
  Nd  Nd5  1  0.356895  0.356895  0.750000  1
  Al  Al6  1  0.320852  0.320852  0.049964  1
  Al  Al7  1  0.679148  0.679148  0.950036  1
  Al  Al8  1  0.320852  0.320852  0.450036  1
  Al  Al9  1  0.679148  0.679148  0.549964  1
  Sn  Sn10  1  0.028310  0.028310  0.250000  1
  Sn  Sn11  1  0.971690  0.971690  0.750000  1
  Sn  Sn12  1  0.491809  0.092833  0.250000  1
  Sn  Sn13  1  0.907167  0.508191  0.750000  1
  Sn  Sn14  1  0.508191  0.907167  0.750000  1
  Sn  Sn15  1  0.092833  0.491809  0.250000  1
