# generated using pymatgen
data_Ho2ErTm5(CdIr)2
_symmetry_space_group_name_H-M   'P 1'
_cell_length_a   9.53338525
_cell_length_b   9.53338545
_cell_length_c   9.53452600
_cell_angle_alpha   59.99604927
_cell_angle_beta   59.99604858
_cell_angle_gamma   60.00791043
_symmetry_Int_Tables_number   1
_chemical_formula_structural   Ho2ErTm5(CdIr)2
_chemical_formula_sum   'Ho4 Er2 Tm10 Cd4 Ir4'
_cell_volume   612.74308677
_cell_formula_units_Z   2
loop_
 _symmetry_equiv_pos_site_id
 _symmetry_equiv_pos_as_xyz
  1  'x, y, z'
loop_
 _atom_site_type_symbol
 _atom_site_label
 _atom_site_symmetry_multiplicity
 _atom_site_fract_x
 _atom_site_fract_y
 _atom_site_fract_z
 _atom_site_occupancy
  Ho  Ho0  1  0.187806  0.812194  0.812194  1
  Ho  Ho1  1  0.812194  0.187806  0.187806  1
  Ho  Ho2  1  0.812194  0.187806  0.812194  1
  Ho  Ho3  1  0.187806  0.812194  0.187806  1
  Er  Er4  1  0.811992  0.811992  0.188008  1
  Er  Er5  1  0.188008  0.188008  0.811992  1
  Tm  Tm6  1  0.599104  0.599104  0.599053  1
  Tm  Tm7  1  0.599104  0.599104  0.202739  1
  Tm  Tm8  1  0.599053  0.202739  0.599104  1
  Tm  Tm9  1  0.202739  0.599053  0.599104  1
  Tm  Tm10  1  0.060836  0.439164  0.439164  1
  Tm  Tm11  1  0.439164  0.060836  0.060836  1
  Tm  Tm12  1  0.439164  0.060836  0.439164  1
  Tm  Tm13  1  0.060836  0.439164  0.060836  1
  Tm  Tm14  1  0.439134  0.439134  0.060866  1
  Tm  Tm15  1  0.060866  0.060866  0.439134  1
  Cd  Cd16  1  0.831004  0.831004  0.831158  1
  Cd  Cd17  1  0.831004  0.831004  0.506832  1
  Cd  Cd18  1  0.831158  0.506832  0.831004  1
  Cd  Cd19  1  0.506832  0.831158  0.831004  1
  Ir  Ir20  1  0.391760  0.391760  0.391903  1
  Ir  Ir21  1  0.391760  0.391760  0.824577  1
  Ir  Ir22  1  0.391903  0.824577  0.391760  1
  Ir  Ir23  1  0.824577  0.391903  0.391760  1
