# generated using pymatgen
data_Ti6Ga3AuO2
_symmetry_space_group_name_H-M   'P 1'
_cell_length_a   6.90918954
_cell_length_b   6.90599554
_cell_length_c   6.90988300
_cell_angle_alpha   90.00000000
_cell_angle_beta   90.00000000
_cell_angle_gamma   90.56358779
_symmetry_Int_Tables_number   1
_chemical_formula_structural   Ti6Ga3AuO2
_chemical_formula_sum   'Ti12 Ga6 Au2 O4'
_cell_volume   329.68795758
_cell_formula_units_Z   2
loop_
 _symmetry_equiv_pos_site_id
 _symmetry_equiv_pos_as_xyz
  1  'x, y, z'
loop_
 _atom_site_type_symbol
 _atom_site_label
 _atom_site_symmetry_multiplicity
 _atom_site_fract_x
 _atom_site_fract_y
 _atom_site_fract_z
 _atom_site_occupancy
  Ti  Ti0  1  0.788571  0.960050  0.374720  1
  Ti  Ti1  1  0.711429  0.039950  0.874720  1
  Ti  Ti2  1  0.211269  0.455532  0.122507  1
  Ti  Ti3  1  0.288731  0.544468  0.622507  1
  Ti  Ti4  1  0.954640  0.377506  0.789969  1
  Ti  Ti5  1  0.040418  0.875695  0.712688  1
  Ti  Ti6  1  0.459582  0.124305  0.212688  1
  Ti  Ti7  1  0.545360  0.622494  0.289969  1
  Ti  Ti8  1  0.377401  0.786729  0.957600  1
  Ti  Ti9  1  0.873708  0.708654  0.041563  1
  Ti  Ti10  1  0.122599  0.213271  0.457600  1
  Ti  Ti11  1  0.626292  0.291346  0.541563  1
  Ga  Ga12  1  0.820653  0.319701  0.179640  1
  Ga  Ga13  1  0.679347  0.680299  0.679640  1
  Ga  Ga14  1  0.571512  0.431947  0.931882  1
  Ga  Ga15  1  0.432647  0.929841  0.570368  1
  Ga  Ga16  1  0.928488  0.568053  0.431882  1
  Ga  Ga17  1  0.067353  0.070159  0.070368  1
  Au  Au18  1  0.181234  0.818968  0.318797  1
  Au  Au19  1  0.318766  0.181032  0.818797  1
  O  O20  1  0.876984  0.124345  0.625280  1
  O  O21  1  0.623016  0.875655  0.125280  1
  O  O22  1  0.126268  0.625306  0.874988  1
  O  O23  1  0.373732  0.374694  0.374988  1
