# generated using pymatgen
data_Eu5Zn2Ir3
_symmetry_space_group_name_H-M   'P 1'
_cell_length_a   8.57182140
_cell_length_b   8.57182155
_cell_length_c   8.57182100
_cell_angle_alpha   109.47121462
_cell_angle_beta   109.47121497
_cell_angle_gamma   109.47122930
_symmetry_Int_Tables_number   1
_chemical_formula_structural   Eu5Zn2Ir3
_chemical_formula_sum   'Eu10 Zn4 Ir6'
_cell_volume   484.83889565
_cell_formula_units_Z   2
loop_
 _symmetry_equiv_pos_site_id
 _symmetry_equiv_pos_as_xyz
  1  'x, y, z'
loop_
 _atom_site_type_symbol
 _atom_site_label
 _atom_site_symmetry_multiplicity
 _atom_site_fract_x
 _atom_site_fract_y
 _atom_site_fract_z
 _atom_site_occupancy
  Eu  Eu0  1  0.250000  0.683261  0.433261  1
  Eu  Eu1  1  0.750000  0.816739  0.066739  1
  Eu  Eu2  1  0.433261  0.250000  0.683261  1
  Eu  Eu3  1  0.683261  0.433261  0.250000  1
  Eu  Eu4  1  0.066739  0.750000  0.816739  1
  Eu  Eu5  1  0.816739  0.066739  0.750000  1
  Eu  Eu6  1  0.218989  0.218989  0.218989  1
  Eu  Eu7  1  0.500000  0.000000  0.281011  1
  Eu  Eu8  1  0.281011  0.500000  0.000000  1
  Eu  Eu9  1  0.000000  0.281011  0.500000  1
  Zn  Zn10  1  0.593340  0.593340  0.593340  1
  Zn  Zn11  1  0.500000  0.000000  0.906660  1
  Zn  Zn12  1  0.906660  0.500000  0.000000  1
  Zn  Zn13  1  0.000000  0.906660  0.500000  1
  Ir  Ir14  1  0.250000  0.122546  0.872546  1
  Ir  Ir15  1  0.750000  0.377454  0.627454  1
  Ir  Ir16  1  0.872545  0.250000  0.122546  1
  Ir  Ir17  1  0.122546  0.872545  0.250000  1
  Ir  Ir18  1  0.627454  0.750000  0.377454  1
  Ir  Ir19  1  0.377454  0.627454  0.750000  1
