# generated using pymatgen
data_Dy16Cd4IrPd3
_symmetry_space_group_name_H-M   'P 1'
_cell_length_a   9.66276556
_cell_length_b   9.63471621
_cell_length_c   9.63471600
_cell_angle_alpha   60.00000073
_cell_angle_beta   60.09597914
_cell_angle_gamma   60.09597738
_symmetry_Int_Tables_number   1
_chemical_formula_structural   Dy16Cd4IrPd3
_chemical_formula_sum   'Dy16 Cd4 Ir1 Pd3'
_cell_volume   635.17413795
_cell_formula_units_Z   1
loop_
 _symmetry_equiv_pos_site_id
 _symmetry_equiv_pos_as_xyz
  1  'x, y, z'
loop_
 _atom_site_type_symbol
 _atom_site_label
 _atom_site_symmetry_multiplicity
 _atom_site_fract_x
 _atom_site_fract_y
 _atom_site_fract_z
 _atom_site_occupancy
  Dy  Dy0  1  0.605794  0.599848  0.599848  1
  Dy  Dy1  1  0.605794  0.599848  0.194512  1
  Dy  Dy2  1  0.605794  0.194512  0.599848  1
  Dy  Dy3  1  0.188728  0.603758  0.603758  1
  Dy  Dy4  1  0.057262  0.438358  0.438358  1
  Dy  Dy5  1  0.439435  0.060692  0.060692  1
  Dy  Dy6  1  0.439435  0.060692  0.439181  1
  Dy  Dy7  1  0.057262  0.438358  0.066020  1
  Dy  Dy8  1  0.439435  0.439181  0.060692  1
  Dy  Dy9  1  0.057262  0.066020  0.438358  1
  Dy  Dy10  1  0.183489  0.816625  0.816625  1
  Dy  Dy11  1  0.817900  0.184665  0.184665  1
  Dy  Dy12  1  0.817900  0.184665  0.812769  1
  Dy  Dy13  1  0.183489  0.816625  0.183262  1
  Dy  Dy14  1  0.817900  0.812769  0.184665  1
  Dy  Dy15  1  0.183489  0.183262  0.816625  1
  Cd  Cd16  1  0.831809  0.831894  0.831894  1
  Cd  Cd17  1  0.831809  0.831894  0.504402  1
  Cd  Cd18  1  0.831809  0.504402  0.831894  1
  Cd  Cd19  1  0.505281  0.831573  0.831573  1
  Ir  Ir20  1  0.821187  0.392938  0.392938  1
  Pd  Pd21  1  0.392578  0.394331  0.394331  1
  Pd  Pd22  1  0.392578  0.394331  0.818761  1
  Pd  Pd23  1  0.392578  0.818761  0.394331  1
