# generated using pymatgen
data_La3Tb6Y7(CdNi)4
_symmetry_space_group_name_H-M   'P 1'
_cell_length_a   9.68846960
_cell_length_b   9.68781724
_cell_length_c   9.68774792
_cell_angle_alpha   59.76629884
_cell_angle_beta   59.98525732
_cell_angle_gamma   60.04835664
_symmetry_Int_Tables_number   1
_chemical_formula_structural   La3Tb6Y7(CdNi)4
_chemical_formula_sum   'La3 Tb6 Y7 Cd4 Ni4'
_cell_volume   641.98614237
_cell_formula_units_Z   1
loop_
 _symmetry_equiv_pos_site_id
 _symmetry_equiv_pos_as_xyz
  1  'x, y, z'
loop_
 _atom_site_type_symbol
 _atom_site_label
 _atom_site_symmetry_multiplicity
 _atom_site_fract_x
 _atom_site_fract_y
 _atom_site_fract_z
 _atom_site_occupancy
  La  La0  1  0.595937  0.599204  0.598993  1
  La  La1  1  0.596207  0.600398  0.201763  1
  La  La2  1  0.595921  0.201949  0.600222  1
  Tb  Tb3  1  0.195893  0.603030  0.602337  1
  Tb  Tb4  1  0.063659  0.438028  0.438363  1
  Tb  Tb5  1  0.437085  0.063886  0.064367  1
  Tb  Tb6  1  0.438032  0.063904  0.437206  1
  Tb  Tb7  1  0.064182  0.436509  0.062444  1
  Tb  Tb8  1  0.438307  0.437021  0.063987  1
  Y  Y9  1  0.063939  0.061830  0.436971  1
  Y  Y10  1  0.188044  0.815159  0.815460  1
  Y  Y11  1  0.814489  0.184892  0.185153  1
  Y  Y12  1  0.815450  0.185563  0.815473  1
  Y  Y13  1  0.185873  0.813712  0.184561  1
  Y  Y14  1  0.815259  0.815269  0.186199  1
  Y  Y15  1  0.186145  0.184495  0.813656  1
  Cd  Cd16  1  0.836180  0.829122  0.828594  1
  Cd  Cd17  1  0.836052  0.829699  0.503080  1
  Cd  Cd18  1  0.835777  0.503350  0.829491  1
  Cd  Cd19  1  0.503757  0.831629  0.831782  1
  Ni  Ni20  1  0.390143  0.392491  0.392347  1
  Ni  Ni21  1  0.387837  0.391805  0.826070  1
  Ni  Ni22  1  0.389401  0.825521  0.391431  1
  Ni  Ni23  1  0.826430  0.391532  0.390051  1
