# generated using pymatgen
data_CaEu5(MnN3)2
_symmetry_space_group_name_H-M   'P 1'
_cell_length_a   7.43559711
_cell_length_b   7.38520639
_cell_length_c   5.11724500
_cell_angle_alpha   90.00000000
_cell_angle_beta   90.00000000
_cell_angle_gamma   120.12483227
_symmetry_Int_Tables_number   1
_chemical_formula_structural   CaEu5(MnN3)2
_chemical_formula_sum   'Ca1 Eu5 Mn2 N6'
_cell_volume   243.05113740
_cell_formula_units_Z   1
loop_
 _symmetry_equiv_pos_site_id
 _symmetry_equiv_pos_as_xyz
  1  'x, y, z'
loop_
 _atom_site_type_symbol
 _atom_site_label
 _atom_site_symmetry_multiplicity
 _atom_site_fract_x
 _atom_site_fract_y
 _atom_site_fract_z
 _atom_site_occupancy
  Ca  Ca0  1  0.277305  0.912590  0.750000  1
  Eu  Eu1  1  0.724497  0.089383  0.250000  1
  Eu  Eu2  1  0.637533  0.725154  0.750000  1
  Eu  Eu3  1  0.087155  0.361290  0.750000  1
  Eu  Eu4  1  0.916004  0.643579  0.250000  1
  Eu  Eu5  1  0.359290  0.269185  0.250000  1
  Mn  Mn6  1  0.332850  0.667317  0.250000  1
  Mn  Mn7  1  0.665659  0.331134  0.750000  1
  N  N8  1  0.696022  0.107769  0.750000  1
  N  N9  1  0.586110  0.696708  0.250000  1
  N  N10  1  0.107098  0.413527  0.250000  1
  N  N11  1  0.891161  0.584420  0.750000  1
  N  N12  1  0.414722  0.304668  0.750000  1
  N  N13  1  0.304595  0.893279  0.250000  1
