# generated using pymatgen
data_Tb2Dy10OsRu3
_symmetry_space_group_name_H-M   'P 1'
_cell_length_a   6.31467200
_cell_length_b   7.31948959
_cell_length_c   9.18270500
_cell_angle_alpha   90.00000000
_cell_angle_beta   90.00000000
_cell_angle_gamma   90.05476600
_symmetry_Int_Tables_number   1
_chemical_formula_structural   Tb2Dy10OsRu3
_chemical_formula_sum   'Tb2 Dy10 Os1 Ru3'
_cell_volume   424.42604731
_cell_formula_units_Z   1
loop_
 _symmetry_equiv_pos_site_id
 _symmetry_equiv_pos_as_xyz
  1  'x, y, z'
loop_
 _atom_site_type_symbol
 _atom_site_label
 _atom_site_symmetry_multiplicity
 _atom_site_fract_x
 _atom_site_fract_y
 _atom_site_fract_z
 _atom_site_occupancy
  Tb  Tb0  1  0.866584  0.539742  0.250000  1
  Tb  Tb1  1  0.633510  0.039617  0.250000  1
  Dy  Dy2  1  0.331616  0.676008  0.063255  1
  Dy  Dy3  1  0.169242  0.176286  0.435475  1
  Dy  Dy4  1  0.669626  0.323908  0.564411  1
  Dy  Dy5  1  0.829739  0.823264  0.934966  1
  Dy  Dy6  1  0.669626  0.323908  0.935589  1
  Dy  Dy7  1  0.829739  0.823264  0.565034  1
  Dy  Dy8  1  0.331616  0.676008  0.436745  1
  Dy  Dy9  1  0.169242  0.176286  0.064525  1
  Dy  Dy10  1  0.132640  0.460668  0.750000  1
  Dy  Dy11  1  0.366242  0.961325  0.750000  1
  Os  Os12  1  0.541674  0.615551  0.750000  1
  Ru  Ru13  1  0.040713  0.884600  0.250000  1
  Ru  Ru14  1  0.458937  0.384133  0.250000  1
  Ru  Ru15  1  0.959254  0.115433  0.750000  1
