# generated using pymatgen
data_Sr(CaSb)2
_symmetry_space_group_name_H-M   'P 1'
_cell_length_a   5.14900900
_cell_length_b   5.14900996
_cell_length_c   8.02721100
_cell_angle_alpha   90.00000000
_cell_angle_beta   90.00000000
_cell_angle_gamma   119.99998738
_symmetry_Int_Tables_number   1
_chemical_formula_structural   Sr(CaSb)2
_chemical_formula_sum   'Sr1 Ca2 Sb2'
_cell_volume   184.30738993
_cell_formula_units_Z   1
loop_
 _symmetry_equiv_pos_site_id
 _symmetry_equiv_pos_as_xyz
  1  'x, y, z'
loop_
 _atom_site_type_symbol
 _atom_site_label
 _atom_site_symmetry_multiplicity
 _atom_site_fract_x
 _atom_site_fract_y
 _atom_site_fract_z
 _atom_site_occupancy
  Sr  Sr0  1  0.000000  0.000000  0.000000  1
  Ca  Ca1  1  0.666667  0.333333  0.354011  1
  Ca  Ca2  1  0.333333  0.666667  0.645989  1
  Sb  Sb3  1  0.333333  0.666667  0.237585  1
  Sb  Sb4  1  0.666667  0.333333  0.762415  1
