# generated using pymatgen
data_Dy3Y2Mn(Co3P2)6
_symmetry_space_group_name_H-M   'P 1'
_cell_length_a   12.02189106
_cell_length_b   12.02189041
_cell_length_c   3.67514300
_cell_angle_alpha   90.00000000
_cell_angle_beta   90.00000000
_cell_angle_gamma   119.87000724
_symmetry_Int_Tables_number   1
_chemical_formula_structural   Dy3Y2Mn(Co3P2)6
_chemical_formula_sum   'Dy3 Y2 Mn1 Co18 P12'
_cell_volume   460.59351294
_cell_formula_units_Z   1
loop_
 _symmetry_equiv_pos_site_id
 _symmetry_equiv_pos_as_xyz
  1  'x, y, z'
loop_
 _atom_site_type_symbol
 _atom_site_label
 _atom_site_symmetry_multiplicity
 _atom_site_fract_x
 _atom_site_fract_y
 _atom_site_fract_z
 _atom_site_occupancy
  Dy  Dy0  1  0.186654  0.186654  0.500000  1
  Dy  Dy1  1  0.812109  0.999284  0.500000  1
  Dy  Dy2  1  0.999284  0.812109  0.500000  1
  Y  Y3  1  0.666300  0.333524  0.000000  1
  Y  Y4  1  0.333524  0.666300  0.000000  1
  Mn  Mn5  1  0.557250  0.557250  0.000000  1
  Co  Co6  1  0.447729  0.000043  0.000000  1
  Co  Co7  1  0.000043  0.447729  0.000000  1
  Co  Co8  1  0.822298  0.200713  0.000000  1
  Co  Co9  1  0.801746  0.622355  0.000000  1
  Co  Co10  1  0.377115  0.176705  0.000000  1
  Co  Co11  1  0.200713  0.822298  0.000000  1
  Co  Co12  1  0.622355  0.801746  0.000000  1
  Co  Co13  1  0.176705  0.377115  0.000000  1
  Co  Co14  1  0.641693  0.125027  0.500000  1
  Co  Co15  1  0.875077  0.516005  0.500000  1
  Co  Co16  1  0.482594  0.356745  0.500000  1
  Co  Co17  1  0.125027  0.641693  0.500000  1
  Co  Co18  1  0.516005  0.875077  0.500000  1
  Co  Co19  1  0.356745  0.482594  0.500000  1
  Co  Co20  1  0.716435  0.716435  0.500000  1
  Co  Co21  1  0.284899  0.999509  0.500000  1
  Co  Co22  1  0.999509  0.284899  0.500000  1
  Co  Co23  1  0.000734  0.000734  0.000000  1
  P  P24  1  0.365447  0.365447  0.000000  1
  P  P25  1  0.632494  0.000797  0.000000  1
  P  P26  1  0.000797  0.632494  0.000000  1
  P  P27  1  0.833952  0.314185  0.500000  1
  P  P28  1  0.685903  0.520064  0.500000  1
  P  P29  1  0.479557  0.165039  0.500000  1
  P  P30  1  0.314185  0.833952  0.500000  1
  P  P31  1  0.520064  0.685903  0.500000  1
  P  P32  1  0.165039  0.479557  0.500000  1
  P  P33  1  0.819640  0.819640  0.000000  1
  P  P34  1  0.180837  0.999542  0.000000  1
  P  P35  1  0.999542  0.180837  0.000000  1
