# generated using pymatgen
data_V6Ga4(TcMo)3
_symmetry_space_group_name_H-M   'P 1'
_cell_length_a   4.83292293
_cell_length_b   4.82917080
_cell_length_c   9.71486546
_cell_angle_alpha   89.92392710
_cell_angle_beta   90.02524023
_cell_angle_gamma   90.09928152
_symmetry_Int_Tables_number   1
_chemical_formula_structural   V6Ga4(TcMo)3
_chemical_formula_sum   'V6 Ga4 Tc3 Mo3'
_cell_volume   226.73478268
_cell_formula_units_Z   1
loop_
 _symmetry_equiv_pos_site_id
 _symmetry_equiv_pos_as_xyz
  1  'x, y, z'
loop_
 _atom_site_type_symbol
 _atom_site_label
 _atom_site_symmetry_multiplicity
 _atom_site_fract_x
 _atom_site_fract_y
 _atom_site_fract_z
 _atom_site_occupancy
  V  V0  1  0.997365  0.502171  0.123652  1
  V  V1  1  0.997705  0.499493  0.626020  1
  V  V2  1  0.502553  0.251093  0.999454  1
  V  V3  1  0.504111  0.247921  0.498846  1
  V  V4  1  0.249747  0.998123  0.249924  1
  V  V5  1  0.250750  0.996233  0.752349  1
  Ga  Ga6  1  0.492533  0.495261  0.246354  1
  Ga  Ga7  1  0.492488  0.493847  0.748548  1
  Ga  Ga8  1  0.006569  0.006335  0.002545  1
  Ga  Ga9  1  0.006860  0.005904  0.502821  1
  Tc  Tc10  1  0.997727  0.501188  0.374267  1
  Tc  Tc11  1  0.997603  0.503231  0.875080  1
  Tc  Tc12  1  0.501185  0.752586  0.999654  1
  Mo  Mo13  1  0.501897  0.748593  0.499575  1
  Mo  Mo14  1  0.750729  0.999839  0.249703  1
  Mo  Mo15  1  0.750178  0.998180  0.751205  1
