# generated using pymatgen
data_Hf3Zr3AlCoTe
_symmetry_space_group_name_H-M   'P 1'
_cell_length_a   3.49877600
_cell_length_b   7.83888106
_cell_length_c   7.83910900
_cell_angle_alpha   119.99966576
_cell_angle_beta   90.00000000
_cell_angle_gamma   90.00000000
_symmetry_Int_Tables_number   1
_chemical_formula_structural   Hf3Zr3AlCoTe
_chemical_formula_sum   'Hf3 Zr3 Al1 Co1 Te1'
_cell_volume   186.19542740
_cell_formula_units_Z   1
loop_
 _symmetry_equiv_pos_site_id
 _symmetry_equiv_pos_as_xyz
  1  'x, y, z'
loop_
 _atom_site_type_symbol
 _atom_site_label
 _atom_site_symmetry_multiplicity
 _atom_site_fract_x
 _atom_site_fract_y
 _atom_site_fract_z
 _atom_site_occupancy
  Hf  Hf0  1  0.000000  0.243715  0.006970  1
  Hf  Hf1  1  0.000000  0.763226  0.756271  1
  Hf  Hf2  1  0.000000  0.993026  0.236767  1
  Zr  Zr3  1  0.500000  0.600543  0.004953  1
  Zr  Zr4  1  0.500000  0.404394  0.399444  1
  Zr  Zr5  1  0.500000  0.995034  0.595607  1
  Al  Al6  1  0.000000  0.666647  0.333323  1
  Co  Co7  1  0.500000  0.999990  0.000001  1
  Te  Te8  1  0.000000  0.333325  0.666666  1
