# generated using pymatgen
data_Te4OsWBr8
_symmetry_space_group_name_H-M   'P 1'
_cell_length_a   11.31641667
_cell_length_b   11.26472415
_cell_length_c   11.31697497
_cell_angle_alpha   115.61500152
_cell_angle_beta   115.53719117
_cell_angle_gamma   97.76597150
_symmetry_Int_Tables_number   1
_chemical_formula_structural   Te4OsWBr8
_chemical_formula_sum   'Te8 Os2 W2 Br16'
_cell_volume   1078.25232144
_cell_formula_units_Z   2
loop_
 _symmetry_equiv_pos_site_id
 _symmetry_equiv_pos_as_xyz
  1  'x, y, z'
loop_
 _atom_site_type_symbol
 _atom_site_label
 _atom_site_symmetry_multiplicity
 _atom_site_fract_x
 _atom_site_fract_y
 _atom_site_fract_z
 _atom_site_occupancy
  Te  Te0  1  0.646366  0.683430  0.581003  1
  Te  Te1  1  0.398278  0.026608  0.727740  1
  Te  Te2  1  0.312115  0.898128  0.960408  1
  Te  Te3  1  0.303419  0.678174  0.279296  1
  Te  Te4  1  0.102377  0.059178  0.418584  1
  Te  Te5  1  0.974366  0.700211  0.372153  1
  Te  Te6  1  0.939584  0.360032  0.039803  1
  Te  Te7  1  0.319570  0.595771  0.620950  1
  Os  Os8  1  0.205688  0.852375  0.417311  1
  Os  Os9  1  0.145530  0.566425  0.349806  1
  W  W10  1  0.432900  0.788855  0.584502  1
  W  W11  1  0.208769  0.792342  0.643673  1
  Br  Br12  1  0.710642  0.409527  0.954338  1
  Br  Br13  1  0.116613  0.986425  0.781761  1
  Br  Br14  1  0.952513  0.365024  0.307698  1
  Br  Br15  1  0.589985  0.550157  0.295492  1
  Br  Br16  1  0.534698  0.135961  0.131385  1
  Br  Br17  1  0.608094  0.460673  0.596539  1
  Br  Br18  1  0.018568  0.788906  0.134265  1
  Br  Br19  1  0.052525  0.644981  0.698794  1
  Br  Br20  1  0.449986  0.750940  0.042927  1
  Br  Br21  1  0.643088  0.949099  0.594112  1
  Br  Br22  1  0.212392  0.349221  0.226268  1
  Br  Br23  1  0.358048  0.051538  0.417940  1
  Br  Br24  1  0.659568  0.875516  0.864609  1
  Br  Br25  1  0.241033  0.287372  0.697766  1
  Br  Br26  1  0.864355  0.993017  0.399252  1
  Br  Br27  1  0.998929  0.400114  0.861626  1
