# generated using pymatgen
data_Yb2UP3
_symmetry_space_group_name_H-M   'P 1'
_cell_length_a   7.00206853
_cell_length_b   7.00206798
_cell_length_c   7.00206776
_cell_angle_alpha   146.06408971
_cell_angle_beta   132.30443203
_cell_angle_gamma   59.81906206
_symmetry_Int_Tables_number   1
_chemical_formula_structural   Yb2UP3
_chemical_formula_sum   'Yb2 U1 P3'
_cell_volume   140.44860992
_cell_formula_units_Z   1
loop_
 _symmetry_equiv_pos_site_id
 _symmetry_equiv_pos_as_xyz
  1  'x, y, z'
loop_
 _atom_site_type_symbol
 _atom_site_label
 _atom_site_symmetry_multiplicity
 _atom_site_fract_x
 _atom_site_fract_y
 _atom_site_fract_z
 _atom_site_occupancy
  Yb  Yb0  1  0.668983  0.668983  0.000000  1
  Yb  Yb1  1  0.331017  0.331017  0.000000  1
  U  U2  1  0.000000  0.000000  0.000000  1
  P  P3  1  0.500000  0.000000  0.500000  1
  P  P4  1  0.148673  0.648673  0.500000  1
  P  P5  1  0.851327  0.351327  0.500000  1
