# generated using pymatgen
data_In11AgIr3Ru
_symmetry_space_group_name_H-M   'P 1'
_cell_length_a   7.11363512
_cell_length_b   7.16245252
_cell_length_c   7.21452300
_cell_angle_alpha   90.00000000
_cell_angle_beta   90.00000000
_cell_angle_gamma   89.39808302
_symmetry_Int_Tables_number   1
_chemical_formula_structural   In11AgIr3Ru
_chemical_formula_sum   'In11 Ag1 Ir3 Ru1'
_cell_volume   367.56740956
_cell_formula_units_Z   1
loop_
 _symmetry_equiv_pos_site_id
 _symmetry_equiv_pos_as_xyz
  1  'x, y, z'
loop_
 _atom_site_type_symbol
 _atom_site_label
 _atom_site_symmetry_multiplicity
 _atom_site_fract_x
 _atom_site_fract_y
 _atom_site_fract_z
 _atom_site_occupancy
  In  In0  1  0.501283  0.997267  0.000000  1
  In  In1  1  0.499439  0.001716  0.500000  1
  In  In2  1  0.998686  0.501649  0.000000  1
  In  In3  1  0.340790  0.652121  0.242528  1
  In  In4  1  0.662268  0.352069  0.243793  1
  In  In5  1  0.148366  0.170385  0.730450  1
  In  In6  1  0.849532  0.828472  0.732719  1
  In  In7  1  0.662268  0.352069  0.756207  1
  In  In8  1  0.340790  0.652121  0.757472  1
  In  In9  1  0.849532  0.828472  0.267281  1
  In  In10  1  0.148366  0.170385  0.269550  1
  Ag  Ag11  1  0.003606  0.499142  0.500000  1
  Ir  Ir12  1  0.159522  0.857834  0.500000  1
  Ir  Ir13  1  0.839331  0.141630  0.500000  1
  Ir  Ir14  1  0.344032  0.341685  0.000000  1
  Ru  Ru15  1  0.652190  0.652986  0.000000  1
