# generated using pymatgen
data_Cd2(Ni7P2)3
_symmetry_space_group_name_H-M   'P 1'
_cell_length_a   7.83808772
_cell_length_b   7.83808793
_cell_length_c   7.83808800
_cell_angle_alpha   59.99999969
_cell_angle_beta   59.99999881
_cell_angle_gamma   60.00000008
_symmetry_Int_Tables_number   1
_chemical_formula_structural   Cd2(Ni7P2)3
_chemical_formula_sum   'Cd2 Ni21 P6'
_cell_volume   340.49864112
_cell_formula_units_Z   1
loop_
 _symmetry_equiv_pos_site_id
 _symmetry_equiv_pos_as_xyz
  1  'x, y, z'
loop_
 _atom_site_type_symbol
 _atom_site_label
 _atom_site_symmetry_multiplicity
 _atom_site_fract_x
 _atom_site_fract_y
 _atom_site_fract_z
 _atom_site_occupancy
  Cd  Cd0  1  0.750000  0.750000  0.750000  1
  Cd  Cd1  1  0.250000  0.250000  0.250000  1
  Ni  Ni2  1  0.385444  0.843666  0.385444  1
  Ni  Ni3  1  0.385444  0.385444  0.843666  1
  Ni  Ni4  1  0.347058  0.000000  0.652942  1
  Ni  Ni5  1  0.000000  0.347058  0.652942  1
  Ni  Ni6  1  0.156334  0.614556  0.614556  1
  Ni  Ni7  1  0.652942  0.000000  0.000000  1
  Ni  Ni8  1  0.843666  0.385444  0.385444  1
  Ni  Ni9  1  0.652942  0.347058  0.000000  1
  Ni  Ni10  1  0.000000  0.347058  0.000000  1
  Ni  Ni11  1  0.347058  0.652942  0.000000  1
  Ni  Ni12  1  0.000000  0.000000  0.347058  1
  Ni  Ni13  1  0.614556  0.156334  0.614556  1
  Ni  Ni14  1  0.652942  0.000000  0.347058  1
  Ni  Ni15  1  0.000000  0.652942  0.000000  1
  Ni  Ni16  1  0.614556  0.614556  0.156334  1
  Ni  Ni17  1  0.000000  0.000000  0.000000  1
  Ni  Ni18  1  0.000000  0.652942  0.347058  1
  Ni  Ni19  1  0.347058  0.000000  0.000000  1
  Ni  Ni20  1  0.000000  0.000000  0.652942  1
  Ni  Ni21  1  0.385444  0.385444  0.385444  1
  Ni  Ni22  1  0.614556  0.614556  0.614556  1
  P  P23  1  0.263207  0.263207  0.736793  1
  P  P24  1  0.263207  0.736793  0.263207  1
  P  P25  1  0.736793  0.263207  0.263207  1
  P  P26  1  0.263207  0.736793  0.736793  1
  P  P27  1  0.736793  0.263207  0.736793  1
  P  P28  1  0.736793  0.736793  0.263207  1
