# generated using pymatgen
data_TmPaCdPt2
_symmetry_space_group_name_H-M   'P 1'
_cell_length_a   7.74001300
_cell_length_b   7.87116400
_cell_length_c   3.62260000
_cell_angle_alpha   90.00000000
_cell_angle_beta   90.00000000
_cell_angle_gamma   90.00000000
_symmetry_Int_Tables_number   1
_chemical_formula_structural   TmPaCdPt2
_chemical_formula_sum   'Tm2 Pa2 Cd2 Pt4'
_cell_volume   220.69933987
_cell_formula_units_Z   2
loop_
 _symmetry_equiv_pos_site_id
 _symmetry_equiv_pos_as_xyz
  1  'x, y, z'
loop_
 _atom_site_type_symbol
 _atom_site_label
 _atom_site_symmetry_multiplicity
 _atom_site_fract_x
 _atom_site_fract_y
 _atom_site_fract_z
 _atom_site_occupancy
  Tm  Tm0  1  0.829313  0.670662  0.500000  1
  Tm  Tm1  1  0.670687  0.170662  0.500000  1
  Pa  Pa2  1  0.163882  0.331452  0.500000  1
  Pa  Pa3  1  0.336118  0.831452  0.500000  1
  Cd  Cd4  1  0.508356  0.494530  0.000000  1
  Cd  Cd5  1  0.991644  0.994530  0.000000  1
  Pt  Pt6  1  0.618854  0.870827  0.000000  1
  Pt  Pt7  1  0.145982  0.632528  0.000000  1
  Pt  Pt8  1  0.881146  0.370827  0.000000  1
  Pt  Pt9  1  0.354018  0.132528  0.000000  1
