# generated using pymatgen
data_Ca2NdUN4
_symmetry_space_group_name_H-M   'P 1'
_cell_length_a   6.97452376
_cell_length_b   9.34621350
_cell_length_c   6.22155345
_cell_angle_alpha   28.97689312
_cell_angle_beta   55.90871467
_cell_angle_gamma   41.73423807
_symmetry_Int_Tables_number   1
_chemical_formula_structural   Ca2NdUN4
_chemical_formula_sum   'Ca2 Nd1 U1 N4'
_cell_volume   125.31546501
_cell_formula_units_Z   1
loop_
 _symmetry_equiv_pos_site_id
 _symmetry_equiv_pos_as_xyz
  1  'x, y, z'
loop_
 _atom_site_type_symbol
 _atom_site_label
 _atom_site_symmetry_multiplicity
 _atom_site_fract_x
 _atom_site_fract_y
 _atom_site_fract_z
 _atom_site_occupancy
  Ca  Ca0  1  0.750000  0.500000  0.000000  1
  Ca  Ca1  1  0.500000  0.000000  0.000000  1
  Nd  Nd2  1  0.250000  0.500000  0.000000  1
  U  U3  1  0.000000  0.000000  0.000000  1
  N  N4  1  0.495779  0.500000  0.508441  1
  N  N5  1  0.205461  0.000000  0.589077  1
  N  N6  1  0.004221  0.500000  0.491559  1
  N  N7  1  0.794539  0.000000  0.410923  1
