# generated using pymatgen
data_La2Ti3Co9P7
_symmetry_space_group_name_H-M   'P 1'
_cell_length_a   3.74685300
_cell_length_b   9.23456535
_cell_length_c   9.23456600
_cell_angle_alpha   120.00000232
_cell_angle_beta   90.00000000
_cell_angle_gamma   90.00000000
_symmetry_Int_Tables_number   1
_chemical_formula_structural   La2Ti3Co9P7
_chemical_formula_sum   'La2 Ti3 Co9 P7'
_cell_volume   276.71342189
_cell_formula_units_Z   1
loop_
 _symmetry_equiv_pos_site_id
 _symmetry_equiv_pos_as_xyz
  1  'x, y, z'
loop_
 _atom_site_type_symbol
 _atom_site_label
 _atom_site_symmetry_multiplicity
 _atom_site_fract_x
 _atom_site_fract_y
 _atom_site_fract_z
 _atom_site_occupancy
  La  La0  1  0.000000  0.666667  0.333333  1
  La  La1  1  0.500000  0.333333  0.666667  1
  Ti  Ti2  1  0.500000  0.781271  0.889981  1
  Ti  Ti3  1  0.500000  0.108710  0.218729  1
  Ti  Ti4  1  0.500000  0.110019  0.891290  1
  Co  Co5  1  0.000000  0.572320  0.942256  1
  Co  Co6  1  0.000000  0.369935  0.427680  1
  Co  Co7  1  0.000000  0.057744  0.630065  1
  Co  Co8  1  0.000000  0.879666  0.156559  1
  Co  Co9  1  0.000000  0.276893  0.120334  1
  Co  Co10  1  0.000000  0.843441  0.723107  1
  Co  Co11  1  0.500000  0.949692  0.385139  1
  Co  Co12  1  0.500000  0.435445  0.050308  1
  Co  Co13  1  0.500000  0.614861  0.564555  1
  P  P14  1  0.000000  0.000000  0.000000  1
  P  P15  1  0.500000  0.709185  0.113120  1
  P  P16  1  0.500000  0.403935  0.290815  1
  P  P17  1  0.500000  0.886880  0.596065  1
  P  P18  1  0.000000  0.589118  0.691253  1
  P  P19  1  0.000000  0.102135  0.410882  1
  P  P20  1  0.000000  0.308747  0.897865  1
