# generated using pymatgen
data_LuSnGeRh4
_symmetry_space_group_name_H-M   'P 1'
_cell_length_a   4.26380800
_cell_length_b   9.43608200
_cell_length_c   11.85113500
_cell_angle_alpha   90.00000000
_cell_angle_beta   90.00000000
_cell_angle_gamma   90.00000000
_symmetry_Int_Tables_number   1
_chemical_formula_structural   LuSnGeRh4
_chemical_formula_sum   'Lu4 Sn4 Ge4 Rh16'
_cell_volume   476.81432194
_cell_formula_units_Z   4
loop_
 _symmetry_equiv_pos_site_id
 _symmetry_equiv_pos_as_xyz
  1  'x, y, z'
loop_
 _atom_site_type_symbol
 _atom_site_label
 _atom_site_symmetry_multiplicity
 _atom_site_fract_x
 _atom_site_fract_y
 _atom_site_fract_z
 _atom_site_occupancy
  Lu  Lu0  1  0.250000  0.145229  0.822470  1
  Lu  Lu1  1  0.250000  0.354771  0.322470  1
  Lu  Lu2  1  0.750000  0.854771  0.177530  1
  Lu  Lu3  1  0.750000  0.645229  0.677530  1
  Sn  Sn4  1  0.250000  0.619411  0.059752  1
  Sn  Sn5  1  0.250000  0.880589  0.559752  1
  Sn  Sn6  1  0.750000  0.380589  0.940248  1
  Sn  Sn7  1  0.750000  0.119411  0.440248  1
  Ge  Ge8  1  0.250000  0.418028  0.637421  1
  Ge  Ge9  1  0.250000  0.081972  0.137421  1
  Ge  Ge10  1  0.750000  0.581972  0.362579  1
  Ge  Ge11  1  0.750000  0.918028  0.862579  1
  Rh  Rh12  1  0.250000  0.606303  0.495208  1
  Rh  Rh13  1  0.250000  0.893697  0.995208  1
  Rh  Rh14  1  0.750000  0.393697  0.504792  1
  Rh  Rh15  1  0.750000  0.106303  0.004792  1
  Rh  Rh16  1  0.250000  0.696607  0.275817  1
  Rh  Rh17  1  0.250000  0.803393  0.775817  1
  Rh  Rh18  1  0.750000  0.303393  0.724183  1
  Rh  Rh19  1  0.750000  0.196607  0.224183  1
  Rh  Rh20  1  0.250000  0.178367  0.572581  1
  Rh  Rh21  1  0.250000  0.321633  0.072581  1
  Rh  Rh22  1  0.750000  0.821633  0.427419  1
  Rh  Rh23  1  0.750000  0.678367  0.927419  1
  Rh  Rh24  1  0.250000  0.998023  0.333175  1
  Rh  Rh25  1  0.250000  0.501977  0.833175  1
  Rh  Rh26  1  0.750000  0.001977  0.666825  1
  Rh  Rh27  1  0.750000  0.498023  0.166825  1
