# generated using pymatgen
data_Li(EuIr)2
_symmetry_space_group_name_H-M   'P 1'
_cell_length_a   5.77586320
_cell_length_b   5.77586313
_cell_length_c   5.77586336
_cell_angle_alpha   132.97361070
_cell_angle_beta   126.63750912
_cell_angle_gamma   73.83455053
_symmetry_Int_Tables_number   1
_chemical_formula_structural   Li(EuIr)2
_chemical_formula_sum   'Li1 Eu2 Ir2'
_cell_volume   110.39076820
_cell_formula_units_Z   1
loop_
 _symmetry_equiv_pos_site_id
 _symmetry_equiv_pos_as_xyz
  1  'x, y, z'
loop_
 _atom_site_type_symbol
 _atom_site_label
 _atom_site_symmetry_multiplicity
 _atom_site_fract_x
 _atom_site_fract_y
 _atom_site_fract_z
 _atom_site_occupancy
  Li  Li0  1  0.000000  0.000000  0.000000  1
  Eu  Eu1  1  0.693218  0.193218  0.500000  1
  Eu  Eu2  1  0.306781  0.806782  0.500001  1
  Ir  Ir3  1  0.747771  0.500000  0.247772  1
  Ir  Ir4  1  0.252228  0.500001  0.752228  1
