# generated using pymatgen
data_ScFe4Si8W11C2
_symmetry_space_group_name_H-M   'P 1'
_cell_length_a   7.76206794
_cell_length_b   7.81092242
_cell_length_c   7.81092184
_cell_angle_alpha   60.23256590
_cell_angle_beta   60.20668621
_cell_angle_gamma   60.20668300
_symmetry_Int_Tables_number   1
_chemical_formula_structural   ScFe4Si8W11C2
_chemical_formula_sum   'Sc1 Fe4 Si8 W11 C2'
_cell_volume   336.49532485
_cell_formula_units_Z   1
loop_
 _symmetry_equiv_pos_site_id
 _symmetry_equiv_pos_as_xyz
  1  'x, y, z'
loop_
 _atom_site_type_symbol
 _atom_site_label
 _atom_site_symmetry_multiplicity
 _atom_site_fract_x
 _atom_site_fract_y
 _atom_site_fract_z
 _atom_site_occupancy
  Sc  Sc0  1  0.300695  0.699305  0.699305  1
  Fe  Fe1  1  0.123505  0.131009  0.621982  1
  Fe  Fe2  1  0.123505  0.621982  0.131009  1
  Fe  Fe3  1  0.123654  0.123652  0.123652  1
  Fe  Fe4  1  0.629043  0.123652  0.123652  1
  Si  Si5  1  0.917558  0.250173  0.914713  1
  Si  Si6  1  0.334824  0.999526  0.330824  1
  Si  Si7  1  0.334608  0.334110  0.334110  1
  Si  Si8  1  0.997172  0.334110  0.334110  1
  Si  Si9  1  0.917558  0.914713  0.250173  1
  Si  Si10  1  0.253957  0.916374  0.916374  1
  Si  Si11  1  0.334824  0.330824  0.999526  1
  Si  Si12  1  0.913295  0.916374  0.916374  1
  W  W13  1  0.309069  0.307904  0.692411  1
  W  W14  1  0.557798  0.944785  0.554122  1
  W  W15  1  0.940439  0.559561  0.559561  1
  W  W16  1  0.558126  0.941874  0.941874  1
  W  W17  1  0.693718  0.306282  0.306282  1
  W  W18  1  0.943295  0.554122  0.944785  1
  W  W19  1  0.309069  0.692411  0.307904  1
  W  W20  1  0.557798  0.554122  0.944785  1
  W  W21  1  0.690616  0.307904  0.692411  1
  W  W22  1  0.690616  0.692411  0.307904  1
  W  W23  1  0.943295  0.944785  0.554122  1
  C  C24  1  0.749433  0.750567  0.750567  1
  C  C25  1  0.502531  0.497469  0.497469  1
