# generated using pymatgen
data_Y5Hf4Sc(Si5Ir2)4
_symmetry_space_group_name_H-M   'P 1'
_cell_length_a   12.49994700
_cell_length_b   12.49994700
_cell_length_c   4.17398300
_cell_angle_alpha   90.00000000
_cell_angle_beta   90.00000000
_cell_angle_gamma   90.00000000
_symmetry_Int_Tables_number   1
_chemical_formula_structural   Y5Hf4Sc(Si5Ir2)4
_chemical_formula_sum   'Y5 Hf4 Sc1 Si20 Ir8'
_cell_volume   652.17931323
_cell_formula_units_Z   1
loop_
 _symmetry_equiv_pos_site_id
 _symmetry_equiv_pos_as_xyz
  1  'x, y, z'
loop_
 _atom_site_type_symbol
 _atom_site_label
 _atom_site_symmetry_multiplicity
 _atom_site_fract_x
 _atom_site_fract_y
 _atom_site_fract_z
 _atom_site_occupancy
  Y  Y0  1  0.000000  0.000000  0.000000  1
  Y  Y1  1  0.884253  0.385339  0.500000  1
  Y  Y2  1  0.115747  0.614661  0.500000  1
  Y  Y3  1  0.385339  0.115747  0.500000  1
  Y  Y4  1  0.614661  0.884253  0.500000  1
  Hf  Hf5  1  0.673154  0.175406  0.500000  1
  Hf  Hf6  1  0.326846  0.824594  0.500000  1
  Hf  Hf7  1  0.175406  0.326846  0.500000  1
  Hf  Hf8  1  0.824594  0.673154  0.500000  1
  Sc  Sc9  1  0.500000  0.500000  0.000000  1
  Si  Si10  1  0.566111  0.068035  0.000000  1
  Si  Si11  1  0.433889  0.931965  0.000000  1
  Si  Si12  1  0.068035  0.433889  0.000000  1
  Si  Si13  1  0.931965  0.566111  0.000000  1
  Si  Si14  1  0.664078  0.699952  0.000000  1
  Si  Si15  1  0.335922  0.300048  0.000000  1
  Si  Si16  1  0.164619  0.799535  0.000000  1
  Si  Si17  1  0.835381  0.200465  0.000000  1
  Si  Si18  1  0.300048  0.664078  0.000000  1
  Si  Si19  1  0.699952  0.335922  0.000000  1
  Si  Si20  1  0.200465  0.164619  0.000000  1
  Si  Si21  1  0.799535  0.835381  0.000000  1
  Si  Si22  1  0.650754  0.508587  0.500000  1
  Si  Si23  1  0.349246  0.491413  0.500000  1
  Si  Si24  1  0.157615  0.991860  0.500000  1
  Si  Si25  1  0.842385  0.008140  0.500000  1
  Si  Si26  1  0.491413  0.650754  0.500000  1
  Si  Si27  1  0.508587  0.349246  0.500000  1
  Si  Si28  1  0.008140  0.157615  0.500000  1
  Si  Si29  1  0.991860  0.842385  0.500000  1
  Ir  Ir30  1  0.742722  0.522054  0.000000  1
  Ir  Ir31  1  0.257278  0.477946  0.000000  1
  Ir  Ir32  1  0.246481  0.977561  0.000000  1
  Ir  Ir33  1  0.753519  0.022439  0.000000  1
  Ir  Ir34  1  0.477946  0.742722  0.000000  1
  Ir  Ir35  1  0.522054  0.257278  0.000000  1
  Ir  Ir36  1  0.022439  0.246481  0.000000  1
  Ir  Ir37  1  0.977561  0.753519  0.000000  1
