# generated using pymatgen
data_Tb16Y4Cd3Ru2Au3
_symmetry_space_group_name_H-M   'P 1'
_cell_length_a   9.65408342
_cell_length_b   9.65900327
_cell_length_c   9.65168500
_cell_angle_alpha   90.00000000
_cell_angle_beta   90.00000000
_cell_angle_gamma   120.01686940
_symmetry_Int_Tables_number   1
_chemical_formula_structural   Tb16Y4Cd3Ru2Au3
_chemical_formula_sum   'Tb16 Y4 Cd3 Ru2 Au3'
_cell_volume   779.29749799
_cell_formula_units_Z   1
loop_
 _symmetry_equiv_pos_site_id
 _symmetry_equiv_pos_as_xyz
  1  'x, y, z'
loop_
 _atom_site_type_symbol
 _atom_site_label
 _atom_site_symmetry_multiplicity
 _atom_site_fract_x
 _atom_site_fract_y
 _atom_site_fract_z
 _atom_site_occupancy
  Tb  Tb0  1  0.999862  0.999931  0.459123  1
  Tb  Tb1  1  0.999862  0.999931  0.040877  1
  Tb  Tb2  1  0.209255  0.790579  0.440309  1
  Tb  Tb3  1  0.209255  0.418678  0.440309  1
  Tb  Tb4  1  0.581492  0.790747  0.440333  1
  Tb  Tb5  1  0.791793  0.208236  0.558932  1
  Tb  Tb6  1  0.791793  0.583556  0.558932  1
  Tb  Tb7  1  0.416487  0.208242  0.558867  1
  Tb  Tb8  1  0.791793  0.208236  0.941068  1
  Tb  Tb9  1  0.791793  0.583556  0.941068  1
  Tb  Tb10  1  0.416487  0.208242  0.941133  1
  Tb  Tb11  1  0.209255  0.790579  0.059691  1
  Tb  Tb12  1  0.209255  0.418678  0.059691  1
  Tb  Tb13  1  0.581492  0.790747  0.059667  1
  Tb  Tb14  1  0.540322  0.459920  0.250000  1
  Tb  Tb15  1  0.540322  0.080401  0.250000  1
  Y  Y16  1  0.919573  0.459786  0.250000  1
  Y  Y17  1  0.458333  0.541521  0.750000  1
  Y  Y18  1  0.458333  0.916813  0.750000  1
  Y  Y19  1  0.083113  0.541557  0.750000  1
  Cd  Cd20  1  0.109813  0.890005  0.750000  1
  Cd  Cd21  1  0.109813  0.219807  0.750000  1
  Cd  Cd22  1  0.780102  0.890051  0.750000  1
  Ru  Ru23  1  0.333543  0.666772  0.250000  1
  Ru  Ru24  1  0.666769  0.333384  0.750000  1
  Au  Au25  1  0.869013  0.131051  0.250000  1
  Au  Au26  1  0.869013  0.737962  0.250000  1
  Au  Au27  1  0.262061  0.131031  0.250000  1
