# generated using pymatgen
data_Er3ScAl8
_symmetry_space_group_name_H-M   'P 1'
_cell_length_a   9.49893078
_cell_length_b   9.49893061
_cell_length_c   9.49893030
_cell_angle_alpha   33.62296455
_cell_angle_beta   33.62296915
_cell_angle_gamma   33.62296784
_symmetry_Int_Tables_number   1
_chemical_formula_structural   Er3ScAl8
_chemical_formula_sum   'Er3 Sc1 Al8'
_cell_volume   234.10078493
_cell_formula_units_Z   1
loop_
 _symmetry_equiv_pos_site_id
 _symmetry_equiv_pos_as_xyz
  1  'x, y, z'
loop_
 _atom_site_type_symbol
 _atom_site_label
 _atom_site_symmetry_multiplicity
 _atom_site_fract_x
 _atom_site_fract_y
 _atom_site_fract_z
 _atom_site_occupancy
  Er  Er0  1  0.375087  0.375087  0.375087  1
  Er  Er1  1  0.999026  0.999026  0.999026  1
  Er  Er2  1  0.500771  0.500771  0.500771  1
  Sc  Sc3  1  0.874829  0.874829  0.874829  1
  Al  Al4  1  0.436980  0.935563  0.436980  1
  Al  Al5  1  0.938059  0.439593  0.938059  1
  Al  Al6  1  0.436980  0.436980  0.935563  1
  Al  Al7  1  0.938059  0.938059  0.439593  1
  Al  Al8  1  0.187637  0.187637  0.187637  1
  Al  Al9  1  0.687417  0.687417  0.687417  1
  Al  Al10  1  0.935563  0.436980  0.436980  1
  Al  Al11  1  0.439593  0.938059  0.938059  1
