# generated using pymatgen
data_AcHo6Sn23Ir6
_symmetry_space_group_name_H-M   'P 1'
_cell_length_a   9.89611700
_cell_length_b   9.89611563
_cell_length_c   10.13748000
_cell_angle_alpha   90.00000000
_cell_angle_beta   90.00000000
_cell_angle_gamma   119.99999457
_symmetry_Int_Tables_number   1
_chemical_formula_structural   AcHo6Sn23Ir6
_chemical_formula_sum   'Ac1 Ho6 Sn23 Ir6'
_cell_volume   859.78576022
_cell_formula_units_Z   1
loop_
 _symmetry_equiv_pos_site_id
 _symmetry_equiv_pos_as_xyz
  1  'x, y, z'
loop_
 _atom_site_type_symbol
 _atom_site_label
 _atom_site_symmetry_multiplicity
 _atom_site_fract_x
 _atom_site_fract_y
 _atom_site_fract_z
 _atom_site_occupancy
  Ac  Ac0  1  0.000000  0.000000  0.000000  1
  Ho  Ho1  1  0.519344  0.480656  0.693337  1
  Ho  Ho2  1  0.519344  0.038687  0.693337  1
  Ho  Ho3  1  0.961313  0.480656  0.693337  1
  Ho  Ho4  1  0.038687  0.519344  0.306663  1
  Ho  Ho5  1  0.480656  0.961313  0.306663  1
  Ho  Ho6  1  0.480656  0.519344  0.306663  1
  Sn  Sn7  1  0.666667  0.333333  0.173113  1
  Sn  Sn8  1  0.666667  0.333333  0.876003  1
  Sn  Sn9  1  0.333333  0.666667  0.123997  1
  Sn  Sn10  1  0.354906  0.354906  0.000000  1
  Sn  Sn11  1  0.000000  0.645094  0.000000  1
  Sn  Sn12  1  0.645094  0.000000  0.000000  1
  Sn  Sn13  1  0.645094  0.645094  0.000000  1
  Sn  Sn14  1  0.333333  0.666667  0.826887  1
  Sn  Sn15  1  0.446044  0.223022  0.456233  1
  Sn  Sn16  1  0.223022  0.776978  0.543767  1
  Sn  Sn17  1  0.223022  0.446044  0.543767  1
  Sn  Sn18  1  0.553956  0.776978  0.543767  1
  Sn  Sn19  1  0.120070  0.879930  0.286434  1
  Sn  Sn20  1  0.776978  0.553956  0.456233  1
  Sn  Sn21  1  0.776978  0.223022  0.456233  1
  Sn  Sn22  1  0.354906  0.000000  0.000000  1
  Sn  Sn23  1  0.120070  0.240139  0.286434  1
  Sn  Sn24  1  0.759861  0.879930  0.286434  1
  Sn  Sn25  1  0.240139  0.120070  0.713566  1
  Sn  Sn26  1  0.879930  0.759861  0.713566  1
  Sn  Sn27  1  0.879930  0.120070  0.713566  1
  Sn  Sn28  1  0.000000  0.000000  0.500000  1
  Sn  Sn29  1  0.000000  0.354906  0.000000  1
  Ir  Ir30  1  0.169874  0.830126  0.800336  1
  Ir  Ir31  1  0.169874  0.339747  0.800336  1
  Ir  Ir32  1  0.660253  0.830126  0.800336  1
  Ir  Ir33  1  0.339747  0.169874  0.199664  1
  Ir  Ir34  1  0.830126  0.660253  0.199664  1
  Ir  Ir35  1  0.830126  0.169874  0.199664  1
