# generated using pymatgen
data_TcTeI
_symmetry_space_group_name_H-M   'P 1'
_cell_length_a   10.52523992
_cell_length_b   10.52523968
_cell_length_c   12.36590000
_cell_angle_alpha   90.00000000
_cell_angle_beta   90.00000000
_cell_angle_gamma   107.88694406
_symmetry_Int_Tables_number   1
_chemical_formula_structural   TcTeI
_chemical_formula_sum   'Tc12 Te12 I12'
_cell_volume   1303.68767417
_cell_formula_units_Z   12
loop_
 _symmetry_equiv_pos_site_id
 _symmetry_equiv_pos_as_xyz
  1  'x, y, z'
loop_
 _atom_site_type_symbol
 _atom_site_label
 _atom_site_symmetry_multiplicity
 _atom_site_fract_x
 _atom_site_fract_y
 _atom_site_fract_z
 _atom_site_occupancy
  Tc  Tc0  1  0.361370  0.638630  0.250000  1
  Tc  Tc1  1  0.315734  0.814937  0.110303  1
  Tc  Tc2  1  0.388624  0.889439  0.315945  1
  Tc  Tc3  1  0.638630  0.361370  0.750000  1
  Tc  Tc4  1  0.611376  0.110561  0.815945  1
  Tc  Tc5  1  0.684266  0.185063  0.610303  1
  Tc  Tc6  1  0.814937  0.315734  0.889697  1
  Tc  Tc7  1  0.889439  0.388624  0.684055  1
  Tc  Tc8  1  0.861478  0.138522  0.750000  1
  Tc  Tc9  1  0.110561  0.611376  0.184055  1
  Tc  Tc10  1  0.185063  0.684266  0.389697  1
  Tc  Tc11  1  0.138522  0.861478  0.250000  1
  Te  Te12  1  0.285721  0.563632  0.044384  1
  Te  Te13  1  0.436368  0.714279  0.455616  1
  Te  Te14  1  0.340910  0.066061  0.174814  1
  Te  Te15  1  0.563632  0.285721  0.955616  1
  Te  Te16  1  0.714279  0.436368  0.544384  1
  Te  Te17  1  0.659090  0.933939  0.674814  1
  Te  Te18  1  0.933939  0.659090  0.325186  1
  Te  Te19  1  0.789196  0.067404  0.954570  1
  Te  Te20  1  0.932596  0.210804  0.545430  1
  Te  Te21  1  0.066061  0.340910  0.825186  1
  Te  Te22  1  0.067404  0.789196  0.045430  1
  Te  Te23  1  0.210804  0.932596  0.454570  1
  I  I24  1  0.474905  0.525095  0.750000  1
  I  I25  1  0.425539  0.157965  0.676027  1
  I  I26  1  0.403674  0.886406  0.894307  1
  I  I27  1  0.525095  0.474905  0.250000  1
  I  I28  1  0.596326  0.113594  0.394307  1
  I  I29  1  0.574461  0.842035  0.176027  1
  I  I30  1  0.842035  0.574461  0.823973  1
  I  I31  1  0.886406  0.403674  0.105693  1
  I  I32  1  0.972720  0.027279  0.250000  1
  I  I33  1  0.113594  0.596326  0.605693  1
  I  I34  1  0.027279  0.972720  0.750000  1
  I  I35  1  0.157965  0.425539  0.323973  1
