# generated using pymatgen
data_Tm10FeSb5
_symmetry_space_group_name_H-M   'P 1'
_cell_length_a   7.87675562
_cell_length_b   9.14538700
_cell_length_c   11.82243600
_cell_angle_alpha   90.00000000
_cell_angle_beta   90.06847049
_cell_angle_gamma   90.00000000
_symmetry_Int_Tables_number   1
_chemical_formula_structural   Tm10FeSb5
_chemical_formula_sum   'Tm20 Fe2 Sb10'
_cell_volume   851.64013728
_cell_formula_units_Z   2
loop_
 _symmetry_equiv_pos_site_id
 _symmetry_equiv_pos_as_xyz
  1  'x, y, z'
loop_
 _atom_site_type_symbol
 _atom_site_label
 _atom_site_symmetry_multiplicity
 _atom_site_fract_x
 _atom_site_fract_y
 _atom_site_fract_z
 _atom_site_occupancy
  Tm  Tm0  1  0.431905  0.181538  0.564384  1
  Tm  Tm1  1  0.568231  0.818419  0.064978  1
  Tm  Tm2  1  0.071867  0.727448  0.435214  1
  Tm  Tm3  1  0.928058  0.272501  0.935257  1
  Tm  Tm4  1  0.071867  0.272552  0.435214  1
  Tm  Tm5  1  0.928058  0.727499  0.935257  1
  Tm  Tm6  1  0.431905  0.818462  0.564384  1
  Tm  Tm7  1  0.568231  0.181581  0.064978  1
  Tm  Tm8  1  0.574276  0.500000  0.772808  1
  Tm  Tm9  1  0.426213  0.500000  0.272946  1
  Tm  Tm10  1  0.909466  0.000000  0.204771  1
  Tm  Tm11  1  0.090915  0.000000  0.704125  1
  Tm  Tm12  1  0.263496  0.500000  0.993914  1
  Tm  Tm13  1  0.737407  0.500000  0.494430  1
  Tm  Tm14  1  0.196209  0.000000  0.995908  1
  Tm  Tm15  1  0.803409  0.000000  0.495797  1
  Tm  Tm16  1  0.092209  0.500000  0.716555  1
  Tm  Tm17  1  0.907690  0.500000  0.217248  1
  Tm  Tm18  1  0.370450  0.000000  0.306829  1
  Tm  Tm19  1  0.628288  0.000000  0.807376  1
  Fe  Fe20  1  0.173918  0.000000  0.487563  1
  Fe  Fe21  1  0.826622  0.000000  0.989210  1
  Sb  Sb22  1  0.814957  0.740051  0.671170  1
  Sb  Sb23  1  0.184633  0.260497  0.170646  1
  Sb  Sb24  1  0.680409  0.242726  0.326380  1
  Sb  Sb25  1  0.319249  0.757254  0.826108  1
  Sb  Sb26  1  0.680409  0.757274  0.326380  1
  Sb  Sb27  1  0.319249  0.242746  0.826108  1
  Sb  Sb28  1  0.814957  0.259949  0.671170  1
  Sb  Sb29  1  0.184633  0.739503  0.170646  1
  Sb  Sb30  1  0.345440  0.500000  0.526125  1
  Sb  Sb31  1  0.655371  0.500000  0.026127  1
