# generated using pymatgen
data_TbEr7AsPd24
_symmetry_space_group_name_H-M   'P 1'
_cell_length_a   8.33157904
_cell_length_b   8.33157908
_cell_length_c   8.33157900
_cell_angle_alpha   89.99431965
_cell_angle_beta   89.99431965
_cell_angle_gamma   90.00567979
_symmetry_Int_Tables_number   1
_chemical_formula_structural   TbEr7AsPd24
_chemical_formula_sum   'Tb1 Er7 As1 Pd24'
_cell_volume   578.33829453
_cell_formula_units_Z   1
loop_
 _symmetry_equiv_pos_site_id
 _symmetry_equiv_pos_as_xyz
  1  'x, y, z'
loop_
 _atom_site_type_symbol
 _atom_site_label
 _atom_site_symmetry_multiplicity
 _atom_site_fract_x
 _atom_site_fract_y
 _atom_site_fract_z
 _atom_site_occupancy
  Tb  Tb0  1  0.255089  0.255089  0.744911  1
  Er  Er1  1  0.255424  0.744561  0.255439  1
  Er  Er2  1  0.744561  0.255424  0.255439  1
  Er  Er3  1  0.744561  0.744561  0.744576  1
  Er  Er4  1  0.744600  0.744600  0.255400  1
  Er  Er5  1  0.744486  0.255399  0.744601  1
  Er  Er6  1  0.255399  0.744486  0.744601  1
  Er  Er7  1  0.255399  0.255399  0.255514  1
  As  As8  1  0.000625  0.000625  0.999375  1
  Pd  Pd9  1  0.500875  0.500875  0.747101  1
  Pd  Pd10  1  0.500875  0.252899  0.499125  1
  Pd  Pd11  1  0.252899  0.500875  0.499125  1
  Pd  Pd12  1  0.500158  0.500158  0.252952  1
  Pd  Pd13  1  0.500158  0.747048  0.499842  1
  Pd  Pd14  1  0.747048  0.500158  0.499842  1
  Pd  Pd15  1  0.998952  0.998952  0.712746  1
  Pd  Pd16  1  0.998952  0.287254  0.001048  1
  Pd  Pd17  1  0.287254  0.998952  0.001048  1
  Pd  Pd18  1  0.999848  0.999848  0.286387  1
  Pd  Pd19  1  0.999848  0.713613  0.000152  1
  Pd  Pd20  1  0.713613  0.999848  0.000152  1
  Pd  Pd21  1  0.998964  0.500718  0.740756  1
  Pd  Pd22  1  0.500718  0.259244  0.001036  1
  Pd  Pd23  1  0.259244  0.998964  0.499282  1
  Pd  Pd24  1  0.998964  0.259244  0.499282  1
  Pd  Pd25  1  0.500718  0.998964  0.740756  1
  Pd  Pd26  1  0.259244  0.500718  0.001036  1
  Pd  Pd27  1  0.999882  0.500229  0.259351  1
  Pd  Pd28  1  0.500229  0.740649  0.000118  1
  Pd  Pd29  1  0.999882  0.740649  0.499771  1
  Pd  Pd30  1  0.500229  0.999882  0.259351  1
  Pd  Pd31  1  0.740649  0.999882  0.499771  1
  Pd  Pd32  1  0.740649  0.500229  0.000118  1
