# generated using pymatgen
data_Sr2Y2Si3Ge5N14
_symmetry_space_group_name_H-M   'P 1'
_cell_length_a   6.26268500
_cell_length_b   6.23281696
_cell_length_c   10.08418261
_cell_angle_alpha   90.34344695
_cell_angle_beta   90.00000000
_cell_angle_gamma   120.15864182
_symmetry_Int_Tables_number   1
_chemical_formula_structural   Sr2Y2Si3Ge5N14
_chemical_formula_sum   'Sr2 Y2 Si3 Ge5 N14'
_cell_volume   340.33715259
_cell_formula_units_Z   1
loop_
 _symmetry_equiv_pos_site_id
 _symmetry_equiv_pos_as_xyz
  1  'x, y, z'
loop_
 _atom_site_type_symbol
 _atom_site_label
 _atom_site_symmetry_multiplicity
 _atom_site_fract_x
 _atom_site_fract_y
 _atom_site_fract_z
 _atom_site_occupancy
  Sr  Sr0  1  0.667149  0.334297  0.581227  1
  Sr  Sr1  1  0.333798  0.667597  0.082688  1
  Y  Y2  1  0.668219  0.336437  0.954681  1
  Y  Y3  1  0.332132  0.664264  0.450546  1
  Si  Si4  1  0.827874  0.655750  0.260255  1
  Si  Si5  1  0.998702  0.997403  0.029324  1
  Si  Si6  1  0.997840  0.995680  0.525232  1
  Ge  Ge7  1  0.171115  0.342229  0.760637  1
  Ge  Ge8  1  0.827908  0.173585  0.260662  1
  Ge  Ge9  1  0.345676  0.173585  0.260662  1
  Ge  Ge10  1  0.656685  0.828735  0.760624  1
  Ge  Ge11  1  0.172051  0.828735  0.760624  1
  N  N12  1  0.998714  0.997427  0.843626  1
  N  N13  1  0.993651  0.987301  0.339797  1
  N  N14  1  0.849759  0.699518  0.090310  1
  N  N15  1  0.150950  0.847303  0.579238  1
  N  N16  1  0.696353  0.847303  0.579238  1
  N  N17  1  0.302677  0.152462  0.079478  1
  N  N18  1  0.849784  0.152462  0.079478  1
  N  N19  1  0.150433  0.300865  0.578204  1
  N  N20  1  0.495289  0.504119  0.816066  1
  N  N21  1  0.982163  0.503877  0.312464  1
  N  N22  1  0.504530  0.009059  0.315866  1
  N  N23  1  0.496005  0.992011  0.816185  1
  N  N24  1  0.521715  0.503877  0.312464  1
  N  N25  1  0.008828  0.504119  0.816066  1
