# generated using pymatgen
data_LuSbI18
_symmetry_space_group_name_H-M   'P 1'
_cell_length_a   10.42451397
_cell_length_b   10.42451581
_cell_length_c   10.42451613
_cell_angle_alpha   89.84953504
_cell_angle_beta   89.84952845
_cell_angle_gamma   89.84953568
_symmetry_Int_Tables_number   1
_chemical_formula_structural   LuSbI18
_chemical_formula_sum   'Lu1 Sb1 I18'
_cell_volume   1132.82579247
_cell_formula_units_Z   1
loop_
 _symmetry_equiv_pos_site_id
 _symmetry_equiv_pos_as_xyz
  1  'x, y, z'
loop_
 _atom_site_type_symbol
 _atom_site_label
 _atom_site_symmetry_multiplicity
 _atom_site_fract_x
 _atom_site_fract_y
 _atom_site_fract_z
 _atom_site_occupancy
  Lu  Lu0  1  0.500000  0.500000  0.500000  1
  Sb  Sb1  1  0.000000  0.000000  0.000000  1
  I  I2  1  0.708416  0.988145  0.035312  1
  I  I3  1  0.744700  0.127260  0.605162  1
  I  I4  1  0.035312  0.708416  0.988145  1
  I  I5  1  0.255300  0.872740  0.394838  1
  I  I6  1  0.127260  0.605162  0.744700  1
  I  I7  1  0.011855  0.964688  0.291584  1
  I  I8  1  0.605162  0.744700  0.127260  1
  I  I9  1  0.964688  0.291584  0.011855  1
  I  I10  1  0.872740  0.394838  0.255300  1
  I  I11  1  0.394838  0.255300  0.872740  1
  I  I12  1  0.988145  0.035312  0.708416  1
  I  I13  1  0.291584  0.011855  0.964688  1
  I  I14  1  0.786589  0.524443  0.492304  1
  I  I15  1  0.507696  0.213411  0.475557  1
  I  I16  1  0.475557  0.507696  0.213411  1
  I  I17  1  0.492304  0.786589  0.524443  1
  I  I18  1  0.524443  0.492304  0.786589  1
  I  I19  1  0.213411  0.475557  0.507696  1
