# generated using pymatgen
data_Ba7LaTmUSe12
_symmetry_space_group_name_H-M   'P 1'
_cell_length_a   9.00550101
_cell_length_b   9.00550166
_cell_length_c   9.00550030
_cell_angle_alpha   90.56198495
_cell_angle_beta   90.56198216
_cell_angle_gamma   90.56198591
_symmetry_Int_Tables_number   1
_chemical_formula_structural   Ba7LaTmUSe12
_chemical_formula_sum   'Ba7 La1 Tm1 U1 Se12'
_cell_volume   730.23146976
_cell_formula_units_Z   1
loop_
 _symmetry_equiv_pos_site_id
 _symmetry_equiv_pos_as_xyz
  1  'x, y, z'
loop_
 _atom_site_type_symbol
 _atom_site_label
 _atom_site_symmetry_multiplicity
 _atom_site_fract_x
 _atom_site_fract_y
 _atom_site_fract_z
 _atom_site_occupancy
  Ba  Ba0  1  0.871892  0.623320  0.256186  1
  Ba  Ba1  1  0.256186  0.871892  0.623320  1
  Ba  Ba2  1  0.623320  0.256186  0.871892  1
  Ba  Ba3  1  0.744229  0.126558  0.376987  1
  Ba  Ba4  1  0.376987  0.744229  0.126558  1
  Ba  Ba5  1  0.126558  0.376987  0.744229  1
  Ba  Ba6  1  0.746610  0.746610  0.746610  1
  La  La7  1  0.253293  0.253293  0.253293  1
  Tm  Tm8  1  0.500182  0.500182  0.500182  1
  U  U9  1  0.000807  0.000807  0.000807  1
  Se  Se10  1  0.199334  0.547580  0.408209  1
  Se  Se11  1  0.408209  0.199334  0.547580  1
  Se  Se12  1  0.547580  0.408209  0.199334  1
  Se  Se13  1  0.925521  0.059096  0.702922  1
  Se  Se14  1  0.702922  0.925521  0.059096  1
  Se  Se15  1  0.059096  0.702922  0.925521  1
  Se  Se16  1  0.796922  0.435946  0.577146  1
  Se  Se17  1  0.577146  0.796922  0.435946  1
  Se  Se18  1  0.435946  0.577146  0.796922  1
  Se  Se19  1  0.088938  0.956155  0.302168  1
  Se  Se20  1  0.302168  0.088938  0.956155  1
  Se  Se21  1  0.956155  0.302168  0.088938  1
