# generated using pymatgen
data_TbEr4FeSb2
_symmetry_space_group_name_H-M   'P 1'
_cell_length_a   7.80578300
_cell_length_b   8.75900000
_cell_length_c   12.09303900
_cell_angle_alpha   90.00000000
_cell_angle_beta   90.00000000
_cell_angle_gamma   90.00000000
_symmetry_Int_Tables_number   1
_chemical_formula_structural   TbEr4FeSb2
_chemical_formula_sum   'Tb4 Er16 Fe4 Sb8'
_cell_volume   826.81139538
_cell_formula_units_Z   4
loop_
 _symmetry_equiv_pos_site_id
 _symmetry_equiv_pos_as_xyz
  1  'x, y, z'
loop_
 _atom_site_type_symbol
 _atom_site_label
 _atom_site_symmetry_multiplicity
 _atom_site_fract_x
 _atom_site_fract_y
 _atom_site_fract_z
 _atom_site_occupancy
  Tb  Tb0  1  0.622401  0.750000  0.307104  1
  Tb  Tb1  1  0.122401  0.250000  0.192896  1
  Tb  Tb2  1  0.377599  0.250000  0.692896  1
  Tb  Tb3  1  0.877599  0.750000  0.807104  1
  Er  Er4  1  0.154967  0.750000  0.204088  1
  Er  Er5  1  0.654967  0.250000  0.295912  1
  Er  Er6  1  0.845033  0.250000  0.795912  1
  Er  Er7  1  0.345033  0.750000  0.704088  1
  Er  Er8  1  0.448186  0.750000  0.996176  1
  Er  Er9  1  0.948186  0.250000  0.503824  1
  Er  Er10  1  0.551814  0.250000  0.003824  1
  Er  Er11  1  0.051814  0.750000  0.496176  1
  Er  Er12  1  0.823996  0.964353  0.064250  1
  Er  Er13  1  0.323996  0.035647  0.435750  1
  Er  Er14  1  0.176004  0.464353  0.935750  1
  Er  Er15  1  0.676004  0.535647  0.564250  1
  Er  Er16  1  0.176004  0.035647  0.935750  1
  Er  Er17  1  0.676004  0.964353  0.564250  1
  Er  Er18  1  0.823996  0.535647  0.064250  1
  Er  Er19  1  0.323996  0.464353  0.435750  1
  Fe  Fe20  1  0.429508  0.750000  0.489732  1
  Fe  Fe21  1  0.929508  0.250000  0.010268  1
  Fe  Fe22  1  0.570492  0.250000  0.510268  1
  Fe  Fe23  1  0.070492  0.750000  0.989732  1
  Sb  Sb24  1  0.929658  0.992606  0.328655  1
  Sb  Sb25  1  0.429658  0.007394  0.171345  1
  Sb  Sb26  1  0.070342  0.492606  0.671345  1
  Sb  Sb27  1  0.570342  0.507394  0.828655  1
  Sb  Sb28  1  0.070342  0.007394  0.671345  1
  Sb  Sb29  1  0.570342  0.992606  0.828655  1
  Sb  Sb30  1  0.929658  0.507394  0.328655  1
  Sb  Sb31  1  0.429658  0.492606  0.171345  1
