# generated using pymatgen
data_NdYRe4(SiC)2
_symmetry_space_group_name_H-M   'P 1'
_cell_length_a   5.84412056
_cell_length_b   5.84412054
_cell_length_c   7.28747700
_cell_angle_alpha   90.00000000
_cell_angle_beta   90.00000000
_cell_angle_gamma   139.94570825
_symmetry_Int_Tables_number   1
_chemical_formula_structural   NdYRe4(SiC)2
_chemical_formula_sum   'Nd1 Y1 Re4 Si2 C2'
_cell_volume   160.16698104
_cell_formula_units_Z   1
loop_
 _symmetry_equiv_pos_site_id
 _symmetry_equiv_pos_as_xyz
  1  'x, y, z'
loop_
 _atom_site_type_symbol
 _atom_site_label
 _atom_site_symmetry_multiplicity
 _atom_site_fract_x
 _atom_site_fract_y
 _atom_site_fract_z
 _atom_site_occupancy
  Nd  Nd0  1  0.544434  0.455566  0.250000  1
  Y  Y1  1  0.455814  0.544186  0.750000  1
  Re  Re2  1  0.826817  0.173183  0.059892  1
  Re  Re3  1  0.173497  0.826503  0.936690  1
  Re  Re4  1  0.173497  0.826503  0.563310  1
  Re  Re5  1  0.826817  0.173183  0.440108  1
  Si  Si6  1  0.267693  0.732307  0.250000  1
  Si  Si7  1  0.732692  0.267308  0.750000  1
  C  C8  1  0.999368  0.000632  0.994393  1
  C  C9  1  0.999368  0.000632  0.505607  1
