# generated using pymatgen
data_LiNd2ZnSi4
_symmetry_space_group_name_H-M   'P 1'
_cell_length_a   4.18276353
_cell_length_b   4.19372400
_cell_length_c   8.96579664
_cell_angle_alpha   90.00000000
_cell_angle_beta   103.48923228
_cell_angle_gamma   90.00000000
_symmetry_Int_Tables_number   1
_chemical_formula_structural   LiNd2ZnSi4
_chemical_formula_sum   'Li1 Nd2 Zn1 Si4'
_cell_volume   152.93368177
_cell_formula_units_Z   1
loop_
 _symmetry_equiv_pos_site_id
 _symmetry_equiv_pos_as_xyz
  1  'x, y, z'
loop_
 _atom_site_type_symbol
 _atom_site_label
 _atom_site_symmetry_multiplicity
 _atom_site_fract_x
 _atom_site_fract_y
 _atom_site_fract_z
 _atom_site_occupancy
  Li  Li0  1  0.250082  0.250000  0.500165  1
  Nd  Nd1  1  0.597682  0.250000  0.195363  1
  Nd  Nd2  1  0.403055  0.750000  0.806109  1
  Zn  Zn3  1  0.749600  0.750000  0.499198  1
  Si  Si4  1  0.967773  0.250000  0.935547  1
  Si  Si5  1  0.032092  0.750000  0.064182  1
  Si  Si6  1  0.832912  0.250000  0.665823  1
  Si  Si7  1  0.166806  0.750000  0.333610  1
