# generated using pymatgen
data_AlTlSnSe4
_symmetry_space_group_name_H-M   'P 1'
_cell_length_a   7.37688386
_cell_length_b   8.28130718
_cell_length_c   15.66274900
_cell_angle_alpha   84.45996351
_cell_angle_beta   87.04424017
_cell_angle_gamma   64.86085167
_symmetry_Int_Tables_number   1
_chemical_formula_structural   AlTlSnSe4
_chemical_formula_sum   'Al4 Tl4 Sn4 Se16'
_cell_volume   862.10272554
_cell_formula_units_Z   4
loop_
 _symmetry_equiv_pos_site_id
 _symmetry_equiv_pos_as_xyz
  1  'x, y, z'
loop_
 _atom_site_type_symbol
 _atom_site_label
 _atom_site_symmetry_multiplicity
 _atom_site_fract_x
 _atom_site_fract_y
 _atom_site_fract_z
 _atom_site_occupancy
  Al  Al0  1  0.005329  0.232913  0.239638  1
  Al  Al1  1  0.513199  0.251209  0.263754  1
  Al  Al2  1  0.486811  0.748788  0.736247  1
  Al  Al3  1  0.994667  0.767095  0.760362  1
  Tl  Tl4  1  0.059545  0.788791  0.144096  1
  Tl  Tl5  1  0.344688  0.808657  0.491406  1
  Tl  Tl6  1  0.655283  0.191346  0.508600  1
  Tl  Tl7  1  0.940473  0.211213  0.855901  1
  Sn  Sn8  1  0.356667  0.169118  0.062899  1
  Sn  Sn9  1  0.073878  0.495832  0.391278  1
  Sn  Sn10  1  0.926105  0.504175  0.608722  1
  Sn  Sn11  1  0.643335  0.830885  0.937101  1
  Se  Se12  1  0.987037  0.237749  0.085013  1
  Se  Se13  1  0.580398  0.831757  0.101890  1
  Se  Se14  1  0.473957  0.387736  0.119262  1
  Se  Se15  1  0.845895  0.545954  0.266746  1
  Se  Se16  1  0.334052  0.072320  0.297134  1
  Se  Se17  1  0.845753  0.054304  0.306427  1
  Se  Se18  1  0.406121  0.510347  0.349718  1
  Se  Se19  1  0.894563  0.756992  0.491354  1
  Se  Se20  1  0.105432  0.242999  0.508631  1
  Se  Se21  1  0.593887  0.489644  0.650287  1
  Se  Se22  1  0.154255  0.945695  0.693573  1
  Se  Se23  1  0.665943  0.927689  0.702866  1
  Se  Se24  1  0.154107  0.454036  0.733258  1
  Se  Se25  1  0.526044  0.612265  0.880739  1
  Se  Se26  1  0.419604  0.168246  0.898110  1
  Se  Se27  1  0.012969  0.762245  0.914987  1
