# generated using pymatgen
data_Sr4SmGdTa2O12
_symmetry_space_group_name_H-M   'P 1'
_cell_length_a   5.99675817
_cell_length_b   5.88332707
_cell_length_c   10.21656530
_cell_angle_alpha   55.09919200
_cell_angle_beta   89.97509661
_cell_angle_gamma   89.97707343
_symmetry_Int_Tables_number   1
_chemical_formula_structural   Sr4SmGdTa2O12
_chemical_formula_sum   'Sr4 Sm1 Gd1 Ta2 O12'
_cell_volume   295.62040305
_cell_formula_units_Z   1
loop_
 _symmetry_equiv_pos_site_id
 _symmetry_equiv_pos_as_xyz
  1  'x, y, z'
loop_
 _atom_site_type_symbol
 _atom_site_label
 _atom_site_symmetry_multiplicity
 _atom_site_fract_x
 _atom_site_fract_y
 _atom_site_fract_z
 _atom_site_occupancy
  Sr  Sr0  1  0.458561  0.257879  0.752150  1
  Sr  Sr1  1  0.959334  0.738822  0.750922  1
  Sr  Sr2  1  0.040666  0.261178  0.249078  1
  Sr  Sr3  1  0.541439  0.742121  0.247850  1
  Sm  Sm4  1  0.500000  0.000000  0.500000  1
  Gd  Gd5  1  0.000000  0.000000  0.000000  1
  Ta  Ta6  1  0.500000  0.500000  0.000000  1
  Ta  Ta7  1  0.000000  0.500000  0.500000  1
  O  O8  1  0.725666  0.636893  0.550172  1
  O  O9  1  0.226300  0.358977  0.950804  1
  O  O10  1  0.274334  0.363107  0.449828  1
  O  O11  1  0.773700  0.641023  0.049196  1
  O  O12  1  0.190680  0.729366  0.544619  1
  O  O13  1  0.693719  0.270046  0.956366  1
  O  O14  1  0.809320  0.270634  0.455381  1
  O  O15  1  0.306281  0.729954  0.043634  1
  O  O16  1  0.029426  0.180025  0.732604  1
  O  O17  1  0.529853  0.819317  0.769243  1
  O  O18  1  0.970574  0.819975  0.267396  1
  O  O19  1  0.470147  0.180683  0.230757  1
