# generated using pymatgen
data_TbTh(FeBr)2
_symmetry_space_group_name_H-M   'P 1'
_cell_length_a   3.98695100
_cell_length_b   3.98695138
_cell_length_c   11.53339000
_cell_angle_alpha   90.00000000
_cell_angle_beta   90.00000000
_cell_angle_gamma   120.00000514
_symmetry_Int_Tables_number   1
_chemical_formula_structural   TbTh(FeBr)2
_chemical_formula_sum   'Tb1 Th1 Fe2 Br2'
_cell_volume   158.77035829
_cell_formula_units_Z   1
loop_
 _symmetry_equiv_pos_site_id
 _symmetry_equiv_pos_as_xyz
  1  'x, y, z'
loop_
 _atom_site_type_symbol
 _atom_site_label
 _atom_site_symmetry_multiplicity
 _atom_site_fract_x
 _atom_site_fract_y
 _atom_site_fract_z
 _atom_site_occupancy
  Tb  Tb0  1  0.000000  0.000000  0.831096  1
  Th  Th1  1  0.000000  0.000000  0.158452  1
  Fe  Fe2  1  0.666666  0.333333  0.006864  1
  Fe  Fe3  1  0.333333  0.666666  0.993094  1
  Br  Br4  1  0.333333  0.666666  0.343460  1
  Br  Br5  1  0.666666  0.333333  0.667034  1
