# generated using pymatgen
data_NdTiP7Ru12
_symmetry_space_group_name_H-M   'P 1'
_cell_length_a   9.41816000
_cell_length_b   9.41815879
_cell_length_c   3.91598300
_cell_angle_alpha   90.00000000
_cell_angle_beta   90.00000000
_cell_angle_gamma   120.00000330
_symmetry_Int_Tables_number   1
_chemical_formula_structural   NdTiP7Ru12
_chemical_formula_sum   'Nd1 Ti1 P7 Ru12'
_cell_volume   300.81777016
_cell_formula_units_Z   1
loop_
 _symmetry_equiv_pos_site_id
 _symmetry_equiv_pos_as_xyz
  1  'x, y, z'
loop_
 _atom_site_type_symbol
 _atom_site_label
 _atom_site_symmetry_multiplicity
 _atom_site_fract_x
 _atom_site_fract_y
 _atom_site_fract_z
 _atom_site_occupancy
  Nd  Nd0  1  0.333333  0.666667  0.000000  1
  Ti  Ti1  1  0.666667  0.333333  0.500000  1
  P  P2  1  0.603527  0.719125  0.500000  1
  P  P3  1  0.000000  0.000000  0.000000  1
  P  P4  1  0.280875  0.884402  0.500000  1
  P  P5  1  0.115598  0.396473  0.500000  1
  P  P6  1  0.884707  0.570200  0.000000  1
  P  P7  1  0.429800  0.314507  0.000000  1
  P  P8  1  0.685493  0.115293  0.000000  1
  Ru  Ru9  1  0.560953  0.959997  0.500000  1
  Ru  Ru10  1  0.399043  0.439047  0.500000  1
  Ru  Ru11  1  0.913458  0.120243  0.500000  1
  Ru  Ru12  1  0.206785  0.086542  0.500000  1
  Ru  Ru13  1  0.879757  0.793215  0.500000  1
  Ru  Ru14  1  0.726816  0.889897  0.000000  1
  Ru  Ru15  1  0.110103  0.836918  0.000000  1
  Ru  Ru16  1  0.163082  0.273184  0.000000  1
  Ru  Ru17  1  0.428117  0.076966  0.000000  1
  Ru  Ru18  1  0.923034  0.351152  0.000000  1
  Ru  Ru19  1  0.648848  0.571883  0.000000  1
  Ru  Ru20  1  0.040003  0.600957  0.500000  1
