# generated using pymatgen
data_Er5(SiBi)2
_symmetry_space_group_name_H-M   'P 1'
_cell_length_a   8.58380527
_cell_length_b   8.58380502
_cell_length_c   7.86276300
_cell_angle_alpha   90.00000000
_cell_angle_beta   90.00000000
_cell_angle_gamma   125.59586558
_symmetry_Int_Tables_number   1
_chemical_formula_structural   Er5(SiBi)2
_chemical_formula_sum   'Er10 Si4 Bi4'
_cell_volume   471.08761622
_cell_formula_units_Z   2
loop_
 _symmetry_equiv_pos_site_id
 _symmetry_equiv_pos_as_xyz
  1  'x, y, z'
loop_
 _atom_site_type_symbol
 _atom_site_label
 _atom_site_symmetry_multiplicity
 _atom_site_fract_x
 _atom_site_fract_y
 _atom_site_fract_z
 _atom_site_occupancy
  Er  Er0  1  0.042344  0.286096  0.336230  1
  Er  Er1  1  0.957656  0.713904  0.663770  1
  Er  Er2  1  0.457656  0.213904  0.836230  1
  Er  Er3  1  0.786096  0.542344  0.163770  1
  Er  Er4  1  0.542344  0.786096  0.163770  1
  Er  Er5  1  0.213904  0.457656  0.836230  1
  Er  Er6  1  0.713904  0.957656  0.663770  1
  Er  Er7  1  0.286096  0.042344  0.336230  1
  Er  Er8  1  0.000000  0.000000  0.000000  1
  Er  Er9  1  0.500000  0.500000  0.500000  1
  Si  Si10  1  0.364981  0.364981  0.133887  1
  Si  Si11  1  0.635019  0.635019  0.866113  1
  Si  Si12  1  0.135019  0.135019  0.633887  1
  Si  Si13  1  0.864981  0.864981  0.366113  1
  Bi  Bi14  1  0.792805  0.207195  0.000000  1
  Bi  Bi15  1  0.207196  0.792805  0.000000  1
  Bi  Bi16  1  0.707195  0.292805  0.500000  1
  Bi  Bi17  1  0.292805  0.707195  0.500000  1
