# generated using pymatgen
data_YbDy2Ho(Pt2O7)2
_symmetry_space_group_name_H-M   'P 1'
_cell_length_a   7.26714709
_cell_length_b   7.26304663
_cell_length_c   7.25967417
_cell_angle_alpha   59.95924950
_cell_angle_beta   59.96594236
_cell_angle_gamma   59.98132123
_symmetry_Int_Tables_number   1
_chemical_formula_structural   YbDy2Ho(Pt2O7)2
_chemical_formula_sum   'Yb1 Dy2 Ho1 Pt4 O14'
_cell_volume   270.75586347
_cell_formula_units_Z   1
loop_
 _symmetry_equiv_pos_site_id
 _symmetry_equiv_pos_as_xyz
  1  'x, y, z'
loop_
 _atom_site_type_symbol
 _atom_site_label
 _atom_site_symmetry_multiplicity
 _atom_site_fract_x
 _atom_site_fract_y
 _atom_site_fract_z
 _atom_site_occupancy
  Yb  Yb0  1  0.625000  0.625000  0.125000  1
  Dy  Dy1  1  0.625000  0.625000  0.625000  1
  Dy  Dy2  1  0.125000  0.625000  0.625000  1
  Ho  Ho3  1  0.625000  0.125000  0.625000  1
  Pt  Pt4  1  0.125000  0.125000  0.125000  1
  Pt  Pt5  1  0.625000  0.125000  0.125000  1
  Pt  Pt6  1  0.125000  0.625000  0.125000  1
  Pt  Pt7  1  0.125000  0.125000  0.625000  1
  O  O8  1  0.035523  0.464081  0.464872  1
  O  O9  1  0.788166  0.787986  0.216038  1
  O  O10  1  0.787845  0.207692  0.216619  1
  O  O11  1  0.464265  0.035596  0.465233  1
  O  O12  1  0.751827  0.753394  0.742953  1
  O  O13  1  0.034905  0.035596  0.465233  1
  O  O14  1  0.042190  0.462014  0.033962  1
  O  O15  1  0.785735  0.214404  0.784767  1
  O  O16  1  0.207810  0.787986  0.216038  1
  O  O17  1  0.215095  0.214404  0.784767  1
  O  O18  1  0.498173  0.496606  0.507047  1
  O  O19  1  0.462155  0.042308  0.033381  1
  O  O20  1  0.461834  0.462014  0.033962  1
  O  O21  1  0.214477  0.785919  0.785128  1
