# generated using pymatgen
data_Ta4S9I8
_symmetry_space_group_name_H-M   'P 1'
_cell_length_a   10.66737991
_cell_length_b   10.66738105
_cell_length_c   10.66738005
_cell_angle_alpha   97.90394232
_cell_angle_beta   97.90393987
_cell_angle_gamma   136.46674088
_symmetry_Int_Tables_number   1
_chemical_formula_structural   Ta4S9I8
_chemical_formula_sum   'Ta4 S9 I8'
_cell_volume   776.47486652
_cell_formula_units_Z   1
loop_
 _symmetry_equiv_pos_site_id
 _symmetry_equiv_pos_as_xyz
  1  'x, y, z'
loop_
 _atom_site_type_symbol
 _atom_site_label
 _atom_site_symmetry_multiplicity
 _atom_site_fract_x
 _atom_site_fract_y
 _atom_site_fract_z
 _atom_site_occupancy
  Ta  Ta0  1  0.230515  0.063462  0.167054  1
  Ta  Ta1  1  0.063462  0.896408  0.832946  1
  Ta  Ta2  1  0.896408  0.063462  0.832946  1
  Ta  Ta3  1  0.063462  0.230515  0.167054  1
  S  S4  1  0.887371  0.887371  0.639504  1
  S  S5  1  0.247866  0.887371  0.000000  1
  S  S6  1  0.247866  0.247866  0.360496  1
  S  S7  1  0.723109  0.971774  0.000000  1
  S  S8  1  0.160921  0.160921  0.000000  1
  S  S9  1  0.723109  0.723109  0.751334  1
  S  S10  1  0.971774  0.971774  0.248666  1
  S  S11  1  0.887371  0.247866  0.000000  1
  S  S12  1  0.971774  0.723109  0.000000  1
  I  I13  1  0.176993  0.395822  0.781171  1
  I  I14  1  0.614652  0.395822  0.218829  1
  I  I15  1  0.269648  0.923416  0.346233  1
  I  I16  1  0.395822  0.614652  0.218829  1
  I  I17  1  0.923416  0.577183  0.653767  1
  I  I18  1  0.577183  0.923416  0.653767  1
  I  I19  1  0.395822  0.176993  0.781171  1
  I  I20  1  0.923416  0.269648  0.346233  1
