# generated using pymatgen
data_YTm(ZrPt)2
_symmetry_space_group_name_H-M   'P 1'
_cell_length_a   4.68967500
_cell_length_b   7.09604900
_cell_length_c   8.23582600
_cell_angle_alpha   90.00000000
_cell_angle_beta   90.00000000
_cell_angle_gamma   90.00000000
_symmetry_Int_Tables_number   1
_chemical_formula_structural   YTm(ZrPt)2
_chemical_formula_sum   'Y2 Tm2 Zr4 Pt4'
_cell_volume   274.07316496
_cell_formula_units_Z   2
loop_
 _symmetry_equiv_pos_site_id
 _symmetry_equiv_pos_as_xyz
  1  'x, y, z'
loop_
 _atom_site_type_symbol
 _atom_site_label
 _atom_site_symmetry_multiplicity
 _atom_site_fract_x
 _atom_site_fract_y
 _atom_site_fract_z
 _atom_site_occupancy
  Y  Y0  1  0.750000  0.015298  0.678551  1
  Y  Y1  1  0.750000  0.515298  0.821449  1
  Tm  Tm2  1  0.250000  0.983513  0.321344  1
  Tm  Tm3  1  0.250000  0.483513  0.178656  1
  Zr  Zr4  1  0.250000  0.850900  0.922250  1
  Zr  Zr5  1  0.250000  0.350900  0.577750  1
  Zr  Zr6  1  0.750000  0.149156  0.080970  1
  Zr  Zr7  1  0.750000  0.649156  0.419030  1
  Pt  Pt8  1  0.250000  0.230186  0.907818  1
  Pt  Pt9  1  0.250000  0.730186  0.592182  1
  Pt  Pt10  1  0.750000  0.770949  0.096245  1
  Pt  Pt11  1  0.750000  0.270949  0.403755  1
