# generated using pymatgen
data_Ho3ErAl2(HgPt2)2
_symmetry_space_group_name_H-M   'P 1'
_cell_length_a   4.19993500
_cell_length_b   7.13011401
_cell_length_c   8.40065600
_cell_angle_alpha   93.69178875
_cell_angle_beta   90.00000000
_cell_angle_gamma   90.00000000
_symmetry_Int_Tables_number   1
_chemical_formula_structural   Ho3ErAl2(HgPt2)2
_chemical_formula_sum   'Ho3 Er1 Al2 Hg2 Pt4'
_cell_volume   251.04413790
_cell_formula_units_Z   1
loop_
 _symmetry_equiv_pos_site_id
 _symmetry_equiv_pos_as_xyz
  1  'x, y, z'
loop_
 _atom_site_type_symbol
 _atom_site_label
 _atom_site_symmetry_multiplicity
 _atom_site_fract_x
 _atom_site_fract_y
 _atom_site_fract_z
 _atom_site_occupancy
  Ho  Ho0  1  0.250000  0.459528  0.186518  1
  Ho  Ho1  1  0.750000  0.540719  0.813349  1
  Ho  Ho2  1  0.750000  0.036932  0.684405  1
  Er  Er3  1  0.250000  0.962328  0.315712  1
  Al  Al4  1  0.750000  0.637422  0.439044  1
  Al  Al5  1  0.250000  0.362253  0.560574  1
  Hg  Hg6  1  0.250000  0.853323  0.933556  1
  Hg  Hg7  1  0.750000  0.146166  0.066896  1
  Pt  Pt8  1  0.250000  0.733763  0.595636  1
  Pt  Pt9  1  0.750000  0.266100  0.403575  1
  Pt  Pt10  1  0.750000  0.732254  0.150412  1
  Pt  Pt11  1  0.250000  0.269216  0.850321  1
