# generated using pymatgen
data_Pr8Si11GeIr4
_symmetry_space_group_name_H-M   'P 1'
_cell_length_a   8.30254589
_cell_length_b   8.30254740
_cell_length_c   8.56196130
_cell_angle_alpha   89.97365520
_cell_angle_beta   90.02634521
_cell_angle_gamma   120.12153131
_symmetry_Int_Tables_number   1
_chemical_formula_structural   Pr8Si11GeIr4
_chemical_formula_sum   'Pr8 Si11 Ge1 Ir4'
_cell_volume   510.49715421
_cell_formula_units_Z   1
loop_
 _symmetry_equiv_pos_site_id
 _symmetry_equiv_pos_as_xyz
  1  'x, y, z'
loop_
 _atom_site_type_symbol
 _atom_site_label
 _atom_site_symmetry_multiplicity
 _atom_site_fract_x
 _atom_site_fract_y
 _atom_site_fract_z
 _atom_site_occupancy
  Pr  Pr0  1  0.500833  0.499167  0.748481  1
  Pr  Pr1  1  0.501367  0.498633  0.250894  1
  Pr  Pr2  1  0.001427  0.500661  0.749844  1
  Pr  Pr3  1  0.000087  0.500223  0.250377  1
  Pr  Pr4  1  0.499339  0.998573  0.749844  1
  Pr  Pr5  1  0.499777  0.999913  0.250377  1
  Pr  Pr6  1  0.000582  0.999418  0.748706  1
  Pr  Pr7  1  0.000599  0.999401  0.251317  1
  Si  Si8  1  0.166141  0.833859  0.000031  1
  Si  Si9  1  0.332765  0.166453  0.000138  1
  Si  Si10  1  0.167053  0.832947  0.500464  1
  Si  Si11  1  0.661985  0.826151  0.999511  1
  Si  Si12  1  0.833087  0.166913  0.500213  1
  Si  Si13  1  0.833547  0.667235  0.000138  1
  Si  Si14  1  0.665996  0.832944  0.499937  1
  Si  Si15  1  0.173849  0.338015  0.999511  1
  Si  Si16  1  0.333990  0.167007  0.499723  1
  Si  Si17  1  0.167056  0.334004  0.499937  1
  Si  Si18  1  0.832993  0.666010  0.499723  1
  Ge  Ge19  1  0.834014  0.165986  0.000814  1
  Ir  Ir20  1  0.661849  0.338151  0.998448  1
  Ir  Ir21  1  0.331803  0.668197  0.001494  1
  Ir  Ir22  1  0.332963  0.667037  0.498730  1
  Ir  Ir23  1  0.666901  0.333099  0.501349  1
