# generated using pymatgen
data_TbTm15MgNi4Ag3
_symmetry_space_group_name_H-M   'P 1'
_cell_length_a   9.34018946
_cell_length_b   9.36338932
_cell_length_c   9.36338900
_cell_angle_alpha   60.00000466
_cell_angle_beta   59.91780470
_cell_angle_gamma   59.91779861
_symmetry_Int_Tables_number   1
_chemical_formula_structural   TbTm15MgNi4Ag3
_chemical_formula_sum   'Tb1 Tm15 Mg1 Ni4 Ag3'
_cell_volume   578.31725810
_cell_formula_units_Z   1
loop_
 _symmetry_equiv_pos_site_id
 _symmetry_equiv_pos_as_xyz
  1  'x, y, z'
loop_
 _atom_site_type_symbol
 _atom_site_label
 _atom_site_symmetry_multiplicity
 _atom_site_fract_x
 _atom_site_fract_y
 _atom_site_fract_z
 _atom_site_occupancy
  Tb  Tb0  1  0.193797  0.602067  0.602067  1
  Tm  Tm1  1  0.183448  0.815125  0.815125  1
  Tm  Tm2  1  0.813163  0.185833  0.185833  1
  Tm  Tm3  1  0.813163  0.185833  0.815171  1
  Tm  Tm4  1  0.183448  0.815125  0.186302  1
  Tm  Tm5  1  0.813163  0.815171  0.185833  1
  Tm  Tm6  1  0.183448  0.186302  0.815125  1
  Tm  Tm7  1  0.059012  0.439986  0.439986  1
  Tm  Tm8  1  0.435882  0.062895  0.062895  1
  Tm  Tm9  1  0.435882  0.062895  0.438328  1
  Tm  Tm10  1  0.059012  0.439986  0.061017  1
  Tm  Tm11  1  0.435882  0.438328  0.062895  1
  Tm  Tm12  1  0.059012  0.061017  0.439986  1
  Tm  Tm13  1  0.599566  0.597416  0.597416  1
  Tm  Tm14  1  0.599566  0.597416  0.205602  1
  Tm  Tm15  1  0.599566  0.205602  0.597416  1
  Mg  Mg16  1  0.538021  0.820660  0.820660  1
  Ni  Ni17  1  0.391757  0.392987  0.392987  1
  Ni  Ni18  1  0.391757  0.392987  0.822271  1
  Ni  Ni19  1  0.391757  0.822271  0.392987  1
  Ni  Ni20  1  0.822732  0.392423  0.392423  1
  Ag  Ag21  1  0.832322  0.834369  0.834369  1
  Ag  Ag22  1  0.832322  0.834369  0.498942  1
  Ag  Ag23  1  0.832322  0.498942  0.834369  1
