# generated using pymatgen
data_K3Pa3(BO6)2
_symmetry_space_group_name_H-M   'P 1'
_cell_length_a   9.45672300
_cell_length_b   9.45672294
_cell_length_c   4.28802100
_cell_angle_alpha   90.00000000
_cell_angle_beta   90.00000000
_cell_angle_gamma   120.00000370
_symmetry_Int_Tables_number   1
_chemical_formula_structural   K3Pa3(BO6)2
_chemical_formula_sum   'K3 Pa3 B2 O12'
_cell_volume   332.09998257
_cell_formula_units_Z   1
loop_
 _symmetry_equiv_pos_site_id
 _symmetry_equiv_pos_as_xyz
  1  'x, y, z'
loop_
 _atom_site_type_symbol
 _atom_site_label
 _atom_site_symmetry_multiplicity
 _atom_site_fract_x
 _atom_site_fract_y
 _atom_site_fract_z
 _atom_site_occupancy
  K  K0  1  0.404759  0.000000  0.500000  1
  K  K1  1  0.595241  0.595241  0.500000  1
  K  K2  1  0.000000  0.404759  0.500000  1
  Pa  Pa3  1  0.746834  0.000000  0.000000  1
  Pa  Pa4  1  0.253166  0.253166  0.000000  1
  Pa  Pa5  1  0.000000  0.746834  0.000000  1
  B  B6  1  0.666667  0.333333  0.000000  1
  B  B7  1  0.333333  0.666667  0.000000  1
  O  O8  1  0.189499  0.671599  0.000000  1
  O  O9  1  0.671599  0.189499  0.000000  1
  O  O10  1  0.810501  0.482100  0.000000  1
  O  O11  1  0.517900  0.328401  0.000000  1
  O  O12  1  0.328401  0.517900  0.000000  1
  O  O13  1  0.482100  0.810501  0.000000  1
  O  O14  1  0.733356  0.000000  0.500000  1
  O  O15  1  0.266644  0.266644  0.500000  1
  O  O16  1  0.000000  0.733356  0.500000  1
  O  O17  1  0.195309  0.000000  0.000000  1
  O  O18  1  0.804691  0.804691  0.000000  1
  O  O19  1  0.000000  0.195309  0.000000  1
