# generated using pymatgen
data_Nd2GaNiI2
_symmetry_space_group_name_H-M   'P 1'
_cell_length_a   4.23613100
_cell_length_b   4.23613070
_cell_length_c   12.29056000
_cell_angle_alpha   90.00000000
_cell_angle_beta   90.00000000
_cell_angle_gamma   119.99999455
_symmetry_Int_Tables_number   1
_chemical_formula_structural   Nd2GaNiI2
_chemical_formula_sum   'Nd2 Ga1 Ni1 I2'
_cell_volume   191.00338318
_cell_formula_units_Z   1
loop_
 _symmetry_equiv_pos_site_id
 _symmetry_equiv_pos_as_xyz
  1  'x, y, z'
loop_
 _atom_site_type_symbol
 _atom_site_label
 _atom_site_symmetry_multiplicity
 _atom_site_fract_x
 _atom_site_fract_y
 _atom_site_fract_z
 _atom_site_occupancy
  Nd  Nd0  1  0.000000  0.000000  0.841704  1
  Nd  Nd1  1  0.000000  0.000000  0.159280  1
  Ga  Ga2  1  0.666667  0.333333  0.002498  1
  Ni  Ni3  1  0.333333  0.666667  0.997356  1
  I  I4  1  0.666667  0.333333  0.664341  1
  I  I5  1  0.333333  0.666667  0.334822  1
