# generated using pymatgen
data_BeFe4SiB2
_symmetry_space_group_name_H-M   'P 1'
_cell_length_a   5.36128815
_cell_length_b   5.36128845
_cell_length_c   6.35426886
_cell_angle_alpha   114.95238594
_cell_angle_beta   114.95239270
_cell_angle_gamma   90.00000340
_symmetry_Int_Tables_number   1
_chemical_formula_structural   BeFe4SiB2
_chemical_formula_sum   'Be2 Fe8 Si2 B4'
_cell_volume   146.57739850
_cell_formula_units_Z   2
loop_
 _symmetry_equiv_pos_site_id
 _symmetry_equiv_pos_as_xyz
  1  'x, y, z'
loop_
 _atom_site_type_symbol
 _atom_site_label
 _atom_site_symmetry_multiplicity
 _atom_site_fract_x
 _atom_site_fract_y
 _atom_site_fract_z
 _atom_site_occupancy
  Be  Be0  1  0.500000  0.500000  0.000000  1
  Be  Be1  1  0.000000  0.000000  0.000000  1
  Fe  Fe2  1  0.042129  0.542129  0.736878  1
  Fe  Fe3  1  0.694749  0.194749  0.736878  1
  Fe  Fe4  1  0.194749  0.042129  0.736878  1
  Fe  Fe5  1  0.542129  0.694749  0.736878  1
  Fe  Fe6  1  0.957871  0.457871  0.263122  1
  Fe  Fe7  1  0.305251  0.805251  0.263122  1
  Fe  Fe8  1  0.805251  0.957871  0.263122  1
  Fe  Fe9  1  0.457871  0.305251  0.263122  1
  Si  Si10  1  0.250000  0.250000  0.500000  1
  Si  Si11  1  0.750000  0.750000  0.500000  1
  B  B12  1  0.380377  0.880377  0.000000  1
  B  B13  1  0.619623  0.119623  0.000000  1
  B  B14  1  0.119623  0.380377  0.000000  1
  B  B15  1  0.880377  0.619623  0.000000  1
