# generated using pymatgen
data_HoTm2Fe(Co4P3)2
_symmetry_space_group_name_H-M   'P 1'
_cell_length_a   3.67089800
_cell_length_b   10.47671800
_cell_length_c   12.12002100
_cell_angle_alpha   90.00000000
_cell_angle_beta   90.00000000
_cell_angle_gamma   90.00000000
_symmetry_Int_Tables_number   1
_chemical_formula_structural   HoTm2Fe(Co4P3)2
_chemical_formula_sum   'Ho2 Tm4 Fe2 Co16 P12'
_cell_volume   466.12344105
_cell_formula_units_Z   2
loop_
 _symmetry_equiv_pos_site_id
 _symmetry_equiv_pos_as_xyz
  1  'x, y, z'
loop_
 _atom_site_type_symbol
 _atom_site_label
 _atom_site_symmetry_multiplicity
 _atom_site_fract_x
 _atom_site_fract_y
 _atom_site_fract_z
 _atom_site_occupancy
  Ho  Ho0  1  0.000000  0.500000  0.522578  1
  Ho  Ho1  1  0.500000  0.000000  0.477422  1
  Tm  Tm2  1  0.500000  0.818023  0.205291  1
  Tm  Tm3  1  0.500000  0.181977  0.205291  1
  Tm  Tm4  1  0.000000  0.681977  0.794709  1
  Tm  Tm5  1  0.000000  0.318023  0.794709  1
  Fe  Fe6  1  0.500000  0.500000  0.158198  1
  Fe  Fe7  1  0.000000  0.000000  0.841802  1
  Co  Co8  1  0.500000  0.500000  0.703170  1
  Co  Co9  1  0.000000  0.000000  0.296830  1
  Co  Co10  1  0.000000  0.500000  0.986184  1
  Co  Co11  1  0.500000  0.000000  0.013816  1
  Co  Co12  1  0.500000  0.332911  0.994305  1
  Co  Co13  1  0.500000  0.667089  0.994305  1
  Co  Co14  1  0.000000  0.167089  0.005695  1
  Co  Co15  1  0.000000  0.832911  0.005695  1
  Co  Co16  1  0.500000  0.297160  0.430538  1
  Co  Co17  1  0.500000  0.702840  0.430538  1
  Co  Co18  1  0.000000  0.202840  0.569462  1
  Co  Co19  1  0.000000  0.797160  0.569462  1
  Co  Co20  1  0.500000  0.878408  0.709471  1
  Co  Co21  1  0.500000  0.121592  0.709471  1
  Co  Co22  1  0.000000  0.621592  0.290529  1
  Co  Co23  1  0.000000  0.378408  0.290529  1
  P  P24  1  0.500000  0.500000  0.881944  1
  P  P25  1  0.000000  0.000000  0.118056  1
  P  P26  1  0.500000  0.500000  0.343966  1
  P  P27  1  0.000000  0.000000  0.656034  1
  P  P28  1  0.500000  0.311055  0.616853  1
  P  P29  1  0.500000  0.688945  0.616853  1
  P  P30  1  0.000000  0.188945  0.383147  1
  P  P31  1  0.000000  0.811055  0.383147  1
  P  P32  1  0.500000  0.846867  0.892078  1
  P  P33  1  0.500000  0.153133  0.892078  1
  P  P34  1  0.000000  0.653133  0.107922  1
  P  P35  1  0.000000  0.346867  0.107922  1
