# generated using pymatgen
data_TbPr5In6O18
_symmetry_space_group_name_H-M   'P 1'
_cell_length_a   6.55214700
_cell_length_b   6.55214697
_cell_length_c   12.54752100
_cell_angle_alpha   90.00000000
_cell_angle_beta   90.00000000
_cell_angle_gamma   119.99999513
_symmetry_Int_Tables_number   1
_chemical_formula_structural   TbPr5In6O18
_chemical_formula_sum   'Tb1 Pr5 In6 O18'
_cell_volume   466.50451009
_cell_formula_units_Z   1
loop_
 _symmetry_equiv_pos_site_id
 _symmetry_equiv_pos_as_xyz
  1  'x, y, z'
loop_
 _atom_site_type_symbol
 _atom_site_label
 _atom_site_symmetry_multiplicity
 _atom_site_fract_x
 _atom_site_fract_y
 _atom_site_fract_z
 _atom_site_occupancy
  Tb  Tb0  1  0.666667  0.333333  0.229985  1
  Pr  Pr1  1  0.333333  0.666667  0.232352  1
  Pr  Pr2  1  0.000000  0.000000  0.266188  1
  Pr  Pr3  1  0.000000  0.000000  0.769607  1
  Pr  Pr4  1  0.333333  0.666667  0.729164  1
  Pr  Pr5  1  0.666667  0.333333  0.730040  1
  In  In6  1  0.998029  0.664990  0.494525  1
  In  In7  1  0.999094  0.334793  0.998100  1
  In  In8  1  0.335010  0.333039  0.494525  1
  In  In9  1  0.665207  0.664301  0.998100  1
  In  In10  1  0.335699  0.000906  0.998100  1
  In  In11  1  0.666961  0.001971  0.494525  1
  O  O12  1  0.001420  0.694071  0.662976  1
  O  O13  1  0.988084  0.630042  0.327543  1
  O  O14  1  0.000342  0.359564  0.830759  1
  O  O15  1  0.989762  0.309047  0.166451  1
  O  O16  1  0.333333  0.666667  0.023592  1
  O  O17  1  0.000000  0.000000  0.466652  1
  O  O18  1  0.000000  0.000000  0.973304  1
  O  O19  1  0.333333  0.666667  0.515680  1
  O  O20  1  0.305929  0.307350  0.662976  1
  O  O21  1  0.369958  0.358041  0.327543  1
  O  O22  1  0.319285  0.010238  0.166451  1
  O  O23  1  0.640436  0.640778  0.830759  1
  O  O24  1  0.690953  0.680715  0.166451  1
  O  O25  1  0.359222  0.999658  0.830759  1
  O  O26  1  0.666667  0.333333  0.522515  1
  O  O27  1  0.666667  0.333333  0.022378  1
  O  O28  1  0.641959  0.011916  0.327543  1
  O  O29  1  0.692650  0.998580  0.662976  1
