# generated using pymatgen
data_Pr2Pa5Te12
_symmetry_space_group_name_H-M   'P 1'
_cell_length_a   12.51932025
_cell_length_b   12.46506381
_cell_length_c   4.25349200
_cell_angle_alpha   90.00000000
_cell_angle_beta   90.00000000
_cell_angle_gamma   119.76047625
_symmetry_Int_Tables_number   1
_chemical_formula_structural   Pr2Pa5Te12
_chemical_formula_sum   'Pr2 Pa5 Te12'
_cell_volume   576.22841242
_cell_formula_units_Z   1
loop_
 _symmetry_equiv_pos_site_id
 _symmetry_equiv_pos_as_xyz
  1  'x, y, z'
loop_
 _atom_site_type_symbol
 _atom_site_label
 _atom_site_symmetry_multiplicity
 _atom_site_fract_x
 _atom_site_fract_y
 _atom_site_fract_z
 _atom_site_occupancy
  Pr  Pr0  1  0.391585  0.492008  0.000000  1
  Pr  Pr1  1  0.509748  0.899255  0.000000  1
  Pa  Pa2  1  0.095184  0.608719  0.000000  1
  Pa  Pa3  1  0.213169  0.041879  0.500000  1
  Pa  Pa4  1  0.958211  0.171955  0.500000  1
  Pa  Pa5  1  0.829290  0.786734  0.500000  1
  Pa  Pa6  1  0.663546  0.330173  0.000000  1
  Te  Te7  1  0.406224  0.083811  0.000000  1
  Te  Te8  1  0.914363  0.325102  0.000000  1
  Te  Te9  1  0.680312  0.590895  0.000000  1
  Te  Te10  1  0.155407  0.194053  0.000000  1
  Te  Te11  1  0.807996  0.963347  0.000000  1
  Te  Te12  1  0.038437  0.842856  0.000000  1
  Te  Te13  1  0.536597  0.721094  0.500000  1
  Te  Te14  1  0.880755  0.544081  0.500000  1
  Te  Te15  1  0.669073  0.129757  0.500000  1
  Te  Te16  1  0.460315  0.331323  0.500000  1
  Te  Te17  1  0.183627  0.470672  0.500000  1
  Te  Te18  1  0.272829  0.805618  0.500000  1
