# generated using pymatgen
data_Ni8MoW15C4
_symmetry_space_group_name_H-M   'P 1'
_cell_length_a   8.01149682
_cell_length_b   8.00707702
_cell_length_c   8.00707646
_cell_angle_alpha   59.97532973
_cell_angle_beta   59.98174239
_cell_angle_gamma   59.98174075
_symmetry_Int_Tables_number   1
_chemical_formula_structural   Ni8MoW15C4
_chemical_formula_sum   'Ni8 Mo1 W15 C4'
_cell_volume   363.03269979
_cell_formula_units_Z   1
loop_
 _symmetry_equiv_pos_site_id
 _symmetry_equiv_pos_as_xyz
  1  'x, y, z'
loop_
 _atom_site_type_symbol
 _atom_site_label
 _atom_site_symmetry_multiplicity
 _atom_site_fract_x
 _atom_site_fract_y
 _atom_site_fract_z
 _atom_site_occupancy
  Ni  Ni0  1  0.833340  0.833490  0.833490  1
  Ni  Ni1  1  0.833479  0.833472  0.499569  1
  Ni  Ni2  1  0.499679  0.833490  0.833490  1
  Ni  Ni3  1  0.833479  0.499569  0.833472  1
  Ni  Ni4  1  0.416631  0.416454  0.416454  1
  Ni  Ni5  1  0.416549  0.416617  0.750287  1
  Ni  Ni6  1  0.416549  0.750287  0.416617  1
  Ni  Ni7  1  0.750462  0.416454  0.416454  1
  Mo  Mo8  1  0.441236  0.058764  0.058764  1
  W  W9  1  0.058920  0.441080  0.441080  1
  W  W10  1  0.058737  0.440989  0.058799  1
  W  W11  1  0.058737  0.058799  0.440989  1
  W  W12  1  0.441474  0.058799  0.440989  1
  W  W13  1  0.441474  0.440989  0.058799  1
  W  W14  1  0.191087  0.809197  0.190990  1
  W  W15  1  0.808726  0.190990  0.809197  1
  W  W16  1  0.808782  0.191218  0.191218  1
  W  W17  1  0.191087  0.190990  0.809197  1
  W  W18  1  0.191166  0.808834  0.808834  1
  W  W19  1  0.808726  0.809197  0.190990  1
  W  W20  1  0.624990  0.624981  0.624981  1
  W  W21  1  0.625029  0.624947  0.124995  1
  W  W22  1  0.125048  0.624981  0.624981  1
  W  W23  1  0.625029  0.124995  0.624947  1
  C  C24  1  0.124733  0.125101  0.125101  1
  C  C25  1  0.124893  0.125030  0.625183  1
  C  C26  1  0.625065  0.125101  0.125101  1
  C  C27  1  0.124893  0.625183  0.125030  1
