# generated using pymatgen
data_Hf6Ni20As13
_symmetry_space_group_name_H-M   'P 1'
_cell_length_a   13.02787900
_cell_length_b   13.02787774
_cell_length_c   3.71013700
_cell_angle_alpha   90.00000000
_cell_angle_beta   90.00000000
_cell_angle_gamma   120.00000067
_symmetry_Int_Tables_number   1
_chemical_formula_structural   Hf6Ni20As13
_chemical_formula_sum   'Hf6 Ni20 As13'
_cell_volume   545.34076845
_cell_formula_units_Z   1
loop_
 _symmetry_equiv_pos_site_id
 _symmetry_equiv_pos_as_xyz
  1  'x, y, z'
loop_
 _atom_site_type_symbol
 _atom_site_label
 _atom_site_symmetry_multiplicity
 _atom_site_fract_x
 _atom_site_fract_y
 _atom_site_fract_z
 _atom_site_occupancy
  Hf  Hf0  1  0.524334  0.805637  0.000000  1
  Hf  Hf1  1  0.281302  0.475666  0.000000  1
  Hf  Hf2  1  0.194363  0.718698  0.000000  1
  Hf  Hf3  1  0.804664  0.281125  0.500000  1
  Hf  Hf4  1  0.476461  0.195336  0.500000  1
  Hf  Hf5  1  0.718875  0.523539  0.500000  1
  Ni  Ni6  1  0.798091  0.905167  0.000000  1
  Ni  Ni7  1  0.107075  0.201909  0.000000  1
  Ni  Ni8  1  0.094833  0.892925  0.000000  1
  Ni  Ni9  1  0.333333  0.666667  0.500000  1
  Ni  Ni10  1  0.922211  0.082800  0.500000  1
  Ni  Ni11  1  0.160588  0.077789  0.500000  1
  Ni  Ni12  1  0.917200  0.839412  0.500000  1
  Ni  Ni13  1  0.666667  0.333333  0.000000  1
  Ni  Ni14  1  0.566698  0.583235  0.000000  1
  Ni  Ni15  1  0.016537  0.433302  0.000000  1
  Ni  Ni16  1  0.416765  0.983463  0.000000  1
  Ni  Ni17  1  0.675877  0.748299  0.500000  1
  Ni  Ni18  1  0.072423  0.324123  0.500000  1
  Ni  Ni19  1  0.251701  0.927577  0.500000  1
  Ni  Ni20  1  0.982640  0.564110  0.500000  1
  Ni  Ni21  1  0.581470  0.017360  0.500000  1
  Ni  Ni22  1  0.435890  0.418530  0.500000  1
  Ni  Ni23  1  0.750606  0.077988  0.000000  1
  Ni  Ni24  1  0.327382  0.249394  0.000000  1
  Ni  Ni25  1  0.922012  0.672618  0.000000  1
  As  As26  1  0.472544  0.614226  0.500000  1
  As  As27  1  0.141682  0.527456  0.500000  1
  As  As28  1  0.385774  0.858318  0.500000  1
  As  As29  1  0.710759  0.944683  0.500000  1
  As  As30  1  0.233925  0.289241  0.500000  1
  As  As31  1  0.055317  0.766075  0.500000  1
  As  As32  1  0.859251  0.470771  0.000000  1
  As  As33  1  0.611520  0.140749  0.000000  1
  As  As34  1  0.529229  0.388480  0.000000  1
  As  As35  1  0.942149  0.229590  0.000000  1
  As  As36  1  0.287441  0.057851  0.000000  1
  As  As37  1  0.770410  0.712559  0.000000  1
  As  As38  1  0.000000  0.000000  0.000000  1
