# generated using pymatgen
data_Tb4Al15Zn3PdPt5
_symmetry_space_group_name_H-M   'P 1'
_cell_length_a   7.57222884
_cell_length_b   7.58173603
_cell_length_c   9.50652787
_cell_angle_alpha   89.97537391
_cell_angle_beta   89.97491317
_cell_angle_gamma   119.28955378
_symmetry_Int_Tables_number   1
_chemical_formula_structural   Tb4Al15Zn3PdPt5
_chemical_formula_sum   'Tb4 Al15 Zn3 Pd1 Pt5'
_cell_volume   476.00286346
_cell_formula_units_Z   1
loop_
 _symmetry_equiv_pos_site_id
 _symmetry_equiv_pos_as_xyz
  1  'x, y, z'
loop_
 _atom_site_type_symbol
 _atom_site_label
 _atom_site_symmetry_multiplicity
 _atom_site_fract_x
 _atom_site_fract_y
 _atom_site_fract_z
 _atom_site_occupancy
  Tb  Tb0  1  0.995887  0.672842  0.249866  1
  Tb  Tb1  1  0.005313  0.327683  0.750125  1
  Tb  Tb2  1  0.671212  0.993613  0.249876  1
  Tb  Tb3  1  0.327514  0.005101  0.750134  1
  Al  Al4  1  0.006001  0.335538  0.080858  1
  Al  Al5  1  0.996797  0.666997  0.922076  1
  Al  Al6  1  0.996505  0.666809  0.578107  1
  Al  Al7  1  0.333073  0.001780  0.421091  1
  Al  Al8  1  0.006294  0.335740  0.418965  1
  Al  Al9  1  0.667488  0.997783  0.578323  1
  Al  Al10  1  0.667682  0.998043  0.921843  1
  Al  Al11  1  0.332893  0.001524  0.078724  1
  Al  Al12  1  0.332326  0.332680  0.553887  1
  Al  Al13  1  0.663784  0.666079  0.443511  1
  Al  Al14  1  0.663931  0.666244  0.056296  1
  Al  Al15  1  0.332223  0.332556  0.946232  1
  Al  Al16  1  0.660538  0.453971  0.749986  1
  Al  Al17  1  0.544160  0.341612  0.250015  1
  Al  Al18  1  0.455552  0.659911  0.749986  1
  Zn  Zn19  1  0.141426  0.140465  0.250723  1
  Zn  Zn20  1  0.860767  0.859979  0.749292  1
  Zn  Zn21  1  0.341579  0.542066  0.250000  1
  Pd  Pd22  1  0.999271  0.999391  0.499716  1
  Pt  Pt23  1  0.672900  0.326821  0.999880  1
  Pt  Pt24  1  0.326363  0.674256  0.994066  1
  Pt  Pt25  1  0.326186  0.674402  0.505993  1
  Pt  Pt26  1  0.673039  0.326698  0.500120  1
  Pt  Pt27  1  0.999297  0.999419  0.000311  1
