# generated using pymatgen
data_Rb8DyHo5BBr20
_symmetry_space_group_name_H-M   'P 1'
_cell_length_a   12.31214892
_cell_length_b   12.23332013
_cell_length_c   12.23327512
_cell_angle_alpha   59.98546024
_cell_angle_beta   60.21221102
_cell_angle_gamma   60.21184994
_symmetry_Int_Tables_number   1
_chemical_formula_structural   Rb8DyHo5BBr20
_chemical_formula_sum   'Rb8 Dy1 Ho5 B1 Br20'
_cell_volume   1306.89992363
_cell_formula_units_Z   1
loop_
 _symmetry_equiv_pos_site_id
 _symmetry_equiv_pos_as_xyz
  1  'x, y, z'
loop_
 _atom_site_type_symbol
 _atom_site_label
 _atom_site_symmetry_multiplicity
 _atom_site_fract_x
 _atom_site_fract_y
 _atom_site_fract_z
 _atom_site_occupancy
  Rb  Rb0  1  0.359722  0.359537  0.359536  1
  Rb  Rb1  1  0.640297  0.640442  0.640442  1
  Rb  Rb2  1  0.359602  0.359673  0.921167  1
  Rb  Rb3  1  0.359603  0.921163  0.359675  1
  Rb  Rb4  1  0.640424  0.640313  0.078797  1
  Rb  Rb5  1  0.640425  0.078797  0.640317  1
  Rb  Rb6  1  0.921642  0.359404  0.359404  1
  Rb  Rb7  1  0.078403  0.640565  0.640567  1
  Dy  Dy8  1  0.847349  0.150842  0.150842  1
  Ho  Ho9  1  0.152296  0.849480  0.849478  1
  Ho  Ho10  1  0.152388  0.849509  0.148541  1
  Ho  Ho11  1  0.847752  0.150338  0.851332  1
  Ho  Ho12  1  0.152386  0.148541  0.849510  1
  Ho  Ho13  1  0.847753  0.851333  0.150336  1
  B  B14  1  0.000296  0.999822  0.999822  1
  Br  Br15  1  0.329146  0.000563  0.000572  1
  Br  Br16  1  0.670898  0.999363  0.999358  1
  Br  Br17  1  0.000021  0.327385  0.672555  1
  Br  Br18  1  0.000026  0.672559  0.327383  1
  Br  Br19  1  0.000739  0.328206  0.999172  1
  Br  Br20  1  0.670341  0.998554  0.330928  1
  Br  Br21  1  0.999988  0.672378  0.000090  1
  Br  Br22  1  0.329062  0.000656  0.669709  1
  Br  Br23  1  0.000746  0.999169  0.328204  1
  Br  Br24  1  0.999987  0.000092  0.672375  1
  Br  Br25  1  0.670338  0.330929  0.998553  1
  Br  Br26  1  0.329064  0.669707  0.000656  1
  Br  Br27  1  0.681315  0.318621  0.318622  1
  Br  Br28  1  0.317628  0.682388  0.682389  1
  Br  Br29  1  0.317555  0.682451  0.317378  1
  Br  Br30  1  0.682609  0.317385  0.682480  1
  Br  Br31  1  0.317549  0.317381  0.682458  1
  Br  Br32  1  0.682611  0.682482  0.317383  1
  Br  Br33  1  0.249676  0.250099  0.250099  1
  Br  Br34  1  0.750366  0.749871  0.749871  1
