# generated using pymatgen
data_Ti2SiGeOs2
_symmetry_space_group_name_H-M   'P 1'
_cell_length_a   7.45417579
_cell_length_b   7.47589049
_cell_length_c   7.45993354
_cell_angle_alpha   127.42834427
_cell_angle_beta   123.28661458
_cell_angle_gamma   80.95879117
_symmetry_Int_Tables_number   1
_chemical_formula_structural   Ti2SiGeOs2
_chemical_formula_sum   'Ti6 Si3 Ge3 Os6'
_cell_volume   266.04101206
_cell_formula_units_Z   3
loop_
 _symmetry_equiv_pos_site_id
 _symmetry_equiv_pos_as_xyz
  1  'x, y, z'
loop_
 _atom_site_type_symbol
 _atom_site_label
 _atom_site_symmetry_multiplicity
 _atom_site_fract_x
 _atom_site_fract_y
 _atom_site_fract_z
 _atom_site_occupancy
  Ti  Ti0  1  0.547851  0.103611  0.052088  1
  Ti  Ti1  1  0.439164  0.479505  0.538801  1
  Ti  Ti2  1  0.975236  0.490067  0.022192  1
  Ti  Ti3  1  0.036099  0.055134  0.532220  1
  Ti  Ti4  1  0.759782  0.915706  0.662491  1
  Ti  Ti5  1  0.247168  0.912165  0.161723  1
  Si  Si6  1  0.172836  0.162380  0.003753  1
  Si  Si7  1  0.784500  0.558794  0.270265  1
  Si  Si8  1  0.220228  0.459642  0.734657  1
  Ge  Ge9  1  0.342189  0.827620  0.502771  1
  Ge  Ge10  1  0.663828  0.162550  0.492431  1
  Ge  Ge11  1  0.826612  0.830011  0.992694  1
  Os  Os12  1  0.161999  0.756186  0.668264  1
  Os  Os13  1  0.840473  0.497149  0.585576  1
  Os  Os14  1  0.579985  0.746956  0.081558  1
  Os  Os15  1  0.402716  0.486731  0.148056  1
  Os  Os16  1  0.524421  0.248543  0.774989  1
  Os  Os17  1  0.974910  0.251250  0.219468  1
