# generated using pymatgen
data_Ho4CrTc3B16
_symmetry_space_group_name_H-M   'P 1'
_cell_length_a   3.56081500
_cell_length_b   5.95257071
_cell_length_c   11.50401418
_cell_angle_alpha   89.87206406
_cell_angle_beta   90.00000000
_cell_angle_gamma   90.00000000
_symmetry_Int_Tables_number   1
_chemical_formula_structural   Ho4CrTc3B16
_chemical_formula_sum   'Ho4 Cr1 Tc3 B16'
_cell_volume   243.83851181
_cell_formula_units_Z   1
loop_
 _symmetry_equiv_pos_site_id
 _symmetry_equiv_pos_as_xyz
  1  'x, y, z'
loop_
 _atom_site_type_symbol
 _atom_site_label
 _atom_site_symmetry_multiplicity
 _atom_site_fract_x
 _atom_site_fract_y
 _atom_site_fract_z
 _atom_site_occupancy
  Ho  Ho0  1  0.000000  0.626033  0.350688  1
  Ho  Ho1  1  0.000000  0.375018  0.649501  1
  Ho  Ho2  1  0.000000  0.127733  0.150351  1
  Ho  Ho3  1  0.000000  0.872507  0.848101  1
  Cr  Cr4  1  0.000000  0.871966  0.583031  1
  Tc  Tc5  1  0.000000  0.633787  0.087852  1
  Tc  Tc6  1  0.000000  0.366206  0.912234  1
  Tc  Tc7  1  0.000000  0.127151  0.416935  1
  B  B8  1  0.500000  0.786979  0.185874  1
  B  B9  1  0.500000  0.212673  0.813924  1
  B  B10  1  0.500000  0.286204  0.316022  1
  B  B11  1  0.500000  0.715279  0.683480  1
  B  B12  1  0.500000  0.864837  0.031203  1
  B  B13  1  0.500000  0.135440  0.968396  1
  B  B14  1  0.500000  0.364157  0.469016  1
  B  B15  1  0.500000  0.636748  0.532494  1
  B  B16  1  0.500000  0.885133  0.453688  1
  B  B17  1  0.500000  0.112568  0.548228  1
  B  B18  1  0.500000  0.386599  0.047247  1
  B  B19  1  0.500000  0.614059  0.952249  1
  B  B20  1  0.500000  0.977021  0.308285  1
  B  B21  1  0.500000  0.021160  0.691641  1
  B  B22  1  0.500000  0.475823  0.193082  1
  B  B23  1  0.500000  0.524919  0.806480  1
