# generated using pymatgen
data_Er8Lu12Si15Ir
_symmetry_space_group_name_H-M   'P 1'
_cell_length_a   7.23342664
_cell_length_b   7.61948426
_cell_length_c   14.29444000
_cell_angle_alpha   90.00000000
_cell_angle_beta   90.00000000
_cell_angle_gamma   90.05075902
_symmetry_Int_Tables_number   1
_chemical_formula_structural   Er8Lu12Si15Ir
_chemical_formula_sum   'Er8 Lu12 Si15 Ir1'
_cell_volume   787.83747130
_cell_formula_units_Z   1
loop_
 _symmetry_equiv_pos_site_id
 _symmetry_equiv_pos_as_xyz
  1  'x, y, z'
loop_
 _atom_site_type_symbol
 _atom_site_label
 _atom_site_symmetry_multiplicity
 _atom_site_fract_x
 _atom_site_fract_y
 _atom_site_fract_z
 _atom_site_occupancy
  Er  Er0  1  0.015886  0.182946  0.097013  1
  Er  Er1  1  0.986746  0.824629  0.904587  1
  Er  Er2  1  0.485228  0.678311  0.905399  1
  Er  Er3  1  0.986746  0.824629  0.595413  1
  Er  Er4  1  0.515604  0.320819  0.096631  1
  Er  Er5  1  0.015886  0.182946  0.402987  1
  Er  Er6  1  0.515604  0.320819  0.403369  1
  Er  Er7  1  0.485228  0.678311  0.594601  1
  Lu  Lu8  1  0.156260  0.510683  0.750000  1
  Lu  Lu9  1  0.839605  0.490394  0.250000  1
  Lu  Lu10  1  0.341682  0.012831  0.250000  1
  Lu  Lu11  1  0.666274  0.988822  0.750000  1
  Lu  Lu12  1  0.315764  0.173173  0.626350  1
  Lu  Lu13  1  0.675333  0.824601  0.374617  1
  Lu  Lu14  1  0.173816  0.679985  0.375318  1
  Lu  Lu15  1  0.675333  0.824601  0.125383  1
  Lu  Lu16  1  0.834787  0.315830  0.626133  1
  Lu  Lu17  1  0.315764  0.173173  0.873650  1
  Lu  Lu18  1  0.834787  0.315830  0.873867  1
  Lu  Lu19  1  0.173816  0.679985  0.124682  1
  Si  Si20  1  0.972433  0.894728  0.250000  1
  Si  Si21  1  0.471321  0.608356  0.250000  1
  Si  Si22  1  0.528399  0.395068  0.750000  1
  Si  Si23  1  0.282682  0.864127  0.750000  1
  Si  Si24  1  0.718463  0.134382  0.250000  1
  Si  Si25  1  0.218111  0.369585  0.250000  1
  Si  Si26  1  0.771268  0.624562  0.750000  1
  Si  Si27  1  0.159117  0.471748  0.537604  1
  Si  Si28  1  0.843098  0.532923  0.462034  1
  Si  Si29  1  0.345261  0.969933  0.460513  1
  Si  Si30  1  0.843098  0.532923  0.037966  1
  Si  Si31  1  0.653072  0.030837  0.538019  1
  Si  Si32  1  0.159117  0.471748  0.962396  1
  Si  Si33  1  0.653072  0.030837  0.961981  1
  Si  Si34  1  0.345261  0.969933  0.039487  1
  Ir  Ir35  1  0.026078  0.094994  0.750000  1
