# generated using pymatgen
data_Sm7Th(C2Cl3)2
_symmetry_space_group_name_H-M   'P 1'
_cell_length_a   3.73340100
_cell_length_b   10.78877300
_cell_length_c   20.23087900
_cell_angle_alpha   90.00000000
_cell_angle_beta   90.00000000
_cell_angle_gamma   90.00000000
_symmetry_Int_Tables_number   1
_chemical_formula_structural   Sm7Th(C2Cl3)2
_chemical_formula_sum   'Sm14 Th2 C8 Cl12'
_cell_volume   814.87585088
_cell_formula_units_Z   2
loop_
 _symmetry_equiv_pos_site_id
 _symmetry_equiv_pos_as_xyz
  1  'x, y, z'
loop_
 _atom_site_type_symbol
 _atom_site_label
 _atom_site_symmetry_multiplicity
 _atom_site_fract_x
 _atom_site_fract_y
 _atom_site_fract_z
 _atom_site_occupancy
  Sm  Sm0  1  0.250000  0.134302  0.571278  1
  Sm  Sm1  1  0.250000  0.634302  0.928722  1
  Sm  Sm2  1  0.750000  0.861030  0.427734  1
  Sm  Sm3  1  0.750000  0.361030  0.072266  1
  Sm  Sm4  1  0.250000  0.637712  0.756864  1
  Sm  Sm5  1  0.250000  0.137712  0.743136  1
  Sm  Sm6  1  0.750000  0.363712  0.244385  1
  Sm  Sm7  1  0.750000  0.863712  0.255615  1
  Sm  Sm8  1  0.250000  0.102358  0.333624  1
  Sm  Sm9  1  0.250000  0.602358  0.166376  1
  Sm  Sm10  1  0.750000  0.900052  0.666261  1
  Sm  Sm11  1  0.750000  0.400052  0.833739  1
  Sm  Sm12  1  0.250000  0.124156  0.164317  1
  Sm  Sm13  1  0.250000  0.624156  0.335683  1
  Th  Th14  1  0.750000  0.874784  0.836874  1
  Th  Th15  1  0.750000  0.374784  0.663126  1
  C  C16  1  0.250000  0.864189  0.347915  1
  C  C17  1  0.250000  0.364189  0.152085  1
  C  C18  1  0.750000  0.140292  0.651107  1
  C  C19  1  0.750000  0.640292  0.848893  1
  C  C20  1  0.250000  0.387335  0.747198  1
  C  C21  1  0.250000  0.887335  0.752802  1
  C  C22  1  0.750000  0.612938  0.249380  1
  C  C23  1  0.750000  0.112938  0.250620  1
  Cl  Cl24  1  0.250000  0.376077  0.953848  1
  Cl  Cl25  1  0.250000  0.876077  0.546152  1
  Cl  Cl26  1  0.750000  0.621300  0.048194  1
  Cl  Cl27  1  0.750000  0.121300  0.451806  1
  Cl  Cl28  1  0.250000  0.883586  0.951341  1
  Cl  Cl29  1  0.250000  0.383586  0.548659  1
  Cl  Cl30  1  0.750000  0.112496  0.055503  1
  Cl  Cl31  1  0.750000  0.612496  0.444497  1
  Cl  Cl32  1  0.250000  0.362098  0.353746  1
  Cl  Cl33  1  0.250000  0.862098  0.146254  1
  Cl  Cl34  1  0.750000  0.641582  0.644101  1
  Cl  Cl35  1  0.750000  0.141582  0.855899  1
