# generated using pymatgen
data_La2CePr(ZnCu5)4
_symmetry_space_group_name_H-M   'P 1'
_cell_length_a   5.11580100
_cell_length_b   8.20110527
_cell_length_c   10.26015933
_cell_angle_alpha   90.02925188
_cell_angle_beta   90.00000000
_cell_angle_gamma   90.00000000
_symmetry_Int_Tables_number   1
_chemical_formula_structural   La2CePr(ZnCu5)4
_chemical_formula_sum   'La2 Ce1 Pr1 Zn4 Cu20'
_cell_volume   430.46721193
_cell_formula_units_Z   1
loop_
 _symmetry_equiv_pos_site_id
 _symmetry_equiv_pos_as_xyz
  1  'x, y, z'
loop_
 _atom_site_type_symbol
 _atom_site_label
 _atom_site_symmetry_multiplicity
 _atom_site_fract_x
 _atom_site_fract_y
 _atom_site_fract_z
 _atom_site_occupancy
  La  La0  1  0.000000  0.759410  0.688849  1
  La  La1  1  0.000000  0.259544  0.311312  1
  Ce  Ce2  1  0.500000  0.741266  0.187242  1
  Pr  Pr3  1  0.500000  0.240925  0.812634  1
  Zn  Zn4  1  0.500000  0.357270  0.109646  1
  Zn  Zn5  1  0.500000  0.856651  0.890990  1
  Zn  Zn6  1  0.000000  0.644569  0.388715  1
  Zn  Zn7  1  0.000000  0.144491  0.610665  1
  Cu  Cu8  1  0.500000  0.680744  0.498300  1
  Cu  Cu9  1  0.500000  0.180575  0.501298  1
  Cu  Cu10  1  0.000000  0.319757  0.002927  1
  Cu  Cu11  1  0.000000  0.819173  0.997386  1
  Cu  Cu12  1  0.500000  0.941358  0.650685  1
  Cu  Cu13  1  0.500000  0.442388  0.348666  1
  Cu  Cu14  1  0.000000  0.065607  0.850356  1
  Cu  Cu15  1  0.000000  0.566602  0.150115  1
  Cu  Cu16  1  0.500000  0.589423  0.735251  1
  Cu  Cu17  1  0.500000  0.088411  0.264670  1
  Cu  Cu18  1  0.000000  0.404640  0.766984  1
  Cu  Cu19  1  0.000000  0.903776  0.232677  1
  Cu  Cu20  1  0.745130  0.065944  0.058564  1
  Cu  Cu21  1  0.255144  0.566694  0.942121  1
  Cu  Cu22  1  0.246866  0.931964  0.439434  1
  Cu  Cu23  1  0.753158  0.432108  0.560197  1
  Cu  Cu24  1  0.753134  0.931964  0.439434  1
  Cu  Cu25  1  0.246842  0.432108  0.560197  1
  Cu  Cu26  1  0.254870  0.065944  0.058564  1
  Cu  Cu27  1  0.744856  0.566694  0.942121  1
