# generated using pymatgen
data_Pr12Ga3GeBr12
_symmetry_space_group_name_H-M   'P 1'
_cell_length_a   10.59150572
_cell_length_b   10.56030978
_cell_length_c   10.56040762
_cell_angle_alpha   109.40957784
_cell_angle_beta   109.53033808
_cell_angle_gamma   109.52955432
_symmetry_Int_Tables_number   1
_chemical_formula_structural   Pr12Ga3GeBr12
_chemical_formula_sum   'Pr12 Ga3 Ge1 Br12'
_cell_volume   908.64280923
_cell_formula_units_Z   1
loop_
 _symmetry_equiv_pos_site_id
 _symmetry_equiv_pos_as_xyz
  1  'x, y, z'
loop_
 _atom_site_type_symbol
 _atom_site_label
 _atom_site_symmetry_multiplicity
 _atom_site_fract_x
 _atom_site_fract_y
 _atom_site_fract_z
 _atom_site_occupancy
  Pr  Pr0  1  0.481501  0.490910  0.240466  1
  Pr  Pr1  1  0.750001  0.241379  0.258621  1
  Pr  Pr2  1  0.750001  0.008054  0.491952  1
  Pr  Pr3  1  0.241960  0.483918  0.491955  1
  Pr  Pr4  1  0.258964  0.749549  0.240462  1
  Pr  Pr5  1  0.018503  0.259537  0.009088  1
  Pr  Pr6  1  0.008619  0.017237  0.258613  1
  Pr  Pr7  1  0.490578  0.749547  0.009093  1
  Pr  Pr8  1  0.491380  0.241383  0.482761  1
  Pr  Pr9  1  0.009421  0.490906  0.750449  1
  Pr  Pr10  1  0.258039  0.008044  0.016082  1
  Pr  Pr11  1  0.241036  0.259537  0.750451  1
  Ga  Ga12  1  0.250001  0.250133  0.249870  1
  Ga  Ga13  1  0.499869  0.999731  0.249865  1
  Ga  Ga14  1  0.000128  0.250133  0.500269  1
  Ge  Ge15  1  0.249997  0.500002  0.999993  1
  Br  Br16  1  0.249997  0.753887  0.746114  1
  Br  Br17  1  0.508969  0.504550  0.754952  1
  Br  Br18  1  0.991036  0.745048  0.995449  1
  Br  Br19  1  0.745989  0.250406  0.754957  1
  Br  Br20  1  0.996113  0.992226  0.746114  1
  Br  Br21  1  0.250001  0.995324  0.504670  1
  Br  Br22  1  0.754673  0.509344  0.504675  1
  Br  Br23  1  0.504417  0.250405  0.995450  1
  Br  Br24  1  0.754011  0.745045  0.249597  1
  Br  Br25  1  0.745329  0.995326  0.990656  1
  Br  Br26  1  0.995576  0.504549  0.249595  1
  Br  Br27  1  0.503891  0.753888  0.507777  1
