# generated using pymatgen
data_Tm3LuZn4(IrRh)2
_symmetry_space_group_name_H-M   'P 1'
_cell_length_a   4.01586400
_cell_length_b   6.91114647
_cell_length_c   8.03292610
_cell_angle_alpha   89.83867340
_cell_angle_beta   90.00000000
_cell_angle_gamma   90.00000000
_symmetry_Int_Tables_number   1
_chemical_formula_structural   Tm3LuZn4(IrRh)2
_chemical_formula_sum   'Tm3 Lu1 Zn4 Ir2 Rh2'
_cell_volume   222.94674894
_cell_formula_units_Z   1
loop_
 _symmetry_equiv_pos_site_id
 _symmetry_equiv_pos_as_xyz
  1  'x, y, z'
loop_
 _atom_site_type_symbol
 _atom_site_label
 _atom_site_symmetry_multiplicity
 _atom_site_fract_x
 _atom_site_fract_y
 _atom_site_fract_z
 _atom_site_occupancy
  Tm  Tm0  1  0.750000  0.465128  0.818971  1
  Tm  Tm1  1  0.750000  0.962094  0.684003  1
  Tm  Tm2  1  0.250000  0.037809  0.315751  1
  Lu  Lu3  1  0.250000  0.534785  0.181050  1
  Zn  Zn4  1  0.250000  0.637491  0.565043  1
  Zn  Zn5  1  0.750000  0.362922  0.434390  1
  Zn  Zn6  1  0.750000  0.861204  0.066263  1
  Zn  Zn7  1  0.250000  0.138708  0.934216  1
  Ir  Ir8  1  0.250000  0.756147  0.876991  1
  Ir  Ir9  1  0.750000  0.244765  0.124192  1
  Rh  Rh10  1  0.750000  0.743594  0.378187  1
  Rh  Rh11  1  0.250000  0.255352  0.620943  1
