# generated using pymatgen
data_Nd17Pa3Ir11Rh5
_symmetry_space_group_name_H-M   'P 1'
_cell_length_a   7.62677356
_cell_length_b   7.67289696
_cell_length_c   14.91978568
_cell_angle_alpha   90.11730103
_cell_angle_beta   90.07293580
_cell_angle_gamma   89.96314334
_symmetry_Int_Tables_number   1
_chemical_formula_structural   Nd17Pa3Ir11Rh5
_chemical_formula_sum   'Nd17 Pa3 Ir11 Rh5'
_cell_volume   873.09490025
_cell_formula_units_Z   1
loop_
 _symmetry_equiv_pos_site_id
 _symmetry_equiv_pos_as_xyz
  1  'x, y, z'
loop_
 _atom_site_type_symbol
 _atom_site_label
 _atom_site_symmetry_multiplicity
 _atom_site_fract_x
 _atom_site_fract_y
 _atom_site_fract_z
 _atom_site_occupancy
  Nd  Nd0  1  0.834769  0.661988  0.379768  1
  Nd  Nd1  1  0.336830  0.837374  0.377882  1
  Nd  Nd2  1  0.837944  0.662671  0.118736  1
  Nd  Nd3  1  0.661406  0.161447  0.881104  1
  Nd  Nd4  1  0.162090  0.336305  0.621448  1
  Nd  Nd5  1  0.513169  0.680703  0.591131  1
  Nd  Nd6  1  0.015164  0.817251  0.906897  1
  Nd  Nd7  1  0.486878  0.319559  0.094534  1
  Nd  Nd8  1  0.987209  0.188763  0.408669  1
  Nd  Nd9  1  0.487201  0.318691  0.411165  1
  Nd  Nd10  1  0.985466  0.178713  0.090285  1
  Nd  Nd11  1  0.510824  0.675477  0.911003  1
  Nd  Nd12  1  0.011079  0.823114  0.589695  1
  Nd  Nd13  1  0.818064  0.514545  0.749749  1
  Nd  Nd14  1  0.319380  0.982885  0.751059  1
  Nd  Nd15  1  0.173961  0.487142  0.250389  1
  Nd  Nd16  1  0.683390  0.010055  0.251300  1
  Pa  Pa17  1  0.659234  0.157575  0.626217  1
  Pa  Pa18  1  0.160200  0.339071  0.876868  1
  Pa  Pa19  1  0.336964  0.838537  0.122014  1
  Ir  Ir20  1  0.693826  0.972440  0.471233  1
  Ir  Ir21  1  0.201430  0.546344  0.030066  1
  Ir  Ir22  1  0.296916  0.049500  0.967728  1
  Ir  Ir23  1  0.798423  0.437854  0.541778  1
  Ir  Ir24  1  0.343954  0.032919  0.548491  1
  Ir  Ir25  1  0.851840  0.461884  0.951698  1
  Ir  Ir26  1  0.642875  0.961039  0.049052  1
  Ir  Ir27  1  0.170051  0.530918  0.455438  1
  Ir  Ir28  1  0.457648  0.367279  0.752465  1
  Ir  Ir29  1  0.962230  0.132376  0.754061  1
  Ir  Ir30  1  0.531448  0.627188  0.240915  1
  Rh  Rh31  1  0.061001  0.882780  0.234387  1
  Rh  Rh32  1  0.704696  0.882983  0.739816  1
  Rh  Rh33  1  0.202209  0.619356  0.760475  1
  Rh  Rh34  1  0.313466  0.134991  0.243774  1
  Rh  Rh35  1  0.786763  0.368285  0.248701  1
