# generated using pymatgen
data_Er8Cu2Si12PdAu
_symmetry_space_group_name_H-M   'P 1'
_cell_length_a   8.06688400
_cell_length_b   8.06688446
_cell_length_c   8.03396700
_cell_angle_alpha   90.00000000
_cell_angle_beta   90.00000000
_cell_angle_gamma   119.99999813
_symmetry_Int_Tables_number   1
_chemical_formula_structural   Er8Cu2Si12PdAu
_chemical_formula_sum   'Er8 Cu2 Si12 Pd1 Au1'
_cell_volume   452.76446258
_cell_formula_units_Z   1
loop_
 _symmetry_equiv_pos_site_id
 _symmetry_equiv_pos_as_xyz
  1  'x, y, z'
loop_
 _atom_site_type_symbol
 _atom_site_label
 _atom_site_symmetry_multiplicity
 _atom_site_fract_x
 _atom_site_fract_y
 _atom_site_fract_z
 _atom_site_occupancy
  Er  Er0  1  0.499150  0.998300  0.246427  1
  Er  Er1  1  0.498770  0.997538  0.753553  1
  Er  Er2  1  0.001700  0.500850  0.246427  1
  Er  Er3  1  0.002462  0.501230  0.753553  1
  Er  Er4  1  0.499150  0.500850  0.246427  1
  Er  Er5  1  0.498770  0.501230  0.753553  1
  Er  Er6  1  0.000000  0.000000  0.245990  1
  Er  Er7  1  0.000000  0.000000  0.753678  1
  Cu  Cu8  1  0.333333  0.666667  0.001080  1
  Cu  Cu9  1  0.666667  0.333333  0.000141  1
  Si  Si10  1  0.169250  0.338501  0.999819  1
  Si  Si11  1  0.830606  0.661211  0.999909  1
  Si  Si12  1  0.661499  0.830750  0.999819  1
  Si  Si13  1  0.838014  0.676027  0.500129  1
  Si  Si14  1  0.338789  0.169394  0.999909  1
  Si  Si15  1  0.167153  0.334306  0.499677  1
  Si  Si16  1  0.169250  0.830750  0.999819  1
  Si  Si17  1  0.323973  0.161986  0.500129  1
  Si  Si18  1  0.830606  0.169394  0.999909  1
  Si  Si19  1  0.665694  0.832847  0.499677  1
  Si  Si20  1  0.838014  0.161986  0.500129  1
  Si  Si21  1  0.167153  0.832847  0.499677  1
  Pd  Pd22  1  0.333333  0.666667  0.499581  1
  Au  Au23  1  0.666667  0.333333  0.500995  1
