# generated using pymatgen
data_KBaBe3AlAs4
_symmetry_space_group_name_H-M   'P 1'
_cell_length_a   7.47711556
_cell_length_b   7.48221122
_cell_length_c   5.52148100
_cell_angle_alpha   90.00000000
_cell_angle_beta   90.00000000
_cell_angle_gamma   136.73220944
_symmetry_Int_Tables_number   1
_chemical_formula_structural   KBaBe3AlAs4
_chemical_formula_sum   'K1 Ba1 Be3 Al1 As4'
_cell_volume   211.72372046
_cell_formula_units_Z   1
loop_
 _symmetry_equiv_pos_site_id
 _symmetry_equiv_pos_as_xyz
  1  'x, y, z'
loop_
 _atom_site_type_symbol
 _atom_site_label
 _atom_site_symmetry_multiplicity
 _atom_site_fract_x
 _atom_site_fract_y
 _atom_site_fract_z
 _atom_site_occupancy
  K  K0  1  0.000000  0.000000  0.999242  1
  Ba  Ba1  1  0.500000  0.500000  0.501172  1
  Be  Be2  1  0.000000  0.500000  0.247186  1
  Be  Be3  1  0.000000  0.500000  0.752869  1
  Be  Be4  1  0.500000  0.000000  0.247604  1
  Al  Al5  1  0.500000  0.000000  0.753001  1
  As  As6  1  0.659221  0.361001  0.009520  1
  As  As7  1  0.141265  0.840168  0.489943  1
  As  As8  1  0.858735  0.159832  0.489943  1
  As  As9  1  0.340779  0.638999  0.009520  1
