# generated using pymatgen
data_SmTmFe3P7Ru9
_symmetry_space_group_name_H-M   'P 1'
_cell_length_a   9.32440300
_cell_length_b   9.32440423
_cell_length_c   3.86209800
_cell_angle_alpha   90.00000000
_cell_angle_beta   90.00000000
_cell_angle_gamma   119.99999920
_symmetry_Int_Tables_number   1
_chemical_formula_structural   SmTmFe3P7Ru9
_chemical_formula_sum   'Sm1 Tm1 Fe3 P7 Ru9'
_cell_volume   290.80110529
_cell_formula_units_Z   1
loop_
 _symmetry_equiv_pos_site_id
 _symmetry_equiv_pos_as_xyz
  1  'x, y, z'
loop_
 _atom_site_type_symbol
 _atom_site_label
 _atom_site_symmetry_multiplicity
 _atom_site_fract_x
 _atom_site_fract_y
 _atom_site_fract_z
 _atom_site_occupancy
  Sm  Sm0  1  0.333333  0.666667  0.000000  1
  Tm  Tm1  1  0.000000  0.000000  0.500000  1
  Fe  Fe2  1  0.933823  0.443105  0.000000  1
  Fe  Fe3  1  0.509284  0.066177  0.000000  1
  Fe  Fe4  1  0.556895  0.490716  0.000000  1
  P  P5  1  0.971603  0.224513  0.000000  1
  P  P6  1  0.252910  0.028397  0.000000  1
  P  P7  1  0.775487  0.747090  0.000000  1
  P  P8  1  0.060988  0.613185  0.500000  1
  P  P9  1  0.552196  0.939012  0.500000  1
  P  P10  1  0.386815  0.447804  0.500000  1
  P  P11  1  0.666667  0.333333  0.000000  1
  Ru  Ru12  1  0.728897  0.973946  0.000000  1
  Ru  Ru13  1  0.245050  0.271103  0.000000  1
  Ru  Ru14  1  0.026054  0.754950  0.000000  1
  Ru  Ru15  1  0.103077  0.382914  0.500000  1
  Ru  Ru16  1  0.279838  0.896923  0.500000  1
  Ru  Ru17  1  0.617086  0.720162  0.500000  1
  Ru  Ru18  1  0.754605  0.217433  0.500000  1
  Ru  Ru19  1  0.462830  0.245395  0.500000  1
  Ru  Ru20  1  0.782567  0.537170  0.500000  1
