# generated using pymatgen
data_Ce3Pa(ZnRh)4
_symmetry_space_group_name_H-M   'P 1'
_cell_length_a   3.83149800
_cell_length_b   7.49067100
_cell_length_c   16.37711600
_cell_angle_alpha   90.00000000
_cell_angle_beta   90.00000000
_cell_angle_gamma   90.00000000
_symmetry_Int_Tables_number   1
_chemical_formula_structural   Ce3Pa(ZnRh)4
_chemical_formula_sum   'Ce6 Pa2 Zn8 Rh8'
_cell_volume   470.03126963
_cell_formula_units_Z   2
loop_
 _symmetry_equiv_pos_site_id
 _symmetry_equiv_pos_as_xyz
  1  'x, y, z'
loop_
 _atom_site_type_symbol
 _atom_site_label
 _atom_site_symmetry_multiplicity
 _atom_site_fract_x
 _atom_site_fract_y
 _atom_site_fract_z
 _atom_site_occupancy
  Ce  Ce0  1  0.250000  0.064129  0.715383  1
  Ce  Ce1  1  0.250000  0.172594  0.940585  1
  Ce  Ce2  1  0.750000  0.942369  0.284771  1
  Ce  Ce3  1  0.250000  0.557631  0.784771  1
  Ce  Ce4  1  0.750000  0.435871  0.215383  1
  Ce  Ce5  1  0.750000  0.327406  0.440585  1
  Pa  Pa6  1  0.250000  0.676993  0.560452  1
  Pa  Pa7  1  0.750000  0.823007  0.060452  1
  Zn  Zn8  1  0.250000  0.108635  0.154860  1
  Zn  Zn9  1  0.750000  0.502455  0.940338  1
  Zn  Zn10  1  0.750000  0.010277  0.560815  1
  Zn  Zn11  1  0.750000  0.391365  0.654860  1
  Zn  Zn12  1  0.750000  0.888241  0.844721  1
  Zn  Zn13  1  0.250000  0.489723  0.060815  1
  Zn  Zn14  1  0.250000  0.611759  0.344721  1
  Zn  Zn15  1  0.250000  0.997545  0.440338  1
  Rh  Rh16  1  0.750000  0.738415  0.445167  1
  Rh  Rh17  1  0.750000  0.259041  0.814939  1
  Rh  Rh18  1  0.750000  0.753488  0.677560  1
  Rh  Rh19  1  0.250000  0.746512  0.177560  1
  Rh  Rh20  1  0.250000  0.761585  0.945167  1
  Rh  Rh21  1  0.250000  0.266914  0.560410  1
  Rh  Rh22  1  0.750000  0.233086  0.060410  1
  Rh  Rh23  1  0.250000  0.240959  0.314939  1
