# generated using pymatgen
data_Mn2HgBi(Pt2O7)2
_symmetry_space_group_name_H-M   'P 1'
_cell_length_a   7.16223492
_cell_length_b   7.23799182
_cell_length_c   7.16223498
_cell_angle_alpha   60.47437966
_cell_angle_beta   59.71044676
_cell_angle_gamma   60.47437771
_symmetry_Int_Tables_number   1
_chemical_formula_structural   Mn2HgBi(Pt2O7)2
_chemical_formula_sum   'Mn2 Hg1 Bi1 Pt4 O14'
_cell_volume   263.81810438
_cell_formula_units_Z   1
loop_
 _symmetry_equiv_pos_site_id
 _symmetry_equiv_pos_as_xyz
  1  'x, y, z'
loop_
 _atom_site_type_symbol
 _atom_site_label
 _atom_site_symmetry_multiplicity
 _atom_site_fract_x
 _atom_site_fract_y
 _atom_site_fract_z
 _atom_site_occupancy
  Mn  Mn0  1  0.125000  0.125000  0.625000  1
  Mn  Mn1  1  0.625000  0.125000  0.125000  1
  Hg  Hg2  1  0.125000  0.125000  0.125000  1
  Bi  Bi3  1  0.125000  0.625000  0.125000  1
  Pt  Pt4  1  0.625000  0.625000  0.125000  1
  Pt  Pt5  1  0.625000  0.125000  0.625000  1
  Pt  Pt6  1  0.125000  0.625000  0.625000  1
  Pt  Pt7  1  0.625000  0.625000  0.625000  1
  O  O8  1  0.276934  0.236431  0.276934  1
  O  O9  1  0.973066  0.013569  0.973066  1
  O  O10  1  0.538535  0.959735  0.538535  1
  O  O11  1  0.287451  0.710499  0.287451  1
  O  O12  1  0.541545  0.533648  0.961572  1
  O  O13  1  0.961572  0.533648  0.541545  1
  O  O14  1  0.547654  0.963526  0.964728  1
  O  O15  1  0.964728  0.963526  0.547654  1
  O  O16  1  0.962549  0.539501  0.962549  1
  O  O17  1  0.702346  0.286474  0.285272  1
  O  O18  1  0.288428  0.716352  0.708455  1
  O  O19  1  0.711465  0.290265  0.711465  1
  O  O20  1  0.285272  0.286474  0.702346  1
  O  O21  1  0.708455  0.716352  0.288428  1
