# generated using pymatgen
data_Ho3TmGaOs7
_symmetry_space_group_name_H-M   'P 1'
_cell_length_a   5.33086472
_cell_length_b   5.33091655
_cell_length_c   8.79680962
_cell_angle_alpha   89.98187078
_cell_angle_beta   89.94850998
_cell_angle_gamma   59.93403085
_symmetry_Int_Tables_number   1
_chemical_formula_structural   Ho3TmGaOs7
_chemical_formula_sum   'Ho3 Tm1 Ga1 Os7'
_cell_volume   216.35458823
_cell_formula_units_Z   1
loop_
 _symmetry_equiv_pos_site_id
 _symmetry_equiv_pos_as_xyz
  1  'x, y, z'
loop_
 _atom_site_type_symbol
 _atom_site_label
 _atom_site_symmetry_multiplicity
 _atom_site_fract_x
 _atom_site_fract_y
 _atom_site_fract_z
 _atom_site_occupancy
  Ho  Ho0  1  0.664179  0.664367  0.437221  1
  Ho  Ho1  1  0.663715  0.663812  0.062878  1
  Ho  Ho2  1  0.330346  0.330376  0.932092  1
  Tm  Tm3  1  0.330755  0.330876  0.567852  1
  Ga  Ga4  1  0.171037  0.171177  0.250759  1
  Os  Os5  1  0.989184  0.989465  0.500562  1
  Os  Os6  1  0.988889  0.989059  0.999748  1
  Os  Os7  1  0.825064  0.356788  0.749250  1
  Os  Os8  1  0.357372  0.824631  0.749255  1
  Os  Os9  1  0.844160  0.844122  0.749548  1
  Os  Os10  1  0.176881  0.658468  0.250409  1
  Os  Os11  1  0.658423  0.176857  0.250423  1
