# generated using pymatgen
data_Nb3ZnIrN
_symmetry_space_group_name_H-M   'P 1'
_cell_length_a   7.02750400
_cell_length_b   7.02750400
_cell_length_c   7.02750400
_cell_angle_alpha   90.00000000
_cell_angle_beta   90.00000000
_cell_angle_gamma   90.00000000
_symmetry_Int_Tables_number   1
_chemical_formula_structural   Nb3ZnIrN
_chemical_formula_sum   'Nb12 Zn4 Ir4 N4'
_cell_volume   347.05899468
_cell_formula_units_Z   4
loop_
 _symmetry_equiv_pos_site_id
 _symmetry_equiv_pos_as_xyz
  1  'x, y, z'
loop_
 _atom_site_type_symbol
 _atom_site_label
 _atom_site_symmetry_multiplicity
 _atom_site_fract_x
 _atom_site_fract_y
 _atom_site_fract_z
 _atom_site_occupancy
  Nb  Nb0  1  0.798433  0.957111  0.372655  1
  Nb  Nb1  1  0.701567  0.042889  0.872655  1
  Nb  Nb2  1  0.201567  0.457111  0.127345  1
  Nb  Nb3  1  0.298433  0.542889  0.627345  1
  Nb  Nb4  1  0.957111  0.372655  0.798433  1
  Nb  Nb5  1  0.042889  0.872655  0.701567  1
  Nb  Nb6  1  0.457111  0.127345  0.201567  1
  Nb  Nb7  1  0.542889  0.627345  0.298433  1
  Nb  Nb8  1  0.372655  0.798433  0.957111  1
  Nb  Nb9  1  0.872655  0.701567  0.042889  1
  Nb  Nb10  1  0.127345  0.201567  0.457111  1
  Nb  Nb11  1  0.627345  0.298433  0.542889  1
  Zn  Zn12  1  0.566714  0.433286  0.933286  1
  Zn  Zn13  1  0.433286  0.933286  0.566714  1
  Zn  Zn14  1  0.933286  0.566714  0.433286  1
  Zn  Zn15  1  0.066714  0.066714  0.066714  1
  Ir  Ir16  1  0.177588  0.822412  0.322412  1
  Ir  Ir17  1  0.322412  0.177588  0.822412  1
  Ir  Ir18  1  0.822412  0.322412  0.177588  1
  Ir  Ir19  1  0.677588  0.677588  0.677588  1
  N  N20  1  0.873680  0.126320  0.626320  1
  N  N21  1  0.626320  0.873680  0.126320  1
  N  N22  1  0.126320  0.626320  0.873680  1
  N  N23  1  0.373680  0.373680  0.373680  1
