# generated using pymatgen
data_Yb3Ag(Ir2O7)2
_symmetry_space_group_name_H-M   'P 1'
_cell_length_a   7.14392745
_cell_length_b   7.27429493
_cell_length_c   7.27429500
_cell_angle_alpha   59.99999514
_cell_angle_beta   59.39447388
_cell_angle_gamma   59.39448655
_symmetry_Int_Tables_number   1
_chemical_formula_structural   Yb3Ag(Ir2O7)2
_chemical_formula_sum   'Yb3 Ag1 Ir4 O14'
_cell_volume   264.83034948
_cell_formula_units_Z   1
loop_
 _symmetry_equiv_pos_site_id
 _symmetry_equiv_pos_as_xyz
  1  'x, y, z'
loop_
 _atom_site_type_symbol
 _atom_site_label
 _atom_site_symmetry_multiplicity
 _atom_site_fract_x
 _atom_site_fract_y
 _atom_site_fract_z
 _atom_site_occupancy
  Yb  Yb0  1  0.125000  0.625000  0.125000  1
  Yb  Yb1  1  0.125000  0.125000  0.625000  1
  Yb  Yb2  1  0.125000  0.125000  0.125000  1
  Ag  Ag3  1  0.625000  0.125000  0.125000  1
  Ir  Ir4  1  0.125000  0.625000  0.625000  1
  Ir  Ir5  1  0.625000  0.125000  0.625000  1
  Ir  Ir6  1  0.625000  0.625000  0.125000  1
  Ir  Ir7  1  0.625000  0.625000  0.625000  1
  O  O8  1  0.696800  0.698476  0.302362  1
  O  O9  1  0.292224  0.294856  0.706459  1
  O  O10  1  0.696800  0.302362  0.698476  1
  O  O11  1  0.292224  0.706459  0.294856  1
  O  O12  1  0.292224  0.706459  0.706459  1
  O  O13  1  0.696800  0.302362  0.302362  1
  O  O14  1  0.553200  0.551524  0.947638  1
  O  O15  1  0.957776  0.955144  0.543541  1
  O  O16  1  0.553200  0.947638  0.551524  1
  O  O17  1  0.957776  0.543541  0.955144  1
  O  O18  1  0.957776  0.543541  0.543541  1
  O  O19  1  0.553200  0.947638  0.947638  1
  O  O20  1  0.270766  0.243078  0.243078  1
  O  O21  1  0.979234  0.006922  0.006922  1
