# generated using pymatgen
data_Tb3NiPt2Pb3
_symmetry_space_group_name_H-M   'P 1'
_cell_length_a   7.81759000
_cell_length_b   7.81759004
_cell_length_c   3.82122500
_cell_angle_alpha   90.00000000
_cell_angle_beta   90.00000000
_cell_angle_gamma   120.00000831
_symmetry_Int_Tables_number   1
_chemical_formula_structural   Tb3NiPt2Pb3
_chemical_formula_sum   'Tb3 Ni1 Pt2 Pb3'
_cell_volume   202.24555586
_cell_formula_units_Z   1
loop_
 _symmetry_equiv_pos_site_id
 _symmetry_equiv_pos_as_xyz
  1  'x, y, z'
loop_
 _atom_site_type_symbol
 _atom_site_label
 _atom_site_symmetry_multiplicity
 _atom_site_fract_x
 _atom_site_fract_y
 _atom_site_fract_z
 _atom_site_occupancy
  Tb  Tb0  1  0.405610  0.405610  0.500000  1
  Tb  Tb1  1  0.594390  0.000000  0.500000  1
  Tb  Tb2  1  0.000000  0.594390  0.500000  1
  Ni  Ni3  1  0.000000  0.000000  0.500000  1
  Pt  Pt4  1  0.666667  0.333333  0.000000  1
  Pt  Pt5  1  0.333333  0.666667  0.000000  1
  Pb  Pb6  1  0.747844  0.747844  0.000000  1
  Pb  Pb7  1  0.252156  0.000000  0.000000  1
  Pb  Pb8  1  0.000000  0.252156  0.000000  1
