# generated using pymatgen
data_Eu(In3Te5)2
_symmetry_space_group_name_H-M   'P 1'
_cell_length_a   11.04315661
_cell_length_b   11.04420476
_cell_length_c   10.90291836
_cell_angle_alpha   89.76114048
_cell_angle_beta   89.74721378
_cell_angle_gamma   88.43834999
_symmetry_Int_Tables_number   1
_chemical_formula_structural   Eu(In3Te5)2
_chemical_formula_sum   'Eu2 In12 Te20'
_cell_volume   1329.23361867
_cell_formula_units_Z   2
loop_
 _symmetry_equiv_pos_site_id
 _symmetry_equiv_pos_as_xyz
  1  'x, y, z'
loop_
 _atom_site_type_symbol
 _atom_site_label
 _atom_site_symmetry_multiplicity
 _atom_site_fract_x
 _atom_site_fract_y
 _atom_site_fract_z
 _atom_site_occupancy
  Eu  Eu0  1  0.257473  0.002511  0.745558  1
  Eu  Eu1  1  0.997477  0.742479  0.254484  1
  In  In2  1  0.744682  0.173332  0.331683  1
  In  In3  1  0.172461  0.339415  0.744389  1
  In  In4  1  0.343431  0.745136  0.171971  1
  In  In5  1  0.254868  0.656606  0.828018  1
  In  In6  1  0.826714  0.255329  0.668320  1
  In  In7  1  0.660608  0.827519  0.255600  1
  In  In8  1  0.842046  0.875458  0.576210  1
  In  In9  1  0.870823  0.570663  0.843275  1
  In  In10  1  0.574620  0.844238  0.876102  1
  In  In11  1  0.155731  0.425402  0.123893  1
  In  In12  1  0.124500  0.158015  0.423755  1
  In  In13  1  0.429314  0.129180  0.156706  1
  Te  Te14  1  0.167267  0.832771  0.999975  1
  Te  Te15  1  0.831616  0.991738  0.166802  1
  Te  Te16  1  0.008311  0.168348  0.833195  1
  Te  Te17  1  0.833721  0.832149  0.836167  1
  Te  Te18  1  0.167868  0.166227  0.163847  1
  Te  Te19  1  0.765355  0.676299  0.436779  1
  Te  Te20  1  0.677783  0.442652  0.752310  1
  Te  Te21  1  0.432186  0.761547  0.678159  1
  Te  Te22  1  0.238485  0.567781  0.321840  1
  Te  Te23  1  0.323621  0.234717  0.563226  1
  Te  Te24  1  0.557316  0.322248  0.247659  1
  Te  Te25  1  0.088500  0.911480  0.500030  1
  Te  Te26  1  0.913014  0.504169  0.091406  1
  Te  Te27  1  0.495776  0.087010  0.908588  1
  Te  Te28  1  0.672066  0.072194  0.568483  1
  Te  Te29  1  0.069212  0.569048  0.669249  1
  Te  Te30  1  0.571163  0.666282  0.069245  1
  Te  Te31  1  0.333659  0.428830  0.930823  1
  Te  Te32  1  0.927786  0.328002  0.431476  1
  Te  Te33  1  0.431042  0.930725  0.330777  1
