# generated using pymatgen
data_Ho8Sc12Si15Os
_symmetry_space_group_name_H-M   'P 1'
_cell_length_a   7.06778528
_cell_length_b   7.42148533
_cell_length_c   13.92725500
_cell_angle_alpha   90.00000000
_cell_angle_beta   90.00000000
_cell_angle_gamma   90.21969360
_symmetry_Int_Tables_number   1
_chemical_formula_structural   Ho8Sc12Si15Os
_chemical_formula_sum   'Ho8 Sc12 Si15 Os1'
_cell_volume   730.52740992
_cell_formula_units_Z   1
loop_
 _symmetry_equiv_pos_site_id
 _symmetry_equiv_pos_as_xyz
  1  'x, y, z'
loop_
 _atom_site_type_symbol
 _atom_site_label
 _atom_site_symmetry_multiplicity
 _atom_site_fract_x
 _atom_site_fract_y
 _atom_site_fract_z
 _atom_site_occupancy
  Ho  Ho0  1  0.011338  0.178921  0.096225  1
  Ho  Ho1  1  0.990928  0.827879  0.903672  1
  Ho  Ho2  1  0.488458  0.676863  0.904107  1
  Ho  Ho3  1  0.990928  0.827879  0.596328  1
  Ho  Ho4  1  0.510963  0.322849  0.096280  1
  Ho  Ho5  1  0.011338  0.178921  0.403775  1
  Ho  Ho6  1  0.510963  0.322849  0.403720  1
  Ho  Ho7  1  0.488458  0.676863  0.595893  1
  Sc  Sc8  1  0.156008  0.497120  0.750000  1
  Sc  Sc9  1  0.837859  0.495245  0.250000  1
  Sc  Sc10  1  0.338986  0.005409  0.250000  1
  Sc  Sc11  1  0.668905  0.997883  0.750000  1
  Sc  Sc12  1  0.318192  0.172258  0.627365  1
  Sc  Sc13  1  0.671710  0.825168  0.373788  1
  Sc  Sc14  1  0.170973  0.678029  0.374067  1
  Sc  Sc15  1  0.671710  0.825168  0.126212  1
  Sc  Sc16  1  0.837387  0.319129  0.627412  1
  Sc  Sc17  1  0.318192  0.172258  0.872635  1
  Sc  Sc18  1  0.837387  0.319129  0.872588  1
  Sc  Sc19  1  0.170973  0.678029  0.125933  1
  Si  Si20  1  0.968758  0.885544  0.250000  1
  Si  Si21  1  0.469196  0.613722  0.250000  1
  Si  Si22  1  0.529524  0.389749  0.750000  1
  Si  Si23  1  0.286479  0.866280  0.750000  1
  Si  Si24  1  0.713306  0.130786  0.250000  1
  Si  Si25  1  0.213583  0.370215  0.250000  1
  Si  Si26  1  0.778756  0.627288  0.750000  1
  Si  Si27  1  0.160141  0.469022  0.536892  1
  Si  Si28  1  0.843968  0.535790  0.461488  1
  Si  Si29  1  0.344573  0.965970  0.459950  1
  Si  Si30  1  0.843968  0.535790  0.038512  1
  Si  Si31  1  0.655780  0.034014  0.538164  1
  Si  Si32  1  0.160141  0.469022  0.963108  1
  Si  Si33  1  0.655780  0.034014  0.961836  1
  Si  Si34  1  0.344573  0.965970  0.040050  1
  Os  Os35  1  0.029818  0.108975  0.750000  1
