# generated using pymatgen
data_Mo4P5SO24
_symmetry_space_group_name_H-M   'P 1'
_cell_length_a   8.78430966
_cell_length_b   8.75687506
_cell_length_c   9.04375192
_cell_angle_alpha   89.25921418
_cell_angle_beta   61.77221914
_cell_angle_gamma   119.90388864
_symmetry_Int_Tables_number   1
_chemical_formula_structural   Mo4P5SO24
_chemical_formula_sum   'Mo4 P5 S1 O24'
_cell_volume   502.37001954
_cell_formula_units_Z   1
loop_
 _symmetry_equiv_pos_site_id
 _symmetry_equiv_pos_as_xyz
  1  'x, y, z'
loop_
 _atom_site_type_symbol
 _atom_site_label
 _atom_site_symmetry_multiplicity
 _atom_site_fract_x
 _atom_site_fract_y
 _atom_site_fract_z
 _atom_site_occupancy
  Mo  Mo0  1  0.789010  0.142506  0.068124  1
  Mo  Mo1  1  0.789842  0.646608  0.567944  1
  Mo  Mo2  1  0.210910  0.356545  0.434764  1
  Mo  Mo3  1  0.211149  0.854327  0.928469  1
  P  P4  1  0.714667  0.746485  0.246045  1
  P  P5  1  0.281770  0.250743  0.755525  1
  P  P6  1  0.710932  0.965775  0.749360  1
  P  P7  1  0.006954  0.537645  0.745913  1
  P  P8  1  0.995564  0.462725  0.254511  1
  S  S9  1  0.289475  0.039471  0.249101  1
  O  O10  1  0.482742  0.085382  0.233923  1
  O  O11  1  0.866205  0.369687  0.914754  1
  O  O12  1  0.899861  0.141935  0.587274  1
  O  O13  1  0.857937  0.560199  0.719511  1
  O  O14  1  0.131117  0.637279  0.085966  1
  O  O15  1  0.113275  0.872497  0.408148  1
  O  O16  1  0.151901  0.446052  0.272706  1
  O  O17  1  0.147522  0.714915  0.775685  1
  O  O18  1  0.160384  0.522128  0.582418  1
  O  O19  1  0.269118  0.196652  0.263819  1
  O  O20  1  0.297688  0.004880  0.084997  1
  O  O21  1  0.689314  0.905962  0.226679  1
  O  O22  1  0.521842  0.561620  0.275801  1
  O  O23  1  0.264231  0.251770  0.593434  1
  O  O24  1  0.854382  0.490918  0.416941  1
  O  O25  1  0.091824  0.217552  0.925233  1
  O  O26  1  0.911833  0.781327  0.075477  1
  O  O27  1  0.506380  0.925321  0.772546  1
  O  O28  1  0.735044  0.735516  0.404634  1
  O  O29  1  0.480223  0.420959  0.724984  1
  O  O30  1  0.288200  0.075822  0.789559  1
  O  O31  1  0.707602  0.993153  0.918189  1
  O  O32  1  0.717026  0.795390  0.721752  1
  O  O33  1  0.854075  0.290253  0.225814  1
