# generated using pymatgen
data_Mg4Ni5(As3Ru)2
_symmetry_space_group_name_H-M   'P 1'
_cell_length_a   6.89396119
_cell_length_b   6.89396107
_cell_length_c   6.89396150
_cell_angle_alpha   109.77424012
_cell_angle_beta   108.86688772
_cell_angle_gamma   109.77422660
_symmetry_Int_Tables_number   1
_chemical_formula_structural   Mg4Ni5(As3Ru)2
_chemical_formula_sum   'Mg4 Ni5 As6 Ru2'
_cell_volume   252.20192105
_cell_formula_units_Z   1
loop_
 _symmetry_equiv_pos_site_id
 _symmetry_equiv_pos_as_xyz
  1  'x, y, z'
loop_
 _atom_site_type_symbol
 _atom_site_label
 _atom_site_symmetry_multiplicity
 _atom_site_fract_x
 _atom_site_fract_y
 _atom_site_fract_z
 _atom_site_occupancy
  Mg  Mg0  1  0.999941  0.999882  0.499941  1
  Mg  Mg1  1  0.500059  0.000118  0.000059  1
  Mg  Mg2  1  0.999941  0.500000  0.000059  1
  Mg  Mg3  1  0.500059  0.500000  0.499941  1
  Ni  Ni4  1  0.743899  0.246322  0.497578  1
  Ni  Ni5  1  0.502422  0.246322  0.748744  1
  Ni  Ni6  1  0.502422  0.753678  0.256101  1
  Ni  Ni7  1  0.750000  0.500000  0.250000  1
  Ni  Ni8  1  0.251256  0.753678  0.497578  1
  As  As9  1  0.685834  0.683538  0.002297  1
  As  As10  1  0.318759  0.316462  0.002297  1
  As  As11  1  0.997703  0.683538  0.681241  1
  As  As12  1  0.997703  0.316462  0.314166  1
  As  As13  1  0.683678  0.000000  0.683678  1
  As  As14  1  0.316322  0.000000  0.316322  1
  Ru  Ru15  1  0.000000  0.000000  0.000000  1
  Ru  Ru16  1  0.250000  0.500000  0.750000  1
