# generated using pymatgen
data_Sc8Ti8Nb3Si16Ru
_symmetry_space_group_name_H-M   'P 1'
_cell_length_a   6.66318794
_cell_length_b   6.82224117
_cell_length_c   13.03426100
_cell_angle_alpha   90.00000000
_cell_angle_beta   90.00000000
_cell_angle_gamma   89.98217382
_symmetry_Int_Tables_number   1
_chemical_formula_structural   Sc8Ti8Nb3Si16Ru
_chemical_formula_sum   'Sc8 Ti8 Nb3 Si16 Ru1'
_cell_volume   592.50977955
_cell_formula_units_Z   1
loop_
 _symmetry_equiv_pos_site_id
 _symmetry_equiv_pos_as_xyz
  1  'x, y, z'
loop_
 _atom_site_type_symbol
 _atom_site_label
 _atom_site_symmetry_multiplicity
 _atom_site_fract_x
 _atom_site_fract_y
 _atom_site_fract_z
 _atom_site_occupancy
  Sc  Sc0  1  0.498392  0.674974  0.595841  1
  Sc  Sc1  1  0.001983  0.827145  0.904582  1
  Sc  Sc2  1  0.497676  0.325736  0.095663  1
  Sc  Sc3  1  0.997744  0.175216  0.404055  1
  Sc  Sc4  1  0.497676  0.325736  0.404337  1
  Sc  Sc5  1  0.997744  0.175216  0.095945  1
  Sc  Sc6  1  0.498392  0.674974  0.904159  1
  Sc  Sc7  1  0.001983  0.827145  0.595418  1
  Ti  Ti8  1  0.663853  0.171102  0.626090  1
  Ti  Ti9  1  0.168292  0.326828  0.873674  1
  Ti  Ti10  1  0.337059  0.824582  0.125981  1
  Ti  Ti11  1  0.836029  0.674192  0.375059  1
  Ti  Ti12  1  0.337059  0.824582  0.374019  1
  Ti  Ti13  1  0.836029  0.674192  0.124941  1
  Ti  Ti14  1  0.663853  0.171102  0.873910  1
  Ti  Ti15  1  0.168292  0.326828  0.626326  1
  Nb  Nb16  1  0.335793  0.007649  0.750000  1
  Nb  Nb17  1  0.163121  0.506324  0.250000  1
  Nb  Nb18  1  0.663486  0.993490  0.250000  1
  Si  Si19  1  0.665027  0.965009  0.460484  1
  Si  Si20  1  0.164825  0.535890  0.038388  1
  Si  Si21  1  0.333929  0.035550  0.960862  1
  Si  Si22  1  0.834088  0.463049  0.542654  1
  Si  Si23  1  0.333929  0.035550  0.539138  1
  Si  Si24  1  0.834088  0.463049  0.957346  1
  Si  Si25  1  0.665027  0.965009  0.039516  1
  Si  Si26  1  0.164825  0.535890  0.461612  1
  Si  Si27  1  0.469613  0.386871  0.750000  1
  Si  Si28  1  0.958710  0.120654  0.750000  1
  Si  Si29  1  0.540818  0.616514  0.250000  1
  Si  Si30  1  0.039930  0.882237  0.250000  1
  Si  Si31  1  0.705665  0.859774  0.750000  1
  Si  Si32  1  0.198723  0.632312  0.750000  1
  Si  Si33  1  0.294007  0.134031  0.250000  1
  Si  Si34  1  0.794092  0.366085  0.250000  1
  Ru  Ru35  1  0.838242  0.495521  0.750000  1
