# generated using pymatgen
data_PrTh9(Pb3S)2
_symmetry_space_group_name_H-M   'P 1'
_cell_length_a   9.55041666
_cell_length_b   9.58915893
_cell_length_c   6.70523300
_cell_angle_alpha   90.00000000
_cell_angle_beta   90.00000000
_cell_angle_gamma   120.13549398
_symmetry_Int_Tables_number   1
_chemical_formula_structural   PrTh9(Pb3S)2
_chemical_formula_sum   'Pr1 Th9 Pb6 S2'
_cell_volume   531.07122008
_cell_formula_units_Z   1
loop_
 _symmetry_equiv_pos_site_id
 _symmetry_equiv_pos_as_xyz
  1  'x, y, z'
loop_
 _atom_site_type_symbol
 _atom_site_label
 _atom_site_symmetry_multiplicity
 _atom_site_fract_x
 _atom_site_fract_y
 _atom_site_fract_z
 _atom_site_occupancy
  Pr  Pr0  1  0.000004  0.747589  0.250000  1
  Th  Th1  1  0.750250  0.751185  0.750000  1
  Th  Th2  1  0.249737  0.000919  0.750000  1
  Th  Th3  1  0.000007  0.252635  0.750000  1
  Th  Th4  1  0.249843  0.249336  0.250000  1
  Th  Th5  1  0.750159  0.999490  0.250000  1
  Th  Th6  1  0.665028  0.331410  0.998939  1
  Th  Th7  1  0.334974  0.666376  0.998943  1
  Th  Th8  1  0.334974  0.666376  0.501057  1
  Th  Th9  1  0.665028  0.331410  0.501061  1
  Pb  Pb10  1  0.393630  0.393570  0.750000  1
  Pb  Pb11  1  0.606371  0.999947  0.750000  1
  Pb  Pb12  1  0.999992  0.607328  0.750000  1
  Pb  Pb13  1  0.607971  0.606550  0.250000  1
  Pb  Pb14  1  0.392030  0.998589  0.250000  1
  Pb  Pb15  1  0.999999  0.392759  0.250000  1
  S  S16  1  0.000002  0.002263  0.998432  1
  S  S17  1  0.000002  0.002263  0.501568  1
