# generated using pymatgen
data_La3Bi(Mo2O7)2
_symmetry_space_group_name_H-M   'P 1'
_cell_length_a   7.61587725
_cell_length_b   7.53483932
_cell_length_c   7.55780466
_cell_angle_alpha   119.34565697
_cell_angle_beta   120.43932249
_cell_angle_gamma   90.04957843
_symmetry_Int_Tables_number   1
_chemical_formula_structural   La3Bi(Mo2O7)2
_chemical_formula_sum   'La3 Bi1 Mo4 O14'
_cell_volume   307.50669337
_cell_formula_units_Z   1
loop_
 _symmetry_equiv_pos_site_id
 _symmetry_equiv_pos_as_xyz
  1  'x, y, z'
loop_
 _atom_site_type_symbol
 _atom_site_label
 _atom_site_symmetry_multiplicity
 _atom_site_fract_x
 _atom_site_fract_y
 _atom_site_fract_z
 _atom_site_occupancy
  La  La0  1  0.375000  0.625000  0.250000  1
  La  La1  1  0.875000  0.625000  0.250000  1
  La  La2  1  0.375000  0.125000  0.750000  1
  Bi  Bi3  1  0.375000  0.625000  0.750000  1
  Mo  Mo4  1  0.875000  0.625000  0.750000  1
  Mo  Mo5  1  0.375000  0.125000  0.250000  1
  Mo  Mo6  1  0.875000  0.125000  0.250000  1
  Mo  Mo7  1  0.875000  0.125000  0.750000  1
  O  O8  1  0.784824  0.199064  0.995186  1
  O  O9  1  0.551119  0.460561  0.501319  1
  O  O10  1  0.206092  0.205904  0.000323  1
  O  O11  1  0.956840  0.454033  0.499316  1
  O  O12  1  0.801048  0.798705  0.587472  1
  O  O13  1  0.538134  0.033358  0.087379  1
  O  O14  1  0.250372  0.749693  0.498741  1
  O  O15  1  0.948952  0.451295  0.912528  1
  O  O16  1  0.965176  0.050936  0.504814  1
  O  O17  1  0.543908  0.044096  0.499677  1
  O  O18  1  0.211866  0.216642  0.412621  1
  O  O19  1  0.499628  0.500307  0.001259  1
  O  O20  1  0.793160  0.795967  0.000684  1
  O  O21  1  0.198881  0.789439  0.998681  1
