# generated using pymatgen
data_AcSi2Ni9
_symmetry_space_group_name_H-M   'P 1'
_cell_length_a   7.68566859
_cell_length_b   7.68566721
_cell_length_c   7.68566830
_cell_angle_alpha   99.62625633
_cell_angle_beta   99.62624967
_cell_angle_gamma   131.72521499
_symmetry_Int_Tables_number   1
_chemical_formula_structural   AcSi2Ni9
_chemical_formula_sum   'Ac2 Si4 Ni18'
_cell_volume   309.20728759
_cell_formula_units_Z   2
loop_
 _symmetry_equiv_pos_site_id
 _symmetry_equiv_pos_as_xyz
  1  'x, y, z'
loop_
 _atom_site_type_symbol
 _atom_site_label
 _atom_site_symmetry_multiplicity
 _atom_site_fract_x
 _atom_site_fract_y
 _atom_site_fract_z
 _atom_site_occupancy
  Ac  Ac0  1  0.000000  0.000000  0.000000  1
  Ac  Ac1  1  0.250000  0.750000  0.500000  1
  Si  Si2  1  0.125000  0.375000  0.750000  1
  Si  Si3  1  0.625000  0.875000  0.250000  1
  Si  Si4  1  0.625000  0.375000  0.750000  1
  Si  Si5  1  0.625000  0.375000  0.250000  1
  Ni  Ni6  1  0.750000  0.250000  0.500000  1
  Ni  Ni7  1  0.500000  0.500000  0.000000  1
  Ni  Ni8  1  0.191169  0.521270  0.078941  1
  Ni  Ni9  1  0.191169  0.112228  0.669898  1
  Ni  Ni10  1  0.771270  0.941169  0.578941  1
  Ni  Ni11  1  0.771270  0.192330  0.830102  1
  Ni  Ni12  1  0.442330  0.521270  0.330102  1
  Ni  Ni13  1  0.442330  0.112228  0.921059  1
  Ni  Ni14  1  0.362228  0.941169  0.169898  1
  Ni  Ni15  1  0.362228  0.192330  0.421059  1
  Ni  Ni16  1  0.058831  0.228730  0.421059  1
  Ni  Ni17  1  0.058831  0.637772  0.830102  1
  Ni  Ni18  1  0.478730  0.808831  0.921059  1
  Ni  Ni19  1  0.478730  0.557670  0.669898  1
  Ni  Ni20  1  0.807670  0.228730  0.169898  1
  Ni  Ni21  1  0.807670  0.637772  0.578941  1
  Ni  Ni22  1  0.887772  0.808831  0.330102  1
  Ni  Ni23  1  0.887772  0.557670  0.078941  1
