# generated using pymatgen
data_Ti6CrAs6Ru5
_symmetry_space_group_name_H-M   'P 1'
_cell_length_a   7.48809772
_cell_length_b   7.44297556
_cell_length_c   7.46894960
_cell_angle_alpha   128.07957097
_cell_angle_beta   121.37491087
_cell_angle_gamma   82.11944602
_symmetry_Int_Tables_number   1
_chemical_formula_structural   Ti6CrAs6Ru5
_chemical_formula_sum   'Ti6 Cr1 As6 Ru5'
_cell_volume   269.06945746
_cell_formula_units_Z   1
loop_
 _symmetry_equiv_pos_site_id
 _symmetry_equiv_pos_as_xyz
  1  'x, y, z'
loop_
 _atom_site_type_symbol
 _atom_site_label
 _atom_site_symmetry_multiplicity
 _atom_site_fract_x
 _atom_site_fract_y
 _atom_site_fract_z
 _atom_site_occupancy
  Ti  Ti0  1  0.471925  0.245576  0.279936  1
  Ti  Ti1  1  0.528304  0.803600  0.776043  1
  Ti  Ti2  1  0.745474  0.660731  0.407458  1
  Ti  Ti3  1  0.252862  0.666434  0.915450  1
  Ti  Ti4  1  0.049550  0.842213  0.287946  1
  Ti  Ti5  1  0.940547  0.243225  0.791742  1
  Cr  Cr6  1  0.660384  0.494601  0.905594  1
  As  As7  1  0.832190  0.579595  0.750329  1
  As  As8  1  0.160942  0.915033  0.743603  1
  As  As9  1  0.669949  0.906114  0.243519  1
  As  As10  1  0.329032  0.577975  0.241394  1
  As  As11  1  0.290465  0.294032  0.512782  1
  As  As12  1  0.718221  0.219394  0.997226  1
  Ru  Ru13  1  0.337608  0.246276  0.834504  1
  Ru  Ru14  1  0.913913  0.249621  0.410600  1
  Ru  Ru15  1  0.084087  0.499081  0.331918  1
  Ru  Ru16  1  0.010864  0.000126  0.010813  1
  Ru  Ru17  1  0.503684  0.996770  0.499539  1
