# generated using pymatgen
data_Er3TmV4(WO6)4
_symmetry_space_group_name_H-M   'P 1'
_cell_length_a   5.19735304
_cell_length_b   7.40715120
_cell_length_c   11.16456533
_cell_angle_alpha   90.02539446
_cell_angle_beta   89.98845098
_cell_angle_gamma   89.99102035
_symmetry_Int_Tables_number   1
_chemical_formula_structural   Er3TmV4(WO6)4
_chemical_formula_sum   'Er3 Tm1 V4 W4 O24'
_cell_volume   429.80868907
_cell_formula_units_Z   1
loop_
 _symmetry_equiv_pos_site_id
 _symmetry_equiv_pos_as_xyz
  1  'x, y, z'
loop_
 _atom_site_type_symbol
 _atom_site_label
 _atom_site_symmetry_multiplicity
 _atom_site_fract_x
 _atom_site_fract_y
 _atom_site_fract_z
 _atom_site_occupancy
  Er  Er0  1  0.544007  0.253740  0.045481  1
  Er  Er1  1  0.044393  0.753800  0.454433  1
  Er  Er2  1  0.955786  0.253803  0.545598  1
  Tm  Tm3  1  0.454977  0.753678  0.954363  1
  V  V4  1  0.051115  0.507035  0.133869  1
  V  V5  1  0.551090  0.006540  0.365875  1
  V  V6  1  0.448833  0.506749  0.634294  1
  V  V7  1  0.948661  0.006244  0.865958  1
  W  W8  1  0.056925  0.998004  0.143190  1
  W  W9  1  0.557066  0.498183  0.356440  1
  W  W10  1  0.443092  0.998129  0.643826  1
  W  W11  1  0.942595  0.498664  0.856661  1
  O  O12  1  0.753515  0.546719  0.019796  1
  O  O13  1  0.762551  0.955820  0.029456  1
  O  O14  1  0.185771  0.754869  0.114134  1
  O  O15  1  0.931030  0.246309  0.142710  1
  O  O16  1  0.377113  0.073080  0.205790  1
  O  O17  1  0.394786  0.434672  0.212928  1
  O  O18  1  0.895138  0.934471  0.286798  1
  O  O19  1  0.877593  0.573170  0.294131  1
  O  O20  1  0.431011  0.746351  0.356900  1
  O  O21  1  0.684258  0.254850  0.385065  1
  O  O22  1  0.263454  0.456776  0.470449  1
  O  O23  1  0.254482  0.045541  0.480165  1
  O  O24  1  0.745595  0.545610  0.519996  1
  O  O25  1  0.736574  0.956726  0.529662  1
  O  O26  1  0.315837  0.754905  0.614907  1
  O  O27  1  0.569049  0.246330  0.643253  1
  O  O28  1  0.122413  0.073141  0.705880  1
  O  O29  1  0.104773  0.434857  0.713057  1
  O  O30  1  0.604484  0.934109  0.787479  1
  O  O31  1  0.622032  0.574045  0.794709  1
  O  O32  1  0.071104  0.746330  0.857189  1
  O  O33  1  0.816131  0.255042  0.885214  1
  O  O34  1  0.236780  0.457243  0.970444  1
  O  O35  1  0.245984  0.044871  0.979896  1
