# generated using pymatgen
data_La5Pr(CoI3)2
_symmetry_space_group_name_H-M   'P 1'
_cell_length_a   4.52104200
_cell_length_b   9.47671083
_cell_length_c   12.19606267
_cell_angle_alpha   86.49868599
_cell_angle_beta   90.00000000
_cell_angle_gamma   90.00000000
_symmetry_Int_Tables_number   1
_chemical_formula_structural   La5Pr(CoI3)2
_chemical_formula_sum   'La5 Pr1 Co2 I6'
_cell_volume   521.56015446
_cell_formula_units_Z   1
loop_
 _symmetry_equiv_pos_site_id
 _symmetry_equiv_pos_as_xyz
  1  'x, y, z'
loop_
 _atom_site_type_symbol
 _atom_site_label
 _atom_site_symmetry_multiplicity
 _atom_site_fract_x
 _atom_site_fract_y
 _atom_site_fract_z
 _atom_site_occupancy
  La  La0  1  0.750000  0.688696  0.117814  1
  La  La1  1  0.250000  0.310253  0.883505  1
  La  La2  1  0.250000  0.889447  0.322032  1
  La  La3  1  0.750000  0.112344  0.677309  1
  La  La4  1  0.250000  0.905869  0.907353  1
  Pr  Pr5  1  0.750000  0.091341  0.095336  1
  Co  Co6  1  0.250000  0.885800  0.125827  1
  Co  Co7  1  0.750000  0.114226  0.870484  1
  I  I8  1  0.250000  0.871468  0.622323  1
  I  I9  1  0.750000  0.129865  0.376544  1
  I  I10  1  0.750000  0.641766  0.382910  1
  I  I11  1  0.250000  0.360334  0.618109  1
  I  I12  1  0.250000  0.392061  0.141153  1
  I  I13  1  0.750000  0.606527  0.859304  1
