# generated using pymatgen
data_TbHo19IrRu11
_symmetry_space_group_name_H-M   'P 1'
_cell_length_a   10.76872596
_cell_length_b   10.76915573
_cell_length_c   6.34486507
_cell_angle_alpha   89.96674092
_cell_angle_beta   89.98513168
_cell_angle_gamma   89.99404369
_symmetry_Int_Tables_number   1
_chemical_formula_structural   TbHo19IrRu11
_chemical_formula_sum   'Tb1 Ho19 Ir1 Ru11'
_cell_volume   735.81440056
_cell_formula_units_Z   1
loop_
 _symmetry_equiv_pos_site_id
 _symmetry_equiv_pos_as_xyz
  1  'x, y, z'
loop_
 _atom_site_type_symbol
 _atom_site_label
 _atom_site_symmetry_multiplicity
 _atom_site_fract_x
 _atom_site_fract_y
 _atom_site_fract_z
 _atom_site_occupancy
  Tb  Tb0  1  0.291784  0.086453  0.376239  1
  Ho  Ho1  1  0.292027  0.914472  0.876738  1
  Ho  Ho2  1  0.708125  0.086479  0.876594  1
  Ho  Ho3  1  0.708269  0.913494  0.376455  1
  Ho  Ho4  1  0.586515  0.792535  0.876747  1
  Ho  Ho5  1  0.586562  0.207463  0.376409  1
  Ho  Ho6  1  0.414169  0.792524  0.376617  1
  Ho  Ho7  1  0.413735  0.208413  0.876669  1
  Ho  Ho8  1  0.207451  0.413604  0.623338  1
  Ho  Ho9  1  0.207246  0.585942  0.123406  1
  Ho  Ho10  1  0.792632  0.413679  0.123613  1
  Ho  Ho11  1  0.791672  0.586392  0.623333  1
  Ho  Ho12  1  0.913719  0.707886  0.123510  1
  Ho  Ho13  1  0.913507  0.291920  0.623415  1
  Ho  Ho14  1  0.085349  0.707970  0.623311  1
  Ho  Ho15  1  0.086304  0.291953  0.123364  1
  Ho  Ho16  1  0.999983  0.000055  0.500076  1
  Ho  Ho17  1  0.999768  0.999781  0.999921  1
  Ho  Ho18  1  0.501250  0.499595  0.000830  1
  Ho  Ho19  1  0.500396  0.498788  0.499208  1
  Ir  Ir20  1  0.346118  0.653884  0.750020  1
  Ru  Ru21  1  0.846960  0.153027  0.250002  1
  Ru  Ru22  1  0.846854  0.846609  0.749687  1
  Ru  Ru23  1  0.153218  0.153223  0.750897  1
  Ru  Ru24  1  0.153982  0.845584  0.249844  1
  Ru  Ru25  1  0.652850  0.347156  0.750002  1
  Ru  Ru26  1  0.652118  0.653433  0.250371  1
  Ru  Ru27  1  0.346642  0.348190  0.249465  1
  Ru  Ru28  1  0.500284  0.999533  0.124202  1
  Ru  Ru29  1  0.500318  0.000081  0.625306  1
  Ru  Ru30  1  0.999811  0.499931  0.874938  1
  Ru  Ru31  1  0.000382  0.499953  0.375476  1
