# generated using pymatgen
data_Tb5In3Se
_symmetry_space_group_name_H-M   'P 1'
_cell_length_a   9.28677700
_cell_length_b   9.28677742
_cell_length_c   6.67945600
_cell_angle_alpha   90.00000000
_cell_angle_beta   90.00000000
_cell_angle_gamma   120.00000206
_symmetry_Int_Tables_number   1
_chemical_formula_structural   Tb5In3Se
_chemical_formula_sum   'Tb10 In6 Se2'
_cell_volume   498.88652071
_cell_formula_units_Z   2
loop_
 _symmetry_equiv_pos_site_id
 _symmetry_equiv_pos_as_xyz
  1  'x, y, z'
loop_
 _atom_site_type_symbol
 _atom_site_label
 _atom_site_symmetry_multiplicity
 _atom_site_fract_x
 _atom_site_fract_y
 _atom_site_fract_z
 _atom_site_occupancy
  Tb  Tb0  1  0.666667  0.333333  0.000000  1
  Tb  Tb1  1  0.333333  0.666667  0.000000  1
  Tb  Tb2  1  0.333333  0.666667  0.500000  1
  Tb  Tb3  1  0.666667  0.333333  0.500000  1
  Tb  Tb4  1  0.748722  0.748722  0.750000  1
  Tb  Tb5  1  0.251278  0.000000  0.750000  1
  Tb  Tb6  1  0.000000  0.251278  0.750000  1
  Tb  Tb7  1  0.251278  0.251278  0.250000  1
  Tb  Tb8  1  0.748722  0.000000  0.250000  1
  Tb  Tb9  1  0.000000  0.748722  0.250000  1
  In  In10  1  0.398899  0.398899  0.750000  1
  In  In11  1  0.601101  0.000000  0.750000  1
  In  In12  1  0.000000  0.601101  0.750000  1
  In  In13  1  0.601101  0.601101  0.250000  1
  In  In14  1  0.398899  0.000000  0.250000  1
  In  In15  1  0.000000  0.398899  0.250000  1
  Se  Se16  1  0.000000  0.000000  0.000000  1
  Se  Se17  1  0.000000  0.000000  0.500000  1
