# generated using pymatgen
data_Li4La3Pr(Si2Ge)2
_symmetry_space_group_name_H-M   'P 1'
_cell_length_a   9.67950813
_cell_length_b   9.67950782
_cell_length_c   6.90778100
_cell_angle_alpha   90.00000000
_cell_angle_beta   90.00000000
_cell_angle_gamma   152.99747229
_symmetry_Int_Tables_number   1
_chemical_formula_structural   Li4La3Pr(Si2Ge)2
_chemical_formula_sum   'Li4 La3 Pr1 Si4 Ge2'
_cell_volume   293.85256809
_cell_formula_units_Z   1
loop_
 _symmetry_equiv_pos_site_id
 _symmetry_equiv_pos_as_xyz
  1  'x, y, z'
loop_
 _atom_site_type_symbol
 _atom_site_label
 _atom_site_symmetry_multiplicity
 _atom_site_fract_x
 _atom_site_fract_y
 _atom_site_fract_z
 _atom_site_occupancy
  Li  Li0  1  0.811459  0.188541  0.559545  1
  Li  Li1  1  0.188255  0.811745  0.441254  1
  Li  Li2  1  0.188255  0.811745  0.058746  1
  Li  Li3  1  0.811459  0.188541  0.940455  1
  La  La4  1  0.551909  0.448091  0.250000  1
  La  La5  1  0.448564  0.551436  0.750000  1
  La  La6  1  0.343319  0.656681  0.250000  1
  Pr  Pr7  1  0.656414  0.343586  0.750000  1
  Si  Si8  1  0.942881  0.057119  0.075615  1
  Si  Si9  1  0.057599  0.942401  0.923890  1
  Si  Si10  1  0.057599  0.942401  0.576110  1
  Si  Si11  1  0.942881  0.057119  0.424385  1
  Ge  Ge12  1  0.719851  0.280149  0.250000  1
  Ge  Ge13  1  0.279557  0.720443  0.750000  1
