# generated using pymatgen
data_CeHo7(Si4W3)4
_symmetry_space_group_name_H-M   'P 1'
_cell_length_a   6.77415954
_cell_length_b   6.93358642
_cell_length_c   12.93379370
_cell_angle_alpha   89.95062862
_cell_angle_beta   90.05140293
_cell_angle_gamma   90.08570852
_symmetry_Int_Tables_number   1
_chemical_formula_structural   CeHo7(Si4W3)4
_chemical_formula_sum   'Ce1 Ho7 Si16 W12'
_cell_volume   607.48906101
_cell_formula_units_Z   1
loop_
 _symmetry_equiv_pos_site_id
 _symmetry_equiv_pos_as_xyz
  1  'x, y, z'
loop_
 _atom_site_type_symbol
 _atom_site_label
 _atom_site_symmetry_multiplicity
 _atom_site_fract_x
 _atom_site_fract_y
 _atom_site_fract_z
 _atom_site_occupancy
  Ce  Ce0  1  0.997300  0.830976  0.594095  1
  Ho  Ho1  1  0.495500  0.668208  0.593197  1
  Ho  Ho2  1  0.995376  0.833163  0.906965  1
  Ho  Ho3  1  0.504153  0.332557  0.093810  1
  Ho  Ho4  1  0.004740  0.166302  0.406218  1
  Ho  Ho5  1  0.503799  0.332237  0.405763  1
  Ho  Ho6  1  0.003879  0.167636  0.093798  1
  Ho  Ho7  1  0.496312  0.667751  0.907053  1
  Si  Si8  1  0.661080  0.957894  0.453015  1
  Si  Si9  1  0.161513  0.541756  0.046703  1
  Si  Si10  1  0.338913  0.042085  0.953423  1
  Si  Si11  1  0.836439  0.454538  0.545794  1
  Si  Si12  1  0.339765  0.044084  0.545529  1
  Si  Si13  1  0.839077  0.458672  0.953256  1
  Si  Si14  1  0.660974  0.957901  0.046547  1
  Si  Si15  1  0.163028  0.541129  0.452963  1
  Si  Si16  1  0.463677  0.370803  0.749878  1
  Si  Si17  1  0.963275  0.130349  0.750661  1
  Si  Si18  1  0.536321  0.629633  0.249561  1
  Si  Si19  1  0.036472  0.870318  0.249675  1
  Si  Si20  1  0.694812  0.867827  0.751027  1
  Si  Si21  1  0.197885  0.631518  0.751480  1
  Si  Si22  1  0.303627  0.133595  0.249846  1
  Si  Si23  1  0.803305  0.366358  0.249999  1
  W  W24  1  0.666601  0.162813  0.626384  1
  W  W25  1  0.166786  0.335066  0.874902  1
  W  W26  1  0.332052  0.836766  0.124807  1
  W  W27  1  0.833220  0.664111  0.374742  1
  W  W28  1  0.333661  0.837160  0.374021  1
  W  W29  1  0.833523  0.664197  0.125078  1
  W  W30  1  0.667023  0.164532  0.875310  1
  W  W31  1  0.166876  0.337379  0.625860  1
  W  W32  1  0.833660  0.500847  0.749063  1
  W  W33  1  0.333315  0.000491  0.749001  1
  W  W34  1  0.165737  0.500620  0.250548  1
  W  W35  1  0.666322  0.998725  0.250028  1
