# generated using pymatgen
data_Sc2Mn5(NiAs)7
_symmetry_space_group_name_H-M   'P 1'
_cell_length_a   9.57586883
_cell_length_b   9.48751060
_cell_length_c   3.69775900
_cell_angle_alpha   90.00000000
_cell_angle_beta   90.00000000
_cell_angle_gamma   120.05142029
_symmetry_Int_Tables_number   1
_chemical_formula_structural   Sc2Mn5(NiAs)7
_chemical_formula_sum   'Sc2 Mn5 Ni7 As7'
_cell_volume   290.78663119
_cell_formula_units_Z   1
loop_
 _symmetry_equiv_pos_site_id
 _symmetry_equiv_pos_as_xyz
  1  'x, y, z'
loop_
 _atom_site_type_symbol
 _atom_site_label
 _atom_site_symmetry_multiplicity
 _atom_site_fract_x
 _atom_site_fract_y
 _atom_site_fract_z
 _atom_site_occupancy
  Sc  Sc0  1  0.673751  0.334982  0.000000  1
  Sc  Sc1  1  0.995249  0.996007  0.500000  1
  Mn  Mn2  1  0.455494  0.504515  0.000000  1
  Mn  Mn3  1  0.384825  0.287794  0.500000  1
  Mn  Mn4  1  0.554356  0.761632  0.500000  1
  Mn  Mn5  1  0.232889  0.790557  0.500000  1
  Mn  Mn6  1  0.207154  0.445863  0.500000  1
  Ni  Ni7  1  0.769750  0.729145  0.000000  1
  Ni  Ni8  1  0.274528  0.043249  0.000000  1
  Ni  Ni9  1  0.958164  0.232623  0.000000  1
  Ni  Ni10  1  0.491573  0.946642  0.000000  1
  Ni  Ni11  1  0.054318  0.544439  0.000000  1
  Ni  Ni12  1  0.714135  0.100099  0.500000  1
  Ni  Ni13  1  0.900801  0.616010  0.500000  1
  As  As14  1  0.458268  0.084349  0.500000  1
  As  As15  1  0.915347  0.372783  0.500000  1
  As  As16  1  0.632004  0.544694  0.500000  1
  As  As17  1  0.747958  0.960796  0.000000  1
  As  As18  1  0.039909  0.790391  0.000000  1
  As  As19  1  0.205323  0.247245  0.000000  1
  As  As20  1  0.334204  0.666186  0.000000  1
