# generated using pymatgen
data_Tb8Hg2IrPt
_symmetry_space_group_name_H-M   'P 1'
_cell_length_a   9.67037257
_cell_length_b   9.67037383
_cell_length_c   9.64647700
_cell_angle_alpha   60.08170756
_cell_angle_beta   60.08170326
_cell_angle_gamma   60.21103764
_symmetry_Int_Tables_number   1
_chemical_formula_structural   Tb8Hg2IrPt
_chemical_formula_sum   'Tb16 Hg4 Ir2 Pt2'
_cell_volume   639.68333648
_cell_formula_units_Z   2
loop_
 _symmetry_equiv_pos_site_id
 _symmetry_equiv_pos_as_xyz
  1  'x, y, z'
loop_
 _atom_site_type_symbol
 _atom_site_label
 _atom_site_symmetry_multiplicity
 _atom_site_fract_x
 _atom_site_fract_y
 _atom_site_fract_z
 _atom_site_occupancy
  Tb  Tb0  1  0.602353  0.602353  0.598046  1
  Tb  Tb1  1  0.602353  0.602353  0.197250  1
  Tb  Tb2  1  0.607180  0.189689  0.601566  1
  Tb  Tb3  1  0.189689  0.607180  0.601566  1
  Tb  Tb4  1  0.056453  0.440101  0.441098  1
  Tb  Tb5  1  0.440101  0.056453  0.062348  1
  Tb  Tb6  1  0.440101  0.056453  0.441098  1
  Tb  Tb7  1  0.056453  0.440101  0.062348  1
  Tb  Tb8  1  0.441488  0.441488  0.058512  1
  Tb  Tb9  1  0.060907  0.060907  0.439093  1
  Tb  Tb10  1  0.188439  0.813827  0.811240  1
  Tb  Tb11  1  0.813827  0.188439  0.186495  1
  Tb  Tb12  1  0.813827  0.188439  0.811240  1
  Tb  Tb13  1  0.188439  0.813827  0.186495  1
  Tb  Tb14  1  0.812554  0.812554  0.187446  1
  Tb  Tb15  1  0.187494  0.187494  0.812506  1
  Hg  Hg16  1  0.835352  0.835352  0.835518  1
  Hg  Hg17  1  0.835352  0.835352  0.493779  1
  Hg  Hg18  1  0.835151  0.493362  0.835744  1
  Hg  Hg19  1  0.493362  0.835151  0.835744  1
  Ir  Ir20  1  0.391887  0.821999  0.393056  1
  Ir  Ir21  1  0.821999  0.391887  0.393056  1
  Pt  Pt22  1  0.392620  0.392620  0.395054  1
  Pt  Pt23  1  0.392620  0.392620  0.819704  1
