# generated using pymatgen
data_DyTm3(CuPt)2
_symmetry_space_group_name_H-M   'P 1'
_cell_length_a   4.41961900
_cell_length_b   5.46614020
_cell_length_c   7.03735508
_cell_angle_alpha   90.44512391
_cell_angle_beta   90.00000000
_cell_angle_gamma   90.00000000
_symmetry_Int_Tables_number   1
_chemical_formula_structural   DyTm3(CuPt)2
_chemical_formula_sum   'Dy1 Tm3 Cu2 Pt2'
_cell_volume   170.00510251
_cell_formula_units_Z   1
loop_
 _symmetry_equiv_pos_site_id
 _symmetry_equiv_pos_as_xyz
  1  'x, y, z'
loop_
 _atom_site_type_symbol
 _atom_site_label
 _atom_site_symmetry_multiplicity
 _atom_site_fract_x
 _atom_site_fract_y
 _atom_site_fract_z
 _atom_site_occupancy
  Dy  Dy0  1  0.000000  0.884759  0.183863  1
  Tm  Tm1  1  0.000000  0.115228  0.682966  1
  Tm  Tm2  1  0.500000  0.393848  0.316888  1
  Tm  Tm3  1  0.500000  0.605258  0.815997  1
  Cu  Cu4  1  0.500000  0.894632  0.466889  1
  Cu  Cu5  1  0.500000  0.108258  0.960702  1
  Pt  Pt6  1  0.000000  0.611305  0.538451  1
  Pt  Pt7  1  0.000000  0.386714  0.034246  1
