# generated using pymatgen
data_Y3Ho5(HgPd)2
_symmetry_space_group_name_H-M   'P 1'
_cell_length_a   9.63617495
_cell_length_b   9.63617608
_cell_length_c   9.63617600
_cell_angle_alpha   60.00000028
_cell_angle_beta   59.99999640
_cell_angle_gamma   60.00000148
_symmetry_Int_Tables_number   1
_chemical_formula_structural   Y3Ho5(HgPd)2
_chemical_formula_sum   'Y6 Ho10 Hg4 Pd4'
_cell_volume   632.70187757
_cell_formula_units_Z   2
loop_
 _symmetry_equiv_pos_site_id
 _symmetry_equiv_pos_as_xyz
  1  'x, y, z'
loop_
 _atom_site_type_symbol
 _atom_site_label
 _atom_site_symmetry_multiplicity
 _atom_site_fract_x
 _atom_site_fract_y
 _atom_site_fract_z
 _atom_site_occupancy
  Y  Y0  1  0.935920  0.564080  0.564080  1
  Y  Y1  1  0.564080  0.935920  0.935920  1
  Y  Y2  1  0.564080  0.935920  0.564080  1
  Y  Y3  1  0.935920  0.564080  0.935920  1
  Y  Y4  1  0.564080  0.564080  0.935920  1
  Y  Y5  1  0.935920  0.935920  0.564080  1
  Ho  Ho6  1  0.356670  0.356670  0.356670  1
  Ho  Ho7  1  0.356670  0.356670  0.929990  1
  Ho  Ho8  1  0.356670  0.929990  0.356670  1
  Ho  Ho9  1  0.929990  0.356670  0.356670  1
  Ho  Ho10  1  0.811419  0.188581  0.188581  1
  Ho  Ho11  1  0.188581  0.811419  0.811419  1
  Ho  Ho12  1  0.188581  0.811419  0.188581  1
  Ho  Ho13  1  0.811419  0.188581  0.811419  1
  Ho  Ho14  1  0.188581  0.188581  0.811419  1
  Ho  Ho15  1  0.811419  0.811419  0.188581  1
  Hg  Hg16  1  0.586243  0.586243  0.586243  1
  Hg  Hg17  1  0.586243  0.586243  0.241273  1
  Hg  Hg18  1  0.586243  0.241273  0.586243  1
  Hg  Hg19  1  0.241273  0.586243  0.586243  1
  Pd  Pd20  1  0.145815  0.145815  0.145815  1
  Pd  Pd21  1  0.145815  0.145815  0.562554  1
  Pd  Pd22  1  0.145815  0.562554  0.145815  1
  Pd  Pd23  1  0.562554  0.145815  0.145815  1
