# generated using pymatgen
data_RbPu6(BrN)6
_symmetry_space_group_name_H-M   'P 1'
_cell_length_a   6.65193994
_cell_length_b   6.65194036
_cell_length_c   12.38019700
_cell_angle_alpha   84.84226203
_cell_angle_beta   84.84225305
_cell_angle_gamma   120.00583280
_symmetry_Int_Tables_number   1
_chemical_formula_structural   RbPu6(BrN)6
_chemical_formula_sum   'Rb1 Pu6 Br6 N6'
_cell_volume   466.65125350
_cell_formula_units_Z   1
loop_
 _symmetry_equiv_pos_site_id
 _symmetry_equiv_pos_as_xyz
  1  'x, y, z'
loop_
 _atom_site_type_symbol
 _atom_site_label
 _atom_site_symmetry_multiplicity
 _atom_site_fract_x
 _atom_site_fract_y
 _atom_site_fract_z
 _atom_site_occupancy
  Rb  Rb0  1  0.000000  0.000000  0.000000  1
  Pu  Pu1  1  0.204397  0.204397  0.386150  1
  Pu  Pu2  1  0.538336  0.871346  0.386396  1
  Pu  Pu3  1  0.871346  0.538336  0.386396  1
  Pu  Pu4  1  0.128654  0.461664  0.613604  1
  Pu  Pu5  1  0.461664  0.128654  0.613604  1
  Pu  Pu6  1  0.795603  0.795603  0.613850  1
  Br  Br7  1  0.070973  0.734307  0.785783  1
  Br  Br8  1  0.407785  0.407785  0.785727  1
  Br  Br9  1  0.734307  0.070973  0.785783  1
  Br  Br10  1  0.265693  0.929027  0.214217  1
  Br  Br11  1  0.592215  0.592215  0.214273  1
  Br  Br12  1  0.929027  0.265693  0.214217  1
  N  N13  1  0.143031  0.143031  0.570049  1
  N  N14  1  0.476847  0.809988  0.569762  1
  N  N15  1  0.809988  0.476847  0.569762  1
  N  N16  1  0.190012  0.523153  0.430238  1
  N  N17  1  0.523153  0.190012  0.430238  1
  N  N18  1  0.856969  0.856969  0.429951  1
