# generated using pymatgen
data_Tb3Mg2TiIr3
_symmetry_space_group_name_H-M   'P 1'
_cell_length_a   7.25247074
_cell_length_b   7.06045858
_cell_length_c   4.19033900
_cell_angle_alpha   90.00000000
_cell_angle_beta   90.00000000
_cell_angle_gamma   119.12798987
_symmetry_Int_Tables_number   1
_chemical_formula_structural   Tb3Mg2TiIr3
_chemical_formula_sum   'Tb3 Mg2 Ti1 Ir3'
_cell_volume   187.43389676
_cell_formula_units_Z   1
loop_
 _symmetry_equiv_pos_site_id
 _symmetry_equiv_pos_as_xyz
  1  'x, y, z'
loop_
 _atom_site_type_symbol
 _atom_site_label
 _atom_site_symmetry_multiplicity
 _atom_site_fract_x
 _atom_site_fract_y
 _atom_site_fract_z
 _atom_site_occupancy
  Tb  Tb0  1  0.413916  0.414255  0.000000  1
  Tb  Tb1  1  0.586084  0.000337  0.000000  1
  Tb  Tb2  1  0.000000  0.592544  0.000000  1
  Mg  Mg3  1  0.754398  0.756432  0.500000  1
  Mg  Mg4  1  0.245602  0.002033  0.500000  1
  Ti  Ti5  1  0.000000  0.243118  0.500000  1
  Ir  Ir6  1  0.000000  0.033262  0.000000  1
  Ir  Ir7  1  0.312687  0.635354  0.500000  1
  Ir  Ir8  1  0.687313  0.322666  0.500000  1
