# generated using pymatgen
data_Tb11Dy9(FeBi2)4
_symmetry_space_group_name_H-M   'P 1'
_cell_length_a   8.00051818
_cell_length_b   8.93039900
_cell_length_c   12.45598901
_cell_angle_alpha   90.00000000
_cell_angle_beta   89.99037847
_cell_angle_gamma   90.00000000
_symmetry_Int_Tables_number   1
_chemical_formula_structural   Tb11Dy9(FeBi2)4
_chemical_formula_sum   'Tb11 Dy9 Fe4 Bi8'
_cell_volume   889.95324233
_cell_formula_units_Z   1
loop_
 _symmetry_equiv_pos_site_id
 _symmetry_equiv_pos_as_xyz
  1  'x, y, z'
loop_
 _atom_site_type_symbol
 _atom_site_label
 _atom_site_symmetry_multiplicity
 _atom_site_fract_x
 _atom_site_fract_y
 _atom_site_fract_z
 _atom_site_occupancy
  Tb  Tb0  1  0.150665  0.250000  0.198946  1
  Tb  Tb1  1  0.349331  0.250000  0.698765  1
  Tb  Tb2  1  0.650683  0.750000  0.300849  1
  Tb  Tb3  1  0.381358  0.750000  0.687710  1
  Tb  Tb4  1  0.618402  0.250000  0.312774  1
  Tb  Tb5  1  0.881550  0.250000  0.812404  1
  Tb  Tb6  1  0.118648  0.750000  0.187798  1
  Tb  Tb7  1  0.947850  0.750000  0.504966  1
  Tb  Tb8  1  0.052186  0.250000  0.495205  1
  Tb  Tb9  1  0.447714  0.250000  0.994841  1
  Tb  Tb10  1  0.552900  0.750000  0.004884  1
  Dy  Dy11  1  0.849327  0.750000  0.801224  1
  Dy  Dy12  1  0.674376  0.034644  0.562868  1
  Dy  Dy13  1  0.325288  0.965834  0.437104  1
  Dy  Dy14  1  0.174228  0.964909  0.937058  1
  Dy  Dy15  1  0.325288  0.534166  0.437104  1
  Dy  Dy16  1  0.825863  0.034010  0.062622  1
  Dy  Dy17  1  0.674376  0.465356  0.562868  1
  Dy  Dy18  1  0.825863  0.465990  0.062622  1
  Dy  Dy19  1  0.174228  0.535091  0.937058  1
  Fe  Fe20  1  0.567949  0.750000  0.508867  1
  Fe  Fe21  1  0.432007  0.250000  0.491236  1
  Fe  Fe22  1  0.067972  0.250000  0.991071  1
  Fe  Fe23  1  0.931820  0.750000  0.008951  1
  Bi  Bi24  1  0.570887  0.494097  0.826149  1
  Bi  Bi25  1  0.429554  0.506115  0.173674  1
  Bi  Bi26  1  0.070137  0.506554  0.673928  1
  Bi  Bi27  1  0.429554  0.993885  0.173674  1
  Bi  Bi28  1  0.929487  0.493794  0.326352  1
  Bi  Bi29  1  0.570887  0.005903  0.826149  1
  Bi  Bi30  1  0.929487  0.006206  0.326352  1
  Bi  Bi31  1  0.070137  0.993446  0.673928  1
