# generated using pymatgen
data_Sc16OsPt7O4
_symmetry_space_group_name_H-M   'P 1'
_cell_length_a   8.76237298
_cell_length_b   8.71754676
_cell_length_c   8.71754800
_cell_angle_alpha   60.00000289
_cell_angle_beta   60.16908713
_cell_angle_gamma   60.16908071
_symmetry_Int_Tables_number   1
_chemical_formula_structural   Sc16OsPt7O4
_chemical_formula_sum   'Sc16 Os1 Pt7 O4'
_cell_volume   472.06368560
_cell_formula_units_Z   1
loop_
 _symmetry_equiv_pos_site_id
 _symmetry_equiv_pos_as_xyz
  1  'x, y, z'
loop_
 _atom_site_type_symbol
 _atom_site_label
 _atom_site_symmetry_multiplicity
 _atom_site_fract_x
 _atom_site_fract_y
 _atom_site_fract_z
 _atom_site_occupancy
  Sc  Sc0  1  0.125563  0.624812  0.624812  1
  Sc  Sc1  1  0.626611  0.126055  0.623667  1
  Sc  Sc2  1  0.626611  0.623667  0.126055  1
  Sc  Sc3  1  0.626611  0.623667  0.623667  1
  Sc  Sc4  1  0.818074  0.814008  0.183959  1
  Sc  Sc5  1  0.182852  0.182242  0.817453  1
  Sc  Sc6  1  0.818074  0.183959  0.814008  1
  Sc  Sc7  1  0.182852  0.817453  0.182242  1
  Sc  Sc8  1  0.182852  0.817453  0.817453  1
  Sc  Sc9  1  0.818074  0.183959  0.183959  1
  Sc  Sc10  1  0.432388  0.431414  0.068099  1
  Sc  Sc11  1  0.063242  0.073948  0.431405  1
  Sc  Sc12  1  0.432388  0.068099  0.431414  1
  Sc  Sc13  1  0.063242  0.431405  0.073948  1
  Sc  Sc14  1  0.063242  0.431405  0.431405  1
  Sc  Sc15  1  0.432388  0.068099  0.068099  1
  Os  Os16  1  0.765501  0.411499  0.411499  1
  Pt  Pt17  1  0.411507  0.766950  0.410771  1
  Pt  Pt18  1  0.411507  0.410771  0.766950  1
  Pt  Pt19  1  0.411507  0.410771  0.410771  1
  Pt  Pt20  1  0.481727  0.839425  0.839425  1
  Pt  Pt21  1  0.839194  0.482056  0.839376  1
  Pt  Pt22  1  0.839194  0.839376  0.482056  1
  Pt  Pt23  1  0.839194  0.839376  0.839376  1
  O  O24  1  0.624316  0.125228  0.125228  1
  O  O25  1  0.127096  0.626221  0.123341  1
  O  O26  1  0.127096  0.123341  0.626221  1
  O  O27  1  0.127096  0.123341  0.123341  1
