# generated using pymatgen
data_ZnSb3IF24
_symmetry_space_group_name_H-M   'P 1'
_cell_length_a   10.32557011
_cell_length_b   10.32556982
_cell_length_c   9.58327300
_cell_angle_alpha   88.47752964
_cell_angle_beta   88.47752968
_cell_angle_gamma   119.43878506
_symmetry_Int_Tables_number   1
_chemical_formula_structural   ZnSb3IF24
_chemical_formula_sum   'Zn2 Sb6 I2 F48'
_cell_volume   888.58129636
_cell_formula_units_Z   2
loop_
 _symmetry_equiv_pos_site_id
 _symmetry_equiv_pos_as_xyz
  1  'x, y, z'
loop_
 _atom_site_type_symbol
 _atom_site_label
 _atom_site_symmetry_multiplicity
 _atom_site_fract_x
 _atom_site_fract_y
 _atom_site_fract_z
 _atom_site_occupancy
  Zn  Zn0  1  0.000000  0.000000  0.500000  1
  Zn  Zn1  1  0.000000  0.000000  0.000000  1
  Sb  Sb2  1  0.334566  0.166295  0.743965  1
  Sb  Sb3  1  0.833705  0.665434  0.756035  1
  Sb  Sb4  1  0.832013  0.167987  0.750000  1
  Sb  Sb5  1  0.166295  0.334566  0.243965  1
  Sb  Sb6  1  0.167987  0.832013  0.250000  1
  Sb  Sb7  1  0.665434  0.833705  0.256035  1
  I  I8  1  0.333348  0.666652  0.750000  1
  I  I9  1  0.666652  0.333348  0.250000  1
  F  F10  1  0.310926  0.313384  0.839093  1
  F  F11  1  0.995339  0.670113  0.850772  1
  F  F12  1  0.677633  0.998571  0.850225  1
  F  F13  1  0.313384  0.310926  0.339093  1
  F  F14  1  0.998571  0.677633  0.350225  1
  F  F15  1  0.670113  0.995339  0.350772  1
  F  F16  1  0.689074  0.686616  0.160907  1
  F  F17  1  0.004661  0.329887  0.149228  1
  F  F18  1  0.322367  0.001429  0.149775  1
  F  F19  1  0.686616  0.689074  0.660907  1
  F  F20  1  0.001429  0.322367  0.649775  1
  F  F21  1  0.329887  0.004661  0.649228  1
  F  F22  1  0.477559  0.311578  0.614613  1
  F  F23  1  0.831790  0.527065  0.629287  1
  F  F24  1  0.697219  0.174542  0.623616  1
  F  F25  1  0.311578  0.477559  0.114613  1
  F  F26  1  0.174542  0.697219  0.123616  1
  F  F27  1  0.527065  0.831790  0.129287  1
  F  F28  1  0.522441  0.688422  0.385387  1
  F  F29  1  0.168210  0.472935  0.370713  1
  F  F30  1  0.302781  0.825458  0.376384  1
  F  F31  1  0.688422  0.522441  0.885387  1
  F  F32  1  0.825458  0.302781  0.876384  1
  F  F33  1  0.472935  0.168210  0.870713  1
  F  F34  1  0.184823  0.519833  0.861208  1
  F  F35  1  0.329176  0.805775  0.860455  1
  F  F36  1  0.470755  0.659964  0.861178  1
  F  F37  1  0.519833  0.184823  0.361208  1
  F  F38  1  0.659964  0.470755  0.361178  1
  F  F39  1  0.805775  0.329176  0.360455  1
  F  F40  1  0.815177  0.480167  0.138792  1
  F  F41  1  0.670824  0.194225  0.139545  1
  F  F42  1  0.529245  0.340036  0.138822  1
  F  F43  1  0.480167  0.815177  0.638792  1
  F  F44  1  0.340036  0.529245  0.638822  1
  F  F45  1  0.194225  0.670824  0.639545  1
  F  F46  1  0.173148  0.144281  0.622476  1
  F  F47  1  0.981960  0.828795  0.628435  1
  F  F48  1  0.854143  0.026337  0.629030  1
  F  F49  1  0.144281  0.173148  0.122476  1
  F  F50  1  0.026337  0.854143  0.129030  1
  F  F51  1  0.828795  0.981960  0.128435  1
  F  F52  1  0.826852  0.855719  0.377524  1
  F  F53  1  0.018040  0.171205  0.371565  1
  F  F54  1  0.145857  0.973663  0.370970  1
  F  F55  1  0.855719  0.826852  0.877524  1
  F  F56  1  0.973663  0.145857  0.870970  1
  F  F57  1  0.171205  0.018040  0.871565  1
