# generated using pymatgen
data_Lu3ThCoAu
_symmetry_space_group_name_H-M   'P 1'
_cell_length_a   9.25572167
_cell_length_b   9.25572147
_cell_length_c   9.25572000
_cell_angle_alpha   59.99999811
_cell_angle_beta   59.99999882
_cell_angle_gamma   60.00000263
_symmetry_Int_Tables_number   1
_chemical_formula_structural   Lu3ThCoAu
_chemical_formula_sum   'Lu12 Th4 Co4 Au4'
_cell_volume   560.68091345
_cell_formula_units_Z   4
loop_
 _symmetry_equiv_pos_site_id
 _symmetry_equiv_pos_as_xyz
  1  'x, y, z'
loop_
 _atom_site_type_symbol
 _atom_site_label
 _atom_site_symmetry_multiplicity
 _atom_site_fract_x
 _atom_site_fract_y
 _atom_site_fract_z
 _atom_site_occupancy
  Lu  Lu0  1  0.062368  0.437663  0.437663  1
  Lu  Lu1  1  0.437610  0.062311  0.062311  1
  Lu  Lu2  1  0.437663  0.062368  0.437663  1
  Lu  Lu3  1  0.062311  0.437610  0.062311  1
  Lu  Lu4  1  0.437663  0.437663  0.062368  1
  Lu  Lu5  1  0.062311  0.062311  0.437610  1
  Lu  Lu6  1  0.183339  0.816579  0.816579  1
  Lu  Lu7  1  0.816615  0.183357  0.183357  1
  Lu  Lu8  1  0.816579  0.183339  0.816579  1
  Lu  Lu9  1  0.183357  0.816615  0.183357  1
  Lu  Lu10  1  0.816579  0.816579  0.183339  1
  Lu  Lu11  1  0.183357  0.183357  0.816615  1
  Th  Th12  1  0.599962  0.599962  0.599962  1
  Th  Th13  1  0.599965  0.599965  0.200119  1
  Th  Th14  1  0.599965  0.200119  0.599965  1
  Th  Th15  1  0.200119  0.599965  0.599965  1
  Co  Co16  1  0.393048  0.393048  0.393048  1
  Co  Co17  1  0.393198  0.393198  0.820522  1
  Co  Co18  1  0.393198  0.820522  0.393198  1
  Co  Co19  1  0.820522  0.393198  0.393198  1
  Au  Au20  1  0.838053  0.838053  0.838053  1
  Au  Au21  1  0.838035  0.838035  0.486150  1
  Au  Au22  1  0.838035  0.486150  0.838035  1
  Au  Au23  1  0.486150  0.838035  0.838035  1
