# generated using pymatgen
data_Rb8Y6PBr20
_symmetry_space_group_name_H-M   'P 1'
_cell_length_a   12.35890328
_cell_length_b   12.35890322
_cell_length_c   12.35890300
_cell_angle_alpha   59.99999791
_cell_angle_beta   59.99999808
_cell_angle_gamma   59.99999855
_symmetry_Int_Tables_number   1
_chemical_formula_structural   Rb8Y6PBr20
_chemical_formula_sum   'Rb8 Y6 P1 Br20'
_cell_volume   1334.82635498
_cell_formula_units_Z   1
loop_
 _symmetry_equiv_pos_site_id
 _symmetry_equiv_pos_as_xyz
  1  'x, y, z'
loop_
 _atom_site_type_symbol
 _atom_site_label
 _atom_site_symmetry_multiplicity
 _atom_site_fract_x
 _atom_site_fract_y
 _atom_site_fract_z
 _atom_site_occupancy
  Rb  Rb0  1  0.358921  0.358921  0.358921  1
  Rb  Rb1  1  0.641079  0.641079  0.641079  1
  Rb  Rb2  1  0.358921  0.358921  0.923237  1
  Rb  Rb3  1  0.358921  0.923237  0.358921  1
  Rb  Rb4  1  0.641079  0.641079  0.076763  1
  Rb  Rb5  1  0.641079  0.076763  0.641079  1
  Rb  Rb6  1  0.923237  0.358921  0.358921  1
  Rb  Rb7  1  0.076763  0.641079  0.641079  1
  Y  Y8  1  0.844326  0.155674  0.155674  1
  Y  Y9  1  0.155674  0.844326  0.844326  1
  Y  Y10  1  0.155674  0.844326  0.155674  1
  Y  Y11  1  0.844326  0.155674  0.844326  1
  Y  Y12  1  0.155674  0.155674  0.844326  1
  Y  Y13  1  0.844326  0.844326  0.155674  1
  P  P14  1  0.000000  0.000000  0.000000  1
  Br  Br15  1  0.329577  0.000000  0.000000  1
  Br  Br16  1  0.670423  0.000000  0.000000  1
  Br  Br17  1  0.000000  0.329577  0.670423  1
  Br  Br18  1  0.000000  0.670423  0.329577  1
  Br  Br19  1  0.000000  0.329577  0.000000  1
  Br  Br20  1  0.670423  0.000000  0.329577  1
  Br  Br21  1  0.000000  0.670423  0.000000  1
  Br  Br22  1  0.329577  0.000000  0.670423  1
  Br  Br23  1  0.000000  0.000000  0.329577  1
  Br  Br24  1  0.000000  0.000000  0.670423  1
  Br  Br25  1  0.670423  0.329577  0.000000  1
  Br  Br26  1  0.329577  0.670423  0.000000  1
  Br  Br27  1  0.679136  0.320864  0.320864  1
  Br  Br28  1  0.320864  0.679136  0.679136  1
  Br  Br29  1  0.320864  0.679136  0.320864  1
  Br  Br30  1  0.679136  0.320864  0.679136  1
  Br  Br31  1  0.320864  0.320864  0.679136  1
  Br  Br32  1  0.679136  0.679136  0.320864  1
  Br  Br33  1  0.250000  0.250000  0.250000  1
  Br  Br34  1  0.750000  0.750000  0.750000  1
