# generated using pymatgen
data_Er4Hf3AlRh4
_symmetry_space_group_name_H-M   'P 1'
_cell_length_a   4.47182500
_cell_length_b   6.99038924
_cell_length_c   8.12889632
_cell_angle_alpha   93.50946827
_cell_angle_beta   90.00000000
_cell_angle_gamma   90.00000000
_symmetry_Int_Tables_number   1
_chemical_formula_structural   Er4Hf3AlRh4
_chemical_formula_sum   'Er4 Hf3 Al1 Rh4'
_cell_volume   253.63112284
_cell_formula_units_Z   1
loop_
 _symmetry_equiv_pos_site_id
 _symmetry_equiv_pos_as_xyz
  1  'x, y, z'
loop_
 _atom_site_type_symbol
 _atom_site_label
 _atom_site_symmetry_multiplicity
 _atom_site_fract_x
 _atom_site_fract_y
 _atom_site_fract_z
 _atom_site_occupancy
  Er  Er0  1  0.250000  0.984310  0.313542  1
  Er  Er1  1  0.250000  0.464376  0.167850  1
  Er  Er2  1  0.750000  0.030928  0.686927  1
  Er  Er3  1  0.750000  0.508111  0.835848  1
  Hf  Hf4  1  0.250000  0.368299  0.574092  1
  Hf  Hf5  1  0.250000  0.857855  0.934155  1
  Hf  Hf6  1  0.750000  0.638546  0.424953  1
  Al  Al7  1  0.750000  0.142422  0.070237  1
  Rh  Rh8  1  0.250000  0.226141  0.885387  1
  Rh  Rh9  1  0.250000  0.743580  0.595841  1
  Rh  Rh10  1  0.750000  0.770335  0.110933  1
  Rh  Rh11  1  0.750000  0.265099  0.400234  1
