# generated using pymatgen
data_Pa3Ga3RePd2
_symmetry_space_group_name_H-M   'P 1'
_cell_length_a   7.19889600
_cell_length_b   7.19889506
_cell_length_c   7.97888300
_cell_angle_alpha   90.00000000
_cell_angle_beta   90.00000000
_cell_angle_gamma   120.00000005
_symmetry_Int_Tables_number   1
_chemical_formula_structural   Pa3Ga3RePd2
_chemical_formula_sum   'Pa6 Ga6 Re2 Pd4'
_cell_volume   358.10012340
_cell_formula_units_Z   2
loop_
 _symmetry_equiv_pos_site_id
 _symmetry_equiv_pos_as_xyz
  1  'x, y, z'
loop_
 _atom_site_type_symbol
 _atom_site_label
 _atom_site_symmetry_multiplicity
 _atom_site_fract_x
 _atom_site_fract_y
 _atom_site_fract_z
 _atom_site_occupancy
  Pa  Pa0  1  0.757114  0.079737  0.000000  1
  Pa  Pa1  1  0.322622  0.242886  0.000000  1
  Pa  Pa2  1  0.920263  0.677378  0.000000  1
  Pa  Pa3  1  0.323175  0.242953  0.500000  1
  Pa  Pa4  1  0.757047  0.080222  0.500000  1
  Pa  Pa5  1  0.919778  0.676825  0.500000  1
  Ga  Ga6  1  0.581064  0.668560  0.750054  1
  Ga  Ga7  1  0.087496  0.418936  0.750054  1
  Ga  Ga8  1  0.331440  0.912504  0.750054  1
  Ga  Ga9  1  0.581064  0.668560  0.249946  1
  Ga  Ga10  1  0.087496  0.418936  0.249946  1
  Ga  Ga11  1  0.331440  0.912504  0.249946  1
  Re  Re12  1  0.000000  0.000000  0.250043  1
  Re  Re13  1  0.000000  0.000000  0.749957  1
  Pd  Pd14  1  0.333333  0.666667  0.000000  1
  Pd  Pd15  1  0.333333  0.666667  0.500000  1
  Pd  Pd16  1  0.666667  0.333333  0.749577  1
  Pd  Pd17  1  0.666667  0.333333  0.250423  1
