# generated using pymatgen
data_Ti3Co4Si4W
_symmetry_space_group_name_H-M   'P 1'
_cell_length_a   3.65453000
_cell_length_b   6.10075472
_cell_length_c   6.91682199
_cell_angle_alpha   89.72414224
_cell_angle_beta   90.00000000
_cell_angle_gamma   90.00000000
_symmetry_Int_Tables_number   1
_chemical_formula_structural   Ti3Co4Si4W
_chemical_formula_sum   'Ti3 Co4 Si4 W1'
_cell_volume   154.21146447
_cell_formula_units_Z   1
loop_
 _symmetry_equiv_pos_site_id
 _symmetry_equiv_pos_as_xyz
  1  'x, y, z'
loop_
 _atom_site_type_symbol
 _atom_site_label
 _atom_site_symmetry_multiplicity
 _atom_site_fract_x
 _atom_site_fract_y
 _atom_site_fract_z
 _atom_site_occupancy
  Ti  Ti0  1  0.750000  0.479120  0.312194  1
  Ti  Ti1  1  0.250000  0.520341  0.688368  1
  Ti  Ti2  1  0.750000  0.980580  0.182454  1
  Co  Co3  1  0.250000  0.645101  0.064966  1
  Co  Co4  1  0.750000  0.359089  0.935262  1
  Co  Co5  1  0.250000  0.144363  0.437348  1
  Co  Co6  1  0.750000  0.853650  0.560624  1
  Si  Si7  1  0.750000  0.730248  0.881119  1
  Si  Si8  1  0.250000  0.771266  0.382289  1
  Si  Si9  1  0.750000  0.224578  0.619703  1
  Si  Si10  1  0.250000  0.270946  0.115322  1
  W  W11  1  0.250000  0.020718  0.820352  1
