# generated using pymatgen
data_Ho8Zr9Si16Mo3
_symmetry_space_group_name_H-M   'P 1'
_cell_length_a   7.22624011
_cell_length_b   7.22623884
_cell_length_c   13.23147817
_cell_angle_alpha   90.10045108
_cell_angle_beta   89.89954975
_cell_angle_gamma   89.92910129
_symmetry_Int_Tables_number   1
_chemical_formula_structural   Ho8Zr9Si16Mo3
_chemical_formula_sum   'Ho8 Zr9 Si16 Mo3'
_cell_volume   690.92577655
_cell_formula_units_Z   1
loop_
 _symmetry_equiv_pos_site_id
 _symmetry_equiv_pos_as_xyz
  1  'x, y, z'
loop_
 _atom_site_type_symbol
 _atom_site_label
 _atom_site_symmetry_multiplicity
 _atom_site_fract_x
 _atom_site_fract_y
 _atom_site_fract_z
 _atom_site_occupancy
  Ho  Ho0  1  0.344970  0.003230  0.463466  1
  Ho  Ho1  1  0.498471  0.848240  0.717071  1
  Ho  Ho2  1  0.499184  0.153408  0.212504  1
  Ho  Ho3  1  0.848240  0.498471  0.282929  1
  Ho  Ho4  1  0.153408  0.499184  0.787496  1
  Ho  Ho5  1  0.653679  0.000054  0.964244  1
  Ho  Ho6  1  0.003230  0.344970  0.536534  1
  Ho  Ho7  1  0.000054  0.653679  0.035756  1
  Zr  Zr8  1  0.676744  0.676744  0.500000  1
  Zr  Zr9  1  0.144850  0.006641  0.876070  1
  Zr  Zr10  1  0.493427  0.645478  0.123517  1
  Zr  Zr11  1  0.504898  0.353291  0.628208  1
  Zr  Zr12  1  0.645478  0.493427  0.876483  1
  Zr  Zr13  1  0.353291  0.504898  0.371792  1
  Zr  Zr14  1  0.856590  0.995273  0.373087  1
  Zr  Zr15  1  0.006641  0.144850  0.123930  1
  Zr  Zr16  1  0.995273  0.856590  0.626913  1
  Si  Si17  1  0.203767  0.141002  0.684350  1
  Si  Si18  1  0.358356  0.703040  0.933057  1
  Si  Si19  1  0.640614  0.293622  0.432706  1
  Si  Si20  1  0.703040  0.358356  0.066943  1
  Si  Si21  1  0.293622  0.640614  0.567294  1
  Si  Si22  1  0.796471  0.858818  0.182716  1
  Si  Si23  1  0.141002  0.203767  0.315650  1
  Si  Si24  1  0.858818  0.796471  0.817284  1
  Si  Si25  1  0.295857  0.947806  0.065384  1
  Si  Si26  1  0.547849  0.798071  0.312268  1
  Si  Si27  1  0.447505  0.204634  0.817320  1
  Si  Si28  1  0.798071  0.547849  0.687732  1
  Si  Si29  1  0.204634  0.447505  0.182680  1
  Si  Si30  1  0.704037  0.055172  0.567774  1
  Si  Si31  1  0.947806  0.295857  0.934616  1
  Si  Si32  1  0.055172  0.704037  0.432226  1
  Mo  Mo33  1  0.323596  0.323596  0.000000  1
  Mo  Mo34  1  0.177017  0.824337  0.248169  1
  Mo  Mo35  1  0.824337  0.177017  0.751831  1
