# generated using pymatgen
data_Tb9Er(Ir2Ru)2
_symmetry_space_group_name_H-M   'P 1'
_cell_length_a   10.88827300
_cell_length_b   10.88827300
_cell_length_c   6.44947700
_cell_angle_alpha   90.00000000
_cell_angle_beta   90.00000000
_cell_angle_gamma   90.00000000
_symmetry_Int_Tables_number   1
_chemical_formula_structural   Tb9Er(Ir2Ru)2
_chemical_formula_sum   'Tb18 Er2 Ir8 Ru4'
_cell_volume   764.61444955
_cell_formula_units_Z   2
loop_
 _symmetry_equiv_pos_site_id
 _symmetry_equiv_pos_as_xyz
  1  'x, y, z'
loop_
 _atom_site_type_symbol
 _atom_site_label
 _atom_site_symmetry_multiplicity
 _atom_site_fract_x
 _atom_site_fract_y
 _atom_site_fract_z
 _atom_site_occupancy
  Tb  Tb0  1  0.292699  0.086737  0.378727  1
  Tb  Tb1  1  0.292699  0.913263  0.878727  1
  Tb  Tb2  1  0.707301  0.086737  0.878727  1
  Tb  Tb3  1  0.707301  0.913263  0.378727  1
  Tb  Tb4  1  0.586816  0.793558  0.879096  1
  Tb  Tb5  1  0.586816  0.206442  0.379096  1
  Tb  Tb6  1  0.413184  0.793558  0.379096  1
  Tb  Tb7  1  0.413184  0.206442  0.879096  1
  Tb  Tb8  1  0.206442  0.413184  0.620904  1
  Tb  Tb9  1  0.206442  0.586816  0.120904  1
  Tb  Tb10  1  0.793558  0.413184  0.120904  1
  Tb  Tb11  1  0.793558  0.586816  0.620904  1
  Tb  Tb12  1  0.913263  0.707301  0.121273  1
  Tb  Tb13  1  0.913263  0.292699  0.621273  1
  Tb  Tb14  1  0.086737  0.707301  0.621273  1
  Tb  Tb15  1  0.086737  0.292699  0.121273  1
  Tb  Tb16  1  0.500000  0.500000  0.000000  1
  Tb  Tb17  1  0.500000  0.500000  0.500000  1
  Er  Er18  1  0.000000  0.000000  0.500000  1
  Er  Er19  1  0.000000  0.000000  0.000000  1
  Ir  Ir20  1  0.848723  0.151277  0.250000  1
  Ir  Ir21  1  0.848723  0.848723  0.750000  1
  Ir  Ir22  1  0.151277  0.151277  0.750000  1
  Ir  Ir23  1  0.151277  0.848723  0.250000  1
  Ir  Ir24  1  0.652446  0.347554  0.750000  1
  Ir  Ir25  1  0.652446  0.652446  0.250000  1
  Ir  Ir26  1  0.347554  0.347554  0.250000  1
  Ir  Ir27  1  0.347554  0.652446  0.750000  1
  Ru  Ru28  1  0.500000  0.000000  0.121785  1
  Ru  Ru29  1  0.500000  0.000000  0.621785  1
  Ru  Ru30  1  0.000000  0.500000  0.878215  1
  Ru  Ru31  1  0.000000  0.500000  0.378215  1
