# generated using pymatgen
data_Zn22PdRh3
_symmetry_space_group_name_H-M   'P 1'
_cell_length_a   7.91239591
_cell_length_b   7.95091982
_cell_length_c   7.91239673
_cell_angle_alpha   109.56988042
_cell_angle_beta   109.37238581
_cell_angle_gamma   109.56987238
_symmetry_Int_Tables_number   1
_chemical_formula_structural   Zn22PdRh3
_chemical_formula_sum   'Zn22 Pd1 Rh3'
_cell_volume   382.72014339
_cell_formula_units_Z   1
loop_
 _symmetry_equiv_pos_site_id
 _symmetry_equiv_pos_as_xyz
  1  'x, y, z'
loop_
 _atom_site_type_symbol
 _atom_site_label
 _atom_site_symmetry_multiplicity
 _atom_site_fract_x
 _atom_site_fract_y
 _atom_site_fract_z
 _atom_site_occupancy
  Zn  Zn0  1  0.000000  0.788657  0.000000  1
  Zn  Zn1  1  0.784904  0.998040  0.000000  1
  Zn  Zn2  1  0.000000  0.998040  0.784904  1
  Zn  Zn3  1  0.215096  0.213136  0.215096  1
  Zn  Zn4  1  0.352356  0.617713  0.352356  1
  Zn  Zn5  1  0.265461  0.000267  0.649069  1
  Zn  Zn6  1  0.649069  0.000267  0.265461  1
  Zn  Zn7  1  0.267732  0.650816  0.000000  1
  Zn  Zn8  1  0.734539  0.734806  0.383608  1
  Zn  Zn9  1  0.383608  0.734806  0.734539  1
  Zn  Zn10  1  0.000000  0.650816  0.267732  1
  Zn  Zn11  1  0.000000  0.265357  0.647644  1
  Zn  Zn12  1  0.647644  0.265357  0.000000  1
  Zn  Zn13  1  0.350931  0.351199  0.616392  1
  Zn  Zn14  1  0.616392  0.351199  0.350931  1
  Zn  Zn15  1  0.732268  0.383085  0.732268  1
  Zn  Zn16  1  0.356547  0.355580  0.000000  1
  Zn  Zn17  1  0.000000  0.642760  0.644512  1
  Zn  Zn18  1  0.000000  0.355580  0.356547  1
  Zn  Zn19  1  0.355488  0.998248  0.355488  1
  Zn  Zn20  1  0.643453  0.999033  0.643453  1
  Zn  Zn21  1  0.644512  0.642760  0.000000  1
  Pd  Pd22  1  0.000000  0.346045  0.000000  1
  Rh  Rh23  1  0.344814  0.000415  0.000000  1
  Rh  Rh24  1  0.000000  0.000415  0.344814  1
  Rh  Rh25  1  0.655186  0.655601  0.655186  1
