# generated using pymatgen
data_ErCu4Si
_symmetry_space_group_name_H-M   'P 1'
_cell_length_a   5.07628300
_cell_length_b   4.94552440
_cell_length_c   4.07325000
_cell_angle_alpha   90.00000000
_cell_angle_beta   90.00000000
_cell_angle_gamma   120.87853739
_symmetry_Int_Tables_number   1
_chemical_formula_structural   ErCu4Si
_chemical_formula_sum   'Er1 Cu4 Si1'
_cell_volume   87.76405968
_cell_formula_units_Z   1
loop_
 _symmetry_equiv_pos_site_id
 _symmetry_equiv_pos_as_xyz
  1  'x, y, z'
loop_
 _atom_site_type_symbol
 _atom_site_label
 _atom_site_symmetry_multiplicity
 _atom_site_fract_x
 _atom_site_fract_y
 _atom_site_fract_z
 _atom_site_occupancy
  Er  Er0  1  0.000000  0.000000  0.000000  1
  Cu  Cu1  1  0.339130  0.678261  0.000000  1
  Cu  Cu2  1  0.660870  0.321739  0.000000  1
  Cu  Cu3  1  0.500000  0.500000  0.500000  1
  Cu  Cu4  1  0.000000  0.500000  0.500000  1
  Si  Si5  1  0.500000  0.000000  0.500000  1
