# generated using pymatgen
data_Ta3CrCo3B7
_symmetry_space_group_name_H-M   'P 1'
_cell_length_a   9.32242076
_cell_length_b   9.32242151
_cell_length_c   8.91240500
_cell_angle_alpha   90.00188883
_cell_angle_beta   89.99811102
_cell_angle_gamma   160.12241436
_symmetry_Int_Tables_number   1
_chemical_formula_structural   Ta3CrCo3B7
_chemical_formula_sum   'Ta6 Cr2 Co6 B14'
_cell_volume   263.35779956
_cell_formula_units_Z   2
loop_
 _symmetry_equiv_pos_site_id
 _symmetry_equiv_pos_as_xyz
  1  'x, y, z'
loop_
 _atom_site_type_symbol
 _atom_site_label
 _atom_site_symmetry_multiplicity
 _atom_site_fract_x
 _atom_site_fract_y
 _atom_site_fract_z
 _atom_site_occupancy
  Ta  Ta0  1  0.699302  0.300699  0.249905  1
  Ta  Ta1  1  0.300635  0.699363  0.750094  1
  Ta  Ta2  1  0.583095  0.416906  0.554466  1
  Ta  Ta3  1  0.416909  0.583091  0.445464  1
  Ta  Ta4  1  0.416880  0.583121  0.054546  1
  Ta  Ta5  1  0.583145  0.416855  0.945525  1
  Cr  Cr6  1  0.541176  0.458823  0.249970  1
  Cr  Cr7  1  0.458853  0.541145  0.749987  1
  Co  Co8  1  0.844088  0.155913  0.250013  1
  Co  Co9  1  0.155911  0.844089  0.749982  1
  Co  Co10  1  0.801387  0.198614  0.505570  1
  Co  Co11  1  0.198580  0.801420  0.494444  1
  Co  Co12  1  0.198579  0.801421  0.005534  1
  Co  Co13  1  0.801388  0.198611  0.994466  1
  B  B14  1  0.955290  0.044710  0.250005  1
  B  B15  1  0.044791  0.955209  0.750003  1
  B  B16  1  0.889264  0.110735  0.648634  1
  B  B17  1  0.110693  0.889309  0.351287  1
  B  B18  1  0.110686  0.889314  0.148718  1
  B  B19  1  0.889273  0.110726  0.851364  1
  B  B20  1  0.710684  0.289317  0.644139  1
  B  B21  1  0.289291  0.710710  0.355897  1
  B  B22  1  0.289300  0.710700  0.144166  1
  B  B23  1  0.710668  0.289331  0.855804  1
  B  B24  1  0.985185  0.014815  0.591650  1
  B  B25  1  0.014880  0.985120  0.408198  1
  B  B26  1  0.014874  0.985126  0.091823  1
  B  B27  1  0.985190  0.014809  0.908347  1
