# generated using pymatgen
data_Gd6Al7Cu16
_symmetry_space_group_name_H-M   'P 1'
_cell_length_a   8.69704396
_cell_length_b   8.69704415
_cell_length_c   8.69704400
_cell_angle_alpha   60.00000058
_cell_angle_beta   59.99999986
_cell_angle_gamma   60.00000282
_symmetry_Int_Tables_number   1
_chemical_formula_structural   Gd6Al7Cu16
_chemical_formula_sum   'Gd6 Al7 Cu16'
_cell_volume   465.15749224
_cell_formula_units_Z   1
loop_
 _symmetry_equiv_pos_site_id
 _symmetry_equiv_pos_as_xyz
  1  'x, y, z'
loop_
 _atom_site_type_symbol
 _atom_site_label
 _atom_site_symmetry_multiplicity
 _atom_site_fract_x
 _atom_site_fract_y
 _atom_site_fract_z
 _atom_site_occupancy
  Gd  Gd0  1  0.713118  0.713118  0.286882  1
  Gd  Gd1  1  0.286882  0.713118  0.286882  1
  Gd  Gd2  1  0.713118  0.286882  0.286882  1
  Gd  Gd3  1  0.286882  0.286882  0.713118  1
  Gd  Gd4  1  0.713118  0.286882  0.713118  1
  Gd  Gd5  1  0.286882  0.713118  0.713118  1
  Al  Al6  1  0.000000  0.000000  0.000000  1
  Al  Al7  1  0.000000  0.000000  0.500000  1
  Al  Al8  1  0.500000  0.000000  0.500000  1
  Al  Al9  1  0.000000  0.500000  0.500000  1
  Al  Al10  1  0.500000  0.500000  0.000000  1
  Al  Al11  1  0.000000  0.500000  0.000000  1
  Al  Al12  1  0.500000  0.000000  0.000000  1
  Cu  Cu13  1  0.878338  0.878338  0.364986  1
  Cu  Cu14  1  0.878338  0.364986  0.878338  1
  Cu  Cu15  1  0.364986  0.878338  0.878338  1
  Cu  Cu16  1  0.878338  0.878338  0.878338  1
  Cu  Cu17  1  0.121662  0.121662  0.635014  1
  Cu  Cu18  1  0.121662  0.635014  0.121662  1
  Cu  Cu19  1  0.635014  0.121662  0.121662  1
  Cu  Cu20  1  0.121662  0.121662  0.121662  1
  Cu  Cu21  1  0.673496  0.673496  0.979513  1
  Cu  Cu22  1  0.673496  0.979513  0.673496  1
  Cu  Cu23  1  0.979513  0.673496  0.673496  1
  Cu  Cu24  1  0.673496  0.673496  0.673496  1
  Cu  Cu25  1  0.326504  0.326504  0.020487  1
  Cu  Cu26  1  0.326504  0.020487  0.326504  1
  Cu  Cu27  1  0.020487  0.326504  0.326504  1
  Cu  Cu28  1  0.326504  0.326504  0.326504  1
