# generated using pymatgen
data_Ho2Er2Sn6Rh7
_symmetry_space_group_name_H-M   'P 1'
_cell_length_a   7.59125459
_cell_length_b   7.58996833
_cell_length_c   7.59125402
_cell_angle_alpha   109.47102709
_cell_angle_beta   109.47848398
_cell_angle_gamma   109.47102701
_symmetry_Int_Tables_number   1
_chemical_formula_structural   Ho2Er2Sn6Rh7
_chemical_formula_sum   'Ho2 Er2 Sn6 Rh7'
_cell_volume   336.67300168
_cell_formula_units_Z   1
loop_
 _symmetry_equiv_pos_site_id
 _symmetry_equiv_pos_as_xyz
  1  'x, y, z'
loop_
 _atom_site_type_symbol
 _atom_site_label
 _atom_site_symmetry_multiplicity
 _atom_site_fract_x
 _atom_site_fract_y
 _atom_site_fract_z
 _atom_site_occupancy
  Ho  Ho0  1  0.000000  0.500000  0.000000  1
  Ho  Ho1  1  0.500000  0.500000  0.500000  1
  Er  Er2  1  0.000000  0.000000  0.500000  1
  Er  Er3  1  0.500000  0.000000  0.000000  1
  Sn  Sn4  1  0.684912  0.684978  0.000065  1
  Sn  Sn5  1  0.315089  0.000000  0.315089  1
  Sn  Sn6  1  0.999935  0.315022  0.315088  1
  Sn  Sn7  1  0.315088  0.315022  0.999935  1
  Sn  Sn8  1  0.684911  0.000000  0.684911  1
  Sn  Sn9  1  0.000065  0.684978  0.684912  1
  Rh  Rh10  1  0.749999  0.249929  0.499930  1
  Rh  Rh11  1  0.750000  0.500000  0.250000  1
  Rh  Rh12  1  0.499930  0.249929  0.749999  1
  Rh  Rh13  1  0.250000  0.500000  0.750000  1
  Rh  Rh14  1  0.250001  0.750071  0.500070  1
  Rh  Rh15  1  0.500070  0.750071  0.250001  1
  Rh  Rh16  1  0.000000  0.000000  0.000000  1
