# generated using pymatgen
data_Gd5Tm11(Ga3Co)2
_symmetry_space_group_name_H-M   'P 1'
_cell_length_a   9.91080500
_cell_length_b   9.91080397
_cell_length_c   6.92987000
_cell_angle_alpha   90.00000000
_cell_angle_beta   90.00000000
_cell_angle_gamma   120.00000010
_symmetry_Int_Tables_number   1
_chemical_formula_structural   Gd5Tm11(Ga3Co)2
_chemical_formula_sum   'Gd5 Tm11 Ga6 Co2'
_cell_volume   589.48605552
_cell_formula_units_Z   1
loop_
 _symmetry_equiv_pos_site_id
 _symmetry_equiv_pos_as_xyz
  1  'x, y, z'
loop_
 _atom_site_type_symbol
 _atom_site_label
 _atom_site_symmetry_multiplicity
 _atom_site_fract_x
 _atom_site_fract_y
 _atom_site_fract_z
 _atom_site_occupancy
  Gd  Gd0  1  0.465024  0.930047  0.291634  1
  Gd  Gd1  1  0.069953  0.534976  0.291634  1
  Gd  Gd2  1  0.465024  0.534976  0.291634  1
  Gd  Gd3  1  0.000000  0.000000  0.769269  1
  Gd  Gd4  1  0.000000  0.000000  0.268686  1
  Tm  Tm5  1  0.826099  0.652199  0.489428  1
  Tm  Tm6  1  0.347801  0.173901  0.489428  1
  Tm  Tm7  1  0.826099  0.173901  0.489428  1
  Tm  Tm8  1  0.173666  0.347332  0.985154  1
  Tm  Tm9  1  0.652668  0.826334  0.985154  1
  Tm  Tm10  1  0.173666  0.826334  0.985154  1
  Tm  Tm11  1  0.666667  0.333333  0.172657  1
  Tm  Tm12  1  0.333333  0.666667  0.673552  1
  Tm  Tm13  1  0.537527  0.075054  0.792537  1
  Tm  Tm14  1  0.924946  0.462473  0.792537  1
  Tm  Tm15  1  0.537527  0.462473  0.792537  1
  Ga  Ga16  1  0.835460  0.670922  0.041238  1
  Ga  Ga17  1  0.329078  0.164540  0.041238  1
  Ga  Ga18  1  0.835460  0.164540  0.041238  1
  Ga  Ga19  1  0.163838  0.327675  0.544330  1
  Ga  Ga20  1  0.672325  0.836162  0.544330  1
  Ga  Ga21  1  0.163838  0.836162  0.544330  1
  Co  Co22  1  0.666667  0.333333  0.556220  1
  Co  Co23  1  0.333333  0.666667  0.052730  1
