# generated using pymatgen
data_Zr12TiAl2Zn(Ir2N)4
_symmetry_space_group_name_H-M   'P 1'
_cell_length_a   8.62554724
_cell_length_b   8.61594333
_cell_length_c   8.61594400
_cell_angle_alpha   59.86693562
_cell_angle_beta   59.96312735
_cell_angle_gamma   59.96312380
_symmetry_Int_Tables_number   1
_chemical_formula_structural   Zr12TiAl2Zn(Ir2N)4
_chemical_formula_sum   'Zr12 Ti1 Al2 Zn1 Ir8 N4'
_cell_volume   452.06087441
_cell_formula_units_Z   1
loop_
 _symmetry_equiv_pos_site_id
 _symmetry_equiv_pos_as_xyz
  1  'x, y, z'
loop_
 _atom_site_type_symbol
 _atom_site_label
 _atom_site_symmetry_multiplicity
 _atom_site_fract_x
 _atom_site_fract_y
 _atom_site_fract_z
 _atom_site_occupancy
  Zr  Zr0  1  0.808580  0.809797  0.190418  1
  Zr  Zr1  1  0.188448  0.194345  0.808105  1
  Zr  Zr2  1  0.809101  0.194345  0.808105  1
  Zr  Zr3  1  0.191203  0.809797  0.190418  1
  Zr  Zr4  1  0.190911  0.810031  0.808147  1
  Zr  Zr5  1  0.808311  0.195862  0.187517  1
  Zr  Zr6  1  0.441420  0.440203  0.059582  1
  Zr  Zr7  1  0.061552  0.055655  0.441895  1
  Zr  Zr8  1  0.440899  0.055655  0.441895  1
  Zr  Zr9  1  0.058797  0.440203  0.059582  1
  Zr  Zr10  1  0.059089  0.439969  0.441853  1
  Zr  Zr11  1  0.441689  0.054138  0.062483  1
  Ti  Ti12  1  0.625000  0.125000  0.625000  1
  Al  Al13  1  0.125000  0.625000  0.625000  1
  Al  Al14  1  0.625000  0.625000  0.625000  1
  Zn  Zn15  1  0.625000  0.625000  0.125000  1
  Ir  Ir16  1  0.752911  0.412168  0.419529  1
  Ir  Ir17  1  0.415228  0.749585  0.419961  1
  Ir  Ir18  1  0.416267  0.412262  0.755206  1
  Ir  Ir19  1  0.415393  0.412168  0.419529  1
  Ir  Ir20  1  0.497089  0.837832  0.830471  1
  Ir  Ir21  1  0.834772  0.500415  0.830039  1
  Ir  Ir22  1  0.833733  0.837738  0.494794  1
  Ir  Ir23  1  0.834607  0.837832  0.830471  1
  N  N24  1  0.625000  0.125000  0.125000  1
  N  N25  1  0.125000  0.625000  0.125000  1
  N  N26  1  0.125000  0.125000  0.625000  1
  N  N27  1  0.125000  0.125000  0.125000  1
