# generated using pymatgen
data_Sm4Al3Fe(WO6)4
_symmetry_space_group_name_H-M   'P 1'
_cell_length_a   5.29347298
_cell_length_b   7.41408149
_cell_length_c   10.90238695
_cell_angle_alpha   90.10970607
_cell_angle_beta   89.90259252
_cell_angle_gamma   89.98127890
_symmetry_Int_Tables_number   1
_chemical_formula_structural   Sm4Al3Fe(WO6)4
_chemical_formula_sum   'Sm4 Al3 Fe1 W4 O24'
_cell_volume   427.87626948
_cell_formula_units_Z   1
loop_
 _symmetry_equiv_pos_site_id
 _symmetry_equiv_pos_as_xyz
  1  'x, y, z'
loop_
 _atom_site_type_symbol
 _atom_site_label
 _atom_site_symmetry_multiplicity
 _atom_site_fract_x
 _atom_site_fract_y
 _atom_site_fract_z
 _atom_site_occupancy
  Sm  Sm0  1  0.546117  0.250433  0.049383  1
  Sm  Sm1  1  0.046859  0.751946  0.454360  1
  Sm  Sm2  1  0.955369  0.250721  0.540960  1
  Sm  Sm3  1  0.455575  0.753592  0.957886  1
  Al  Al4  1  0.045314  0.997412  0.136405  1
  Al  Al5  1  0.545629  0.497761  0.362818  1
  Al  Al6  1  0.456201  0.997312  0.636490  1
  Fe  Fe7  1  0.955317  0.497381  0.861330  1
  W  W8  1  0.052509  0.506028  0.146432  1
  W  W9  1  0.552492  0.005398  0.355642  1
  W  W10  1  0.448222  0.506003  0.640835  1
  W  W11  1  0.948980  0.006639  0.854944  1
  O  O12  1  0.768888  0.963210  0.023931  1
  O  O13  1  0.764913  0.541286  0.031433  1
  O  O14  1  0.154479  0.754134  0.123779  1
  O  O15  1  0.955690  0.251747  0.144220  1
  O  O16  1  0.372061  0.445523  0.217335  1
  O  O17  1  0.364035  0.056936  0.213962  1
  O  O18  1  0.866460  0.557829  0.288930  1
  O  O19  1  0.873192  0.946228  0.285139  1
  O  O20  1  0.455467  0.752333  0.356102  1
  O  O21  1  0.654206  0.253750  0.376170  1
  O  O22  1  0.271307  0.039515  0.476707  1
  O  O23  1  0.268360  0.465443  0.473389  1
  O  O24  1  0.733241  0.964622  0.523015  1
  O  O25  1  0.730265  0.539989  0.522445  1
  O  O26  1  0.343371  0.754675  0.620496  1
  O  O27  1  0.550483  0.252611  0.642665  1
  O  O28  1  0.124091  0.439850  0.704067  1
  O  O29  1  0.137279  0.061021  0.713967  1
  O  O30  1  0.613855  0.563772  0.787402  1
  O  O31  1  0.630985  0.943026  0.784147  1
  O  O32  1  0.057032  0.757176  0.854970  1
  O  O33  1  0.831886  0.249165  0.878824  1
  O  O34  1  0.229092  0.041743  0.977383  1
  O  O35  1  0.240776  0.464191  0.982036  1
