# generated using pymatgen
data_Na2LiHf2Ni9As7
_symmetry_space_group_name_H-M   'P 1'
_cell_length_a   9.65416342
_cell_length_b   9.68602083
_cell_length_c   3.84843400
_cell_angle_alpha   90.00000000
_cell_angle_beta   90.00000000
_cell_angle_gamma   120.22223385
_symmetry_Int_Tables_number   1
_chemical_formula_structural   Na2LiHf2Ni9As7
_chemical_formula_sum   'Na2 Li1 Hf2 Ni9 As7'
_cell_volume   310.95518904
_cell_formula_units_Z   1
loop_
 _symmetry_equiv_pos_site_id
 _symmetry_equiv_pos_as_xyz
  1  'x, y, z'
loop_
 _atom_site_type_symbol
 _atom_site_label
 _atom_site_symmetry_multiplicity
 _atom_site_fract_x
 _atom_site_fract_y
 _atom_site_fract_z
 _atom_site_occupancy
  Na  Na0  1  0.331537  0.661065  0.000000  1
  Na  Na1  1  0.663122  0.331447  0.500000  1
  Li  Li2  1  0.232422  0.120239  0.500000  1
  Hf  Hf3  1  0.880034  0.108039  0.500000  1
  Hf  Hf4  1  0.897470  0.775025  0.500000  1
  Ni  Ni5  1  0.123339  0.285485  0.000000  1
  Ni  Ni6  1  0.714888  0.841573  0.000000  1
  Ni  Ni7  1  0.164322  0.877225  0.000000  1
  Ni  Ni8  1  0.420054  0.363116  0.000000  1
  Ni  Ni9  1  0.632881  0.058190  0.000000  1
  Ni  Ni10  1  0.939449  0.579754  0.000000  1
  Ni  Ni11  1  0.054418  0.437917  0.500000  1
  Ni  Ni12  1  0.560489  0.611374  0.500000  1
  Ni  Ni13  1  0.389462  0.956311  0.500000  1
  As  As14  1  0.288537  0.410216  0.500000  1
  As  As15  1  0.574462  0.866141  0.500000  1
  As  As16  1  0.134163  0.709272  0.500000  1
  As  As17  1  0.419563  0.113977  0.000000  1
  As  As18  1  0.886834  0.315039  0.000000  1
  As  As19  1  0.686177  0.575178  0.000000  1
  As  As20  1  0.006376  0.003417  0.000000  1
