# generated using pymatgen
data_La3TmFeC6
_symmetry_space_group_name_H-M   'P 1'
_cell_length_a   8.66178800
_cell_length_b   8.66178798
_cell_length_c   5.45001800
_cell_angle_alpha   90.00000000
_cell_angle_beta   90.00000000
_cell_angle_gamma   119.99999245
_symmetry_Int_Tables_number   1
_chemical_formula_structural   La3TmFeC6
_chemical_formula_sum   'La6 Tm2 Fe2 C12'
_cell_volume   354.11449181
_cell_formula_units_Z   2
loop_
 _symmetry_equiv_pos_site_id
 _symmetry_equiv_pos_as_xyz
  1  'x, y, z'
loop_
 _atom_site_type_symbol
 _atom_site_label
 _atom_site_symmetry_multiplicity
 _atom_site_fract_x
 _atom_site_fract_y
 _atom_site_fract_z
 _atom_site_occupancy
  La  La0  1  0.609800  0.670410  0.750000  1
  La  La1  1  0.939391  0.609800  0.250000  1
  La  La2  1  0.670410  0.060609  0.250000  1
  La  La3  1  0.329590  0.939391  0.750000  1
  La  La4  1  0.060609  0.390200  0.750000  1
  La  La5  1  0.390200  0.329590  0.250000  1
  Tm  Tm6  1  0.000000  0.000000  0.500000  1
  Tm  Tm7  1  0.000000  0.000000  0.000000  1
  Fe  Fe8  1  0.666667  0.333333  0.750000  1
  Fe  Fe9  1  0.333333  0.666667  0.250000  1
  C  C10  1  0.954016  0.740562  0.750000  1
  C  C11  1  0.213454  0.954016  0.250000  1
  C  C12  1  0.740562  0.786546  0.250000  1
  C  C13  1  0.259438  0.213454  0.750000  1
  C  C14  1  0.786546  0.045984  0.750000  1
  C  C15  1  0.045984  0.259438  0.250000  1
  C  C16  1  0.849716  0.560384  0.750000  1
  C  C17  1  0.289332  0.849716  0.250000  1
  C  C18  1  0.560384  0.710668  0.250000  1
  C  C19  1  0.439616  0.289332  0.750000  1
  C  C20  1  0.150284  0.439616  0.250000  1
  C  C21  1  0.710668  0.150284  0.750000  1
