# generated using pymatgen
data_Hg3BiRu3RhO14
_symmetry_space_group_name_H-M   'P 1'
_cell_length_a   7.36942959
_cell_length_b   7.34223645
_cell_length_c   7.36942988
_cell_angle_alpha   59.14096841
_cell_angle_beta   59.33692020
_cell_angle_gamma   59.14096711
_symmetry_Int_Tables_number   1
_chemical_formula_structural   Hg3BiRu3RhO14
_chemical_formula_sum   'Hg3 Bi1 Ru3 Rh1 O14'
_cell_volume   276.85503193
_cell_formula_units_Z   1
loop_
 _symmetry_equiv_pos_site_id
 _symmetry_equiv_pos_as_xyz
  1  'x, y, z'
loop_
 _atom_site_type_symbol
 _atom_site_label
 _atom_site_symmetry_multiplicity
 _atom_site_fract_x
 _atom_site_fract_y
 _atom_site_fract_z
 _atom_site_occupancy
  Hg  Hg0  1  0.125000  0.625000  0.125000  1
  Hg  Hg1  1  0.625000  0.125000  0.125000  1
  Hg  Hg2  1  0.125000  0.125000  0.625000  1
  Bi  Bi3  1  0.125000  0.125000  0.125000  1
  Ru  Ru4  1  0.625000  0.625000  0.625000  1
  Ru  Ru5  1  0.625000  0.625000  0.125000  1
  Ru  Ru6  1  0.125000  0.625000  0.625000  1
  Rh  Rh7  1  0.625000  0.125000  0.625000  1
  O  O8  1  0.252136  0.257710  0.252136  1
  O  O9  1  0.298401  0.708359  0.298401  1
  O  O10  1  0.956856  0.952420  0.538709  1
  O  O11  1  0.553816  0.944454  0.553816  1
  O  O12  1  0.687851  0.680677  0.312421  1
  O  O13  1  0.937579  0.569323  0.562149  1
  O  O14  1  0.696184  0.305546  0.696184  1
  O  O15  1  0.293144  0.297580  0.711291  1
  O  O16  1  0.711291  0.297580  0.293144  1
  O  O17  1  0.312421  0.680677  0.687851  1
  O  O18  1  0.951599  0.541641  0.951599  1
  O  O19  1  0.562149  0.569323  0.937579  1
  O  O20  1  0.997864  0.992290  0.997864  1
  O  O21  1  0.538709  0.952420  0.956856  1
