# generated using pymatgen
data_Y9Ho11(Bi2Sb)4
_symmetry_space_group_name_H-M   'P 1'
_cell_length_a   8.17921208
_cell_length_b   9.44575908
_cell_length_c   12.01661108
_cell_angle_alpha   90.00833022
_cell_angle_beta   90.01017360
_cell_angle_gamma   89.98813403
_symmetry_Int_Tables_number   1
_chemical_formula_structural   Y9Ho11(Bi2Sb)4
_chemical_formula_sum   'Y9 Ho11 Bi8 Sb4'
_cell_volume   928.38970918
_cell_formula_units_Z   1
loop_
 _symmetry_equiv_pos_site_id
 _symmetry_equiv_pos_as_xyz
  1  'x, y, z'
loop_
 _atom_site_type_symbol
 _atom_site_label
 _atom_site_symmetry_multiplicity
 _atom_site_fract_x
 _atom_site_fract_y
 _atom_site_fract_z
 _atom_site_occupancy
  Y  Y0  1  0.183572  0.750009  0.718285  1
  Y  Y1  1  0.683596  0.750022  0.781741  1
  Y  Y2  1  0.816425  0.249919  0.281627  1
  Y  Y3  1  0.316414  0.250004  0.218272  1
  Y  Y4  1  0.809738  0.438863  0.558691  1
  Y  Y5  1  0.353962  0.749997  0.212918  1
  Y  Y6  1  0.853936  0.749987  0.287086  1
  Y  Y7  1  0.645924  0.249848  0.787222  1
  Y  Y8  1  0.146139  0.249890  0.712968  1
  Ho  Ho9  1  0.029126  0.750005  0.988539  1
  Ho  Ho10  1  0.529048  0.750046  0.511445  1
  Ho  Ho11  1  0.970875  0.249975  0.011462  1
  Ho  Ho12  1  0.470692  0.249848  0.488520  1
  Ho  Ho13  1  0.309726  0.438393  0.941303  1
  Ho  Ho14  1  0.809718  0.061437  0.558706  1
  Ho  Ho15  1  0.690276  0.938392  0.058691  1
  Ho  Ho16  1  0.190396  0.561669  0.441271  1
  Ho  Ho17  1  0.690270  0.561620  0.058708  1
  Ho  Ho18  1  0.190321  0.938384  0.441296  1
  Ho  Ho19  1  0.309706  0.061602  0.941311  1
  Bi  Bi20  1  0.433582  0.003770  0.673605  1
  Bi  Bi21  1  0.933656  0.496214  0.826480  1
  Bi  Bi22  1  0.566348  0.503755  0.326335  1
  Bi  Bi23  1  0.066401  0.996217  0.173585  1
  Bi  Bi24  1  0.566379  0.996232  0.326405  1
  Bi  Bi25  1  0.066410  0.503761  0.173571  1
  Bi  Bi26  1  0.433507  0.496180  0.673622  1
  Bi  Bi27  1  0.933617  0.003758  0.826416  1
  Sb  Sb28  1  0.410039  0.750009  0.959245  1
  Sb  Sb29  1  0.910184  0.750325  0.540711  1
  Sb  Sb30  1  0.589957  0.249998  0.040776  1
  Sb  Sb31  1  0.090060  0.249871  0.459186  1
