# generated using pymatgen
data_Ir4Se8I
_symmetry_space_group_name_H-M   'P 1'
_cell_length_a   3.82878702
_cell_length_b   8.24898406
_cell_length_c   9.49209535
_cell_angle_alpha   75.51163538
_cell_angle_beta   78.36461384
_cell_angle_gamma   76.58065339
_symmetry_Int_Tables_number   1
_chemical_formula_structural   Ir4Se8I
_chemical_formula_sum   'Ir4 Se8 I1'
_cell_volume   279.03337480
_cell_formula_units_Z   1
loop_
 _symmetry_equiv_pos_site_id
 _symmetry_equiv_pos_as_xyz
  1  'x, y, z'
loop_
 _atom_site_type_symbol
 _atom_site_label
 _atom_site_symmetry_multiplicity
 _atom_site_fract_x
 _atom_site_fract_y
 _atom_site_fract_z
 _atom_site_occupancy
  Ir  Ir0  1  0.634012  0.188114  0.543863  1
  Ir  Ir1  1  0.846014  0.483184  0.824786  1
  Ir  Ir2  1  0.153859  0.517146  0.175136  1
  Ir  Ir3  1  0.366044  0.811829  0.456082  1
  Se  Se4  1  0.461852  0.299656  0.776640  1
  Se  Se5  1  0.538124  0.700204  0.223546  1
  Se  Se6  1  0.901809  0.630991  0.565391  1
  Se  Se7  1  0.098267  0.368921  0.434544  1
  Se  Se8  1  0.225127  0.648039  0.901708  1
  Se  Se9  1  0.774722  0.352414  0.098143  1
  Se  Se10  1  0.818078  0.010063  0.353782  1
  Se  Se11  1  0.182006  0.989854  0.646134  1
  I  I12  1  0.500085  0.999583  0.000244  1
