# generated using pymatgen
data_LiSc(TcSn4)2
_symmetry_space_group_name_H-M   'P 1'
_cell_length_a   7.46195628
_cell_length_b   7.46195661
_cell_length_c   7.46195542
_cell_angle_alpha   125.32831603
_cell_angle_beta   125.32831716
_cell_angle_gamma   80.99492980
_symmetry_Int_Tables_number   1
_chemical_formula_structural   LiSc(TcSn4)2
_chemical_formula_sum   'Li1 Sc1 Tc2 Sn8'
_cell_volume   266.49793905
_cell_formula_units_Z   1
loop_
 _symmetry_equiv_pos_site_id
 _symmetry_equiv_pos_as_xyz
  1  'x, y, z'
loop_
 _atom_site_type_symbol
 _atom_site_label
 _atom_site_symmetry_multiplicity
 _atom_site_fract_x
 _atom_site_fract_y
 _atom_site_fract_z
 _atom_site_occupancy
  Li  Li0  1  0.000000  0.000000  0.000000  1
  Sc  Sc1  1  0.500000  0.500000  0.000000  1
  Tc  Tc2  1  0.252139  0.252139  0.000000  1
  Tc  Tc3  1  0.747861  0.747861  0.000000  1
  Sn  Sn4  1  0.706691  0.524814  0.510510  1
  Sn  Sn5  1  0.524814  0.014304  0.818124  1
  Sn  Sn6  1  0.196180  0.706691  0.181876  1
  Sn  Sn7  1  0.803820  0.293309  0.818124  1
  Sn  Sn8  1  0.475186  0.985696  0.181876  1
  Sn  Sn9  1  0.293309  0.475186  0.489490  1
  Sn  Sn10  1  0.985696  0.803820  0.510510  1
  Sn  Sn11  1  0.014304  0.196180  0.489490  1
