# generated using pymatgen
data_LaYbTiIr3
_symmetry_space_group_name_H-M   'P 1'
_cell_length_a   5.21376737
_cell_length_b   5.21376604
_cell_length_c   5.21376665
_cell_angle_alpha   66.43494894
_cell_angle_beta   66.43495834
_cell_angle_gamma   66.43494094
_symmetry_Int_Tables_number   1
_chemical_formula_structural   LaYbTiIr3
_chemical_formula_sum   'La1 Yb1 Ti1 Ir3'
_cell_volume   114.11522424
_cell_formula_units_Z   1
loop_
 _symmetry_equiv_pos_site_id
 _symmetry_equiv_pos_as_xyz
  1  'x, y, z'
loop_
 _atom_site_type_symbol
 _atom_site_label
 _atom_site_symmetry_multiplicity
 _atom_site_fract_x
 _atom_site_fract_y
 _atom_site_fract_z
 _atom_site_occupancy
  La  La0  1  0.248859  0.248859  0.248859  1
  Yb  Yb1  1  0.998313  0.998313  0.998313  1
  Ti  Ti2  1  0.624563  0.624563  0.624563  1
  Ir  Ir3  1  0.627338  0.627338  0.123591  1
  Ir  Ir4  1  0.627338  0.123591  0.627338  1
  Ir  Ir5  1  0.123591  0.627338  0.627338  1
