# generated using pymatgen
data_YErNbB2Ru5
_symmetry_space_group_name_H-M   'P 1'
_cell_length_a   9.68678925
_cell_length_b   9.68678925
_cell_length_c   3.13249700
_cell_angle_alpha   90.00000000
_cell_angle_beta   90.00000000
_cell_angle_gamma   90.28637305
_symmetry_Int_Tables_number   1
_chemical_formula_structural   YErNbB2Ru5
_chemical_formula_sum   'Y2 Er2 Nb2 B4 Ru10'
_cell_volume   293.93069478
_cell_formula_units_Z   2
loop_
 _symmetry_equiv_pos_site_id
 _symmetry_equiv_pos_as_xyz
  1  'x, y, z'
loop_
 _atom_site_type_symbol
 _atom_site_label
 _atom_site_symmetry_multiplicity
 _atom_site_fract_x
 _atom_site_fract_y
 _atom_site_fract_z
 _atom_site_occupancy
  Y  Y0  1  0.825177  0.674823  0.000000  1
  Y  Y1  1  0.174823  0.325177  0.000000  1
  Er  Er2  1  0.325326  0.825326  0.000000  1
  Er  Er3  1  0.674674  0.174674  0.000000  1
  Nb  Nb4  1  0.500000  0.500000  0.000000  1
  Nb  Nb5  1  0.000000  0.000000  0.000000  1
  B  B6  1  0.619709  0.880291  0.000000  1
  B  B7  1  0.380291  0.119709  0.000000  1
  B  B8  1  0.120337  0.620337  0.000000  1
  B  B9  1  0.879663  0.379663  0.000000  1
  Ru  Ru10  1  0.569435  0.719167  0.500000  1
  Ru  Ru11  1  0.430565  0.280833  0.500000  1
  Ru  Ru12  1  0.073003  0.781966  0.500000  1
  Ru  Ru13  1  0.926997  0.218034  0.500000  1
  Ru  Ru14  1  0.281966  0.573003  0.500000  1
  Ru  Ru15  1  0.718034  0.426997  0.500000  1
  Ru  Ru16  1  0.219167  0.069435  0.500000  1
  Ru  Ru17  1  0.780833  0.930565  0.500000  1
  Ru  Ru18  1  0.500000  0.000000  0.500000  1
  Ru  Ru19  1  0.000000  0.500000  0.500000  1
