# generated using pymatgen
data_YTm3(NiB4)4
_symmetry_space_group_name_H-M   'P 1'
_cell_length_a   6.78526373
_cell_length_b   6.78526430
_cell_length_c   6.78526391
_cell_angle_alpha   112.99404207
_cell_angle_beta   112.99404792
_cell_angle_gamma   102.63440039
_symmetry_Int_Tables_number   1
_chemical_formula_structural   YTm3(NiB4)4
_chemical_formula_sum   'Y1 Tm3 Ni4 B16'
_cell_volume   237.95412533
_cell_formula_units_Z   1
loop_
 _symmetry_equiv_pos_site_id
 _symmetry_equiv_pos_as_xyz
  1  'x, y, z'
loop_
 _atom_site_type_symbol
 _atom_site_label
 _atom_site_symmetry_multiplicity
 _atom_site_fract_x
 _atom_site_fract_y
 _atom_site_fract_z
 _atom_site_occupancy
  Y  Y0  1  0.250000  0.750000  0.500000  1
  Tm  Tm1  1  0.796399  0.796399  0.000000  1
  Tm  Tm2  1  0.203601  0.203601  0.000000  1
  Tm  Tm3  1  0.750000  0.250000  0.500000  1
  Ni  Ni4  1  0.271267  0.498836  0.772431  1
  Ni  Ni5  1  0.726406  0.498836  0.227569  1
  Ni  Ni6  1  0.501164  0.728733  0.227569  1
  Ni  Ni7  1  0.501164  0.273594  0.772431  1
  B  B8  1  0.275189  0.111315  0.386997  1
  B  B9  1  0.724318  0.888192  0.613003  1
  B  B10  1  0.275189  0.888192  0.163873  1
  B  B11  1  0.724318  0.111315  0.836127  1
  B  B12  1  0.111808  0.724811  0.836127  1
  B  B13  1  0.888685  0.275682  0.163873  1
  B  B14  1  0.111808  0.275682  0.386997  1
  B  B15  1  0.888685  0.724811  0.613003  1
  B  B16  1  0.113075  0.114638  0.533817  1
  B  B17  1  0.580821  0.579258  0.466183  1
  B  B18  1  0.113075  0.579258  0.998437  1
  B  B19  1  0.580821  0.114638  0.001563  1
  B  B20  1  0.885362  0.886925  0.466183  1
  B  B21  1  0.420742  0.419179  0.533817  1
  B  B22  1  0.885362  0.419179  0.998437  1
  B  B23  1  0.420742  0.886925  0.001563  1
