# generated using pymatgen
data_BaEu2(CoH6)2
_symmetry_space_group_name_H-M   'P 1'
_cell_length_a   5.05924400
_cell_length_b   5.05924365
_cell_length_c   8.49347700
_cell_angle_alpha   90.00000000
_cell_angle_beta   90.00000000
_cell_angle_gamma   119.99998922
_symmetry_Int_Tables_number   1
_chemical_formula_structural   BaEu2(CoH6)2
_chemical_formula_sum   'Ba1 Eu2 Co2 H12'
_cell_volume   188.27272758
_cell_formula_units_Z   1
loop_
 _symmetry_equiv_pos_site_id
 _symmetry_equiv_pos_as_xyz
  1  'x, y, z'
loop_
 _atom_site_type_symbol
 _atom_site_label
 _atom_site_symmetry_multiplicity
 _atom_site_fract_x
 _atom_site_fract_y
 _atom_site_fract_z
 _atom_site_occupancy
  Ba  Ba0  1  0.000000  0.000000  0.000000  1
  Eu  Eu1  1  0.666667  0.333333  0.365165  1
  Eu  Eu2  1  0.333333  0.666667  0.634835  1
  Co  Co3  1  0.666667  0.333333  0.738688  1
  Co  Co4  1  0.333333  0.666667  0.261312  1
  H  H5  1  0.185727  0.814273  0.365769  1
  H  H6  1  0.628547  0.814273  0.365769  1
  H  H7  1  0.185727  0.371453  0.365769  1
  H  H8  1  0.814273  0.185727  0.634231  1
  H  H9  1  0.371453  0.185727  0.634231  1
  H  H10  1  0.814273  0.628547  0.634231  1
  H  H11  1  0.523623  0.047245  0.847552  1
  H  H12  1  0.523623  0.476377  0.847552  1
  H  H13  1  0.952755  0.476377  0.847552  1
  H  H14  1  0.476377  0.952755  0.152448  1
  H  H15  1  0.476377  0.523623  0.152448  1
  H  H16  1  0.047245  0.523623  0.152448  1
