# generated using pymatgen
data_CsTa2PO8
_symmetry_space_group_name_H-M   'P 1'
_cell_length_a   8.55228741
_cell_length_b   8.55228659
_cell_length_c   8.55228779
_cell_angle_alpha   104.28451025
_cell_angle_beta   104.28451312
_cell_angle_gamma   104.28450744
_symmetry_Int_Tables_number   1
_chemical_formula_structural   CsTa2PO8
_chemical_formula_sum   'Cs3 Ta6 P3 O24'
_cell_volume   555.03777633
_cell_formula_units_Z   3
loop_
 _symmetry_equiv_pos_site_id
 _symmetry_equiv_pos_as_xyz
  1  'x, y, z'
loop_
 _atom_site_type_symbol
 _atom_site_label
 _atom_site_symmetry_multiplicity
 _atom_site_fract_x
 _atom_site_fract_y
 _atom_site_fract_z
 _atom_site_occupancy
  Cs  Cs0  1  0.612779  0.311049  0.908164  1
  Cs  Cs1  1  0.908164  0.612779  0.311049  1
  Cs  Cs2  1  0.311049  0.908164  0.612779  1
  Ta  Ta3  1  0.352037  0.035133  0.159408  1
  Ta  Ta4  1  0.035133  0.159408  0.352037  1
  Ta  Ta5  1  0.968214  0.650578  0.840785  1
  Ta  Ta6  1  0.159408  0.352037  0.035133  1
  Ta  Ta7  1  0.650578  0.840785  0.968214  1
  Ta  Ta8  1  0.840785  0.968214  0.650578  1
  P  P9  1  0.725601  0.271867  0.499454  1
  P  P10  1  0.271867  0.499454  0.725601  1
  P  P11  1  0.499454  0.725601  0.271867  1
  O  O12  1  0.971064  0.025090  0.498950  1
  O  O13  1  0.844989  0.998782  0.155393  1
  O  O14  1  0.708334  0.130127  0.583937  1
  O  O15  1  0.205640  0.064787  0.310068  1
  O  O16  1  0.998782  0.155393  0.844989  1
  O  O17  1  0.868383  0.285169  0.417303  1
  O  O18  1  0.554775  0.228929  0.356868  1
  O  O19  1  0.769321  0.444267  0.640238  1
  O  O20  1  0.310068  0.205640  0.064787  1
  O  O21  1  0.285169  0.417303  0.868383  1
  O  O22  1  0.228929  0.356868  0.554775  1
  O  O23  1  0.064787  0.310068  0.205640  1
  O  O24  1  0.025090  0.498950  0.971064  1
  O  O25  1  0.794092  0.687562  0.933249  1
  O  O26  1  0.444267  0.640238  0.769321  1
  O  O27  1  0.130127  0.583937  0.708334  1
  O  O28  1  0.933249  0.794092  0.687562  1
  O  O29  1  0.356868  0.554775  0.228929  1
  O  O30  1  0.640238  0.769321  0.444267  1
  O  O31  1  0.583937  0.708334  0.130127  1
  O  O32  1  0.687562  0.933249  0.794092  1
  O  O33  1  0.417303  0.868383  0.285169  1
  O  O34  1  0.155393  0.844989  0.998782  1
  O  O35  1  0.498950  0.971064  0.025090  1
