# generated using pymatgen
data_Sc8Co8Si13Ge
_symmetry_space_group_name_H-M   'P 1'
_cell_length_a   9.48685184
_cell_length_b   9.48693606
_cell_length_c   9.48685082
_cell_angle_alpha   94.02818141
_cell_angle_beta   94.14394569
_cell_angle_gamma   149.03504691
_symmetry_Int_Tables_number   1
_chemical_formula_structural   Sc8Co8Si13Ge
_chemical_formula_sum   'Sc8 Co8 Si13 Ge1'
_cell_volume   423.36609599
_cell_formula_units_Z   1
loop_
 _symmetry_equiv_pos_site_id
 _symmetry_equiv_pos_as_xyz
  1  'x, y, z'
loop_
 _atom_site_type_symbol
 _atom_site_label
 _atom_site_symmetry_multiplicity
 _atom_site_fract_x
 _atom_site_fract_y
 _atom_site_fract_z
 _atom_site_occupancy
  Sc  Sc0  1  0.137103  0.137251  0.277544  1
  Sc  Sc1  1  0.859879  0.859655  0.722496  1
  Sc  Sc2  1  0.859708  0.137251  0.000148  1
  Sc  Sc3  1  0.137158  0.859655  0.999776  1
  Sc  Sc4  1  0.501668  0.698360  0.196692  1
  Sc  Sc5  1  0.501535  0.304817  0.803282  1
  Sc  Sc6  1  0.304732  0.501635  0.803134  1
  Sc  Sc7  1  0.698501  0.501635  0.196903  1
  Co  Co8  1  0.397171  0.897109  0.794165  1
  Co  Co9  1  0.102921  0.602995  0.205840  1
  Co  Co10  1  0.102944  0.897109  0.499939  1
  Co  Co11  1  0.397155  0.602995  0.500073  1
  Co  Co12  1  0.602762  0.396878  0.499725  1
  Co  Co13  1  0.897166  0.103043  0.500273  1
  Co  Co14  1  0.897153  0.396878  0.794117  1
  Co  Co15  1  0.602770  0.103043  0.205877  1
  Si  Si16  1  0.288929  0.288951  0.578749  1
  Si  Si17  1  0.710188  0.710261  0.421282  1
  Si  Si18  1  0.710202  0.288951  0.000022  1
  Si  Si19  1  0.288979  0.710261  0.000073  1
  Si  Si20  1  0.000108  0.301227  0.301119  1
  Si  Si21  1  0.000145  0.699080  0.698936  1
  Si  Si22  1  0.699025  0.000285  0.698636  1
  Si  Si23  1  0.301649  0.000285  0.301261  1
  Si  Si24  1  0.500148  0.908991  0.408843  1
  Si  Si25  1  0.500105  0.091243  0.591139  1
  Si  Si26  1  0.091085  0.499921  0.591111  1
  Si  Si27  1  0.908810  0.499921  0.408836  1
  Si  Si28  1  0.750240  0.750240  0.000000  1
  Ge  Ge29  1  0.250061  0.250071  0.000010  1
