# generated using pymatgen
data_Ba3SmTc2O9
_symmetry_space_group_name_H-M   'P 1'
_cell_length_a   6.02704700
_cell_length_b   6.02712399
_cell_length_c   14.74935300
_cell_angle_alpha   90.00000000
_cell_angle_beta   90.00000000
_cell_angle_gamma   119.99957196
_symmetry_Int_Tables_number   1
_chemical_formula_structural   Ba3SmTc2O9
_chemical_formula_sum   'Ba6 Sm2 Tc4 O18'
_cell_volume   464.00234854
_cell_formula_units_Z   2
loop_
 _symmetry_equiv_pos_site_id
 _symmetry_equiv_pos_as_xyz
  1  'x, y, z'
loop_
 _atom_site_type_symbol
 _atom_site_label
 _atom_site_symmetry_multiplicity
 _atom_site_fract_x
 _atom_site_fract_y
 _atom_site_fract_z
 _atom_site_occupancy
  Ba  Ba0  1  0.666662  0.333324  0.101818  1
  Ba  Ba1  1  0.000074  0.000147  0.250000  1
  Ba  Ba2  1  0.666662  0.333324  0.398182  1
  Ba  Ba3  1  0.333338  0.666677  0.601818  1
  Ba  Ba4  1  0.999926  0.999853  0.750000  1
  Ba  Ba5  1  0.333338  0.666677  0.898182  1
  Sm  Sm6  1  0.000000  0.000000  0.000000  1
  Sm  Sm7  1  0.000000  0.000000  0.500000  1
  Tc  Tc8  1  0.333359  0.666718  0.165208  1
  Tc  Tc9  1  0.333359  0.666718  0.334793  1
  Tc  Tc10  1  0.666640  0.333281  0.665207  1
  Tc  Tc11  1  0.666640  0.333281  0.834793  1
  O  O12  1  0.176964  0.353929  0.091606  1
  O  O13  1  0.177070  0.823053  0.091591  1
  O  O14  1  0.645984  0.823053  0.091591  1
  O  O15  1  0.016678  0.507990  0.250000  1
  O  O16  1  0.491313  0.507990  0.250000  1
  O  O17  1  0.491795  0.983590  0.250000  1
  O  O18  1  0.177070  0.823053  0.408409  1
  O  O19  1  0.645984  0.823053  0.408409  1
  O  O20  1  0.176964  0.353929  0.408394  1
  O  O21  1  0.354015  0.176945  0.591591  1
  O  O22  1  0.822929  0.176945  0.591591  1
  O  O23  1  0.823034  0.646070  0.591606  1
  O  O24  1  0.508205  0.016411  0.750000  1
  O  O25  1  0.508688  0.492010  0.750000  1
  O  O26  1  0.983322  0.492010  0.750000  1
  O  O27  1  0.354015  0.176945  0.908409  1
  O  O28  1  0.822929  0.176945  0.908409  1
  O  O29  1  0.823034  0.646070  0.908394  1
