# generated using pymatgen
data_Dy5(In2Rh)2
_symmetry_space_group_name_H-M   'P 1'
_cell_length_a   3.63391400
_cell_length_b   8.01233500
_cell_length_c   18.32602200
_cell_angle_alpha   90.00000000
_cell_angle_beta   90.00000000
_cell_angle_gamma   90.00000000
_symmetry_Int_Tables_number   1
_chemical_formula_structural   Dy5(In2Rh)2
_chemical_formula_sum   'Dy10 In8 Rh4'
_cell_volume   533.58295492
_cell_formula_units_Z   2
loop_
 _symmetry_equiv_pos_site_id
 _symmetry_equiv_pos_as_xyz
  1  'x, y, z'
loop_
 _atom_site_type_symbol
 _atom_site_label
 _atom_site_symmetry_multiplicity
 _atom_site_fract_x
 _atom_site_fract_y
 _atom_site_fract_z
 _atom_site_occupancy
  Dy  Dy0  1  0.500000  0.382763  0.588003  1
  Dy  Dy1  1  0.500000  0.882763  0.911997  1
  Dy  Dy2  1  0.500000  0.117237  0.088003  1
  Dy  Dy3  1  0.500000  0.753979  0.721191  1
  Dy  Dy4  1  0.500000  0.253979  0.778809  1
  Dy  Dy5  1  0.500000  0.500000  0.000000  1
  Dy  Dy6  1  0.500000  0.746021  0.221191  1
  Dy  Dy7  1  0.500000  0.246021  0.278809  1
  Dy  Dy8  1  0.500000  0.000000  0.500000  1
  Dy  Dy9  1  0.500000  0.617237  0.411997  1
  In  In10  1  0.000000  0.792265  0.068947  1
  In  In11  1  0.000000  0.927134  0.349051  1
  In  In12  1  0.000000  0.072866  0.650949  1
  In  In13  1  0.000000  0.572866  0.849051  1
  In  In14  1  0.000000  0.707735  0.568947  1
  In  In15  1  0.000000  0.207735  0.931053  1
  In  In16  1  0.000000  0.292265  0.431053  1
  In  In17  1  0.000000  0.427134  0.150949  1
  Rh  Rh18  1  0.000000  0.975425  0.805365  1
  Rh  Rh19  1  0.000000  0.524575  0.305365  1
  Rh  Rh20  1  0.000000  0.475425  0.694635  1
  Rh  Rh21  1  0.000000  0.024575  0.194635  1
