# generated using pymatgen
data_Tb2DyHo3Ru2
_symmetry_space_group_name_H-M   'P 1'
_cell_length_a   6.31271482
_cell_length_b   7.29402300
_cell_length_c   9.19586340
_cell_angle_alpha   90.00000000
_cell_angle_beta   90.20173065
_cell_angle_gamma   90.00000000
_symmetry_Int_Tables_number   1
_chemical_formula_structural   Tb2DyHo3Ru2
_chemical_formula_sum   'Tb4 Dy2 Ho6 Ru4'
_cell_volume   423.42170687
_cell_formula_units_Z   2
loop_
 _symmetry_equiv_pos_site_id
 _symmetry_equiv_pos_as_xyz
  1  'x, y, z'
loop_
 _atom_site_type_symbol
 _atom_site_label
 _atom_site_symmetry_multiplicity
 _atom_site_fract_x
 _atom_site_fract_y
 _atom_site_fract_z
 _atom_site_occupancy
  Tb  Tb0  1  0.865370  0.539867  0.250227  1
  Tb  Tb1  1  0.634630  0.039867  0.249773  1
  Tb  Tb2  1  0.133565  0.460148  0.749952  1
  Tb  Tb3  1  0.366435  0.960147  0.750048  1
  Dy  Dy4  1  0.329702  0.677057  0.064986  1
  Dy  Dy5  1  0.170298  0.177057  0.435014  1
  Ho  Ho6  1  0.670185  0.323524  0.565291  1
  Ho  Ho7  1  0.829815  0.823524  0.934709  1
  Ho  Ho8  1  0.669968  0.323333  0.934423  1
  Ho  Ho9  1  0.830032  0.823333  0.565577  1
  Ho  Ho10  1  0.330313  0.676107  0.435141  1
  Ho  Ho11  1  0.169687  0.176107  0.064859  1
  Ru  Ru12  1  0.040590  0.885453  0.250021  1
  Ru  Ru13  1  0.459410  0.385453  0.249979  1
  Ru  Ru14  1  0.958356  0.114511  0.751791  1
  Ru  Ru15  1  0.541644  0.614511  0.748209  1
