# generated using pymatgen
data_Ho2Al8SiIr2Rh
_symmetry_space_group_name_H-M   'P 1'
_cell_length_a   7.53604758
_cell_length_b   7.53604850
_cell_length_c   9.35572700
_cell_angle_alpha   90.00000000
_cell_angle_beta   90.00000000
_cell_angle_gamma   119.54680732
_symmetry_Int_Tables_number   1
_chemical_formula_structural   Ho2Al8SiIr2Rh
_chemical_formula_sum   'Ho4 Al16 Si2 Ir4 Rh2'
_cell_volume   462.23274619
_cell_formula_units_Z   2
loop_
 _symmetry_equiv_pos_site_id
 _symmetry_equiv_pos_as_xyz
  1  'x, y, z'
loop_
 _atom_site_type_symbol
 _atom_site_label
 _atom_site_symmetry_multiplicity
 _atom_site_fract_x
 _atom_site_fract_y
 _atom_site_fract_z
 _atom_site_occupancy
  Ho  Ho0  1  0.994796  0.674656  0.250000  1
  Ho  Ho1  1  0.005204  0.325344  0.750000  1
  Ho  Ho2  1  0.674656  0.994796  0.250000  1
  Ho  Ho3  1  0.325344  0.005204  0.750000  1
  Al  Al4  1  0.001252  0.336027  0.076868  1
  Al  Al5  1  0.998748  0.663973  0.923132  1
  Al  Al6  1  0.998748  0.663973  0.576868  1
  Al  Al7  1  0.336027  0.001252  0.423132  1
  Al  Al8  1  0.001252  0.336027  0.423132  1
  Al  Al9  1  0.663973  0.998748  0.576868  1
  Al  Al10  1  0.663973  0.998748  0.923132  1
  Al  Al11  1  0.336027  0.001252  0.076868  1
  Al  Al12  1  0.335301  0.335301  0.557911  1
  Al  Al13  1  0.664699  0.664699  0.442089  1
  Al  Al14  1  0.664699  0.664699  0.057911  1
  Al  Al15  1  0.335301  0.335301  0.942089  1
  Al  Al16  1  0.335087  0.548195  0.250000  1
  Al  Al17  1  0.664913  0.451805  0.750000  1
  Al  Al18  1  0.548195  0.335087  0.250000  1
  Al  Al19  1  0.451805  0.664913  0.750000  1
  Si  Si20  1  0.127890  0.127890  0.250000  1
  Si  Si21  1  0.872110  0.872110  0.750000  1
  Ir  Ir22  1  0.671917  0.328083  0.000000  1
  Ir  Ir23  1  0.328083  0.671917  0.000000  1
  Ir  Ir24  1  0.328083  0.671917  0.500000  1
  Ir  Ir25  1  0.671917  0.328083  0.500000  1
  Rh  Rh26  1  0.000000  0.000000  0.000000  1
  Rh  Rh27  1  0.000000  0.000000  0.500000  1
