# generated using pymatgen
data_Tb9HoIn8(NiAu)2
_symmetry_space_group_name_H-M   'P 1'
_cell_length_a   8.15360016
_cell_length_b   18.31613030
_cell_length_c   3.61927700
_cell_angle_alpha   90.00000000
_cell_angle_beta   90.00000000
_cell_angle_gamma   89.93184446
_symmetry_Int_Tables_number   1
_chemical_formula_structural   Tb9HoIn8(NiAu)2
_chemical_formula_sum   'Tb9 Ho1 In8 Ni2 Au2'
_cell_volume   540.51114140
_cell_formula_units_Z   1
loop_
 _symmetry_equiv_pos_site_id
 _symmetry_equiv_pos_as_xyz
  1  'x, y, z'
loop_
 _atom_site_type_symbol
 _atom_site_label
 _atom_site_symmetry_multiplicity
 _atom_site_fract_x
 _atom_site_fract_y
 _atom_site_fract_z
 _atom_site_occupancy
  Tb  Tb0  1  0.500213  0.499487  0.000000  1
  Tb  Tb1  1  0.999963  0.000162  0.000000  1
  Tb  Tb2  1  0.762309  0.285217  0.000000  1
  Tb  Tb3  1  0.237742  0.715059  0.000000  1
  Tb  Tb4  1  0.772489  0.775892  0.000000  1
  Tb  Tb5  1  0.226766  0.223952  0.000000  1
  Tb  Tb6  1  0.621320  0.080442  0.000000  1
  Tb  Tb7  1  0.378518  0.919488  0.000000  1
  Tb  Tb8  1  0.883689  0.586052  0.000000  1
  Ho  Ho9  1  0.116455  0.413517  0.000000  1
  In  In10  1  0.710388  0.930627  0.500000  1
  In  In11  1  0.290010  0.069212  0.500000  1
  In  In12  1  0.797160  0.433801  0.500000  1
  In  In13  1  0.204391  0.565652  0.500000  1
  In  In14  1  0.576272  0.647318  0.500000  1
  In  In15  1  0.420748  0.352284  0.500000  1
  In  In16  1  0.925702  0.151594  0.500000  1
  In  In17  1  0.073433  0.848799  0.500000  1
  Ni  Ni18  1  0.972522  0.695270  0.500000  1
  Ni  Ni19  1  0.030373  0.306225  0.500000  1
  Au  Au20  1  0.531162  0.199758  0.500000  1
  Au  Au21  1  0.468374  0.800193  0.500000  1
