# generated using pymatgen
data_La8PrNdCo4
_symmetry_space_group_name_H-M   'P 1'
_cell_length_a   9.15539817
_cell_length_b   9.15539867
_cell_length_c   7.09042610
_cell_angle_alpha   86.43443688
_cell_angle_beta   86.43442939
_cell_angle_gamma   42.48434094
_symmetry_Int_Tables_number   1
_chemical_formula_structural   La8PrNdCo4
_chemical_formula_sum   'La8 Pr1 Nd1 Co4'
_cell_volume   400.50845544
_cell_formula_units_Z   1
loop_
 _symmetry_equiv_pos_site_id
 _symmetry_equiv_pos_as_xyz
  1  'x, y, z'
loop_
 _atom_site_type_symbol
 _atom_site_label
 _atom_site_symmetry_multiplicity
 _atom_site_fract_x
 _atom_site_fract_y
 _atom_site_fract_z
 _atom_site_occupancy
  La  La0  1  0.013728  0.798664  0.899440  1
  La  La1  1  0.201336  0.986272  0.600560  1
  La  La2  1  0.986346  0.201189  0.100739  1
  La  La3  1  0.798811  0.013654  0.399261  1
  La  La4  1  0.361027  0.218232  0.832921  1
  La  La5  1  0.781768  0.638973  0.667079  1
  La  La6  1  0.638859  0.781701  0.167134  1
  La  La7  1  0.218299  0.361141  0.332866  1
  Pr  Pr8  1  0.571333  0.428667  0.750000  1
  Nd  Nd9  1  0.428787  0.571213  0.250000  1
  Co  Co10  1  0.176470  0.601872  0.581813  1
  Co  Co11  1  0.398128  0.823530  0.918187  1
  Co  Co12  1  0.823380  0.398270  0.417852  1
  Co  Co13  1  0.601730  0.176620  0.082148  1
