# generated using pymatgen
data_YLu4(FeB3)2
_symmetry_space_group_name_H-M   'P 1'
_cell_length_a   5.36578100
_cell_length_b   5.36578012
_cell_length_c   8.14925062
_cell_angle_alpha   70.77861283
_cell_angle_beta   70.77861772
_cell_angle_gamma   59.99998453
_symmetry_Int_Tables_number   1
_chemical_formula_structural   YLu4(FeB3)2
_chemical_formula_sum   'Y1 Lu4 Fe2 B6'
_cell_volume   187.94060021
_cell_formula_units_Z   1
loop_
 _symmetry_equiv_pos_site_id
 _symmetry_equiv_pos_as_xyz
  1  'x, y, z'
loop_
 _atom_site_type_symbol
 _atom_site_label
 _atom_site_symmetry_multiplicity
 _atom_site_fract_x
 _atom_site_fract_y
 _atom_site_fract_z
 _atom_site_occupancy
  Y  Y0  1  0.000000  0.000000  0.000000  1
  Lu  Lu1  1  0.250265  0.250265  0.249207  1
  Lu  Lu2  1  0.749735  0.749735  0.750793  1
  Lu  Lu3  1  0.417397  0.417397  0.747809  1
  Lu  Lu4  1  0.582603  0.582603  0.252191  1
  Fe  Fe5  1  0.116972  0.116972  0.649085  1
  Fe  Fe6  1  0.883028  0.883028  0.350915  1
  B  B7  1  0.168606  0.831394  0.500000  1
  B  B8  1  0.831394  0.500000  0.500000  1
  B  B9  1  0.500000  0.168606  0.500000  1
  B  B10  1  0.168606  0.500000  0.500000  1
  B  B11  1  0.500000  0.831394  0.500000  1
  B  B12  1  0.831394  0.168606  0.500000  1
