# generated using pymatgen
data_Ac2MgSn2
_symmetry_space_group_name_H-M   'P 1'
_cell_length_a   8.14804000
_cell_length_b   8.14804000
_cell_length_c   4.98961100
_cell_angle_alpha   90.00000000
_cell_angle_beta   90.00000000
_cell_angle_gamma   90.00000000
_symmetry_Int_Tables_number   1
_chemical_formula_structural   Ac2MgSn2
_chemical_formula_sum   'Ac4 Mg2 Sn4'
_cell_volume   331.26304772
_cell_formula_units_Z   2
loop_
 _symmetry_equiv_pos_site_id
 _symmetry_equiv_pos_as_xyz
  1  'x, y, z'
loop_
 _atom_site_type_symbol
 _atom_site_label
 _atom_site_symmetry_multiplicity
 _atom_site_fract_x
 _atom_site_fract_y
 _atom_site_fract_z
 _atom_site_occupancy
  Ac  Ac0  1  0.324351  0.175650  0.500000  1
  Ac  Ac1  1  0.824351  0.324351  0.500000  1
  Ac  Ac2  1  0.175650  0.675650  0.500000  1
  Ac  Ac3  1  0.675650  0.824351  0.500000  1
  Mg  Mg4  1  0.000000  0.000000  0.000000  1
  Mg  Mg5  1  0.500000  0.500000  0.000000  1
  Sn  Sn6  1  0.627784  0.127784  0.000000  1
  Sn  Sn7  1  0.127784  0.372216  0.000000  1
  Sn  Sn8  1  0.872217  0.627784  0.000000  1
  Sn  Sn9  1  0.372216  0.872217  0.000000  1
