# generated using pymatgen
data_DyTa5B4Os9Ru
_symmetry_space_group_name_H-M   'P 1'
_cell_length_a   9.58064510
_cell_length_b   9.58064595
_cell_length_c   3.06502300
_cell_angle_alpha   90.00000000
_cell_angle_beta   90.00000000
_cell_angle_gamma   90.47155699
_symmetry_Int_Tables_number   1
_chemical_formula_structural   DyTa5B4Os9Ru
_chemical_formula_sum   'Dy1 Ta5 B4 Os9 Ru1'
_cell_volume   281.32515885
_cell_formula_units_Z   1
loop_
 _symmetry_equiv_pos_site_id
 _symmetry_equiv_pos_as_xyz
  1  'x, y, z'
loop_
 _atom_site_type_symbol
 _atom_site_label
 _atom_site_symmetry_multiplicity
 _atom_site_fract_x
 _atom_site_fract_y
 _atom_site_fract_z
 _atom_site_occupancy
  Dy  Dy0  1  0.824995  0.675005  0.000000  1
  Ta  Ta1  1  0.178700  0.321300  0.000000  1
  Ta  Ta2  1  0.324129  0.822621  0.000000  1
  Ta  Ta3  1  0.677379  0.175871  0.000000  1
  Ta  Ta4  1  0.501212  0.500750  0.000000  1
  Ta  Ta5  1  0.999250  0.998788  0.000000  1
  B  B6  1  0.619713  0.880287  0.000000  1
  B  B7  1  0.377578  0.122422  0.000000  1
  B  B8  1  0.121886  0.619725  0.000000  1
  B  B9  1  0.880275  0.378114  0.000000  1
  Os  Os10  1  0.557210  0.725182  0.500000  1
  Os  Os11  1  0.426347  0.283609  0.500000  1
  Os  Os12  1  0.082881  0.782424  0.500000  1
  Os  Os13  1  0.931689  0.217162  0.500000  1
  Os  Os14  1  0.282838  0.568311  0.500000  1
  Os  Os15  1  0.717576  0.417119  0.500000  1
  Os  Os16  1  0.216391  0.073653  0.500000  1
  Os  Os17  1  0.774818  0.942790  0.500000  1
  Os  Os18  1  0.495715  0.004285  0.500000  1
  Ru  Ru19  1  0.009420  0.490580  0.500000  1
