# generated using pymatgen
data_LiYb2HoPd2Pb3
_symmetry_space_group_name_H-M   'P 1'
_cell_length_a   8.10780415
_cell_length_b   8.10780522
_cell_length_c   3.64288000
_cell_angle_alpha   90.00000000
_cell_angle_beta   90.00000000
_cell_angle_gamma   119.50335255
_symmetry_Int_Tables_number   1
_chemical_formula_structural   LiYb2HoPd2Pb3
_chemical_formula_sum   'Li1 Yb2 Ho1 Pd2 Pb3'
_cell_volume   208.41732580
_cell_formula_units_Z   1
loop_
 _symmetry_equiv_pos_site_id
 _symmetry_equiv_pos_as_xyz
  1  'x, y, z'
loop_
 _atom_site_type_symbol
 _atom_site_label
 _atom_site_symmetry_multiplicity
 _atom_site_fract_x
 _atom_site_fract_y
 _atom_site_fract_z
 _atom_site_occupancy
  Li  Li0  1  0.999701  0.999701  0.500000  1
  Yb  Yb1  1  0.602068  0.001549  0.500000  1
  Yb  Yb2  1  0.001549  0.602068  0.500000  1
  Ho  Ho3  1  0.398222  0.398222  0.500000  1
  Pd  Pd4  1  0.660540  0.335982  0.000000  1
  Pd  Pd5  1  0.335982  0.660540  0.000000  1
  Pb  Pb6  1  0.728299  0.728299  0.000000  1
  Pb  Pb7  1  0.274283  0.999356  0.000000  1
  Pb  Pb8  1  0.999356  0.274283  0.000000  1
