# generated using pymatgen
data_CsMnCuS2
_symmetry_space_group_name_H-M   'P 1'
_cell_length_a   7.73848943
_cell_length_b   7.73848914
_cell_length_c   7.73849029
_cell_angle_alpha   149.61353212
_cell_angle_beta   149.61352909
_cell_angle_gamma   43.50899739
_symmetry_Int_Tables_number   1
_chemical_formula_structural   CsMnCuS2
_chemical_formula_sum   'Cs1 Mn1 Cu1 S2'
_cell_volume   118.24795153
_cell_formula_units_Z   1
loop_
 _symmetry_equiv_pos_site_id
 _symmetry_equiv_pos_as_xyz
  1  'x, y, z'
loop_
 _atom_site_type_symbol
 _atom_site_label
 _atom_site_symmetry_multiplicity
 _atom_site_fract_x
 _atom_site_fract_y
 _atom_site_fract_z
 _atom_site_occupancy
  Cs  Cs0  1  0.000000  0.000000  0.000000  1
  Mn  Mn1  1  0.750000  0.250000  0.500000  1
  Cu  Cu2  1  0.250000  0.750000  0.500000  1
  S  S3  1  0.656819  0.656819  0.000000  1
  S  S4  1  0.343181  0.343181  0.000000  1
