# generated using pymatgen
data_ZrSc7Si16(MoW3)3
_symmetry_space_group_name_H-M   'P 1'
_cell_length_a   6.58743842
_cell_length_b   6.78827758
_cell_length_c   12.70677459
_cell_angle_alpha   89.94322489
_cell_angle_beta   90.02027626
_cell_angle_gamma   89.86037716
_symmetry_Int_Tables_number   1
_chemical_formula_structural   ZrSc7Si16(MoW3)3
_chemical_formula_sum   'Zr1 Sc7 Si16 Mo3 W9'
_cell_volume   568.21141773
_cell_formula_units_Z   1
loop_
 _symmetry_equiv_pos_site_id
 _symmetry_equiv_pos_as_xyz
  1  'x, y, z'
loop_
 _atom_site_type_symbol
 _atom_site_label
 _atom_site_symmetry_multiplicity
 _atom_site_fract_x
 _atom_site_fract_y
 _atom_site_fract_z
 _atom_site_occupancy
  Zr  Zr0  1  0.494268  0.669318  0.593608  1
  Sc  Sc1  1  0.993194  0.830421  0.908101  1
  Sc  Sc2  1  0.506532  0.330480  0.092479  1
  Sc  Sc3  1  0.007099  0.169360  0.407216  1
  Sc  Sc4  1  0.505828  0.331171  0.407140  1
  Sc  Sc5  1  0.005156  0.170295  0.092705  1
  Sc  Sc6  1  0.493855  0.669896  0.907502  1
  Sc  Sc7  1  0.993122  0.829868  0.591694  1
  Si  Si8  1  0.668322  0.964378  0.455941  1
  Si  Si9  1  0.166941  0.537335  0.044816  1
  Si  Si10  1  0.333123  0.036785  0.955090  1
  Si  Si11  1  0.833135  0.459968  0.543229  1
  Si  Si12  1  0.332400  0.039162  0.543413  1
  Si  Si13  1  0.833493  0.462405  0.955771  1
  Si  Si14  1  0.666216  0.963853  0.044840  1
  Si  Si15  1  0.168247  0.537210  0.456023  1
  Si  Si16  1  0.464073  0.378479  0.750430  1
  Si  Si17  1  0.965410  0.119845  0.750281  1
  Si  Si18  1  0.534602  0.619142  0.248632  1
  Si  Si19  1  0.035772  0.880429  0.249349  1
  Si  Si20  1  0.700079  0.859294  0.751146  1
  Si  Si21  1  0.196161  0.642350  0.751920  1
  Si  Si22  1  0.301949  0.142236  0.249439  1
  Si  Si23  1  0.801519  0.357269  0.250271  1
  Mo  Mo24  1  0.667176  0.164299  0.623822  1
  Mo  Mo25  1  0.168491  0.335501  0.876610  1
  Mo  Mo26  1  0.332394  0.834996  0.123959  1
  W  W27  1  0.831398  0.665286  0.375688  1
  W  W28  1  0.334379  0.834036  0.375188  1
  W  W29  1  0.831876  0.663902  0.124271  1
  W  W30  1  0.667207  0.166179  0.874899  1
  W  W31  1  0.167469  0.336874  0.625601  1
  W  W32  1  0.833520  0.504006  0.748705  1
  W  W33  1  0.333719  0.993640  0.749074  1
  W  W34  1  0.165369  0.496592  0.251011  1
  W  W35  1  0.666510  0.003737  0.250133  1
