# generated using pymatgen
data_Y10P9
_symmetry_space_group_name_H-M   'P 1'
_cell_length_a   8.93009755
_cell_length_b   6.91938793
_cell_length_c   10.56537400
_cell_angle_alpha   77.34357582
_cell_angle_beta   114.99599102
_cell_angle_gamma   130.22312958
_symmetry_Int_Tables_number   1
_chemical_formula_structural   Y10P9
_chemical_formula_sum   'Y10 P9'
_cell_volume   450.41515414
_cell_formula_units_Z   1
loop_
 _symmetry_equiv_pos_site_id
 _symmetry_equiv_pos_as_xyz
  1  'x, y, z'
loop_
 _atom_site_type_symbol
 _atom_site_label
 _atom_site_symmetry_multiplicity
 _atom_site_fract_x
 _atom_site_fract_y
 _atom_site_fract_z
 _atom_site_occupancy
  Y  Y0  1  0.420725  0.517032  0.331608  1
  Y  Y1  1  0.027209  0.629412  0.037544  1
  Y  Y2  1  0.234151  0.324492  0.934103  1
  Y  Y3  1  0.824379  0.915373  0.139119  1
  Y  Y4  1  0.618076  0.705435  0.727996  1
  Y  Y5  1  0.225190  0.818280  0.433826  1
  Y  Y6  1  0.021203  0.117362  0.532721  1
  Y  Y7  1  0.624396  0.217545  0.232483  1
  Y  Y8  1  0.820951  0.420147  0.625451  1
  Y  Y9  1  0.410772  0.009583  0.831234  1
  P  P10  1  0.020951  0.864064  0.783969  1
  P  P11  1  0.425033  0.267553  0.584588  1
  P  P12  1  0.822923  0.667841  0.382301  1
  P  P13  1  0.422128  0.767322  0.080064  1
  P  P14  1  0.623667  0.968629  0.484423  1
  P  P15  1  0.022186  0.366569  0.281031  1
  P  P16  1  0.222900  0.567014  0.685231  1
  P  P17  1  0.624040  0.470197  0.981323  1
  P  P18  1  0.220598  0.067481  0.180940  1
