# generated using pymatgen
data_Y13Th3(InRh)4
_symmetry_space_group_name_H-M   'P 1'
_cell_length_a   9.76072684
_cell_length_b   9.79450308
_cell_length_c   9.79450300
_cell_angle_alpha   59.99999691
_cell_angle_beta   59.88546083
_cell_angle_gamma   59.88545834
_symmetry_Int_Tables_number   1
_chemical_formula_structural   Y13Th3(InRh)4
_chemical_formula_sum   'Y13 Th3 In4 Rh4'
_cell_volume   660.96414910
_cell_formula_units_Z   1
loop_
 _symmetry_equiv_pos_site_id
 _symmetry_equiv_pos_as_xyz
  1  'x, y, z'
loop_
 _atom_site_type_symbol
 _atom_site_label
 _atom_site_symmetry_multiplicity
 _atom_site_fract_x
 _atom_site_fract_y
 _atom_site_fract_z
 _atom_site_occupancy
  Y  Y0  1  0.195202  0.601599  0.601599  1
  Y  Y1  1  0.062042  0.439195  0.439195  1
  Y  Y2  1  0.439141  0.061181  0.061181  1
  Y  Y3  1  0.439141  0.061181  0.438497  1
  Y  Y4  1  0.062042  0.439195  0.059568  1
  Y  Y5  1  0.439141  0.438497  0.061181  1
  Y  Y6  1  0.062042  0.059568  0.439195  1
  Y  Y7  1  0.187316  0.812488  0.812488  1
  Y  Y8  1  0.812561  0.187875  0.187875  1
  Y  Y9  1  0.812561  0.187875  0.811689  1
  Y  Y10  1  0.187316  0.812488  0.187708  1
  Y  Y11  1  0.812561  0.811689  0.187875  1
  Y  Y12  1  0.187316  0.187708  0.812488  1
  Th  Th13  1  0.595591  0.598570  0.598570  1
  Th  Th14  1  0.595591  0.598570  0.207269  1
  Th  Th15  1  0.595591  0.207269  0.598570  1
  In  In16  1  0.834813  0.833903  0.833903  1
  In  In17  1  0.834813  0.833903  0.497381  1
  In  In18  1  0.834813  0.497381  0.833903  1
  In  In19  1  0.497788  0.834071  0.834071  1
  Rh  Rh20  1  0.398541  0.391296  0.391296  1
  Rh  Rh21  1  0.398541  0.391296  0.818869  1
  Rh  Rh22  1  0.398541  0.818869  0.391296  1
  Rh  Rh23  1  0.816995  0.394335  0.394335  1
