# generated using pymatgen
data_Tb3In3IrRuAu
_symmetry_space_group_name_H-M   'P 1'
_cell_length_a   7.83054600
_cell_length_b   7.83054807
_cell_length_c   3.77308700
_cell_angle_alpha   90.00000000
_cell_angle_beta   90.00000000
_cell_angle_gamma   120.00000814
_symmetry_Int_Tables_number   1
_chemical_formula_structural   Tb3In3IrRuAu
_chemical_formula_sum   'Tb3 In3 Ir1 Ru1 Au1'
_cell_volume   200.36027569
_cell_formula_units_Z   1
loop_
 _symmetry_equiv_pos_site_id
 _symmetry_equiv_pos_as_xyz
  1  'x, y, z'
loop_
 _atom_site_type_symbol
 _atom_site_label
 _atom_site_symmetry_multiplicity
 _atom_site_fract_x
 _atom_site_fract_y
 _atom_site_fract_z
 _atom_site_occupancy
  Tb  Tb0  1  0.412125  0.388972  0.000000  1
  Tb  Tb1  1  0.611028  0.023153  0.000000  1
  Tb  Tb2  1  0.976847  0.587875  0.000000  1
  In  In3  1  0.000482  0.259360  0.500000  1
  In  In4  1  0.740640  0.741122  0.500000  1
  In  In5  1  0.258878  0.999518  0.500000  1
  Ir  Ir6  1  0.666667  0.333333  0.500000  1
  Ru  Ru7  1  0.000000  0.000000  0.000000  1
  Au  Au8  1  0.333333  0.666667  0.500000  1
