# generated using pymatgen
data_Sm11Dy(SiBr3)4
_symmetry_space_group_name_H-M   'P 1'
_cell_length_a   10.27102340
_cell_length_b   10.27327440
_cell_length_c   10.27739927
_cell_angle_alpha   109.49472399
_cell_angle_beta   109.48619464
_cell_angle_gamma   109.43270613
_symmetry_Int_Tables_number   1
_chemical_formula_structural   Sm11Dy(SiBr3)4
_chemical_formula_sum   'Sm11 Dy1 Si4 Br12'
_cell_volume   834.80305887
_cell_formula_units_Z   1
loop_
 _symmetry_equiv_pos_site_id
 _symmetry_equiv_pos_as_xyz
  1  'x, y, z'
loop_
 _atom_site_type_symbol
 _atom_site_label
 _atom_site_symmetry_multiplicity
 _atom_site_fract_x
 _atom_site_fract_y
 _atom_site_fract_z
 _atom_site_occupancy
  Sm  Sm0  1  0.262282  0.012406  0.024572  1
  Sm  Sm1  1  0.025266  0.262828  0.013006  1
  Sm  Sm2  1  0.487618  0.750040  0.012839  1
  Sm  Sm3  1  0.750496  0.237943  0.262689  1
  Sm  Sm4  1  0.012386  0.024872  0.262752  1
  Sm  Sm5  1  0.012669  0.488202  0.750632  1
  Sm  Sm6  1  0.238000  0.262418  0.750626  1
  Sm  Sm7  1  0.261821  0.748957  0.237301  1
  Sm  Sm8  1  0.237792  0.475773  0.488208  1
  Sm  Sm9  1  0.475393  0.488181  0.237263  1
  Sm  Sm10  1  0.750525  0.012512  0.488361  1
  Dy  Dy11  1  0.485611  0.235736  0.471477  1
  Si  Si12  1  0.000087  0.250081  0.500160  1
  Si  Si13  1  0.249984  0.499968  0.999986  1
  Si  Si14  1  0.500241  0.001801  0.251958  1
  Si  Si15  1  0.251714  0.250180  0.251954  1
  Br  Br16  1  0.754983  0.745492  0.250250  1
  Br  Br17  1  0.504829  0.249828  0.995455  1
  Br  Br18  1  0.254867  0.999904  0.505343  1
  Br  Br19  1  0.509453  0.500928  0.751410  1
  Br  Br20  1  0.995400  0.990627  0.745569  1
  Br  Br21  1  0.745311  0.995292  0.990649  1
  Br  Br22  1  0.504769  0.754754  0.509473  1
  Br  Br23  1  0.750474  0.505403  0.505360  1
  Br  Br24  1  0.995241  0.504780  0.250257  1
  Br  Br25  1  0.990685  0.745657  0.995455  1
  Br  Br26  1  0.250154  0.754946  0.745585  1
  Br  Br27  1  0.741951  0.250491  0.751410  1
