# generated using pymatgen
data_La2Pr2CoHg
_symmetry_space_group_name_H-M   'P 1'
_cell_length_a   9.84169338
_cell_length_b   9.84400080
_cell_length_c   9.95433700
_cell_angle_alpha   59.82959835
_cell_angle_beta   59.82587005
_cell_angle_gamma   60.64811521
_symmetry_Int_Tables_number   1
_chemical_formula_structural   La2Pr2CoHg
_chemical_formula_sum   'La8 Pr8 Co4 Hg4'
_cell_volume   683.39837412
_cell_formula_units_Z   4
loop_
 _symmetry_equiv_pos_site_id
 _symmetry_equiv_pos_as_xyz
  1  'x, y, z'
loop_
 _atom_site_type_symbol
 _atom_site_label
 _atom_site_symmetry_multiplicity
 _atom_site_fract_x
 _atom_site_fract_y
 _atom_site_fract_z
 _atom_site_occupancy
  La  La0  1  0.594562  0.594575  0.597237  1
  La  La1  1  0.596139  0.596154  0.209001  1
  La  La2  1  0.599567  0.210706  0.594654  1
  La  La3  1  0.210471  0.599600  0.594695  1
  La  La4  1  0.062387  0.436202  0.438701  1
  La  La5  1  0.437948  0.060523  0.061157  1
  La  La6  1  0.436311  0.062228  0.438866  1
  La  La7  1  0.060484  0.437910  0.061255  1
  Pr  Pr8  1  0.442374  0.442177  0.057409  1
  Pr  Pr9  1  0.055404  0.055323  0.443195  1
  Pr  Pr10  1  0.186726  0.813540  0.815445  1
  Pr  Pr11  1  0.812466  0.185671  0.186701  1
  Pr  Pr12  1  0.813524  0.186749  0.815630  1
  Pr  Pr13  1  0.185799  0.812514  0.186678  1
  Pr  Pr14  1  0.809479  0.809538  0.192828  1
  Pr  Pr15  1  0.190142  0.190192  0.810786  1
  Co  Co16  1  0.387456  0.387494  0.395739  1
  Co  Co17  1  0.386334  0.386384  0.830277  1
  Co  Co18  1  0.400640  0.831003  0.385301  1
  Co  Co19  1  0.831009  0.400642  0.385285  1
  Hg  Hg20  1  0.833481  0.833518  0.832265  1
  Hg  Hg21  1  0.833136  0.833172  0.501610  1
  Hg  Hg22  1  0.832766  0.501380  0.832662  1
  Hg  Hg23  1  0.501396  0.832806  0.832622  1
