# generated using pymatgen
data_AgIr2F12
_symmetry_space_group_name_H-M   'P 1'
_cell_length_a   5.45976092
_cell_length_b   5.81626349
_cell_length_c   9.10534561
_cell_angle_alpha   104.36966945
_cell_angle_beta   90.80735063
_cell_angle_gamma   115.44819577
_symmetry_Int_Tables_number   1
_chemical_formula_structural   AgIr2F12
_chemical_formula_sum   'Ag1 Ir2 F12'
_cell_volume   250.50060445
_cell_formula_units_Z   1
loop_
 _symmetry_equiv_pos_site_id
 _symmetry_equiv_pos_as_xyz
  1  'x, y, z'
loop_
 _atom_site_type_symbol
 _atom_site_label
 _atom_site_symmetry_multiplicity
 _atom_site_fract_x
 _atom_site_fract_y
 _atom_site_fract_z
 _atom_site_occupancy
  Ag  Ag0  1  0.500000  0.500000  0.500000  1
  Ir  Ir1  1  0.259609  0.008459  0.755919  1
  Ir  Ir2  1  0.740391  0.991541  0.244081  1
  F  F3  1  0.791921  0.776384  0.361163  1
  F  F4  1  0.208079  0.223616  0.638837  1
  F  F5  1  0.360129  0.775508  0.216201  1
  F  F6  1  0.304187  0.789557  0.864680  1
  F  F7  1  0.695813  0.210443  0.135320  1
  F  F8  1  0.872538  0.784879  0.719643  1
  F  F9  1  0.127462  0.215121  0.280357  1
  F  F10  1  0.290277  0.785073  0.568204  1
  F  F11  1  0.709723  0.214927  0.431796  1
  F  F12  1  0.221979  0.229004  0.934253  1
  F  F13  1  0.778021  0.770996  0.065747  1
  F  F14  1  0.639871  0.224492  0.783799  1
