# generated using pymatgen
data_Y2AlIr3
_symmetry_space_group_name_H-M   'P 1'
_cell_length_a   5.15205259
_cell_length_b   5.15205267
_cell_length_c   5.15205231
_cell_angle_alpha   65.94663973
_cell_angle_beta   65.94665243
_cell_angle_gamma   65.94664869
_symmetry_Int_Tables_number   1
_chemical_formula_structural   Y2AlIr3
_chemical_formula_sum   'Y2 Al1 Ir3'
_cell_volume   109.15018681
_cell_formula_units_Z   1
loop_
 _symmetry_equiv_pos_site_id
 _symmetry_equiv_pos_as_xyz
  1  'x, y, z'
loop_
 _atom_site_type_symbol
 _atom_site_label
 _atom_site_symmetry_multiplicity
 _atom_site_fract_x
 _atom_site_fract_y
 _atom_site_fract_z
 _atom_site_occupancy
  Y  Y0  1  0.627194  0.627194  0.627194  1
  Y  Y1  1  0.372806  0.372806  0.372806  1
  Al  Al2  1  0.000000  0.000000  0.000000  1
  Ir  Ir3  1  0.000000  0.500000  0.000000  1
  Ir  Ir4  1  0.500000  0.000000  0.000000  1
  Ir  Ir5  1  0.000000  0.000000  0.500000  1
