# generated using pymatgen
data_LaYbLu2(B6Os)2
_symmetry_space_group_name_H-M   'P 1'
_cell_length_a   3.65194800
_cell_length_b   9.16111908
_cell_length_c   11.59916268
_cell_angle_alpha   89.83118285
_cell_angle_beta   90.00000000
_cell_angle_gamma   90.00000000
_symmetry_Int_Tables_number   1
_chemical_formula_structural   LaYbLu2(B6Os)2
_chemical_formula_sum   'La2 Yb2 Lu4 B24 Os4'
_cell_volume   388.05909602
_cell_formula_units_Z   2
loop_
 _symmetry_equiv_pos_site_id
 _symmetry_equiv_pos_as_xyz
  1  'x, y, z'
loop_
 _atom_site_type_symbol
 _atom_site_label
 _atom_site_symmetry_multiplicity
 _atom_site_fract_x
 _atom_site_fract_y
 _atom_site_fract_z
 _atom_site_occupancy
  La  La0  1  0.000000  0.821933  0.086397  1
  La  La1  1  0.000000  0.178067  0.913603  1
  Yb  Yb2  1  0.000000  0.324586  0.415803  1
  Yb  Yb3  1  0.000000  0.675414  0.584197  1
  Lu  Lu4  1  0.000000  0.942254  0.372643  1
  Lu  Lu5  1  0.000000  0.057746  0.627357  1
  Lu  Lu6  1  0.000000  0.443768  0.132276  1
  Lu  Lu7  1  0.000000  0.556232  0.867724  1
  B  B8  1  0.500000  0.554149  0.433270  1
  B  B9  1  0.500000  0.445851  0.566730  1
  B  B10  1  0.500000  0.058008  0.073235  1
  B  B11  1  0.500000  0.941992  0.926765  1
  B  B12  1  0.500000  0.748614  0.419068  1
  B  B13  1  0.500000  0.251386  0.580932  1
  B  B14  1  0.500000  0.251511  0.086949  1
  B  B15  1  0.500000  0.748489  0.913051  1
  B  B16  1  0.500000  0.789981  0.268864  1
  B  B17  1  0.500000  0.210019  0.731135  1
  B  B18  1  0.500000  0.292566  0.238225  1
  B  B19  1  0.500000  0.707434  0.761776  1
  B  B20  1  0.500000  0.628624  0.188468  1
  B  B21  1  0.500000  0.371376  0.811532  1
  B  B22  1  0.500000  0.131517  0.317759  1
  B  B23  1  0.500000  0.868483  0.682241  1
  B  B24  1  0.500000  0.986303  0.216686  1
  B  B25  1  0.500000  0.013697  0.783314  1
  B  B26  1  0.500000  0.482913  0.290032  1
  B  B27  1  0.500000  0.517087  0.709968  1
  B  B28  1  0.500000  0.596004  0.026070  1
  B  B29  1  0.500000  0.403996  0.973930  1
  B  B30  1  0.500000  0.098733  0.473280  1
  B  B31  1  0.500000  0.901267  0.526720  1
  Os  Os32  1  0.000000  0.639131  0.320559  1
  Os  Os33  1  0.000000  0.360869  0.679441  1
  Os  Os34  1  0.000000  0.141264  0.183854  1
  Os  Os35  1  0.000000  0.858736  0.816146  1
