# generated using pymatgen
data_Na16ZrGeAs8
_symmetry_space_group_name_H-M   'P 1'
_cell_length_a   9.88917631
_cell_length_b   9.88917562
_cell_length_c   9.88917600
_cell_angle_alpha   59.99999872
_cell_angle_beta   60.00000105
_cell_angle_gamma   60.00000031
_symmetry_Int_Tables_number   1
_chemical_formula_structural   Na16ZrGeAs8
_chemical_formula_sum   'Na16 Zr1 Ge1 As8'
_cell_volume   683.85703349
_cell_formula_units_Z   1
loop_
 _symmetry_equiv_pos_site_id
 _symmetry_equiv_pos_as_xyz
  1  'x, y, z'
loop_
 _atom_site_type_symbol
 _atom_site_label
 _atom_site_symmetry_multiplicity
 _atom_site_fract_x
 _atom_site_fract_y
 _atom_site_fract_z
 _atom_site_occupancy
  Na  Na0  1  0.628765  0.628765  0.113707  1
  Na  Na1  1  0.628765  0.113707  0.628765  1
  Na  Na2  1  0.113707  0.628765  0.628765  1
  Na  Na3  1  0.628765  0.628765  0.628765  1
  Na  Na4  1  0.030809  0.469191  0.469191  1
  Na  Na5  1  0.772776  0.227224  0.227224  1
  Na  Na6  1  0.469191  0.030809  0.469191  1
  Na  Na7  1  0.469191  0.469191  0.030809  1
  Na  Na8  1  0.030809  0.030809  0.469191  1
  Na  Na9  1  0.030809  0.469191  0.030809  1
  Na  Na10  1  0.469191  0.030809  0.030809  1
  Na  Na11  1  0.772776  0.227224  0.772776  1
  Na  Na12  1  0.227224  0.772776  0.227224  1
  Na  Na13  1  0.227224  0.227224  0.772776  1
  Na  Na14  1  0.772776  0.772776  0.227224  1
  Na  Na15  1  0.227224  0.772776  0.772776  1
  Zr  Zr16  1  0.500000  0.500000  0.500000  1
  Ge  Ge17  1  0.750000  0.750000  0.750000  1
  As  As18  1  0.855067  0.855067  0.434802  1
  As  As19  1  0.855067  0.434802  0.855067  1
  As  As20  1  0.391490  0.391490  0.825528  1
  As  As21  1  0.391490  0.825528  0.391490  1
  As  As22  1  0.825528  0.391490  0.391490  1
  As  As23  1  0.855067  0.855067  0.855067  1
  As  As24  1  0.434802  0.855067  0.855067  1
  As  As25  1  0.391490  0.391490  0.391490  1
