# generated using pymatgen
data_DyY2ZrIn2Ir3
_symmetry_space_group_name_H-M   'P 1'
_cell_length_a   7.45606840
_cell_length_b   7.21630536
_cell_length_c   4.19300300
_cell_angle_alpha   90.00000000
_cell_angle_beta   90.00000000
_cell_angle_gamma   118.94183613
_symmetry_Int_Tables_number   1
_chemical_formula_structural   DyY2ZrIn2Ir3
_chemical_formula_sum   'Dy1 Y2 Zr1 In2 Ir3'
_cell_volume   197.43007293
_cell_formula_units_Z   1
loop_
 _symmetry_equiv_pos_site_id
 _symmetry_equiv_pos_as_xyz
  1  'x, y, z'
loop_
 _atom_site_type_symbol
 _atom_site_label
 _atom_site_symmetry_multiplicity
 _atom_site_fract_x
 _atom_site_fract_y
 _atom_site_fract_z
 _atom_site_occupancy
  Dy  Dy0  1  0.000000  0.393916  0.000000  1
  Y  Y1  1  0.582546  0.588122  0.000000  1
  Y  Y2  1  0.417454  0.005576  0.000000  1
  Zr  Zr3  1  0.000000  0.752919  0.500000  1
  In  In4  1  0.254692  0.252822  0.500000  1
  In  In5  1  0.745308  0.998130  0.500000  1
  Ir  Ir6  1  0.000000  0.982693  0.000000  1
  Ir  Ir7  1  0.680398  0.353110  0.500000  1
  Ir  Ir8  1  0.319602  0.672712  0.500000  1
