# generated using pymatgen
data_Li4Ta7NbN12
_symmetry_space_group_name_H-M   'P 1'
_cell_length_a   5.23558613
_cell_length_b   5.24376551
_cell_length_c   10.33673000
_cell_angle_alpha   90.00000000
_cell_angle_beta   90.00000000
_cell_angle_gamma   120.05170033
_symmetry_Int_Tables_number   1
_chemical_formula_structural   Li4Ta7NbN12
_chemical_formula_sum   'Li4 Ta7 Nb1 N12'
_cell_volume   245.63818884
_cell_formula_units_Z   1
loop_
 _symmetry_equiv_pos_site_id
 _symmetry_equiv_pos_as_xyz
  1  'x, y, z'
loop_
 _atom_site_type_symbol
 _atom_site_label
 _atom_site_symmetry_multiplicity
 _atom_site_fract_x
 _atom_site_fract_y
 _atom_site_fract_z
 _atom_site_occupancy
  Li  Li0  1  0.333190  0.666530  0.000107  1
  Li  Li1  1  0.333190  0.666530  0.499893  1
  Li  Li2  1  0.666810  0.333339  0.499893  1
  Li  Li3  1  0.666810  0.333339  0.000107  1
  Ta  Ta4  1  0.647159  0.999861  0.750000  1
  Ta  Ta5  1  0.352841  0.352701  0.750000  1
  Ta  Ta6  1  0.000000  0.001026  0.499686  1
  Ta  Ta7  1  0.000000  0.001026  0.000314  1
  Ta  Ta8  1  0.647969  0.647174  0.250000  1
  Ta  Ta9  1  0.352031  0.999206  0.250000  1
  Ta  Ta10  1  0.000000  0.647475  0.750000  1
  Nb  Nb11  1  0.000000  0.351436  0.250000  1
  N  N12  1  0.678625  0.678593  0.624456  1
  N  N13  1  0.678625  0.678593  0.875544  1
  N  N14  1  0.325282  0.321531  0.123672  1
  N  N15  1  0.325282  0.321531  0.376328  1
  N  N16  1  0.321375  0.999968  0.875544  1
  N  N17  1  0.321375  0.999968  0.624456  1
  N  N18  1  0.000000  0.682040  0.375756  1
  N  N19  1  0.000000  0.682040  0.124244  1
  N  N20  1  0.674718  0.996249  0.123672  1
  N  N21  1  0.674718  0.996249  0.376328  1
  N  N22  1  0.000000  0.321797  0.875629  1
  N  N23  1  0.000000  0.321797  0.624371  1
