# generated using pymatgen
data_Er4ReTc3B16
_symmetry_space_group_name_H-M   'P 1'
_cell_length_a   3.58922700
_cell_length_b   5.94785746
_cell_length_c   11.51096103
_cell_angle_alpha   89.99007115
_cell_angle_beta   90.00000000
_cell_angle_gamma   90.00000000
_symmetry_Int_Tables_number   1
_chemical_formula_structural   Er4ReTc3B16
_chemical_formula_sum   'Er4 Re1 Tc3 B16'
_cell_volume   245.73841646
_cell_formula_units_Z   1
loop_
 _symmetry_equiv_pos_site_id
 _symmetry_equiv_pos_as_xyz
  1  'x, y, z'
loop_
 _atom_site_type_symbol
 _atom_site_label
 _atom_site_symmetry_multiplicity
 _atom_site_fract_x
 _atom_site_fract_y
 _atom_site_fract_z
 _atom_site_occupancy
  Er  Er0  1  0.500000  0.126172  0.849384  1
  Er  Er1  1  0.500000  0.873000  0.150880  1
  Er  Er2  1  0.500000  0.627628  0.649079  1
  Er  Er3  1  0.500000  0.372237  0.350941  1
  Re  Re4  1  0.500000  0.366944  0.087598  1
  Tc  Tc5  1  0.500000  0.134258  0.588466  1
  Tc  Tc6  1  0.500000  0.866383  0.411582  1
  Tc  Tc7  1  0.500000  0.632862  0.912851  1
  B  B8  1  0.000000  0.287800  0.685240  1
  B  B9  1  0.000000  0.712424  0.314828  1
  B  B10  1  0.000000  0.787503  0.814757  1
  B  B11  1  0.000000  0.212372  0.185328  1
  B  B12  1  0.000000  0.364679  0.531292  1
  B  B13  1  0.000000  0.635485  0.468790  1
  B  B14  1  0.000000  0.864693  0.968466  1
  B  B15  1  0.000000  0.135322  0.031110  1
  B  B16  1  0.000000  0.023453  0.307395  1
  B  B17  1  0.000000  0.976062  0.692691  1
  B  B18  1  0.000000  0.523340  0.192687  1
  B  B19  1  0.000000  0.477010  0.807130  1
  B  B20  1  0.000000  0.113643  0.452709  1
  B  B21  1  0.000000  0.886390  0.547333  1
  B  B22  1  0.000000  0.614280  0.047306  1
  B  B23  1  0.000000  0.386061  0.952157  1
