# generated using pymatgen
data_Ho16In4Pd3Pt
_symmetry_space_group_name_H-M   'P 1'
_cell_length_a   9.67244589
_cell_length_b   9.67244566
_cell_length_c   9.69780537
_cell_angle_alpha   60.08646963
_cell_angle_beta   60.08646924
_cell_angle_gamma   60.00000201
_symmetry_Int_Tables_number   1
_chemical_formula_structural   Ho16In4Pd3Pt
_chemical_formula_sum   'Ho16 In4 Pd3 Pt1'
_cell_volume   642.38806260
_cell_formula_units_Z   1
loop_
 _symmetry_equiv_pos_site_id
 _symmetry_equiv_pos_as_xyz
  1  'x, y, z'
loop_
 _atom_site_type_symbol
 _atom_site_label
 _atom_site_symmetry_multiplicity
 _atom_site_fract_x
 _atom_site_fract_y
 _atom_site_fract_z
 _atom_site_occupancy
  Ho  Ho0  1  0.187495  0.187495  0.813122  1
  Ho  Ho1  1  0.602073  0.602073  0.193781  1
  Ho  Ho2  1  0.439372  0.060880  0.438869  1
  Ho  Ho3  1  0.438970  0.438970  0.059057  1
  Ho  Ho4  1  0.811889  0.187495  0.813122  1
  Ho  Ho5  1  0.186779  0.812468  0.188285  1
  Ho  Ho6  1  0.438970  0.063002  0.059057  1
  Ho  Ho7  1  0.187495  0.811889  0.813122  1
  Ho  Ho8  1  0.063002  0.438970  0.059057  1
  Ho  Ho9  1  0.812468  0.812468  0.188285  1
  Ho  Ho10  1  0.195902  0.600110  0.603878  1
  Ho  Ho11  1  0.060880  0.439372  0.438869  1
  Ho  Ho12  1  0.060880  0.060880  0.438869  1
  Ho  Ho13  1  0.812468  0.186779  0.188285  1
  Ho  Ho14  1  0.600110  0.195902  0.603878  1
  Ho  Ho15  1  0.600110  0.600110  0.603878  1
  In  In16  1  0.833251  0.833251  0.833125  1
  In  In17  1  0.833352  0.833352  0.499945  1
  In  In18  1  0.500374  0.833251  0.833125  1
  In  In19  1  0.833251  0.500374  0.833125  1
  Pd  Pd20  1  0.394192  0.818945  0.392671  1
  Pd  Pd21  1  0.394192  0.394192  0.392671  1
  Pd  Pd22  1  0.818945  0.394192  0.392671  1
  Pt  Pt23  1  0.393583  0.393583  0.819251  1
