# generated using pymatgen
data_Tb3Dy5Re(B8Ru)3
_symmetry_space_group_name_H-M   'P 1'
_cell_length_a   3.67718400
_cell_length_b   9.15757579
_cell_length_c   11.54548400
_cell_angle_alpha   90.13844477
_cell_angle_beta   90.00000000
_cell_angle_gamma   90.00000000
_symmetry_Int_Tables_number   1
_chemical_formula_structural   Tb3Dy5Re(B8Ru)3
_chemical_formula_sum   'Tb3 Dy5 Re1 B24 Ru3'
_cell_volume   388.78254569
_cell_formula_units_Z   1
loop_
 _symmetry_equiv_pos_site_id
 _symmetry_equiv_pos_as_xyz
  1  'x, y, z'
loop_
 _atom_site_type_symbol
 _atom_site_label
 _atom_site_symmetry_multiplicity
 _atom_site_fract_x
 _atom_site_fract_y
 _atom_site_fract_z
 _atom_site_occupancy
  Tb  Tb0  1  0.000000  0.323352  0.415034  1
  Tb  Tb1  1  0.000000  0.679421  0.588058  1
  Tb  Tb2  1  0.000000  0.823238  0.083694  1
  Dy  Dy3  1  0.000000  0.175750  0.913433  1
  Dy  Dy4  1  0.000000  0.943163  0.370858  1
  Dy  Dy5  1  0.000000  0.056379  0.627807  1
  Dy  Dy6  1  0.000000  0.442619  0.128712  1
  Dy  Dy7  1  0.000000  0.555819  0.872435  1
  Re  Re8  1  0.000000  0.862314  0.821222  1
  B  B9  1  0.500000  0.554365  0.432841  1
  B  B10  1  0.500000  0.445915  0.567482  1
  B  B11  1  0.500000  0.054122  0.067628  1
  B  B12  1  0.500000  0.947052  0.932931  1
  B  B13  1  0.500000  0.748239  0.419161  1
  B  B14  1  0.500000  0.252161  0.580645  1
  B  B15  1  0.500000  0.247947  0.080785  1
  B  B16  1  0.500000  0.751597  0.919077  1
  B  B17  1  0.500000  0.789983  0.266113  1
  B  B18  1  0.500000  0.209313  0.733108  1
  B  B19  1  0.500000  0.290386  0.233890  1
  B  B20  1  0.500000  0.708673  0.766208  1
  B  B21  1  0.500000  0.631198  0.185579  1
  B  B22  1  0.500000  0.367981  0.814187  1
  B  B23  1  0.500000  0.132009  0.314503  1
  B  B24  1  0.500000  0.868584  0.685770  1
  B  B25  1  0.500000  0.984322  0.212401  1
  B  B26  1  0.500000  0.017359  0.787443  1
  B  B27  1  0.500000  0.484022  0.288009  1
  B  B28  1  0.500000  0.515929  0.712631  1
  B  B29  1  0.500000  0.605943  0.030142  1
  B  B30  1  0.500000  0.391770  0.970709  1
  B  B31  1  0.500000  0.107732  0.469677  1
  B  B32  1  0.500000  0.893118  0.528845  1
  Ru  Ru33  1  0.000000  0.637984  0.321168  1
  Ru  Ru34  1  0.000000  0.362033  0.678571  1
  Ru  Ru35  1  0.000000  0.138207  0.179243  1
