# generated using pymatgen
data_LiPb4ClO4
_symmetry_space_group_name_H-M   'P 1'
_cell_length_a   8.36742900
_cell_length_b   8.36742900
_cell_length_c   6.21161800
_cell_angle_alpha   90.00000000
_cell_angle_beta   90.00000000
_cell_angle_gamma   90.00000000
_symmetry_Int_Tables_number   1
_chemical_formula_structural   LiPb4ClO4
_chemical_formula_sum   'Li2 Pb8 Cl2 O8'
_cell_volume   434.89940315
_cell_formula_units_Z   2
loop_
 _symmetry_equiv_pos_site_id
 _symmetry_equiv_pos_as_xyz
  1  'x, y, z'
loop_
 _atom_site_type_symbol
 _atom_site_label
 _atom_site_symmetry_multiplicity
 _atom_site_fract_x
 _atom_site_fract_y
 _atom_site_fract_z
 _atom_site_occupancy
  Li  Li0  1  0.500000  0.000000  0.970380  1
  Li  Li1  1  0.000000  0.500000  0.029620  1
  Pb  Pb2  1  0.198175  0.143462  0.234119  1
  Pb  Pb3  1  0.356538  0.698175  0.234119  1
  Pb  Pb4  1  0.643462  0.301825  0.234119  1
  Pb  Pb5  1  0.301825  0.356538  0.765881  1
  Pb  Pb6  1  0.143462  0.801825  0.765881  1
  Pb  Pb7  1  0.856538  0.198175  0.765881  1
  Pb  Pb8  1  0.801825  0.856538  0.234119  1
  Pb  Pb9  1  0.698175  0.643462  0.765881  1
  Cl  Cl10  1  0.000000  0.500000  0.444568  1
  Cl  Cl11  1  0.500000  0.000000  0.555432  1
  O  O12  1  0.737378  0.084314  0.061613  1
  O  O13  1  0.415686  0.237378  0.061613  1
  O  O14  1  0.262622  0.915686  0.061613  1
  O  O15  1  0.584314  0.762622  0.061613  1
  O  O16  1  0.915686  0.737378  0.938387  1
  O  O17  1  0.237378  0.584314  0.938387  1
  O  O18  1  0.084314  0.262622  0.938387  1
  O  O19  1  0.762622  0.415686  0.938387  1
