# generated using pymatgen
data_Y2Th3Sn3P
_symmetry_space_group_name_H-M   'P 1'
_cell_length_a   9.39777900
_cell_length_b   9.39777931
_cell_length_c   6.64415800
_cell_angle_alpha   90.00000000
_cell_angle_beta   90.00000000
_cell_angle_gamma   119.99999539
_symmetry_Int_Tables_number   1
_chemical_formula_structural   Y2Th3Sn3P
_chemical_formula_sum   'Y4 Th6 Sn6 P2'
_cell_volume   508.18410081
_cell_formula_units_Z   2
loop_
 _symmetry_equiv_pos_site_id
 _symmetry_equiv_pos_as_xyz
  1  'x, y, z'
loop_
 _atom_site_type_symbol
 _atom_site_label
 _atom_site_symmetry_multiplicity
 _atom_site_fract_x
 _atom_site_fract_y
 _atom_site_fract_z
 _atom_site_occupancy
  Y  Y0  1  0.666667  0.333333  0.000000  1
  Y  Y1  1  0.333333  0.666667  0.000000  1
  Y  Y2  1  0.333333  0.666667  0.500000  1
  Y  Y3  1  0.666667  0.333333  0.500000  1
  Th  Th4  1  0.754604  0.754604  0.750000  1
  Th  Th5  1  0.245396  0.000000  0.750000  1
  Th  Th6  1  0.000000  0.245396  0.750000  1
  Th  Th7  1  0.245396  0.245396  0.250000  1
  Th  Th8  1  0.754604  0.000000  0.250000  1
  Th  Th9  1  0.000000  0.754604  0.250000  1
  Sn  Sn10  1  0.399048  0.399048  0.750000  1
  Sn  Sn11  1  0.600952  0.000000  0.750000  1
  Sn  Sn12  1  0.000000  0.600952  0.750000  1
  Sn  Sn13  1  0.600952  0.600952  0.250000  1
  Sn  Sn14  1  0.399048  0.000000  0.250000  1
  Sn  Sn15  1  0.000000  0.399048  0.250000  1
  P  P16  1  0.000000  0.000000  0.000000  1
  P  P17  1  0.000000  0.000000  0.500000  1
