# generated using pymatgen
data_La2Sn3SbRh4
_symmetry_space_group_name_H-M   'P 1'
_cell_length_a   4.50196300
_cell_length_b   4.50196300
_cell_length_c   10.92283600
_cell_angle_alpha   90.00000000
_cell_angle_beta   90.00000000
_cell_angle_gamma   90.00000000
_symmetry_Int_Tables_number   1
_chemical_formula_structural   La2Sn3SbRh4
_chemical_formula_sum   'La2 Sn3 Sb1 Rh4'
_cell_volume   221.38044483
_cell_formula_units_Z   1
loop_
 _symmetry_equiv_pos_site_id
 _symmetry_equiv_pos_as_xyz
  1  'x, y, z'
loop_
 _atom_site_type_symbol
 _atom_site_label
 _atom_site_symmetry_multiplicity
 _atom_site_fract_x
 _atom_site_fract_y
 _atom_site_fract_z
 _atom_site_occupancy
  La  La0  1  0.000000  0.500000  0.249818  1
  La  La1  1  0.500000  0.000000  0.742627  1
  Sn  Sn2  1  0.000000  0.000000  0.499304  1
  Sn  Sn3  1  0.500000  0.500000  0.499304  1
  Sn  Sn4  1  0.000000  0.500000  0.872304  1
  Sb  Sb5  1  0.500000  0.000000  0.130573  1
  Rh  Rh6  1  0.000000  0.000000  0.003335  1
  Rh  Rh7  1  0.500000  0.500000  0.003335  1
  Rh  Rh8  1  0.000000  0.500000  0.633563  1
  Rh  Rh9  1  0.500000  0.000000  0.365836  1
