# generated using pymatgen
data_Ti5Ga6ReRu12
_symmetry_space_group_name_H-M   'P 1'
_cell_length_a   4.31269200
_cell_length_b   6.14519100
_cell_length_c   12.91998800
_cell_angle_alpha   90.00000000
_cell_angle_beta   89.99911812
_cell_angle_gamma   90.00000000
_symmetry_Int_Tables_number   1
_chemical_formula_structural   Ti5Ga6ReRu12
_chemical_formula_sum   'Ti5 Ga6 Re1 Ru12'
_cell_volume   342.40960550
_cell_formula_units_Z   1
loop_
 _symmetry_equiv_pos_site_id
 _symmetry_equiv_pos_as_xyz
  1  'x, y, z'
loop_
 _atom_site_type_symbol
 _atom_site_label
 _atom_site_symmetry_multiplicity
 _atom_site_fract_x
 _atom_site_fract_y
 _atom_site_fract_z
 _atom_site_occupancy
  Ti  Ti0  1  0.499817  0.000000  0.169800  1
  Ti  Ti1  1  0.999833  0.500000  0.334720  1
  Ti  Ti2  1  0.500001  0.000000  0.500000  1
  Ti  Ti3  1  0.000167  0.500000  0.665281  1
  Ti  Ti4  1  0.500183  0.000000  0.830200  1
  Ga  Ga5  1  0.000000  0.000000  0.000000  1
  Ga  Ga6  1  0.499792  0.500000  0.170768  1
  Ga  Ga7  1  0.999844  0.000000  0.333179  1
  Ga  Ga8  1  0.500001  0.500000  0.500000  1
  Ga  Ga9  1  0.000156  0.000000  0.666821  1
  Ga  Ga10  1  0.500208  0.500000  0.829233  1
  Re  Re11  1  0.000000  0.500000  0.000000  1
  Ru  Ru12  1  0.500001  0.255601  0.000000  1
  Ru  Ru13  1  0.500001  0.744399  0.000000  1
  Ru  Ru14  1  0.999821  0.250339  0.163979  1
  Ru  Ru15  1  0.999821  0.749661  0.163979  1
  Ru  Ru16  1  0.499835  0.249842  0.332844  1
  Ru  Ru17  1  0.499835  0.750158  0.332844  1
  Ru  Ru18  1  0.000000  0.249654  0.500000  1
  Ru  Ru19  1  0.000000  0.750346  0.500000  1
  Ru  Ru20  1  0.500165  0.249842  0.667156  1
  Ru  Ru21  1  0.500165  0.750158  0.667156  1
  Ru  Ru22  1  0.000179  0.250339  0.836021  1
  Ru  Ru23  1  0.000179  0.749661  0.836021  1
