# generated using pymatgen
data_MnMoF6
_symmetry_space_group_name_H-M   'P 1'
_cell_length_a   8.21498200
_cell_length_b   5.77423204
_cell_length_c   5.77866101
_cell_angle_alpha   89.99594935
_cell_angle_beta   90.00000000
_cell_angle_gamma   90.00000000
_symmetry_Int_Tables_number   1
_chemical_formula_structural   MnMoF6
_chemical_formula_sum   'Mn2 Mo2 F12'
_cell_volume   274.11201095
_cell_formula_units_Z   2
loop_
 _symmetry_equiv_pos_site_id
 _symmetry_equiv_pos_as_xyz
  1  'x, y, z'
loop_
 _atom_site_type_symbol
 _atom_site_label
 _atom_site_symmetry_multiplicity
 _atom_site_fract_x
 _atom_site_fract_y
 _atom_site_fract_z
 _atom_site_occupancy
  Mn  Mn0  1  0.000000  0.000000  0.000000  1
  Mn  Mn1  1  0.500000  0.000000  0.000000  1
  Mo  Mo2  1  0.000000  0.500000  0.500000  1
  Mo  Mo3  1  0.500000  0.500000  0.500000  1
  F  F4  1  0.250000  0.012826  0.999177  1
  F  F5  1  0.507882  0.315984  0.213288  1
  F  F6  1  0.992118  0.315984  0.213288  1
  F  F7  1  0.006308  0.786845  0.315905  1
  F  F8  1  0.493692  0.786845  0.315905  1
  F  F9  1  0.750000  0.516230  0.504328  1
  F  F10  1  0.250000  0.483770  0.495672  1
  F  F11  1  0.506308  0.213155  0.684095  1
  F  F12  1  0.993692  0.213155  0.684095  1
  F  F13  1  0.007882  0.684016  0.786712  1
  F  F14  1  0.492118  0.684016  0.786712  1
  F  F15  1  0.750000  0.987174  0.000823  1
