# generated using pymatgen
data_Ho3Er17(IrPt5)2
_symmetry_space_group_name_H-M   'P 1'
_cell_length_a   10.96582702
_cell_length_b   10.96502908
_cell_length_c   6.36003505
_cell_angle_alpha   89.98646921
_cell_angle_beta   89.99382753
_cell_angle_gamma   90.00393938
_symmetry_Int_Tables_number   1
_chemical_formula_structural   Ho3Er17(IrPt5)2
_chemical_formula_sum   'Ho3 Er17 Ir2 Pt10'
_cell_volume   764.73448100
_cell_formula_units_Z   1
loop_
 _symmetry_equiv_pos_site_id
 _symmetry_equiv_pos_as_xyz
  1  'x, y, z'
loop_
 _atom_site_type_symbol
 _atom_site_label
 _atom_site_symmetry_multiplicity
 _atom_site_fract_x
 _atom_site_fract_y
 _atom_site_fract_z
 _atom_site_occupancy
  Ho  Ho0  1  0.291900  0.088335  0.375636  1
  Ho  Ho1  1  0.291901  0.911693  0.875612  1
  Ho  Ho2  1  0.708108  0.088181  0.875806  1
  Er  Er3  1  0.707782  0.911696  0.375889  1
  Er  Er4  1  0.588168  0.792040  0.876013  1
  Er  Er5  1  0.588100  0.207951  0.375939  1
  Er  Er6  1  0.412172  0.791860  0.375887  1
  Er  Er7  1  0.412042  0.208062  0.875977  1
  Er  Er8  1  0.205324  0.412557  0.624585  1
  Er  Er9  1  0.205337  0.587532  0.124590  1
  Er  Er10  1  0.794739  0.412454  0.124536  1
  Er  Er11  1  0.794739  0.587538  0.624516  1
  Er  Er12  1  0.912423  0.705232  0.124557  1
  Er  Er13  1  0.912514  0.294866  0.624326  1
  Er  Er14  1  0.087387  0.705147  0.624540  1
  Er  Er15  1  0.087375  0.294933  0.124444  1
  Er  Er16  1  0.999758  0.999916  0.501024  1
  Er  Er17  1  0.999918  0.999934  0.001254  1
  Er  Er18  1  0.500091  0.500005  0.001300  1
  Er  Er19  1  0.499946  0.499918  0.501015  1
  Ir  Ir20  1  0.000003  0.500022  0.879738  1
  Ir  Ir21  1  0.999994  0.500039  0.379780  1
  Pt  Pt22  1  0.845903  0.153202  0.250207  1
  Pt  Pt23  1  0.845816  0.846738  0.749747  1
  Pt  Pt24  1  0.154040  0.153367  0.750131  1
  Pt  Pt25  1  0.154075  0.846679  0.250145  1
  Pt  Pt26  1  0.653040  0.345959  0.749709  1
  Pt  Pt27  1  0.653109  0.654273  0.249793  1
  Pt  Pt28  1  0.346952  0.345965  0.249698  1
  Pt  Pt29  1  0.346990  0.654060  0.749679  1
  Pt  Pt30  1  0.500143  0.999946  0.117123  1
  Pt  Pt31  1  0.500213  0.999902  0.616792  1
