# generated using pymatgen
data_Tb9Er11CoBi8Ir3
_symmetry_space_group_name_H-M   'P 1'
_cell_length_a   7.97875129
_cell_length_b   8.98018800
_cell_length_c   12.48519202
_cell_angle_alpha   90.00000000
_cell_angle_beta   90.19166044
_cell_angle_gamma   90.00000000
_symmetry_Int_Tables_number   1
_chemical_formula_structural   Tb9Er11CoBi8Ir3
_chemical_formula_sum   'Tb9 Er11 Co1 Bi8 Ir3'
_cell_volume   894.56757477
_cell_formula_units_Z   1
loop_
 _symmetry_equiv_pos_site_id
 _symmetry_equiv_pos_as_xyz
  1  'x, y, z'
loop_
 _atom_site_type_symbol
 _atom_site_label
 _atom_site_symmetry_multiplicity
 _atom_site_fract_x
 _atom_site_fract_y
 _atom_site_fract_z
 _atom_site_occupancy
  Tb  Tb0  1  0.657572  0.750000  0.700051  1
  Tb  Tb1  1  0.338551  0.250000  0.292895  1
  Tb  Tb2  1  0.160716  0.250000  0.792584  1
  Tb  Tb3  1  0.839108  0.750000  0.207098  1
  Tb  Tb4  1  0.123733  0.750000  0.807710  1
  Tb  Tb5  1  0.874609  0.250000  0.191841  1
  Tb  Tb6  1  0.624937  0.250000  0.691703  1
  Tb  Tb7  1  0.380099  0.750000  0.314196  1
  Tb  Tb8  1  0.447435  0.250000  0.001315  1
  Er  Er9  1  0.556405  0.750000  0.997259  1
  Er  Er10  1  0.055237  0.250000  0.501680  1
  Er  Er11  1  0.946850  0.750000  0.498289  1
  Er  Er12  1  0.825758  0.457407  0.933213  1
  Er  Er13  1  0.175426  0.542127  0.066710  1
  Er  Er14  1  0.325263  0.543735  0.565429  1
  Er  Er15  1  0.175426  0.957873  0.066710  1
  Er  Er16  1  0.672915  0.464525  0.436006  1
  Er  Er17  1  0.825758  0.042593  0.933213  1
  Er  Er18  1  0.672915  0.035475  0.436006  1
  Er  Er19  1  0.325263  0.956265  0.565429  1
  Co  Co20  1  0.567654  0.750000  0.492226  1
  Bi  Bi21  1  0.932789  0.008578  0.671379  1
  Bi  Bi22  1  0.066069  0.990914  0.328413  1
  Bi  Bi23  1  0.434215  0.990193  0.826757  1
  Bi  Bi24  1  0.066069  0.509086  0.328413  1
  Bi  Bi25  1  0.565708  0.007436  0.173284  1
  Bi  Bi26  1  0.932789  0.491422  0.671379  1
  Bi  Bi27  1  0.565708  0.492564  0.173284  1
  Bi  Bi28  1  0.434215  0.509807  0.826757  1
  Ir  Ir29  1  0.929223  0.750000  0.991843  1
  Ir  Ir30  1  0.071773  0.250000  0.008911  1
  Ir  Ir31  1  0.429811  0.250000  0.508016  1
