# generated using pymatgen
data_Dy2ErSn3Hg2
_symmetry_space_group_name_H-M   'P 1'
_cell_length_a   6.43570700
_cell_length_b   6.43570619
_cell_length_c   10.14583300
_cell_angle_alpha   90.00000000
_cell_angle_beta   90.00000000
_cell_angle_gamma   102.79830154
_symmetry_Int_Tables_number   1
_chemical_formula_structural   Dy2ErSn3Hg2
_chemical_formula_sum   'Dy4 Er2 Sn6 Hg4'
_cell_volume   409.78328959
_cell_formula_units_Z   2
loop_
 _symmetry_equiv_pos_site_id
 _symmetry_equiv_pos_as_xyz
  1  'x, y, z'
loop_
 _atom_site_type_symbol
 _atom_site_label
 _atom_site_symmetry_multiplicity
 _atom_site_fract_x
 _atom_site_fract_y
 _atom_site_fract_z
 _atom_site_occupancy
  Dy  Dy0  1  0.205379  0.794621  0.500000  1
  Dy  Dy1  1  0.205379  0.794621  0.000000  1
  Dy  Dy2  1  0.794621  0.205379  0.500000  1
  Dy  Dy3  1  0.794621  0.205379  0.000000  1
  Er  Er4  1  0.620101  0.620101  0.250000  1
  Er  Er5  1  0.379899  0.379899  0.750000  1
  Sn  Sn6  1  0.009391  0.009391  0.250000  1
  Sn  Sn7  1  0.990609  0.990609  0.750000  1
  Sn  Sn8  1  0.494690  0.061087  0.250000  1
  Sn  Sn9  1  0.938913  0.505310  0.750000  1
  Sn  Sn10  1  0.505310  0.938913  0.750000  1
  Sn  Sn11  1  0.061087  0.494690  0.250000  1
  Hg  Hg12  1  0.312902  0.312902  0.038310  1
  Hg  Hg13  1  0.687098  0.687098  0.961690  1
  Hg  Hg14  1  0.312902  0.312902  0.461690  1
  Hg  Hg15  1  0.687098  0.687098  0.538310  1
