# generated using pymatgen
data_La8Tb12Si13Pd3
_symmetry_space_group_name_H-M   'P 1'
_cell_length_a   7.91811415
_cell_length_b   7.90278801
_cell_length_c   14.47779320
_cell_angle_alpha   90.45881804
_cell_angle_beta   90.00432968
_cell_angle_gamma   90.39626398
_symmetry_Int_Tables_number   1
_chemical_formula_structural   La8Tb12Si13Pd3
_chemical_formula_sum   'La8 Tb12 Si13 Pd3'
_cell_volume   905.89975921
_cell_formula_units_Z   1
loop_
 _symmetry_equiv_pos_site_id
 _symmetry_equiv_pos_as_xyz
  1  'x, y, z'
loop_
 _atom_site_type_symbol
 _atom_site_label
 _atom_site_symmetry_multiplicity
 _atom_site_fract_x
 _atom_site_fract_y
 _atom_site_fract_z
 _atom_site_occupancy
  La  La0  1  0.989817  0.638996  0.038395  1
  La  La1  1  0.011931  0.363017  0.536780  1
  La  La2  1  0.637448  0.988610  0.960467  1
  La  La3  1  0.151455  0.508285  0.789245  1
  La  La4  1  0.847157  0.487681  0.283064  1
  La  La5  1  0.498953  0.141551  0.209492  1
  La  La6  1  0.496223  0.849285  0.712943  1
  La  La7  1  0.364837  0.014476  0.463425  1
  Tb  Tb8  1  0.358476  0.496097  0.377338  1
  Tb  Tb9  1  0.854660  0.018553  0.373282  1
  Tb  Tb10  1  0.984053  0.135899  0.123889  1
  Tb  Tb11  1  0.020175  0.858234  0.626271  1
  Tb  Tb12  1  0.637777  0.504957  0.878435  1
  Tb  Tb13  1  0.502973  0.363488  0.622836  1
  Tb  Tb14  1  0.497984  0.639028  0.123832  1
  Tb  Tb15  1  0.144125  0.988788  0.871722  1
  Tb  Tb16  1  0.688765  0.687271  0.497786  1
  Tb  Tb17  1  0.821783  0.180607  0.750816  1
  Tb  Tb18  1  0.168809  0.816200  0.254139  1
  Tb  Tb19  1  0.313264  0.309411  0.000741  1
  Si  Si20  1  0.205240  0.433127  0.189481  1
  Si  Si21  1  0.798003  0.563575  0.690298  1
  Si  Si22  1  0.439269  0.208089  0.809565  1
  Si  Si23  1  0.560408  0.793022  0.310256  1
  Si  Si24  1  0.286463  0.933281  0.062535  1
  Si  Si25  1  0.854051  0.787524  0.812078  1
  Si  Si26  1  0.146790  0.210172  0.311653  1
  Si  Si27  1  0.785336  0.849422  0.188551  1
  Si  Si28  1  0.306630  0.651019  0.562604  1
  Si  Si29  1  0.695758  0.349660  0.062802  1
  Si  Si30  1  0.650529  0.304791  0.436648  1
  Si  Si31  1  0.348152  0.705735  0.940945  1
  Si  Si32  1  0.216807  0.151386  0.687464  1
  Pd  Pd33  1  0.063748  0.716487  0.440887  1
  Pd  Pd34  1  0.931942  0.285543  0.938516  1
  Pd  Pd35  1  0.720212  0.066731  0.560821  1
