# generated using pymatgen
data_La12Sn2OsPtI12
_symmetry_space_group_name_H-M   'P 1'
_cell_length_a   11.38090285
_cell_length_b   11.37004365
_cell_length_c   11.07136344
_cell_angle_alpha   109.63907562
_cell_angle_beta   109.67920393
_cell_angle_gamma   110.19034642
_symmetry_Int_Tables_number   1
_chemical_formula_structural   La12Sn2OsPtI12
_chemical_formula_sum   'La12 Sn2 Os1 Pt1 I12'
_cell_volume   1087.67234104
_cell_formula_units_Z   1
loop_
 _symmetry_equiv_pos_site_id
 _symmetry_equiv_pos_as_xyz
  1  'x, y, z'
loop_
 _atom_site_type_symbol
 _atom_site_label
 _atom_site_symmetry_multiplicity
 _atom_site_fract_x
 _atom_site_fract_y
 _atom_site_fract_z
 _atom_site_occupancy
  La  La0  1  0.457448  0.492339  0.210414  1
  La  La1  1  0.771237  0.246040  0.280888  1
  La  La2  1  0.768752  0.027127  0.501621  1
  La  La3  1  0.232869  0.474493  0.501621  1
  La  La4  1  0.252966  0.718075  0.210414  1
  La  La5  1  0.024736  0.266303  0.998497  1
  La  La6  1  0.009651  0.034850  0.280888  1
  La  La7  1  0.473761  0.732194  0.998497  1
  La  La8  1  0.492840  0.242840  0.485677  1
  La  La9  1  0.027610  0.482788  0.760006  1
  La  La10  1  0.256964  0.006964  0.013928  1
  La  La11  1  0.232396  0.277218  0.760006  1
  Sn  Sn12  1  0.248729  0.250470  0.249737  1
  Sn  Sn13  1  0.501008  0.999267  0.249737  1
  Os  Os14  1  0.246685  0.496685  0.993369  1
  Pt  Pt15  1  0.002372  0.252372  0.504743  1
  I  I16  1  0.247368  0.759681  0.740275  1
  I  I17  1  0.519536  0.507259  0.758769  1
  I  I18  1  0.992037  0.750295  0.997603  1
  I  I19  1  0.739234  0.251510  0.758769  1
  I  I20  1  0.992906  0.980593  0.740275  1
  I  I21  1  0.252898  0.995339  0.502647  1
  I  I22  1  0.749749  0.507308  0.502647  1
  I  I23  1  0.505565  0.247308  0.997603  1
  I  I24  1  0.755488  0.745726  0.250673  1
  I  I25  1  0.746746  0.996746  0.993492  1
  I  I26  1  0.995185  0.504947  0.250673  1
  I  I27  1  0.503266  0.753266  0.506531  1
