# generated using pymatgen
data_La3Pr6DyC4I15
_symmetry_space_group_name_H-M   'P 1'
_cell_length_a   9.85523834
_cell_length_b   10.74721556
_cell_length_c   11.88717907
_cell_angle_alpha   93.78794353
_cell_angle_beta   114.11463746
_cell_angle_gamma   109.42755319
_symmetry_Int_Tables_number   1
_chemical_formula_structural   La3Pr6DyC4I15
_chemical_formula_sum   'La3 Pr6 Dy1 C4 I15'
_cell_volume   1053.48699410
_cell_formula_units_Z   1
loop_
 _symmetry_equiv_pos_site_id
 _symmetry_equiv_pos_as_xyz
  1  'x, y, z'
loop_
 _atom_site_type_symbol
 _atom_site_label
 _atom_site_symmetry_multiplicity
 _atom_site_fract_x
 _atom_site_fract_y
 _atom_site_fract_z
 _atom_site_occupancy
  La  La0  1  0.706711  0.568763  0.045206  1
  La  La1  1  0.293548  0.432046  0.955443  1
  La  La2  1  0.658808  0.253357  0.831857  1
  Pr  Pr3  1  0.345123  0.747060  0.165006  1
  Pr  Pr4  1  0.776145  0.883898  0.258045  1
  Pr  Pr5  1  0.527341  0.184346  0.101553  1
  Pr  Pr6  1  0.224780  0.115168  0.743950  1
  Pr  Pr7  1  0.402667  0.458234  0.657655  1
  Pr  Pr8  1  0.472666  0.814974  0.899911  1
  Dy  Dy9  1  0.592932  0.545780  0.334893  1
  C  C10  1  0.484292  0.300583  0.937339  1
  C  C11  1  0.518413  0.698268  0.063288  1
  C  C12  1  0.454898  0.362180  0.834803  1
  C  C13  1  0.546433  0.636294  0.165992  1
  I  I14  1  0.206043  0.906213  0.937854  1
  I  I15  1  0.104011  0.187083  0.470350  1
  I  I16  1  0.153767  0.557849  0.702619  1
  I  I17  1  0.402237  0.965717  0.646371  1
  I  I18  1  0.711622  0.735620  0.819420  1
  I  I19  1  0.298285  0.273196  0.187810  1
  I  I20  1  0.836782  0.445079  0.302312  1
  I  I21  1  0.883635  0.799913  0.525729  1
  I  I22  1  0.366908  0.627685  0.410858  1
  I  I23  1  0.055288  0.835106  0.222167  1
  I  I24  1  0.794187  0.094727  0.064489  1
  I  I25  1  0.640755  0.375178  0.582170  1
  I  I26  1  0.944892  0.163419  0.778626  1
  I  I27  1  0.594252  0.030485  0.352545  1
  I  I28  1  0.002579  0.501778  0.001739  1
