# generated using pymatgen
data_In14AgPd5
_symmetry_space_group_name_H-M   'P 1'
_cell_length_a   8.35259038
_cell_length_b   8.35258906
_cell_length_c   8.35258921
_cell_angle_alpha   109.54265732
_cell_angle_beta   109.54264770
_cell_angle_gamma   109.32845519
_symmetry_Int_Tables_number   1
_chemical_formula_structural   In14AgPd5
_chemical_formula_sum   'In14 Ag1 Pd5'
_cell_volume   448.57956761
_cell_formula_units_Z   1
loop_
 _symmetry_equiv_pos_site_id
 _symmetry_equiv_pos_as_xyz
  1  'x, y, z'
loop_
 _atom_site_type_symbol
 _atom_site_label
 _atom_site_symmetry_multiplicity
 _atom_site_fract_x
 _atom_site_fract_y
 _atom_site_fract_z
 _atom_site_occupancy
  In  In0  1  0.749500  0.249500  0.500000  1
  In  In1  1  0.747450  0.493545  0.253904  1
  In  In2  1  0.493545  0.239641  0.746096  1
  In  In3  1  0.239641  0.493545  0.746096  1
  In  In4  1  0.249500  0.749500  0.500000  1
  In  In5  1  0.493545  0.747450  0.253904  1
  In  In6  1  0.007211  0.007211  0.331092  1
  In  In7  1  0.000687  0.325475  0.000000  1
  In  In8  1  0.325475  0.000687  0.000000  1
  In  In9  1  0.676120  0.676120  0.668908  1
  In  In10  1  0.000687  0.000687  0.675211  1
  In  In11  1  0.007211  0.676120  0.000000  1
  In  In12  1  0.676120  0.007211  0.000000  1
  In  In13  1  0.325475  0.325475  0.324789  1
  Ag  Ag14  1  0.653523  0.653523  0.000000  1
  Pd  Pd15  1  0.348065  0.001027  0.347038  1
  Pd  Pd16  1  0.001027  0.348065  0.347038  1
  Pd  Pd17  1  0.350201  0.350201  0.000000  1
  Pd  Pd18  1  0.653989  0.001027  0.652962  1
  Pd  Pd19  1  0.001027  0.653989  0.652962  1
