# generated using pymatgen
data_PrTmCo2(P2Rh)2
_symmetry_space_group_name_H-M   'P 1'
_cell_length_a   4.04527900
_cell_length_b   4.04527900
_cell_length_c   9.26272400
_cell_angle_alpha   90.00000000
_cell_angle_beta   90.00000000
_cell_angle_gamma   90.00000000
_symmetry_Int_Tables_number   1
_chemical_formula_structural   PrTmCo2(P2Rh)2
_chemical_formula_sum   'Pr1 Tm1 Co2 P4 Rh2'
_cell_volume   151.57782936
_cell_formula_units_Z   1
loop_
 _symmetry_equiv_pos_site_id
 _symmetry_equiv_pos_as_xyz
  1  'x, y, z'
loop_
 _atom_site_type_symbol
 _atom_site_label
 _atom_site_symmetry_multiplicity
 _atom_site_fract_x
 _atom_site_fract_y
 _atom_site_fract_z
 _atom_site_occupancy
  Pr  Pr0  1  0.500000  0.000000  0.735799  1
  Tm  Tm1  1  0.000000  0.500000  0.265066  1
  Co  Co2  1  0.000000  0.500000  0.602734  1
  Co  Co3  1  0.500000  0.000000  0.388799  1
  P  P4  1  0.000000  0.000000  0.494099  1
  P  P5  1  0.500000  0.500000  0.494099  1
  P  P6  1  0.000000  0.500000  0.852090  1
  P  P7  1  0.500000  0.000000  0.152465  1
  Rh  Rh8  1  0.000000  0.000000  0.007425  1
  Rh  Rh9  1  0.500000  0.500000  0.007425  1
