# generated using pymatgen
data_Hg11(BrO)4
_symmetry_space_group_name_H-M   'P 1'
_cell_length_a   6.61962474
_cell_length_b   7.16947424
_cell_length_c   10.71081303
_cell_angle_alpha   97.24545957
_cell_angle_beta   91.98024239
_cell_angle_gamma   89.65248440
_symmetry_Int_Tables_number   1
_chemical_formula_structural   Hg11(BrO)4
_chemical_formula_sum   'Hg11 Br4 O4'
_cell_volume   503.96601662
_cell_formula_units_Z   1
loop_
 _symmetry_equiv_pos_site_id
 _symmetry_equiv_pos_as_xyz
  1  'x, y, z'
loop_
 _atom_site_type_symbol
 _atom_site_label
 _atom_site_symmetry_multiplicity
 _atom_site_fract_x
 _atom_site_fract_y
 _atom_site_fract_z
 _atom_site_occupancy
  Hg  Hg0  1  0.047350  0.146526  0.644824  1
  Hg  Hg1  1  0.952762  0.853288  0.355387  1
  Hg  Hg2  1  0.847762  0.393110  0.794471  1
  Hg  Hg3  1  0.152653  0.607116  0.205515  1
  Hg  Hg4  1  0.680918  0.474665  0.122330  1
  Hg  Hg5  1  0.318547  0.525427  0.877628  1
  Hg  Hg6  1  0.500105  0.000342  0.500333  1
  Hg  Hg7  1  0.862538  0.863907  0.982535  1
  Hg  Hg8  1  0.136492  0.136014  0.016891  1
  Hg  Hg9  1  0.722284  0.304100  0.323550  1
  Hg  Hg10  1  0.278098  0.695192  0.676051  1
  Br  Br11  1  0.746992  0.651802  0.581099  1
  Br  Br12  1  0.253691  0.348734  0.419083  1
  Br  Br13  1  0.490675  0.111477  0.830101  1
  Br  Br14  1  0.509418  0.888476  0.170416  1
  O  O15  1  0.712490  0.587502  0.940939  1
  O  O16  1  0.286887  0.412150  0.058746  1
  O  O17  1  0.218079  0.905797  0.546809  1
  O  O18  1  0.782258  0.094378  0.453293  1
