# generated using pymatgen
data_HoTmIr2O7
_symmetry_space_group_name_H-M   'P 1'
_cell_length_a   7.23871381
_cell_length_b   7.21026484
_cell_length_c   7.21026408
_cell_angle_alpha   59.73419545
_cell_angle_beta   59.86938517
_cell_angle_gamma   59.86939074
_symmetry_Int_Tables_number   1
_chemical_formula_structural   HoTmIr2O7
_chemical_formula_sum   'Ho2 Tm2 Ir4 O14'
_cell_volume   265.04035919
_cell_formula_units_Z   2
loop_
 _symmetry_equiv_pos_site_id
 _symmetry_equiv_pos_as_xyz
  1  'x, y, z'
loop_
 _atom_site_type_symbol
 _atom_site_label
 _atom_site_symmetry_multiplicity
 _atom_site_fract_x
 _atom_site_fract_y
 _atom_site_fract_z
 _atom_site_occupancy
  Ho  Ho0  1  0.625000  0.125000  0.125000  1
  Ho  Ho1  1  0.125000  0.125000  0.125000  1
  Tm  Tm2  1  0.125000  0.625000  0.125000  1
  Tm  Tm3  1  0.125000  0.125000  0.625000  1
  Ir  Ir4  1  0.125000  0.625000  0.625000  1
  Ir  Ir5  1  0.625000  0.125000  0.625000  1
  Ir  Ir6  1  0.625000  0.625000  0.125000  1
  Ir  Ir7  1  0.625000  0.625000  0.625000  1
  O  O8  1  0.718241  0.709738  0.286005  1
  O  O9  1  0.286016  0.286005  0.709738  1
  O  O10  1  0.718241  0.286005  0.709738  1
  O  O11  1  0.286016  0.709738  0.286005  1
  O  O12  1  0.287176  0.712824  0.712824  1
  O  O13  1  0.715263  0.284737  0.284737  1
  O  O14  1  0.531759  0.540262  0.963995  1
  O  O15  1  0.963984  0.963995  0.540262  1
  O  O16  1  0.531759  0.963995  0.540262  1
  O  O17  1  0.963984  0.540262  0.963995  1
  O  O18  1  0.962824  0.537176  0.537176  1
  O  O19  1  0.534737  0.965263  0.965263  1
  O  O20  1  0.248795  0.251205  0.251205  1
  O  O21  1  0.001205  0.998795  0.998795  1
