# generated using pymatgen
data_Sc4Be2B6Ru9W
_symmetry_space_group_name_H-M   'P 1'
_cell_length_a   3.05247300
_cell_length_b   8.56986787
_cell_length_c   10.14044305
_cell_angle_alpha   90.40578952
_cell_angle_beta   90.00000000
_cell_angle_gamma   90.00000000
_symmetry_Int_Tables_number   1
_chemical_formula_structural   Sc4Be2B6Ru9W
_chemical_formula_sum   'Sc4 Be2 B6 Ru9 W1'
_cell_volume   265.26014071
_cell_formula_units_Z   1
loop_
 _symmetry_equiv_pos_site_id
 _symmetry_equiv_pos_as_xyz
  1  'x, y, z'
loop_
 _atom_site_type_symbol
 _atom_site_label
 _atom_site_symmetry_multiplicity
 _atom_site_fract_x
 _atom_site_fract_y
 _atom_site_fract_z
 _atom_site_occupancy
  Sc  Sc0  1  0.500000  0.844434  0.182045  1
  Sc  Sc1  1  0.500000  0.157837  0.817130  1
  Sc  Sc2  1  0.500000  0.658162  0.680987  1
  Sc  Sc3  1  0.500000  0.344357  0.318977  1
  Be  Be4  1  0.500000  0.962417  0.592905  1
  Be  Be5  1  0.500000  0.037400  0.405553  1
  B  B6  1  0.500000  0.851696  0.898625  1
  B  B7  1  0.500000  0.148549  0.101147  1
  B  B8  1  0.500000  0.652340  0.403005  1
  B  B9  1  0.500000  0.345475  0.597527  1
  B  B10  1  0.500000  0.460333  0.911326  1
  B  B11  1  0.500000  0.531998  0.091287  1
  Ru  Ru12  1  0.000000  0.338945  0.045163  1
  Ru  Ru13  1  0.000000  0.832730  0.448736  1
  Ru  Ru14  1  0.000000  0.167567  0.550490  1
  Ru  Ru15  1  0.000000  0.002151  0.999907  1
  Ru  Ru16  1  0.000000  0.406223  0.760970  1
  Ru  Ru17  1  0.000000  0.595265  0.238953  1
  Ru  Ru18  1  0.000000  0.500079  0.500423  1
  Ru  Ru19  1  0.000000  0.899257  0.746454  1
  Ru  Ru20  1  0.000000  0.104499  0.252421  1
  W  W21  1  0.000000  0.658284  0.955970  1
