# generated using pymatgen
data_Ca3Eu(W2N5)2
_symmetry_space_group_name_H-M   'P 1'
_cell_length_a   3.74883200
_cell_length_b   5.81471665
_cell_length_c   11.25528207
_cell_angle_alpha   90.14110416
_cell_angle_beta   90.00000000
_cell_angle_gamma   90.00000000
_symmetry_Int_Tables_number   1
_chemical_formula_structural   Ca3Eu(W2N5)2
_chemical_formula_sum   'Ca3 Eu1 W4 N10'
_cell_volume   245.34635010
_cell_formula_units_Z   1
loop_
 _symmetry_equiv_pos_site_id
 _symmetry_equiv_pos_as_xyz
  1  'x, y, z'
loop_
 _atom_site_type_symbol
 _atom_site_label
 _atom_site_symmetry_multiplicity
 _atom_site_fract_x
 _atom_site_fract_y
 _atom_site_fract_z
 _atom_site_occupancy
  Ca  Ca0  1  0.500000  0.242393  0.622170  1
  Ca  Ca1  1  0.500000  0.254396  0.121219  1
  Ca  Ca2  1  0.500000  0.746147  0.878625  1
  Eu  Eu3  1  0.500000  0.745581  0.376995  1
  W  W4  1  0.000000  0.772473  0.128237  1
  W  W5  1  0.000000  0.229357  0.868910  1
  W  W6  1  0.000000  0.727851  0.632112  1
  W  W7  1  0.000000  0.268926  0.369335  1
  N  N8  1  0.000000  0.997865  0.997729  1
  N  N9  1  0.000000  0.541020  0.762668  1
  N  N10  1  0.000000  0.041399  0.738379  1
  N  N11  1  0.000000  0.969631  0.256285  1
  N  N12  1  0.500000  0.819249  0.597934  1
  N  N13  1  0.500000  0.180924  0.404050  1
  N  N14  1  0.000000  0.467773  0.242428  1
  N  N15  1  0.500000  0.679826  0.096236  1
  N  N16  1  0.000000  0.497026  0.502872  1
  N  N17  1  0.500000  0.318163  0.903816  1
