# generated using pymatgen
data_Ac4Mg2CuNi3
_symmetry_space_group_name_H-M   'P 1'
_cell_length_a   7.90745258
_cell_length_b   7.90745258
_cell_length_c   4.06445500
_cell_angle_alpha   90.00000000
_cell_angle_beta   90.00000000
_cell_angle_gamma   89.34906327
_symmetry_Int_Tables_number   1
_chemical_formula_structural   Ac4Mg2CuNi3
_chemical_formula_sum   'Ac4 Mg2 Cu1 Ni3'
_cell_volume   254.12505378
_cell_formula_units_Z   1
loop_
 _symmetry_equiv_pos_site_id
 _symmetry_equiv_pos_as_xyz
  1  'x, y, z'
loop_
 _atom_site_type_symbol
 _atom_site_label
 _atom_site_symmetry_multiplicity
 _atom_site_fract_x
 _atom_site_fract_y
 _atom_site_fract_z
 _atom_site_occupancy
  Ac  Ac0  1  0.676040  0.176040  0.500000  1
  Ac  Ac1  1  0.333876  0.833876  0.500000  1
  Ac  Ac2  1  0.173417  0.316280  0.500000  1
  Ac  Ac3  1  0.816280  0.673417  0.500000  1
  Mg  Mg4  1  0.998438  0.998807  0.000000  1
  Mg  Mg5  1  0.498807  0.498438  0.000000  1
  Cu  Cu6  1  0.116953  0.616953  0.000000  1
  Ni  Ni7  1  0.884015  0.384015  0.000000  1
  Ni  Ni8  1  0.617745  0.884430  0.000000  1
  Ni  Ni9  1  0.384430  0.117745  0.000000  1
