# generated using pymatgen
data_La2Pr2CoI5
_symmetry_space_group_name_H-M   'P 1'
_cell_length_a   9.94742809
_cell_length_b   9.94742837
_cell_length_c   9.42256147
_cell_angle_alpha   76.75087370
_cell_angle_beta   76.75087398
_cell_angle_gamma   25.42236172
_symmetry_Int_Tables_number   1
_chemical_formula_structural   La2Pr2CoI5
_chemical_formula_sum   'La2 Pr2 Co1 I5'
_cell_volume   389.05347357
_cell_formula_units_Z   1
loop_
 _symmetry_equiv_pos_site_id
 _symmetry_equiv_pos_as_xyz
  1  'x, y, z'
loop_
 _atom_site_type_symbol
 _atom_site_label
 _atom_site_symmetry_multiplicity
 _atom_site_fract_x
 _atom_site_fract_y
 _atom_site_fract_z
 _atom_site_occupancy
  La  La0  1  0.867887  0.867887  0.068317  1
  La  La1  1  0.132113  0.132113  0.931683  1
  Pr  Pr2  1  0.500895  0.500895  0.215823  1
  Pr  Pr3  1  0.499105  0.499105  0.784177  1
  Co  Co4  1  0.000000  0.000000  0.000000  1
  I  I5  1  0.673464  0.673464  0.169221  1
  I  I6  1  0.326536  0.326536  0.830779  1
  I  I7  1  0.667666  0.667666  0.660970  1
  I  I8  1  0.332334  0.332334  0.339030  1
  I  I9  1  0.000000  0.000000  0.500000  1
