# generated using pymatgen
data_Cd5InAu20
_symmetry_space_group_name_H-M   'P 1'
_cell_length_a   10.73880985
_cell_length_b   10.72072936
_cell_length_c   4.89353300
_cell_angle_alpha   90.00000000
_cell_angle_beta   90.00000000
_cell_angle_gamma   120.12307980
_symmetry_Int_Tables_number   1
_chemical_formula_structural   Cd5InAu20
_chemical_formula_sum   'Cd5 In1 Au20'
_cell_volume   487.29692888
_cell_formula_units_Z   1
loop_
 _symmetry_equiv_pos_site_id
 _symmetry_equiv_pos_as_xyz
  1  'x, y, z'
loop_
 _atom_site_type_symbol
 _atom_site_label
 _atom_site_symmetry_multiplicity
 _atom_site_fract_x
 _atom_site_fract_y
 _atom_site_fract_z
 _atom_site_occupancy
  Cd  Cd0  1  0.103503  0.361861  0.250000  1
  Cd  Cd1  1  0.637493  0.741726  0.250000  1
  Cd  Cd2  1  0.259252  0.897213  0.250000  1
  Cd  Cd3  1  0.741159  0.103150  0.750001  1
  Cd  Cd4  1  0.362155  0.258405  0.750001  1
  In  In5  1  0.895988  0.637973  0.750001  1
  Au  Au6  1  0.873333  0.051016  0.250000  1
  Au  Au7  1  0.177939  0.127045  0.250000  1
  Au  Au8  1  0.485512  0.206149  0.250000  1
  Au  Au9  1  0.793799  0.278978  0.250000  1
  Au  Au10  1  0.410786  0.433984  0.250000  1
  Au  Au11  1  0.720127  0.514224  0.250000  1
  Au  Au12  1  0.023109  0.588572  0.250000  1
  Au  Au13  1  0.333232  0.666666  0.250000  1
  Au  Au14  1  0.949166  0.822191  0.250000  1
  Au  Au15  1  0.565746  0.976721  0.250000  1
  Au  Au16  1  0.434274  0.023173  0.750001  1
  Au  Au17  1  0.050666  0.177686  0.750001  1
  Au  Au18  1  0.666690  0.333240  0.750001  1
  Au  Au19  1  0.976699  0.410792  0.750001  1
  Au  Au20  1  0.279833  0.486035  0.750001  1
  Au  Au21  1  0.589048  0.566117  0.750001  1
  Au  Au22  1  0.206804  0.720828  0.750001  1
  Au  Au23  1  0.514500  0.793877  0.750001  1
  Au  Au24  1  0.821656  0.873091  0.750001  1
  Au  Au25  1  0.127532  0.949288  0.750001  1
