# generated using pymatgen
data_Hf6Zn16Cu7Ge
_symmetry_space_group_name_H-M   'P 1'
_cell_length_a   8.61652788
_cell_length_b   8.61652817
_cell_length_c   8.61652800
_cell_angle_alpha   60.00000067
_cell_angle_beta   59.99999953
_cell_angle_gamma   60.00000304
_symmetry_Int_Tables_number   1
_chemical_formula_structural   Hf6Zn16Cu7Ge
_chemical_formula_sum   'Hf6 Zn16 Cu7 Ge1'
_cell_volume   452.35763660
_cell_formula_units_Z   1
loop_
 _symmetry_equiv_pos_site_id
 _symmetry_equiv_pos_as_xyz
  1  'x, y, z'
loop_
 _atom_site_type_symbol
 _atom_site_label
 _atom_site_symmetry_multiplicity
 _atom_site_fract_x
 _atom_site_fract_y
 _atom_site_fract_z
 _atom_site_occupancy
  Hf  Hf0  1  0.713229  0.286771  0.286771  1
  Hf  Hf1  1  0.286771  0.713229  0.713229  1
  Hf  Hf2  1  0.286771  0.713229  0.286771  1
  Hf  Hf3  1  0.713229  0.286771  0.713229  1
  Hf  Hf4  1  0.286771  0.286771  0.713229  1
  Hf  Hf5  1  0.713229  0.713229  0.286771  1
  Zn  Zn6  1  0.121965  0.121965  0.121965  1
  Zn  Zn7  1  0.878035  0.878035  0.878035  1
  Zn  Zn8  1  0.121965  0.121965  0.634104  1
  Zn  Zn9  1  0.121965  0.634104  0.121965  1
  Zn  Zn10  1  0.878035  0.878035  0.365896  1
  Zn  Zn11  1  0.878035  0.365896  0.878035  1
  Zn  Zn12  1  0.634104  0.121965  0.121965  1
  Zn  Zn13  1  0.365896  0.878035  0.878035  1
  Zn  Zn14  1  0.336091  0.336091  0.336091  1
  Zn  Zn15  1  0.663909  0.663909  0.663909  1
  Zn  Zn16  1  0.336091  0.336091  0.991726  1
  Zn  Zn17  1  0.336091  0.991726  0.336091  1
  Zn  Zn18  1  0.663909  0.663909  0.008274  1
  Zn  Zn19  1  0.663909  0.008274  0.663909  1
  Zn  Zn20  1  0.991726  0.336091  0.336091  1
  Zn  Zn21  1  0.008274  0.663909  0.663909  1
  Cu  Cu22  1  0.500000  0.000000  0.000000  1
  Cu  Cu23  1  0.000000  0.500000  0.500000  1
  Cu  Cu24  1  0.000000  0.500000  0.000000  1
  Cu  Cu25  1  0.500000  0.000000  0.500000  1
  Cu  Cu26  1  0.000000  0.000000  0.500000  1
  Cu  Cu27  1  0.500000  0.500000  0.000000  1
  Cu  Cu28  1  0.000000  0.000000  0.000000  1
  Ge  Ge29  1  0.500000  0.500000  0.500000  1
