# generated using pymatgen
data_Hf4Zr16Si15As
_symmetry_space_group_name_H-M   'P 1'
_cell_length_a   7.15405342
_cell_length_b   7.14759038
_cell_length_c   13.03463256
_cell_angle_alpha   89.99999281
_cell_angle_beta   89.83268328
_cell_angle_gamma   89.97828739
_symmetry_Int_Tables_number   1
_chemical_formula_structural   Hf4Zr16Si15As
_chemical_formula_sum   'Hf4 Zr16 Si15 As1'
_cell_volume   666.51318460
_cell_formula_units_Z   1
loop_
 _symmetry_equiv_pos_site_id
 _symmetry_equiv_pos_as_xyz
  1  'x, y, z'
loop_
 _atom_site_type_symbol
 _atom_site_label
 _atom_site_symmetry_multiplicity
 _atom_site_fract_x
 _atom_site_fract_y
 _atom_site_fract_z
 _atom_site_occupancy
  Hf  Hf0  1  0.647537  0.501855  0.373257  1
  Hf  Hf1  1  0.351870  0.499534  0.872601  1
  Hf  Hf2  1  0.004111  0.850765  0.124261  1
  Hf  Hf3  1  0.997868  0.146094  0.623250  1
  Zr  Zr4  1  0.676534  0.324387  0.749839  1
  Zr  Zr5  1  0.324477  0.675502  0.250161  1
  Zr  Zr6  1  0.823908  0.824114  0.500089  1
  Zr  Zr7  1  0.177107  0.176483  0.999879  1
  Zr  Zr8  1  0.498165  0.150332  0.534804  1
  Zr  Zr9  1  0.500001  0.847256  0.033283  1
  Zr  Zr10  1  0.650335  0.000102  0.286333  1
  Zr  Zr11  1  0.346658  0.995533  0.783325  1
  Zr  Zr12  1  0.849290  0.503499  0.965007  1
  Zr  Zr13  1  0.152011  0.497860  0.465585  1
  Zr  Zr14  1  0.000911  0.651853  0.715382  1
  Zr  Zr15  1  0.003703  0.351815  0.217869  1
  Zr  Zr16  1  0.499209  0.353575  0.125644  1
  Zr  Zr17  1  0.501189  0.645706  0.626969  1
  Zr  Zr18  1  0.852064  0.002299  0.877047  1
  Zr  Zr19  1  0.146417  0.999419  0.376975  1
  Si  Si20  1  0.205150  0.855558  0.573124  1
  Si  Si21  1  0.644308  0.705160  0.822999  1
  Si  Si22  1  0.357235  0.295174  0.323008  1
  Si  Si23  1  0.854031  0.206184  0.427688  1
  Si  Si24  1  0.144286  0.794461  0.927353  1
  Si  Si25  1  0.705449  0.646802  0.177983  1
  Si  Si26  1  0.293361  0.353876  0.676759  1
  Si  Si27  1  0.541759  0.199510  0.931859  1
  Si  Si28  1  0.449067  0.798584  0.437573  1
  Si  Si29  1  0.699581  0.950078  0.687117  1
  Si  Si30  1  0.300517  0.050092  0.187248  1
  Si  Si31  1  0.801095  0.448659  0.562104  1
  Si  Si32  1  0.200585  0.551905  0.062096  1
  Si  Si33  1  0.948728  0.700172  0.313114  1
  Si  Si34  1  0.051144  0.300516  0.811953  1
  As  As35  1  0.800343  0.145285  0.076465  1
