# generated using pymatgen
data_Sm2Cu3Ni4
_symmetry_space_group_name_H-M   'P 1'
_cell_length_a   5.04405081
_cell_length_b   5.04405277
_cell_length_c   12.55905036
_cell_angle_alpha   78.34898050
_cell_angle_beta   78.34897402
_cell_angle_gamma   59.92579263
_symmetry_Int_Tables_number   1
_chemical_formula_structural   Sm2Cu3Ni4
_chemical_formula_sum   'Sm4 Cu6 Ni8'
_cell_volume   268.89905123
_cell_formula_units_Z   2
loop_
 _symmetry_equiv_pos_site_id
 _symmetry_equiv_pos_as_xyz
  1  'x, y, z'
loop_
 _atom_site_type_symbol
 _atom_site_label
 _atom_site_symmetry_multiplicity
 _atom_site_fract_x
 _atom_site_fract_y
 _atom_site_fract_z
 _atom_site_occupancy
  Sm  Sm0  1  0.946260  0.946260  0.160791  1
  Sm  Sm1  1  0.053740  0.053740  0.839209  1
  Sm  Sm2  1  0.852070  0.852070  0.443203  1
  Sm  Sm3  1  0.147930  0.147930  0.556797  1
  Cu  Cu4  1  0.720733  0.720733  0.833207  1
  Cu  Cu5  1  0.279267  0.279267  0.166793  1
  Cu  Cu6  1  0.608961  0.608961  0.166848  1
  Cu  Cu7  1  0.391039  0.391039  0.833152  1
  Cu  Cu8  1  0.000000  0.500000  0.000000  1
  Cu  Cu9  1  0.500000  0.000000  0.000000  1
  Ni  Ni10  1  0.500000  0.500000  0.500000  1
  Ni  Ni11  1  0.500000  0.500000  0.000000  1
  Ni  Ni12  1  0.389126  0.389126  0.331556  1
  Ni  Ni13  1  0.889875  0.389496  0.330966  1
  Ni  Ni14  1  0.389496  0.889875  0.330966  1
  Ni  Ni15  1  0.610874  0.610874  0.668444  1
  Ni  Ni16  1  0.110125  0.610504  0.669034  1
  Ni  Ni17  1  0.610504  0.110125  0.669034  1
