# generated using pymatgen
data_Y3Mg3Si2Pd
_symmetry_space_group_name_H-M   'P 1'
_cell_length_a   7.26395100
_cell_length_b   7.26395153
_cell_length_c   4.25857800
_cell_angle_alpha   90.00000000
_cell_angle_beta   90.00000000
_cell_angle_gamma   119.99999303
_symmetry_Int_Tables_number   1
_chemical_formula_structural   Y3Mg3Si2Pd
_chemical_formula_sum   'Y3 Mg3 Si2 Pd1'
_cell_volume   194.59922754
_cell_formula_units_Z   1
loop_
 _symmetry_equiv_pos_site_id
 _symmetry_equiv_pos_as_xyz
  1  'x, y, z'
loop_
 _atom_site_type_symbol
 _atom_site_label
 _atom_site_symmetry_multiplicity
 _atom_site_fract_x
 _atom_site_fract_y
 _atom_site_fract_z
 _atom_site_occupancy
  Y  Y0  1  0.417711  0.417711  0.500000  1
  Y  Y1  1  0.000000  0.582289  0.500000  1
  Y  Y2  1  0.582289  0.000000  0.500000  1
  Mg  Mg3  1  0.755392  0.755392  0.000000  1
  Mg  Mg4  1  0.244608  0.000000  0.000000  1
  Mg  Mg5  1  0.000000  0.244608  0.000000  1
  Si  Si6  1  0.666667  0.333333  0.000000  1
  Si  Si7  1  0.333333  0.666667  0.000000  1
  Pd  Pd8  1  0.000000  0.000000  0.500000  1
