# generated using pymatgen
data_Dy3Ag2Hg3Ru
_symmetry_space_group_name_H-M   'P 1'
_cell_length_a   7.91351700
_cell_length_b   7.91351746
_cell_length_c   3.82407600
_cell_angle_alpha   90.00000000
_cell_angle_beta   90.00000000
_cell_angle_gamma   120.00000225
_symmetry_Int_Tables_number   1
_chemical_formula_structural   Dy3Ag2Hg3Ru
_chemical_formula_sum   'Dy3 Ag2 Hg3 Ru1'
_cell_volume   207.39402555
_cell_formula_units_Z   1
loop_
 _symmetry_equiv_pos_site_id
 _symmetry_equiv_pos_as_xyz
  1  'x, y, z'
loop_
 _atom_site_type_symbol
 _atom_site_label
 _atom_site_symmetry_multiplicity
 _atom_site_fract_x
 _atom_site_fract_y
 _atom_site_fract_z
 _atom_site_occupancy
  Dy  Dy0  1  0.423548  0.383281  0.500000  1
  Dy  Dy1  1  0.616719  0.040267  0.500000  1
  Dy  Dy2  1  0.959733  0.576452  0.500000  1
  Ag  Ag3  1  0.333333  0.666667  0.000000  1
  Ag  Ag4  1  0.000000  0.000000  0.500000  1
  Hg  Hg5  1  0.723009  0.725888  0.000000  1
  Hg  Hg6  1  0.274112  0.997122  0.000000  1
  Hg  Hg7  1  0.002878  0.276991  0.000000  1
  Ru  Ru8  1  0.666667  0.333333  0.000000  1
