# generated using pymatgen
data_Pr4Ga18PdRh5
_symmetry_space_group_name_H-M   'P 1'
_cell_length_a   7.68432716
_cell_length_b   7.68432739
_cell_length_c   9.65908905
_cell_angle_alpha   89.98761882
_cell_angle_beta   89.98761677
_cell_angle_gamma   119.44654337
_symmetry_Int_Tables_number   1
_chemical_formula_structural   Pr4Ga18PdRh5
_chemical_formula_sum   'Pr4 Ga18 Pd1 Rh5'
_cell_volume   496.67649908
_cell_formula_units_Z   1
loop_
 _symmetry_equiv_pos_site_id
 _symmetry_equiv_pos_as_xyz
  1  'x, y, z'
loop_
 _atom_site_type_symbol
 _atom_site_label
 _atom_site_symmetry_multiplicity
 _atom_site_fract_x
 _atom_site_fract_y
 _atom_site_fract_z
 _atom_site_occupancy
  Pr  Pr0  1  0.994779  0.668468  0.750147  1
  Pr  Pr1  1  0.002469  0.329654  0.250161  1
  Pr  Pr2  1  0.670346  0.997531  0.749839  1
  Pr  Pr3  1  0.331532  0.005221  0.249853  1
  Ga  Ga4  1  0.128813  0.127402  0.750412  1
  Ga  Ga5  1  0.872598  0.871187  0.249588  1
  Ga  Ga6  1  0.006939  0.335468  0.580055  1
  Ga  Ga7  1  0.001098  0.668688  0.420515  1
  Ga  Ga8  1  0.998679  0.664710  0.077667  1
  Ga  Ga9  1  0.335290  0.001321  0.922333  1
  Ga  Ga10  1  0.002455  0.335294  0.922168  1
  Ga  Ga11  1  0.664706  0.997545  0.077832  1
  Ga  Ga12  1  0.664532  0.993061  0.419945  1
  Ga  Ga13  1  0.331312  0.998902  0.579485  1
  Ga  Ga14  1  0.332038  0.332278  0.053104  1
  Ga  Ga15  1  0.667722  0.667962  0.946896  1
  Ga  Ga16  1  0.666517  0.669866  0.555879  1
  Ga  Ga17  1  0.330134  0.333483  0.444121  1
  Ga  Ga18  1  0.342041  0.548900  0.750318  1
  Ga  Ga19  1  0.658853  0.455383  0.246858  1
  Ga  Ga20  1  0.544617  0.341147  0.753142  1
  Ga  Ga21  1  0.451100  0.657959  0.249682  1
  Pd  Pd22  1  0.671341  0.328659  0.500000  1
  Rh  Rh23  1  0.329627  0.670373  0.500000  1
  Rh  Rh24  1  0.329427  0.670573  0.000000  1
  Rh  Rh25  1  0.670938  0.329062  0.000000  1
  Rh  Rh26  1  0.000098  0.999902  0.500000  1
  Rh  Rh27  1  0.999997  0.000003  0.000000  1
