# generated using pymatgen
data_Zr5Ni4(P4Ru5)3
_symmetry_space_group_name_H-M   'P 1'
_cell_length_a   12.29692400
_cell_length_b   12.29692400
_cell_length_c   3.86936400
_cell_angle_alpha   90.00000000
_cell_angle_beta   90.00000000
_cell_angle_gamma   120.00000537
_symmetry_Int_Tables_number   1
_chemical_formula_structural   Zr5Ni4(P4Ru5)3
_chemical_formula_sum   'Zr5 Ni4 P12 Ru15'
_cell_volume   506.71431427
_cell_formula_units_Z   1
loop_
 _symmetry_equiv_pos_site_id
 _symmetry_equiv_pos_as_xyz
  1  'x, y, z'
loop_
 _atom_site_type_symbol
 _atom_site_label
 _atom_site_symmetry_multiplicity
 _atom_site_fract_x
 _atom_site_fract_y
 _atom_site_fract_z
 _atom_site_occupancy
  Zr  Zr0  1  0.333333  0.666667  0.500000  1
  Zr  Zr1  1  0.666667  0.333333  0.500000  1
  Zr  Zr2  1  0.818827  0.998199  0.000000  1
  Zr  Zr3  1  0.001801  0.820629  0.000000  1
  Zr  Zr4  1  0.179371  0.181173  0.000000  1
  Ni  Ni5  1  0.495464  0.364725  0.000000  1
  Ni  Ni6  1  0.869261  0.504536  0.000000  1
  Ni  Ni7  1  0.635275  0.130739  0.000000  1
  Ni  Ni8  1  0.000000  0.000000  0.500000  1
  P  P9  1  0.175756  0.004956  0.500000  1
  P  P10  1  0.995044  0.170800  0.500000  1
  P  P11  1  0.829200  0.824244  0.500000  1
  P  P12  1  0.520726  0.692089  0.000000  1
  P  P13  1  0.307911  0.828637  0.000000  1
  P  P14  1  0.171363  0.479274  0.000000  1
  P  P15  1  0.483723  0.175352  0.000000  1
  P  P16  1  0.691630  0.516277  0.000000  1
  P  P17  1  0.824648  0.308370  0.000000  1
  P  P18  1  0.633036  0.994101  0.500000  1
  P  P19  1  0.005899  0.638936  0.500000  1
  P  P20  1  0.361064  0.366964  0.500000  1
  Ru  Ru21  1  0.626850  0.803733  0.500000  1
  Ru  Ru22  1  0.196267  0.823115  0.500000  1
  Ru  Ru23  1  0.176885  0.373150  0.500000  1
  Ru  Ru24  1  0.380604  0.191682  0.500000  1
  Ru  Ru25  1  0.811078  0.619396  0.500000  1
  Ru  Ru26  1  0.808318  0.188922  0.500000  1
  Ru  Ru27  1  0.284378  0.005877  0.000000  1
  Ru  Ru28  1  0.994123  0.278500  0.000000  1
  Ru  Ru29  1  0.721500  0.715622  0.000000  1
  Ru  Ru30  1  0.455278  0.011729  0.500000  1
  Ru  Ru31  1  0.988271  0.443550  0.500000  1
  Ru  Ru32  1  0.556450  0.544722  0.500000  1
  Ru  Ru33  1  0.509940  0.875772  0.000000  1
  Ru  Ru34  1  0.124228  0.634167  0.000000  1
  Ru  Ru35  1  0.365833  0.490060  0.000000  1
