# generated using pymatgen
data_Sr8Np3WO20
_symmetry_space_group_name_H-M   'P 1'
_cell_length_a   5.66906117
_cell_length_b   8.06076743
_cell_length_c   11.88180323
_cell_angle_alpha   71.10840109
_cell_angle_beta   89.78031573
_cell_angle_gamma   89.37096214
_symmetry_Int_Tables_number   1
_chemical_formula_structural   Sr8Np3WO20
_chemical_formula_sum   'Sr8 Np3 W1 O20'
_cell_volume   513.68373570
_cell_formula_units_Z   1
loop_
 _symmetry_equiv_pos_site_id
 _symmetry_equiv_pos_as_xyz
  1  'x, y, z'
loop_
 _atom_site_type_symbol
 _atom_site_label
 _atom_site_symmetry_multiplicity
 _atom_site_fract_x
 _atom_site_fract_y
 _atom_site_fract_z
 _atom_site_occupancy
  Sr  Sr0  1  0.930737  0.154999  0.686710  1
  Sr  Sr1  1  0.429054  0.849177  0.821097  1
  Sr  Sr2  1  0.069263  0.845001  0.313290  1
  Sr  Sr3  1  0.570946  0.150823  0.178903  1
  Sr  Sr4  1  0.498701  0.329431  0.865551  1
  Sr  Sr5  1  0.998548  0.660327  0.636863  1
  Sr  Sr6  1  0.501299  0.670569  0.134449  1
  Sr  Sr7  1  0.001452  0.339673  0.363137  1
  Np  Np8  1  0.500000  0.000000  0.500000  1
  Np  Np9  1  0.000000  0.500000  0.000000  1
  Np  Np10  1  0.500000  0.500000  0.500000  1
  W  W11  1  0.000000  0.000000  0.000000  1
  O  O12  1  0.650491  0.250727  0.501318  1
  O  O13  1  0.124038  0.764600  0.999504  1
  O  O14  1  0.349509  0.749273  0.498682  1
  O  O15  1  0.875962  0.235400  0.000496  1
  O  O16  1  0.759637  0.015866  0.379663  1
  O  O17  1  0.253040  0.991990  0.112339  1
  O  O18  1  0.240363  0.984134  0.620337  1
  O  O19  1  0.746960  0.008010  0.887661  1
  O  O20  1  0.796411  0.604386  0.424006  1
  O  O21  1  0.299936  0.405049  0.075533  1
  O  O22  1  0.203589  0.395614  0.575994  1
  O  O23  1  0.700064  0.594951  0.924467  1
  O  O24  1  0.669102  0.442912  0.666466  1
  O  O25  1  0.169977  0.556388  0.837826  1
  O  O26  1  0.330898  0.557088  0.333534  1
  O  O27  1  0.830023  0.443612  0.162174  1
  O  O28  1  0.707973  0.891825  0.642958  1
  O  O29  1  0.203294  0.106210  0.864100  1
  O  O30  1  0.292027  0.108175  0.357042  1
  O  O31  1  0.796706  0.893790  0.135900  1
