# generated using pymatgen
data_Tb4Sc16GaBi11
_symmetry_space_group_name_H-M   'P 1'
_cell_length_a   7.85395318
_cell_length_b   9.03776600
_cell_length_c   11.55090308
_cell_angle_alpha   90.00000000
_cell_angle_beta   90.23922937
_cell_angle_gamma   90.00000000
_symmetry_Int_Tables_number   1
_chemical_formula_structural   Tb4Sc16GaBi11
_chemical_formula_sum   'Tb4 Sc16 Ga1 Bi11'
_cell_volume   819.90126166
_cell_formula_units_Z   1
loop_
 _symmetry_equiv_pos_site_id
 _symmetry_equiv_pos_as_xyz
  1  'x, y, z'
loop_
 _atom_site_type_symbol
 _atom_site_label
 _atom_site_symmetry_multiplicity
 _atom_site_fract_x
 _atom_site_fract_y
 _atom_site_fract_z
 _atom_site_occupancy
  Tb  Tb0  1  0.316844  0.250000  0.219697  1
  Tb  Tb1  1  0.815287  0.250000  0.280913  1
  Tb  Tb2  1  0.672737  0.750000  0.789503  1
  Tb  Tb3  1  0.187545  0.750000  0.722782  1
  Sc  Sc4  1  0.351265  0.750000  0.208339  1
  Sc  Sc5  1  0.846933  0.750000  0.280010  1
  Sc  Sc6  1  0.655148  0.250000  0.779154  1
  Sc  Sc7  1  0.153632  0.250000  0.721713  1
  Sc  Sc8  1  0.681129  0.574784  0.059035  1
  Sc  Sc9  1  0.192351  0.932288  0.435373  1
  Sc  Sc10  1  0.310359  0.050190  0.939319  1
  Sc  Sc11  1  0.807624  0.433339  0.562993  1
  Sc  Sc12  1  0.310359  0.449810  0.939319  1
  Sc  Sc13  1  0.807624  0.066661  0.562993  1
  Sc  Sc14  1  0.681129  0.925216  0.059035  1
  Sc  Sc15  1  0.192351  0.567712  0.435373  1
  Sc  Sc16  1  0.483448  0.250000  0.489465  1
  Sc  Sc17  1  0.986074  0.250000  0.009806  1
  Sc  Sc18  1  0.517454  0.750000  0.511345  1
  Sc  Sc19  1  0.030896  0.750000  0.988891  1
  Ga  Ga20  1  0.402152  0.750000  0.968738  1
  Bi  Bi21  1  0.902832  0.750000  0.534904  1
  Bi  Bi22  1  0.597639  0.250000  0.031803  1
  Bi  Bi23  1  0.098737  0.250000  0.467929  1
  Bi  Bi24  1  0.562760  0.988576  0.328826  1
  Bi  Bi25  1  0.061997  0.510592  0.171111  1
  Bi  Bi26  1  0.437175  0.489398  0.672191  1
  Bi  Bi27  1  0.937292  0.009266  0.828657  1
  Bi  Bi28  1  0.437175  0.010602  0.672191  1
  Bi  Bi29  1  0.937292  0.490734  0.828657  1
  Bi  Bi30  1  0.562760  0.511424  0.328826  1
  Bi  Bi31  1  0.061997  0.989408  0.171111  1
