# generated using pymatgen
data_Zr20Ga7P5
_symmetry_space_group_name_H-M   'P 1'
_cell_length_a   7.17783289
_cell_length_b   8.30185726
_cell_length_c   10.61953139
_cell_angle_alpha   89.95161377
_cell_angle_beta   89.90234544
_cell_angle_gamma   90.00930162
_symmetry_Int_Tables_number   1
_chemical_formula_structural   Zr20Ga7P5
_chemical_formula_sum   'Zr20 Ga7 P5'
_cell_volume   632.80975719
_cell_formula_units_Z   1
loop_
 _symmetry_equiv_pos_site_id
 _symmetry_equiv_pos_as_xyz
  1  'x, y, z'
loop_
 _atom_site_type_symbol
 _atom_site_label
 _atom_site_symmetry_multiplicity
 _atom_site_fract_x
 _atom_site_fract_y
 _atom_site_fract_z
 _atom_site_occupancy
  Zr  Zr0  1  0.818610  0.551482  0.060126  1
  Zr  Zr1  1  0.680719  0.946514  0.564764  1
  Zr  Zr2  1  0.183039  0.052591  0.935353  1
  Zr  Zr3  1  0.319596  0.447204  0.437252  1
  Zr  Zr4  1  0.182977  0.450063  0.935266  1
  Zr  Zr5  1  0.320055  0.052666  0.437431  1
  Zr  Zr6  1  0.817871  0.948096  0.062216  1
  Zr  Zr7  1  0.676502  0.550309  0.568549  1
  Zr  Zr8  1  0.170284  0.750449  0.219919  1
  Zr  Zr9  1  0.334052  0.742875  0.720985  1
  Zr  Zr10  1  0.826888  0.257916  0.781034  1
  Zr  Zr11  1  0.670723  0.249340  0.278934  1
  Zr  Zr12  1  0.474350  0.744810  0.999283  1
  Zr  Zr13  1  0.023200  0.749726  0.501418  1
  Zr  Zr14  1  0.526718  0.254636  0.997152  1
  Zr  Zr15  1  0.974461  0.249978  0.500421  1
  Zr  Zr16  1  0.652198  0.749254  0.293340  1
  Zr  Zr17  1  0.845585  0.745209  0.794695  1
  Zr  Zr18  1  0.350809  0.256691  0.707045  1
  Zr  Zr19  1  0.153027  0.248689  0.206206  1
  Ga  Ga20  1  0.937110  0.505422  0.324476  1
  Ga  Ga21  1  0.561365  0.993987  0.825220  1
  Ga  Ga22  1  0.063034  0.006668  0.676261  1
  Ga  Ga23  1  0.436680  0.493454  0.176377  1
  Ga  Ga24  1  0.063453  0.494294  0.673077  1
  Ga  Ga25  1  0.438831  0.005665  0.173141  1
  Ga  Ga26  1  0.937340  0.993911  0.325222  1
  P  P27  1  0.401186  0.749691  0.474450  1
  P  P28  1  0.096452  0.751360  0.975112  1
  P  P29  1  0.597617  0.248330  0.524336  1
  P  P30  1  0.904732  0.249734  0.025013  1
  P  P31  1  0.560535  0.508990  0.825929  1
