# generated using pymatgen
data_Tb6Ho2Ti11Si16Hg
_symmetry_space_group_name_H-M   'P 1'
_cell_length_a   7.09949765
_cell_length_b   7.09788428
_cell_length_c   12.95546727
_cell_angle_alpha   90.12336542
_cell_angle_beta   89.89078618
_cell_angle_gamma   89.58948573
_symmetry_Int_Tables_number   1
_chemical_formula_structural   Tb6Ho2Ti11Si16Hg
_chemical_formula_sum   'Tb6 Ho2 Ti11 Si16 Hg1'
_cell_volume   652.82482352
_cell_formula_units_Z   1
loop_
 _symmetry_equiv_pos_site_id
 _symmetry_equiv_pos_as_xyz
  1  'x, y, z'
loop_
 _atom_site_type_symbol
 _atom_site_label
 _atom_site_symmetry_multiplicity
 _atom_site_fract_x
 _atom_site_fract_y
 _atom_site_fract_z
 _atom_site_occupancy
  Tb  Tb0  1  0.340831  0.002603  0.467017  1
  Tb  Tb1  1  0.497645  0.839441  0.715913  1
  Tb  Tb2  1  0.501464  0.157672  0.214890  1
  Tb  Tb3  1  0.839705  0.497638  0.284090  1
  Tb  Tb4  1  0.157479  0.501519  0.785035  1
  Tb  Tb5  1  0.657145  0.000177  0.968581  1
  Ho  Ho6  1  0.001814  0.341493  0.533119  1
  Ho  Ho7  1  0.000572  0.656928  0.031687  1
  Ti  Ti8  1  0.173529  0.826441  0.250529  1
  Ti  Ti9  1  0.826744  0.173766  0.749296  1
  Ti  Ti10  1  0.673317  0.672899  0.500019  1
  Ti  Ti11  1  0.147111  0.008851  0.876988  1
  Ti  Ti12  1  0.495175  0.650154  0.123631  1
  Ti  Ti13  1  0.507695  0.351012  0.624394  1
  Ti  Ti14  1  0.650423  0.495344  0.876382  1
  Ti  Ti15  1  0.350862  0.507389  0.375580  1
  Ti  Ti16  1  0.849564  0.991108  0.374721  1
  Ti  Ti17  1  0.008880  0.147108  0.123089  1
  Ti  Ti18  1  0.991101  0.849417  0.625336  1
  Si  Si19  1  0.201036  0.131788  0.683914  1
  Si  Si20  1  0.373436  0.724166  0.927998  1
  Si  Si21  1  0.631419  0.294509  0.433442  1
  Si  Si22  1  0.725140  0.374871  0.072193  1
  Si  Si23  1  0.293747  0.630260  0.566713  1
  Si  Si24  1  0.798890  0.867327  0.183238  1
  Si  Si25  1  0.131233  0.201931  0.315916  1
  Si  Si26  1  0.868008  0.798260  0.816589  1
  Si  Si27  1  0.284842  0.932174  0.067500  1
  Si  Si28  1  0.546632  0.790493  0.314762  1
  Si  Si29  1  0.458559  0.206159  0.805296  1
  Si  Si30  1  0.791074  0.546212  0.684908  1
  Si  Si31  1  0.205808  0.458973  0.194354  1
  Si  Si32  1  0.710726  0.048259  0.564034  1
  Si  Si33  1  0.933251  0.286286  0.932667  1
  Si  Si34  1  0.047761  0.709452  0.436250  1
  Hg  Hg35  1  0.327380  0.327916  0.999929  1
