# generated using pymatgen
data_Nd3Bi(Mo2O7)2
_symmetry_space_group_name_H-M   'P 1'
_cell_length_a   7.55079433
_cell_length_b   7.48933861
_cell_length_c   7.50026024
_cell_angle_alpha   119.46057565
_cell_angle_beta   120.27034082
_cell_angle_gamma   90.09653116
_symmetry_Int_Tables_number   1
_chemical_formula_structural   Nd3Bi(Mo2O7)2
_chemical_formula_sum   'Nd3 Bi1 Mo4 O14'
_cell_volume   300.86464097
_cell_formula_units_Z   1
loop_
 _symmetry_equiv_pos_site_id
 _symmetry_equiv_pos_as_xyz
  1  'x, y, z'
loop_
 _atom_site_type_symbol
 _atom_site_label
 _atom_site_symmetry_multiplicity
 _atom_site_fract_x
 _atom_site_fract_y
 _atom_site_fract_z
 _atom_site_occupancy
  Nd  Nd0  1  0.375000  0.625000  0.250000  1
  Nd  Nd1  1  0.875000  0.625000  0.250000  1
  Nd  Nd2  1  0.375000  0.125000  0.750000  1
  Bi  Bi3  1  0.375000  0.625000  0.750000  1
  Mo  Mo4  1  0.875000  0.625000  0.750000  1
  Mo  Mo5  1  0.375000  0.125000  0.250000  1
  Mo  Mo6  1  0.875000  0.125000  0.250000  1
  Mo  Mo7  1  0.875000  0.125000  0.750000  1
  O  O8  1  0.783422  0.201669  0.996186  1
  O  O9  1  0.548073  0.462314  0.498126  1
  O  O10  1  0.208444  0.207780  0.000054  1
  O  O11  1  0.955806  0.456552  0.498281  1
  O  O12  1  0.797815  0.796668  0.581864  1
  O  O13  1  0.537313  0.034253  0.083804  1
  O  O14  1  0.249616  0.750629  0.498247  1
  O  O15  1  0.952185  0.453332  0.918136  1
  O  O16  1  0.966578  0.048331  0.503814  1
  O  O17  1  0.541556  0.042220  0.499946  1
  O  O18  1  0.212687  0.215747  0.416196  1
  O  O19  1  0.500384  0.499371  0.001753  1
  O  O20  1  0.794194  0.793448  0.001719  1
  O  O21  1  0.201927  0.787686  0.001874  1
