# generated using pymatgen
data_Lu12Fe(HgOs)2
_symmetry_space_group_name_H-M   'P 1'
_cell_length_a   8.18880429
_cell_length_b   8.18880447
_cell_length_c   8.18880323
_cell_angle_alpha   108.69312547
_cell_angle_beta   108.69312545
_cell_angle_gamma   111.03886971
_symmetry_Int_Tables_number   1
_chemical_formula_structural   Lu12Fe(HgOs)2
_chemical_formula_sum   'Lu12 Fe1 Hg2 Os2'
_cell_volume   422.46906563
_cell_formula_units_Z   1
loop_
 _symmetry_equiv_pos_site_id
 _symmetry_equiv_pos_as_xyz
  1  'x, y, z'
loop_
 _atom_site_type_symbol
 _atom_site_label
 _atom_site_symmetry_multiplicity
 _atom_site_fract_x
 _atom_site_fract_y
 _atom_site_fract_z
 _atom_site_occupancy
  Lu  Lu0  1  0.307932  0.307932  0.616310  1
  Lu  Lu1  1  0.691621  0.691621  0.383690  1
  Lu  Lu2  1  0.691621  0.307932  0.000000  1
  Lu  Lu3  1  0.307932  0.691621  0.000000  1
  Lu  Lu4  1  0.187477  0.429300  0.241824  1
  Lu  Lu5  1  0.810451  0.571132  0.760681  1
  Lu  Lu6  1  0.187477  0.945652  0.758176  1
  Lu  Lu7  1  0.945652  0.187477  0.758176  1
  Lu  Lu8  1  0.810451  0.049771  0.239319  1
  Lu  Lu9  1  0.049771  0.810451  0.239319  1
  Lu  Lu10  1  0.429300  0.187477  0.241824  1
  Lu  Lu11  1  0.571132  0.810451  0.760681  1
  Fe  Fe12  1  0.634467  0.634467  0.000000  1
  Hg  Hg13  1  0.996672  0.496672  0.500000  1
  Hg  Hg14  1  0.496672  0.996672  0.500000  1
  Os  Os15  1  0.381434  0.381434  0.000000  1
  Os  Os16  1  0.999938  0.999938  0.000000  1
