# generated using pymatgen
data_Li4DyTm3O8
_symmetry_space_group_name_H-M   'P 1'
_cell_length_a   3.34251600
_cell_length_b   5.27357928
_cell_length_c   11.07614398
_cell_angle_alpha   90.12829526
_cell_angle_beta   90.00000000
_cell_angle_gamma   90.00000000
_symmetry_Int_Tables_number   1
_chemical_formula_structural   Li4DyTm3O8
_chemical_formula_sum   'Li4 Dy1 Tm3 O8'
_cell_volume   195.23895683
_cell_formula_units_Z   1
loop_
 _symmetry_equiv_pos_site_id
 _symmetry_equiv_pos_as_xyz
  1  'x, y, z'
loop_
 _atom_site_type_symbol
 _atom_site_label
 _atom_site_symmetry_multiplicity
 _atom_site_fract_x
 _atom_site_fract_y
 _atom_site_fract_z
 _atom_site_occupancy
  Li  Li0  1  0.250000  0.097657  0.067833  1
  Li  Li1  1  0.250000  0.402443  0.566686  1
  Li  Li2  1  0.750000  0.597773  0.431225  1
  Li  Li3  1  0.750000  0.901696  0.933427  1
  Dy  Dy4  1  0.750000  0.952305  0.640924  1
  Tm  Tm5  1  0.250000  0.046456  0.358561  1
  Tm  Tm6  1  0.250000  0.453539  0.861405  1
  Tm  Tm7  1  0.750000  0.545957  0.140872  1
  O  O8  1  0.250000  0.194384  0.708174  1
  O  O9  1  0.750000  0.240118  0.471580  1
  O  O10  1  0.750000  0.259977  0.973876  1
  O  O11  1  0.250000  0.312051  0.207541  1
  O  O12  1  0.750000  0.686163  0.794844  1
  O  O13  1  0.250000  0.738774  0.027432  1
  O  O14  1  0.250000  0.758485  0.524037  1
  O  O15  1  0.750000  0.812221  0.291582  1
