# generated using pymatgen
data_LuSc3(SeO4)6
_symmetry_space_group_name_H-M   'P 1'
_cell_length_a   9.10719419
_cell_length_b   9.10728396
_cell_length_c   9.67708149
_cell_angle_alpha   61.93254349
_cell_angle_beta   118.07167018
_cell_angle_gamma   119.99425920
_symmetry_Int_Tables_number   1
_chemical_formula_structural   LuSc3(SeO4)6
_chemical_formula_sum   'Lu1 Sc3 Se6 O24'
_cell_volume   583.57519791
_cell_formula_units_Z   1
loop_
 _symmetry_equiv_pos_site_id
 _symmetry_equiv_pos_as_xyz
  1  'x, y, z'
loop_
 _atom_site_type_symbol
 _atom_site_label
 _atom_site_symmetry_multiplicity
 _atom_site_fract_x
 _atom_site_fract_y
 _atom_site_fract_z
 _atom_site_occupancy
  Lu  Lu0  1  0.143544  0.856442  0.430559  1
  Sc  Sc1  1  0.351431  0.648585  0.054404  1
  Sc  Sc2  1  0.855397  0.144659  0.566234  1
  Sc  Sc3  1  0.648144  0.351895  0.944284  1
  Se  Se4  1  0.466543  0.967702  0.245359  1
  Se  Se5  1  0.746337  0.533475  0.245472  1
  Se  Se6  1  0.032597  0.253604  0.245461  1
  Se  Se7  1  0.542371  0.034465  0.755213  1
  Se  Se8  1  0.247421  0.457630  0.755193  1
  Se  Se9  1  0.965301  0.752545  0.755023  1
  O  O10  1  0.818903  0.547157  0.803801  1
  O  O11  1  0.532149  0.180871  0.803987  1
  O  O12  1  0.452795  0.467829  0.803823  1
  O  O13  1  0.179061  0.459585  0.197915  1
  O  O14  1  0.478434  0.821185  0.197804  1
  O  O15  1  0.540392  0.521595  0.197992  1
  O  O16  1  0.890888  0.899921  0.729076  1
  O  O17  1  0.738187  0.108870  0.729252  1
  O  O18  1  0.100000  0.261830  0.729229  1
  O  O19  1  0.109174  0.110434  0.267672  1
  O  O20  1  0.889596  0.731008  0.267581  1
  O  O21  1  0.268994  0.891177  0.267511  1
  O  O22  1  0.786341  0.373414  0.422363  1
  O  O23  1  0.626665  0.990886  0.422227  1
  O  O24  1  0.009346  0.213677  0.422299  1
  O  O25  1  0.214025  0.619682  0.579894  1
  O  O26  1  0.380263  0.014219  0.579966  1
  O  O27  1  0.985501  0.785914  0.579766  1
  O  O28  1  0.774402  0.513187  0.097853  1
  O  O29  1  0.486735  0.163601  0.097700  1
  O  O30  1  0.836659  0.225542  0.097802  1
  O  O31  1  0.223435  0.483287  0.902467  1
  O  O32  1  0.516770  0.837570  0.902481  1
  O  O33  1  0.162204  0.776562  0.902336  1
