# generated using pymatgen
data_Ti3ZnCu2N
_symmetry_space_group_name_H-M   'P 1'
_cell_length_a   7.99578977
_cell_length_b   7.99578852
_cell_length_c   7.99579000
_cell_angle_alpha   59.99999386
_cell_angle_beta   59.99999906
_cell_angle_gamma   60.00000612
_symmetry_Int_Tables_number   1
_chemical_formula_structural   Ti3ZnCu2N
_chemical_formula_sum   'Ti12 Zn4 Cu8 N4'
_cell_volume   361.46732414
_cell_formula_units_Z   4
loop_
 _symmetry_equiv_pos_site_id
 _symmetry_equiv_pos_as_xyz
  1  'x, y, z'
loop_
 _atom_site_type_symbol
 _atom_site_label
 _atom_site_symmetry_multiplicity
 _atom_site_fract_x
 _atom_site_fract_y
 _atom_site_fract_z
 _atom_site_occupancy
  Ti  Ti0  1  0.816877  0.816877  0.183123  1
  Ti  Ti1  1  0.183123  0.183123  0.816877  1
  Ti  Ti2  1  0.816877  0.183123  0.816877  1
  Ti  Ti3  1  0.183123  0.816877  0.183123  1
  Ti  Ti4  1  0.183123  0.816877  0.816877  1
  Ti  Ti5  1  0.816877  0.183123  0.183123  1
  Ti  Ti6  1  0.433123  0.433123  0.066877  1
  Ti  Ti7  1  0.066877  0.066877  0.433123  1
  Ti  Ti8  1  0.433123  0.066877  0.433123  1
  Ti  Ti9  1  0.066877  0.433123  0.066877  1
  Ti  Ti10  1  0.066877  0.433123  0.433123  1
  Ti  Ti11  1  0.433123  0.066877  0.066877  1
  Zn  Zn12  1  0.125000  0.625000  0.625000  1
  Zn  Zn13  1  0.625000  0.125000  0.625000  1
  Zn  Zn14  1  0.625000  0.625000  0.125000  1
  Zn  Zn15  1  0.625000  0.625000  0.625000  1
  Cu  Cu16  1  0.752977  0.415675  0.415675  1
  Cu  Cu17  1  0.415675  0.752977  0.415675  1
  Cu  Cu18  1  0.415675  0.415675  0.752977  1
  Cu  Cu19  1  0.415675  0.415675  0.415675  1
  Cu  Cu20  1  0.497023  0.834325  0.834325  1
  Cu  Cu21  1  0.834325  0.497023  0.834325  1
  Cu  Cu22  1  0.834325  0.834325  0.497023  1
  Cu  Cu23  1  0.834325  0.834325  0.834325  1
  N  N24  1  0.625000  0.125000  0.125000  1
  N  N25  1  0.125000  0.625000  0.125000  1
  N  N26  1  0.125000  0.125000  0.625000  1
  N  N27  1  0.125000  0.125000  0.125000  1
