# generated using pymatgen
data_DyHo8Cd(SiB4)4
_symmetry_space_group_name_H-M   'P 1'
_cell_length_a   7.17653405
_cell_length_b   7.17657104
_cell_length_c   7.96071401
_cell_angle_alpha   90.00069702
_cell_angle_beta   89.99508668
_cell_angle_gamma   90.01215128
_symmetry_Int_Tables_number   1
_chemical_formula_structural   DyHo8Cd(SiB4)4
_chemical_formula_sum   'Dy1 Ho8 Cd1 Si4 B16'
_cell_volume   409.99989774
_cell_formula_units_Z   1
loop_
 _symmetry_equiv_pos_site_id
 _symmetry_equiv_pos_as_xyz
  1  'x, y, z'
loop_
 _atom_site_type_symbol
 _atom_site_label
 _atom_site_symmetry_multiplicity
 _atom_site_fract_x
 _atom_site_fract_y
 _atom_site_fract_z
 _atom_site_occupancy
  Dy  Dy0  1  0.180084  0.318113  0.229406  1
  Ho  Ho1  1  0.681632  0.179981  0.228292  1
  Ho  Ho2  1  0.318407  0.819942  0.771735  1
  Ho  Ho3  1  0.318407  0.819948  0.228251  1
  Ho  Ho4  1  0.819781  0.681916  0.228509  1
  Ho  Ho5  1  0.819799  0.681819  0.771451  1
  Ho  Ho6  1  0.681646  0.180049  0.771778  1
  Ho  Ho7  1  0.180184  0.318180  0.771405  1
  Ho  Ho8  1  0.500108  0.500116  0.500124  1
  Cd  Cd9  1  0.999939  0.999858  0.500140  1
  Si  Si10  1  0.117634  0.612948  0.500286  1
  Si  Si11  1  0.882023  0.387487  0.500269  1
  Si  Si12  1  0.387556  0.117681  0.500342  1
  Si  Si13  1  0.612815  0.882014  0.500044  1
  B  B14  1  0.175405  0.038442  0.999853  1
  B  B15  1  0.824478  0.961342  0.999912  1
  B  B16  1  0.961190  0.175248  0.999819  1
  B  B17  1  0.327208  0.539769  0.999865  1
  B  B18  1  0.038621  0.824606  0.999891  1
  B  B19  1  0.672920  0.460416  0.999876  1
  B  B20  1  0.539717  0.673041  0.999931  1
  B  B21  1  0.460461  0.327082  0.999889  1
  B  B22  1  0.089434  0.588265  0.999795  1
  B  B23  1  0.910447  0.411828  0.999748  1
  B  B24  1  0.411938  0.089311  0.999948  1
  B  B25  1  0.588080  0.910673  0.999940  1
  B  B26  1  0.999852  0.999743  0.156822  1
  B  B27  1  0.999971  0.999990  0.842886  1
  B  B28  1  0.500004  0.500037  0.836091  1
  B  B29  1  0.500259  0.500153  0.163699  1
