# generated using pymatgen
data_Y4Er6GaSb5
_symmetry_space_group_name_H-M   'P 1'
_cell_length_a   6.34020600
_cell_length_b   8.89095370
_cell_length_c   8.85499555
_cell_angle_alpha   120.13442411
_cell_angle_beta   89.99895109
_cell_angle_gamma   90.00209098
_symmetry_Int_Tables_number   1
_chemical_formula_structural   Y4Er6GaSb5
_chemical_formula_sum   'Y4 Er6 Ga1 Sb5'
_cell_volume   431.69878794
_cell_formula_units_Z   1
loop_
 _symmetry_equiv_pos_site_id
 _symmetry_equiv_pos_as_xyz
  1  'x, y, z'
loop_
 _atom_site_type_symbol
 _atom_site_label
 _atom_site_symmetry_multiplicity
 _atom_site_fract_x
 _atom_site_fract_y
 _atom_site_fract_z
 _atom_site_occupancy
  Y  Y0  1  0.750004  0.752796  0.763630  1
  Y  Y1  1  0.750004  0.989167  0.236370  1
  Y  Y2  1  0.249999  0.245355  0.244681  1
  Y  Y3  1  0.249999  0.000674  0.755319  1
  Er  Er4  1  0.501303  0.340041  0.675048  1
  Er  Er5  1  0.501303  0.664995  0.324952  1
  Er  Er6  1  0.998701  0.665010  0.324957  1
  Er  Er7  1  0.998701  0.340053  0.675043  1
  Er  Er8  1  0.749995  0.250920  0.000000  1
  Er  Er9  1  0.250007  0.754438  0.000000  1
  Ga  Ga10  1  0.750004  0.604775  0.000000  1
  Sb  Sb11  1  0.749995  0.388306  0.389592  1
  Sb  Sb12  1  0.749995  0.998711  0.610408  1
  Sb  Sb13  1  0.249996  0.391888  0.000000  1
  Sb  Sb14  1  0.249998  0.610578  0.608282  1
  Sb  Sb15  1  0.249998  0.002296  0.391718  1
