# generated using pymatgen
data_Th4Zn4Ir3Ru
_symmetry_space_group_name_H-M   'P 1'
_cell_length_a   4.03273300
_cell_length_b   7.21283286
_cell_length_c   8.46258890
_cell_angle_alpha   89.92847194
_cell_angle_beta   90.00000000
_cell_angle_gamma   90.00000000
_symmetry_Int_Tables_number   1
_chemical_formula_structural   Th4Zn4Ir3Ru
_chemical_formula_sum   'Th4 Zn4 Ir3 Ru1'
_cell_volume   246.15476279
_cell_formula_units_Z   1
loop_
 _symmetry_equiv_pos_site_id
 _symmetry_equiv_pos_as_xyz
  1  'x, y, z'
loop_
 _atom_site_type_symbol
 _atom_site_label
 _atom_site_symmetry_multiplicity
 _atom_site_fract_x
 _atom_site_fract_y
 _atom_site_fract_z
 _atom_site_occupancy
  Th  Th0  1  0.250000  0.048987  0.313953  1
  Th  Th1  1  0.250000  0.548546  0.188437  1
  Th  Th2  1  0.750000  0.955301  0.690388  1
  Th  Th3  1  0.750000  0.450446  0.806942  1
  Zn  Zn4  1  0.250000  0.127844  0.940511  1
  Zn  Zn5  1  0.250000  0.625288  0.558946  1
  Zn  Zn6  1  0.750000  0.873335  0.060981  1
  Zn  Zn7  1  0.750000  0.372546  0.439963  1
  Ir  Ir8  1  0.250000  0.741133  0.872700  1
  Ir  Ir9  1  0.750000  0.758707  0.373103  1
  Ir  Ir10  1  0.750000  0.259514  0.127569  1
  Ru  Ru11  1  0.250000  0.238353  0.626506  1
