# generated using pymatgen
data_Ho5Er3In2IrPd
_symmetry_space_group_name_H-M   'P 1'
_cell_length_a   9.61951657
_cell_length_b   9.63881520
_cell_length_c   9.63454220
_cell_angle_alpha   60.27763963
_cell_angle_beta   60.14227490
_cell_angle_gamma   60.15316142
_symmetry_Int_Tables_number   1
_chemical_formula_structural   Ho5Er3In2IrPd
_chemical_formula_sum   'Ho10 Er6 In4 Ir2 Pd2'
_cell_volume   634.40428239
_cell_formula_units_Z   2
loop_
 _symmetry_equiv_pos_site_id
 _symmetry_equiv_pos_as_xyz
  1  'x, y, z'
loop_
 _atom_site_type_symbol
 _atom_site_label
 _atom_site_symmetry_multiplicity
 _atom_site_fract_x
 _atom_site_fract_y
 _atom_site_fract_z
 _atom_site_occupancy
  Ho  Ho0  1  0.061787  0.061421  0.434753  1
  Ho  Ho1  1  0.649819  0.056618  0.643061  1
  Ho  Ho2  1  0.185843  0.808454  0.194871  1
  Ho  Ho3  1  0.441221  0.062201  0.434456  1
  Ho  Ho4  1  0.185688  0.194940  0.808716  1
  Ho  Ho5  1  0.655267  0.648659  0.648780  1
  Ho  Ho6  1  0.049255  0.647781  0.648063  1
  Ho  Ho7  1  0.437510  0.062646  0.062256  1
  Ho  Ho8  1  0.649974  0.642986  0.056621  1
  Ho  Ho9  1  0.191085  0.808781  0.809305  1
  Er  Er10  1  0.810491  0.194866  0.809244  1
  Er  Er11  1  0.809802  0.189844  0.189663  1
  Er  Er12  1  0.810824  0.808980  0.194793  1
  Er  Er13  1  0.062427  0.438077  0.437718  1
  Er  Er14  1  0.441295  0.434696  0.061873  1
  Er  Er15  1  0.061890  0.434980  0.061170  1
  In  In16  1  0.750195  0.416860  0.416786  1
  In  In17  1  0.416534  0.417338  0.749539  1
  In  In18  1  0.416655  0.749212  0.417415  1
  In  In19  1  0.416031  0.416754  0.416727  1
  Ir  Ir20  1  0.856482  0.860393  0.426897  1
  Ir  Ir21  1  0.856393  0.426969  0.860502  1
  Pd  Pd22  1  0.855185  0.858225  0.858347  1
  Pd  Pd23  1  0.428351  0.858322  0.858447  1
