# generated using pymatgen
data_Sc22FeIr6Pt
_symmetry_space_group_name_H-M   'P 1'
_cell_length_a   9.47463054
_cell_length_b   9.47463036
_cell_length_c   9.52379600
_cell_angle_alpha   59.82820107
_cell_angle_beta   59.82820170
_cell_angle_gamma   59.46401416
_symmetry_Int_Tables_number   1
_chemical_formula_structural   Sc22FeIr6Pt
_chemical_formula_sum   'Sc22 Fe1 Ir6 Pt1'
_cell_volume   600.49026579
_cell_formula_units_Z   1
loop_
 _symmetry_equiv_pos_site_id
 _symmetry_equiv_pos_as_xyz
  1  'x, y, z'
loop_
 _atom_site_type_symbol
 _atom_site_label
 _atom_site_symmetry_multiplicity
 _atom_site_fract_x
 _atom_site_fract_y
 _atom_site_fract_z
 _atom_site_occupancy
  Sc  Sc0  1  0.802127  0.802127  0.197873  1
  Sc  Sc1  1  0.198358  0.801642  0.197650  1
  Sc  Sc2  1  0.801642  0.198358  0.197650  1
  Sc  Sc3  1  0.197873  0.197873  0.802127  1
  Sc  Sc4  1  0.801642  0.198358  0.802350  1
  Sc  Sc5  1  0.198358  0.801642  0.802350  1
  Sc  Sc6  1  0.614209  0.614209  0.156247  1
  Sc  Sc7  1  0.612395  0.155338  0.616134  1
  Sc  Sc8  1  0.155338  0.612395  0.616134  1
  Sc  Sc9  1  0.614209  0.614209  0.615335  1
  Sc  Sc10  1  0.385791  0.385791  0.843753  1
  Sc  Sc11  1  0.387605  0.844662  0.383866  1
  Sc  Sc12  1  0.844662  0.387605  0.383866  1
  Sc  Sc13  1  0.385791  0.385791  0.384665  1
  Sc  Sc14  1  0.839641  0.839641  0.473433  1
  Sc  Sc15  1  0.840582  0.473226  0.843096  1
  Sc  Sc16  1  0.473226  0.840582  0.843096  1
  Sc  Sc17  1  0.839641  0.839641  0.847285  1
  Sc  Sc18  1  0.160359  0.160359  0.526567  1
  Sc  Sc19  1  0.159418  0.526774  0.156904  1
  Sc  Sc20  1  0.526774  0.159418  0.156904  1
  Sc  Sc21  1  0.160359  0.160359  0.152715  1
  Fe  Fe22  1  0.500000  0.500000  0.500000  1
  Ir  Ir23  1  0.000000  0.000000  0.000000  1
  Ir  Ir24  1  0.500000  0.000000  0.500000  1
  Ir  Ir25  1  0.000000  0.500000  0.500000  1
  Ir  Ir26  1  0.500000  0.500000  0.000000  1
  Ir  Ir27  1  0.000000  0.500000  0.000000  1
  Ir  Ir28  1  0.500000  0.000000  0.000000  1
  Pt  Pt29  1  0.000000  0.000000  0.500000  1
