# generated using pymatgen
data_K3Rb(Te4Pd3)2
_symmetry_space_group_name_H-M   'P 1'
_cell_length_a   15.36364790
_cell_length_b   14.58037748
_cell_length_c   6.85677923
_cell_angle_alpha   83.23277221
_cell_angle_beta   70.45965358
_cell_angle_gamma   26.31213410
_symmetry_Int_Tables_number   1
_chemical_formula_structural   K3Rb(Te4Pd3)2
_chemical_formula_sum   'K3 Rb1 Te8 Pd6'
_cell_volume   577.53957962
_cell_formula_units_Z   1
loop_
 _symmetry_equiv_pos_site_id
 _symmetry_equiv_pos_as_xyz
  1  'x, y, z'
loop_
 _atom_site_type_symbol
 _atom_site_label
 _atom_site_symmetry_multiplicity
 _atom_site_fract_x
 _atom_site_fract_y
 _atom_site_fract_z
 _atom_site_occupancy
  K  K0  1  0.930308  0.930307  0.069692  1
  K  K1  1  0.319495  0.319496  0.180505  1
  K  K2  1  0.180593  0.180594  0.319407  1
  Rb  Rb3  1  0.069799  0.069798  0.930202  1
  Te  Te4  1  0.388336  0.735883  0.277683  1
  Te  Te5  1  0.277679  0.597577  0.388160  1
  Te  Te6  1  0.652349  0.972441  0.513422  1
  Te  Te7  1  0.735883  0.388337  0.598098  1
  Te  Te8  1  0.515205  0.860688  0.651480  1
  Te  Te9  1  0.597576  0.277679  0.736586  1
  Te  Te10  1  0.972442  0.652348  0.861789  1
  Te  Te11  1  0.860689  0.515205  0.972626  1
  Pd  Pd12  1  0.748957  0.748956  0.251044  1
  Pd  Pd13  1  0.499745  0.499744  0.500256  1
  Pd  Pd14  1  0.998659  0.998660  0.501341  1
  Pd  Pd15  1  0.251135  0.251134  0.748866  1
  Pd  Pd16  1  0.750177  0.750178  0.749823  1
  Pd  Pd17  1  0.500975  0.500976  0.999025  1
