# generated using pymatgen
data_Yb5Y2Ho3Ru4
_symmetry_space_group_name_H-M   'P 1'
_cell_length_a   6.41703738
_cell_length_b   7.26265846
_cell_length_c   8.53192327
_cell_angle_alpha   96.91239168
_cell_angle_beta   112.89706337
_cell_angle_gamma   90.34854875
_symmetry_Int_Tables_number   1
_chemical_formula_structural   Yb5Y2Ho3Ru4
_chemical_formula_sum   'Yb5 Y2 Ho3 Ru4'
_cell_volume   363.02559757
_cell_formula_units_Z   1
loop_
 _symmetry_equiv_pos_site_id
 _symmetry_equiv_pos_as_xyz
  1  'x, y, z'
loop_
 _atom_site_type_symbol
 _atom_site_label
 _atom_site_symmetry_multiplicity
 _atom_site_fract_x
 _atom_site_fract_y
 _atom_site_fract_z
 _atom_site_occupancy
  Yb  Yb0  1  0.977161  0.920250  0.178964  1
  Yb  Yb1  1  0.796092  0.579776  0.820106  1
  Yb  Yb2  1  0.021515  0.080667  0.821007  1
  Yb  Yb3  1  0.204472  0.418793  0.182075  1
  Yb  Yb4  1  0.639859  0.816455  0.435896  1
  Y  Y5  1  0.203052  0.681931  0.565632  1
  Y  Y6  1  0.367682  0.181980  0.565833  1
  Ho  Ho7  1  0.797783  0.317585  0.431170  1
  Ho  Ho8  1  0.432952  0.750793  0.002158  1
  Ho  Ho9  1  0.565197  0.251241  0.000932  1
  Ru  Ru10  1  0.822006  0.569264  0.223394  1
  Ru  Ru11  1  0.587041  0.926707  0.782889  1
  Ru  Ru12  1  0.176846  0.424643  0.766117  1
  Ru  Ru13  1  0.408341  0.079917  0.223828  1
