# generated using pymatgen
data_CePr2Bi3
_symmetry_space_group_name_H-M   'P 1'
_cell_length_a   4.65542600
_cell_length_b   4.65542534
_cell_length_c   11.34115100
_cell_angle_alpha   90.00000000
_cell_angle_beta   90.00000000
_cell_angle_gamma   119.99999046
_symmetry_Int_Tables_number   1
_chemical_formula_structural   CePr2Bi3
_chemical_formula_sum   'Ce1 Pr2 Bi3'
_cell_volume   212.86614759
_cell_formula_units_Z   1
loop_
 _symmetry_equiv_pos_site_id
 _symmetry_equiv_pos_as_xyz
  1  'x, y, z'
loop_
 _atom_site_type_symbol
 _atom_site_label
 _atom_site_symmetry_multiplicity
 _atom_site_fract_x
 _atom_site_fract_y
 _atom_site_fract_z
 _atom_site_occupancy
  Ce  Ce0  1  0.000000  0.000000  0.000000  1
  Pr  Pr1  1  0.333333  0.666667  0.666134  1
  Pr  Pr2  1  0.666667  0.333333  0.333866  1
  Bi  Bi3  1  0.333333  0.666667  0.162864  1
  Bi  Bi4  1  0.666667  0.333333  0.837136  1
  Bi  Bi5  1  0.000000  0.000000  0.500000  1
