# generated using pymatgen
data_Y4Al17SiNiIr5
_symmetry_space_group_name_H-M   'P 1'
_cell_length_a   7.53435758
_cell_length_b   7.53186546
_cell_length_c   9.40264689
_cell_angle_alpha   89.94252142
_cell_angle_beta   89.85746944
_cell_angle_gamma   119.54184360
_symmetry_Int_Tables_number   1
_chemical_formula_structural   Y4Al17SiNiIr5
_chemical_formula_sum   'Y4 Al17 Si1 Ni1 Ir5'
_cell_volume   464.20874280
_cell_formula_units_Z   1
loop_
 _symmetry_equiv_pos_site_id
 _symmetry_equiv_pos_as_xyz
  1  'x, y, z'
loop_
 _atom_site_type_symbol
 _atom_site_label
 _atom_site_symmetry_multiplicity
 _atom_site_fract_x
 _atom_site_fract_y
 _atom_site_fract_z
 _atom_site_occupancy
  Y  Y0  1  0.995698  0.678875  0.249965  1
  Y  Y1  1  0.005075  0.329738  0.750180  1
  Y  Y2  1  0.675363  0.992310  0.249698  1
  Y  Y3  1  0.327325  0.002372  0.750035  1
  Al  Al4  1  0.872159  0.871985  0.750680  1
  Al  Al5  1  0.996590  0.337512  0.076509  1
  Al  Al6  1  0.996281  0.663858  0.925679  1
  Al  Al7  1  0.997830  0.663940  0.574558  1
  Al  Al8  1  0.338699  0.002039  0.423635  1
  Al  Al9  1  0.000163  0.336791  0.423043  1
  Al  Al10  1  0.665319  0.998853  0.575074  1
  Al  Al11  1  0.665084  0.003052  0.925378  1
  Al  Al12  1  0.339138  0.004059  0.075947  1
  Al  Al13  1  0.332782  0.332031  0.555077  1
  Al  Al14  1  0.664042  0.663214  0.449064  1
  Al  Al15  1  0.663347  0.662415  0.051577  1
  Al  Al16  1  0.333438  0.332855  0.943969  1
  Al  Al17  1  0.336908  0.547603  0.249583  1
  Al  Al18  1  0.660704  0.447817  0.753228  1
  Al  Al19  1  0.554845  0.337493  0.246784  1
  Al  Al20  1  0.452761  0.660407  0.750509  1
  Si  Si21  1  0.132803  0.133117  0.249523  1
  Ni  Ni22  1  0.669526  0.327570  0.000400  1
  Ir  Ir23  1  0.326049  0.671005  0.000479  1
  Ir  Ir24  1  0.326941  0.669885  0.499651  1
  Ir  Ir25  1  0.670154  0.326893  0.499789  1
  Ir  Ir26  1  0.000106  0.001867  0.006882  1
  Ir  Ir27  1  0.000870  0.000446  0.493103  1
