# generated using pymatgen
data_Dy2YZr(Al3Ir)6
_symmetry_space_group_name_H-M   'P 1'
_cell_length_a   7.54404124
_cell_length_b   7.53411267
_cell_length_c   9.42441300
_cell_angle_alpha   90.00000000
_cell_angle_beta   90.00000000
_cell_angle_gamma   119.63233482
_symmetry_Int_Tables_number   1
_chemical_formula_structural   Dy2YZr(Al3Ir)6
_chemical_formula_sum   'Dy2 Y1 Zr1 Al18 Ir6'
_cell_volume   465.60560906
_cell_formula_units_Z   1
loop_
 _symmetry_equiv_pos_site_id
 _symmetry_equiv_pos_as_xyz
  1  'x, y, z'
loop_
 _atom_site_type_symbol
 _atom_site_label
 _atom_site_symmetry_multiplicity
 _atom_site_fract_x
 _atom_site_fract_y
 _atom_site_fract_z
 _atom_site_occupancy
  Dy  Dy0  1  0.670658  0.995558  0.750000  1
  Dy  Dy1  1  0.329504  0.006317  0.250000  1
  Y  Y2  1  0.005570  0.327917  0.250000  1
  Zr  Zr3  1  0.996659  0.671736  0.750000  1
  Al  Al4  1  0.125603  0.122986  0.750000  1
  Al  Al5  1  0.871106  0.869676  0.250000  1
  Al  Al6  1  0.000345  0.337682  0.578364  1
  Al  Al7  1  0.999330  0.665217  0.429903  1
  Al  Al8  1  0.999330  0.665217  0.070097  1
  Al  Al9  1  0.332284  0.998269  0.921581  1
  Al  Al10  1  0.000345  0.337682  0.921636  1
  Al  Al11  1  0.664686  0.998204  0.074239  1
  Al  Al12  1  0.664686  0.998204  0.425761  1
  Al  Al13  1  0.332284  0.998269  0.578419  1
  Al  Al14  1  0.333879  0.333900  0.050696  1
  Al  Al15  1  0.668840  0.666876  0.943900  1
  Al  Al16  1  0.668840  0.666876  0.556100  1
  Al  Al17  1  0.333879  0.333900  0.449304  1
  Al  Al18  1  0.335748  0.549170  0.750000  1
  Al  Al19  1  0.660918  0.452527  0.250000  1
  Al  Al20  1  0.554650  0.344153  0.750000  1
  Al  Al21  1  0.451334  0.659903  0.250000  1
  Ir  Ir22  1  0.672203  0.328121  0.500755  1
  Ir  Ir23  1  0.327999  0.672249  0.501454  1
  Ir  Ir24  1  0.327999  0.672249  0.998546  1
  Ir  Ir25  1  0.672203  0.328121  0.999245  1
  Ir  Ir26  1  0.999560  0.999508  0.500708  1
  Ir  Ir27  1  0.999560  0.999508  0.999292  1
