# generated using pymatgen
data_Np(S4Br3)2
_symmetry_space_group_name_H-M   'P 1'
_cell_length_a   9.06488629
_cell_length_b   9.08401711
_cell_length_c   16.03109730
_cell_angle_alpha   94.94612230
_cell_angle_beta   98.32073851
_cell_angle_gamma   90.02656776
_symmetry_Int_Tables_number   1
_chemical_formula_structural   Np(S4Br3)2
_chemical_formula_sum   'Np2 S16 Br12'
_cell_volume   1301.21795866
_cell_formula_units_Z   2
loop_
 _symmetry_equiv_pos_site_id
 _symmetry_equiv_pos_as_xyz
  1  'x, y, z'
loop_
 _atom_site_type_symbol
 _atom_site_label
 _atom_site_symmetry_multiplicity
 _atom_site_fract_x
 _atom_site_fract_y
 _atom_site_fract_z
 _atom_site_occupancy
  Np  Np0  1  0.712465  0.223506  0.892027  1
  Np  Np1  1  0.287535  0.776494  0.107973  1
  S  S2  1  0.410274  0.745983  0.654272  1
  S  S3  1  0.589726  0.254017  0.345728  1
  S  S4  1  0.262428  0.886144  0.591510  1
  S  S5  1  0.737572  0.113856  0.408490  1
  S  S6  1  0.094785  0.941034  0.662666  1
  S  S7  1  0.905215  0.058966  0.337334  1
  S  S8  1  0.911469  0.805169  0.621595  1
  S  S9  1  0.088531  0.194831  0.378405  1
  S  S10  1  0.914216  0.631200  0.696621  1
  S  S11  1  0.085784  0.368800  0.303379  1
  S  S12  1  0.006513  0.448832  0.638996  1
  S  S13  1  0.993487  0.551168  0.361004  1
  S  S14  1  0.229030  0.436369  0.687935  1
  S  S15  1  0.770970  0.563631  0.312065  1
  S  S16  1  0.642496  0.470148  0.390582  1
  S  S17  1  0.357504  0.529852  0.609418  1
  Br  Br18  1  0.752427  0.250238  0.058481  1
  Br  Br19  1  0.247573  0.749762  0.941519  1
  Br  Br20  1  0.672766  0.196359  0.725376  1
  Br  Br21  1  0.327234  0.803641  0.274624  1
  Br  Br22  1  0.433717  0.142341  0.889389  1
  Br  Br23  1  0.566283  0.857659  0.110611  1
  Br  Br24  1  0.631517  0.500838  0.891383  1
  Br  Br25  1  0.368483  0.499162  0.108617  1
  Br  Br26  1  0.991281  0.305545  0.895071  1
  Br  Br27  1  0.008719  0.694455  0.104929  1
  Br  Br28  1  0.793726  0.946270  0.892898  1
  Br  Br29  1  0.206274  0.053730  0.107102  1
