# generated using pymatgen
data_Tm3Al5Pt
_symmetry_space_group_name_H-M   'P 1'
_cell_length_a   6.98510100
_cell_length_b   6.98510046
_cell_length_c   4.28139200
_cell_angle_alpha   90.00000000
_cell_angle_beta   90.00000000
_cell_angle_gamma   120.00000730
_symmetry_Int_Tables_number   1
_chemical_formula_structural   Tm3Al5Pt
_chemical_formula_sum   'Tm3 Al5 Pt1'
_cell_volume   180.90931930
_cell_formula_units_Z   1
loop_
 _symmetry_equiv_pos_site_id
 _symmetry_equiv_pos_as_xyz
  1  'x, y, z'
loop_
 _atom_site_type_symbol
 _atom_site_label
 _atom_site_symmetry_multiplicity
 _atom_site_fract_x
 _atom_site_fract_y
 _atom_site_fract_z
 _atom_site_occupancy
  Tm  Tm0  1  0.587051  0.000000  0.000000  1
  Tm  Tm1  1  0.000000  0.587051  0.000000  1
  Tm  Tm2  1  0.412949  0.412949  0.000000  1
  Al  Al3  1  0.234427  0.000000  0.500000  1
  Al  Al4  1  0.000000  0.234427  0.500000  1
  Al  Al5  1  0.765573  0.765573  0.500000  1
  Al  Al6  1  0.333333  0.666667  0.500000  1
  Al  Al7  1  0.666667  0.333333  0.500000  1
  Pt  Pt8  1  0.000000  0.000000  0.000000  1
