# generated using pymatgen
data_Lu4HfIr3F28
_symmetry_space_group_name_H-M   'P 1'
_cell_length_a   5.53621366
_cell_length_b   8.79282426
_cell_length_c   11.79864092
_cell_angle_alpha   63.03272544
_cell_angle_beta   89.91966939
_cell_angle_gamma   90.02154053
_symmetry_Int_Tables_number   1
_chemical_formula_structural   Lu4HfIr3F28
_chemical_formula_sum   'Lu4 Hf1 Ir3 F28'
_cell_volume   511.89359826
_cell_formula_units_Z   1
loop_
 _symmetry_equiv_pos_site_id
 _symmetry_equiv_pos_as_xyz
  1  'x, y, z'
loop_
 _atom_site_type_symbol
 _atom_site_label
 _atom_site_symmetry_multiplicity
 _atom_site_fract_x
 _atom_site_fract_y
 _atom_site_fract_z
 _atom_site_occupancy
  Lu  Lu0  1  0.257654  0.813313  0.272979  1
  Lu  Lu1  1  0.739143  0.184520  0.734333  1
  Lu  Lu2  1  0.762400  0.184236  0.235859  1
  Lu  Lu3  1  0.240582  0.816946  0.761973  1
  Hf  Hf4  1  0.754472  0.725806  0.044889  1
  Ir  Ir5  1  0.240928  0.272883  0.953873  1
  Ir  Ir6  1  0.258832  0.271832  0.456759  1
  Ir  Ir7  1  0.743472  0.725759  0.545938  1
  F  F8  1  0.946343  0.704650  0.416621  1
  F  F9  1  0.050232  0.294901  0.582762  1
  F  F10  1  0.443021  0.296543  0.080316  1
  F  F11  1  0.527410  0.708978  0.919993  1
  F  F12  1  0.482202  0.733777  0.153946  1
  F  F13  1  0.528370  0.275643  0.852100  1
  F  F14  1  0.971599  0.266458  0.359764  1
  F  F15  1  0.033936  0.730666  0.640688  1
  F  F16  1  0.974265  0.752475  0.171196  1
  F  F17  1  0.043677  0.251576  0.823915  1
  F  F18  1  0.462295  0.251835  0.325990  1
  F  F19  1  0.545423  0.745888  0.677804  1
  F  F20  1  0.771466  0.471546  0.143079  1
  F  F21  1  0.224481  0.519565  0.854630  1
  F  F22  1  0.264582  0.520338  0.359518  1
  F  F23  1  0.737559  0.478502  0.642298  1
  F  F24  1  0.942437  0.273716  0.049222  1
  F  F25  1  0.048960  0.721579  0.945840  1
  F  F26  1  0.444749  0.716881  0.456324  1
  F  F27  1  0.554328  0.282112  0.547337  1
  F  F28  1  0.742701  0.973099  0.451576  1
  F  F29  1  0.261584  0.023380  0.549456  1
  F  F30  1  0.250803  0.026545  0.050172  1
  F  F31  1  0.757374  0.979236  0.940286  1
  F  F32  1  0.568578  0.976610  0.236582  1
  F  F33  1  0.425002  0.027068  0.763173  1
  F  F34  1  0.073092  0.025212  0.269227  1
  F  F35  1  0.926042  0.975925  0.729582  1
