# generated using pymatgen
data_MoF18
_symmetry_space_group_name_H-M   'P 1'
_cell_length_a   5.85743597
_cell_length_b   9.37752285
_cell_length_c   13.56166100
_cell_angle_alpha   101.85032987
_cell_angle_beta   93.26313484
_cell_angle_gamma   102.74165111
_symmetry_Int_Tables_number   1
_chemical_formula_structural   MoF18
_chemical_formula_sum   'Mo2 F36'
_cell_volume   707.00074063
_cell_formula_units_Z   2
loop_
 _symmetry_equiv_pos_site_id
 _symmetry_equiv_pos_as_xyz
  1  'x, y, z'
loop_
 _atom_site_type_symbol
 _atom_site_label
 _atom_site_symmetry_multiplicity
 _atom_site_fract_x
 _atom_site_fract_y
 _atom_site_fract_z
 _atom_site_occupancy
  Mo  Mo0  1  0.165322  0.990366  0.279708  1
  Mo  Mo1  1  0.834678  0.009634  0.720292  1
  F  F2  1  0.673266  0.638621  0.372723  1
  F  F3  1  0.326734  0.361379  0.627277  1
  F  F4  1  0.015361  0.388284  0.365334  1
  F  F5  1  0.984639  0.611716  0.634666  1
  F  F6  1  0.209153  0.886021  0.940853  1
  F  F7  1  0.790847  0.113979  0.059147  1
  F  F8  1  0.908692  0.073184  0.309110  1
  F  F9  1  0.091308  0.926816  0.690890  1
  F  F10  1  0.983465  0.802466  0.286577  1
  F  F11  1  0.016535  0.197534  0.713423  1
  F  F12  1  0.580280  0.509108  0.410560  1
  F  F13  1  0.419720  0.490892  0.589440  1
  F  F14  1  0.063282  0.956797  0.142043  1
  F  F15  1  0.936718  0.043203  0.857957  1
  F  F16  1  0.261748  0.034639  0.418583  1
  F  F17  1  0.738252  0.965361  0.581417  1
  F  F18  1  0.086531  0.404623  0.268573  1
  F  F19  1  0.913469  0.595377  0.731427  1
  F  F20  1  0.717396  0.670230  0.068509  1
  F  F21  1  0.282604  0.329770  0.931491  1
  F  F22  1  0.867282  0.598058  0.007436  1
  F  F23  1  0.132718  0.401942  0.992564  1
  F  F24  1  0.539351  0.578456  0.852110  1
  F  F25  1  0.460649  0.421544  0.147890  1
  F  F26  1  0.356494  0.174974  0.272987  1
  F  F27  1  0.643506  0.825026  0.727013  1
  F  F28  1  0.289150  0.802130  0.503468  1
  F  F29  1  0.710850  0.197870  0.496532  1
  F  F30  1  0.368907  0.831137  0.997914  1
  F  F31  1  0.631093  0.168863  0.002086  1
  F  F32  1  0.413293  0.898665  0.249558  1
  F  F33  1  0.586707  0.101335  0.750442  1
  F  F34  1  0.685869  0.410306  0.187067  1
  F  F35  1  0.314131  0.589694  0.812933  1
  F  F36  1  0.171606  0.648574  0.463149  1
  F  F37  1  0.828394  0.351426  0.536851  1
