# generated using pymatgen
data_YbTm3Ir8
_symmetry_space_group_name_H-M   'P 1'
_cell_length_a   5.33053200
_cell_length_b   5.33053189
_cell_length_c   8.67142200
_cell_angle_alpha   90.00000000
_cell_angle_beta   90.00000000
_cell_angle_gamma   120.00000069
_symmetry_Int_Tables_number   1
_chemical_formula_structural   YbTm3Ir8
_chemical_formula_sum   'Yb1 Tm3 Ir8'
_cell_volume   213.38409794
_cell_formula_units_Z   1
loop_
 _symmetry_equiv_pos_site_id
 _symmetry_equiv_pos_as_xyz
  1  'x, y, z'
loop_
 _atom_site_type_symbol
 _atom_site_label
 _atom_site_symmetry_multiplicity
 _atom_site_fract_x
 _atom_site_fract_y
 _atom_site_fract_z
 _atom_site_occupancy
  Yb  Yb0  1  0.666666  0.333334  0.935202  1
  Tm  Tm1  1  0.333334  0.666667  0.062905  1
  Tm  Tm2  1  0.333334  0.666667  0.431532  1
  Tm  Tm3  1  0.666666  0.333334  0.573473  1
  Ir  Ir4  1  0.000000  0.000000  0.999182  1
  Ir  Ir5  1  0.340503  0.170252  0.251042  1
  Ir  Ir6  1  0.829749  0.170252  0.251042  1
  Ir  Ir7  1  0.829747  0.659496  0.251042  1
  Ir  Ir8  1  0.000000  0.000000  0.499834  1
  Ir  Ir9  1  0.170162  0.340324  0.748248  1
  Ir  Ir10  1  0.170162  0.829837  0.748248  1
  Ir  Ir11  1  0.659675  0.829837  0.748248  1
