# generated using pymatgen
data_CaCdGePd3
_symmetry_space_group_name_H-M   'P 1'
_cell_length_a   5.17477029
_cell_length_b   5.17476990
_cell_length_c   5.17476996
_cell_angle_alpha   65.61329090
_cell_angle_beta   65.61329537
_cell_angle_gamma   65.61329608
_symmetry_Int_Tables_number   1
_chemical_formula_structural   CaCdGePd3
_chemical_formula_sum   'Ca1 Cd1 Ge1 Pd3'
_cell_volume   109.92976616
_cell_formula_units_Z   1
loop_
 _symmetry_equiv_pos_site_id
 _symmetry_equiv_pos_as_xyz
  1  'x, y, z'
loop_
 _atom_site_type_symbol
 _atom_site_label
 _atom_site_symmetry_multiplicity
 _atom_site_fract_x
 _atom_site_fract_y
 _atom_site_fract_z
 _atom_site_occupancy
  Ca  Ca0  1  0.125359  0.125359  0.125359  1
  Cd  Cd1  1  0.870835  0.870835  0.870835  1
  Ge  Ge2  1  0.500695  0.500695  0.500695  1
  Pd  Pd3  1  0.501725  0.501725  0.999661  1
  Pd  Pd4  1  0.999661  0.501725  0.501725  1
  Pd  Pd5  1  0.501725  0.999661  0.501725  1
