# generated using pymatgen
data_GdTa3(MnH6)2
_symmetry_space_group_name_H-M   'P 1'
_cell_length_a   6.02994200
_cell_length_b   6.02993931
_cell_length_c   4.51271000
_cell_angle_alpha   90.00000000
_cell_angle_beta   90.00000000
_cell_angle_gamma   119.99999283
_symmetry_Int_Tables_number   1
_chemical_formula_structural   GdTa3(MnH6)2
_chemical_formula_sum   'Gd1 Ta3 Mn2 H12'
_cell_volume   142.10002820
_cell_formula_units_Z   1
loop_
 _symmetry_equiv_pos_site_id
 _symmetry_equiv_pos_as_xyz
  1  'x, y, z'
loop_
 _atom_site_type_symbol
 _atom_site_label
 _atom_site_symmetry_multiplicity
 _atom_site_fract_x
 _atom_site_fract_y
 _atom_site_fract_z
 _atom_site_occupancy
  Gd  Gd0  1  0.000000  0.000000  0.000000  1
  Ta  Ta1  1  0.500000  0.000000  0.500000  1
  Ta  Ta2  1  0.000000  0.500000  0.500000  1
  Ta  Ta3  1  0.500000  0.500000  0.500000  1
  Mn  Mn4  1  0.666667  0.333333  0.000000  1
  Mn  Mn5  1  0.333333  0.666667  0.000000  1
  H  H6  1  0.797838  0.595677  0.764162  1
  H  H7  1  0.202162  0.404323  0.235838  1
  H  H8  1  0.202162  0.797838  0.235838  1
  H  H9  1  0.797838  0.202162  0.235838  1
  H  H10  1  0.595677  0.797838  0.235838  1
  H  H11  1  0.404323  0.202162  0.235838  1
  H  H12  1  0.404323  0.202162  0.764162  1
  H  H13  1  0.202162  0.404323  0.764162  1
  H  H14  1  0.797838  0.202162  0.764162  1
  H  H15  1  0.595677  0.797838  0.764162  1
  H  H16  1  0.797838  0.595677  0.235838  1
  H  H17  1  0.202162  0.797838  0.764162  1
