# generated using pymatgen
data_Ho5CoAsO12
_symmetry_space_group_name_H-M   'P 1'
_cell_length_a   6.73630860
_cell_length_b   6.73630777
_cell_length_c   7.16669571
_cell_angle_alpha   74.52618143
_cell_angle_beta   74.52617943
_cell_angle_gamma   50.55218155
_symmetry_Int_Tables_number   1
_chemical_formula_structural   Ho5CoAsO12
_chemical_formula_sum   'Ho5 Co1 As1 O12'
_cell_volume   239.94832792
_cell_formula_units_Z   1
loop_
 _symmetry_equiv_pos_site_id
 _symmetry_equiv_pos_as_xyz
  1  'x, y, z'
loop_
 _atom_site_type_symbol
 _atom_site_label
 _atom_site_symmetry_multiplicity
 _atom_site_fract_x
 _atom_site_fract_y
 _atom_site_fract_z
 _atom_site_occupancy
  Ho  Ho0  1  0.298668  0.307986  0.358327  1
  Ho  Ho1  1  0.692014  0.701332  0.641673  1
  Ho  Ho2  1  0.302804  0.308060  0.835003  1
  Ho  Ho3  1  0.691940  0.697196  0.164997  1
  Ho  Ho4  1  0.999378  0.000622  0.500000  1
  Co  Co5  1  0.249480  0.750520  0.000000  1
  As  As6  1  0.762719  0.237281  0.000000  1
  O  O7  1  0.898632  0.416217  0.921414  1
  O  O8  1  0.419078  0.900960  0.920946  1
  O  O9  1  0.099040  0.580922  0.079054  1
  O  O10  1  0.583783  0.101368  0.078586  1
  O  O11  1  0.095241  0.598856  0.576826  1
  O  O12  1  0.596010  0.099745  0.575584  1
  O  O13  1  0.900255  0.403990  0.424416  1
  O  O14  1  0.401144  0.904759  0.423174  1
  O  O15  1  0.997882  0.002860  0.824379  1
  O  O16  1  0.997140  0.002118  0.175621  1
  O  O17  1  0.507409  0.492617  0.824170  1
  O  O18  1  0.507383  0.492591  0.175830  1
