# generated using pymatgen
data_Ho4Al5Re2Mo
_symmetry_space_group_name_H-M   'P 1'
_cell_length_a   5.58092500
_cell_length_b   5.53822510
_cell_length_c   8.77810000
_cell_angle_alpha   90.00000000
_cell_angle_beta   90.00000000
_cell_angle_gamma   120.25536928
_symmetry_Int_Tables_number   1
_chemical_formula_structural   Ho4Al5Re2Mo
_chemical_formula_sum   'Ho4 Al5 Re2 Mo1'
_cell_volume   234.36061395
_cell_formula_units_Z   1
loop_
 _symmetry_equiv_pos_site_id
 _symmetry_equiv_pos_as_xyz
  1  'x, y, z'
loop_
 _atom_site_type_symbol
 _atom_site_label
 _atom_site_symmetry_multiplicity
 _atom_site_fract_x
 _atom_site_fract_y
 _atom_site_fract_z
 _atom_site_occupancy
  Ho  Ho0  1  0.667985  0.335970  0.052696  1
  Ho  Ho1  1  0.667985  0.335970  0.447304  1
  Ho  Ho2  1  0.332536  0.665072  0.555630  1
  Ho  Ho3  1  0.332536  0.665072  0.944370  1
  Al  Al4  1  0.153202  0.815677  0.250000  1
  Al  Al5  1  0.662475  0.815677  0.250000  1
  Al  Al6  1  0.324624  0.164041  0.750000  1
  Al  Al7  1  0.839416  0.164041  0.750000  1
  Al  Al8  1  0.839110  0.678220  0.750000  1
  Re  Re9  1  0.009984  0.019969  0.008705  1
  Re  Re10  1  0.009984  0.019969  0.491295  1
  Mo  Mo11  1  0.160158  0.320317  0.250000  1
