# generated using pymatgen
data_Tb14Dy2MgHg3Ir4
_symmetry_space_group_name_H-M   'P 1'
_cell_length_a   9.66142501
_cell_length_b   9.67094934
_cell_length_c   9.67094923
_cell_angle_alpha   59.85985505
_cell_angle_beta   59.92000667
_cell_angle_gamma   59.92000516
_symmetry_Int_Tables_number   1
_chemical_formula_structural   Tb14Dy2MgHg3Ir4
_chemical_formula_sum   'Tb14 Dy2 Mg1 Hg3 Ir4'
_cell_volume   637.49568873
_cell_formula_units_Z   1
loop_
 _symmetry_equiv_pos_site_id
 _symmetry_equiv_pos_as_xyz
  1  'x, y, z'
loop_
 _atom_site_type_symbol
 _atom_site_label
 _atom_site_symmetry_multiplicity
 _atom_site_fract_x
 _atom_site_fract_y
 _atom_site_fract_z
 _atom_site_occupancy
  Tb  Tb0  1  0.062650  0.439558  0.060051  1
  Tb  Tb1  1  0.055197  0.647788  0.647788  1
  Tb  Tb2  1  0.651023  0.652366  0.652366  1
  Tb  Tb3  1  0.062650  0.060051  0.439558  1
  Tb  Tb4  1  0.191969  0.810542  0.191032  1
  Tb  Tb5  1  0.812280  0.810813  0.188943  1
  Tb  Tb6  1  0.812280  0.188943  0.810813  1
  Tb  Tb7  1  0.439323  0.060242  0.437528  1
  Tb  Tb8  1  0.439323  0.437528  0.060242  1
  Tb  Tb9  1  0.440197  0.061261  0.061261  1
  Tb  Tb10  1  0.062206  0.438147  0.438147  1
  Tb  Tb11  1  0.191969  0.191032  0.810542  1
  Tb  Tb12  1  0.649234  0.650682  0.046628  1
  Tb  Tb13  1  0.649234  0.046628  0.650682  1
  Dy  Dy14  1  0.192302  0.808514  0.808514  1
  Dy  Dy15  1  0.814298  0.188674  0.188674  1
  Mg  Mg16  1  0.717778  0.427940  0.427940  1
  Hg  Hg17  1  0.417740  0.413128  0.756581  1
  Hg  Hg18  1  0.417740  0.756581  0.413128  1
  Hg  Hg19  1  0.418254  0.413482  0.413482  1
  Ir  Ir20  1  0.858797  0.857189  0.424613  1
  Ir  Ir21  1  0.858797  0.424613  0.857189  1
  Ir  Ir22  1  0.860600  0.857062  0.857062  1
  Ir  Ir23  1  0.424162  0.857236  0.857236  1
