# generated using pymatgen
data_Ca4Fe3RuO12
_symmetry_space_group_name_H-M   'P 1'
_cell_length_a   5.41289109
_cell_length_b   5.53695840
_cell_length_c   7.73683390
_cell_angle_alpha   89.95578219
_cell_angle_beta   89.99426480
_cell_angle_gamma   89.82597717
_symmetry_Int_Tables_number   1
_chemical_formula_structural   Ca4Fe3RuO12
_chemical_formula_sum   'Ca4 Fe3 Ru1 O12'
_cell_volume   231.87914349
_cell_formula_units_Z   1
loop_
 _symmetry_equiv_pos_site_id
 _symmetry_equiv_pos_as_xyz
  1  'x, y, z'
loop_
 _atom_site_type_symbol
 _atom_site_label
 _atom_site_symmetry_multiplicity
 _atom_site_fract_x
 _atom_site_fract_y
 _atom_site_fract_z
 _atom_site_occupancy
  Ca  Ca0  1  0.513963  0.553174  0.762274  1
  Ca  Ca1  1  0.485818  0.446814  0.237707  1
  Ca  Ca2  1  0.992103  0.047252  0.764194  1
  Ca  Ca3  1  0.008091  0.952653  0.235845  1
  Fe  Fe4  1  0.999593  0.500054  0.999858  1
  Fe  Fe5  1  0.500396  0.000056  0.500027  1
  Fe  Fe6  1  0.500161  0.000002  0.000062  1
  Ru  Ru7  1  0.000294  0.499933  0.499879  1
  O  O8  1  0.417414  0.977236  0.746066  1
  O  O9  1  0.909276  0.526351  0.259769  1
  O  O10  1  0.090585  0.473609  0.740231  1
  O  O11  1  0.582622  0.022750  0.253987  1
  O  O12  1  0.206904  0.213699  0.042509  1
  O  O13  1  0.190009  0.209475  0.450246  1
  O  O14  1  0.714026  0.292542  0.957416  1
  O  O15  1  0.810127  0.790527  0.549833  1
  O  O16  1  0.293399  0.695514  0.453655  1
  O  O17  1  0.792886  0.786323  0.957472  1
  O  O18  1  0.706600  0.304519  0.546418  1
  O  O19  1  0.285732  0.707518  0.042550  1
