# generated using pymatgen
data_NaLa6OsBr12
_symmetry_space_group_name_H-M   'P 1'
_cell_length_a   9.73809349
_cell_length_b   9.76455627
_cell_length_c   9.72502830
_cell_angle_alpha   107.21660040
_cell_angle_beta   107.34690784
_cell_angle_gamma   107.15557593
_symmetry_Int_Tables_number   1
_chemical_formula_structural   NaLa6OsBr12
_chemical_formula_sum   'Na1 La6 Os1 Br12'
_cell_volume   765.03507716
_cell_formula_units_Z   1
loop_
 _symmetry_equiv_pos_site_id
 _symmetry_equiv_pos_as_xyz
  1  'x, y, z'
loop_
 _atom_site_type_symbol
 _atom_site_label
 _atom_site_symmetry_multiplicity
 _atom_site_fract_x
 _atom_site_fract_y
 _atom_site_fract_z
 _atom_site_occupancy
  Na  Na0  1  0.500000  0.500000  0.500000  1
  La  La1  1  0.114129  0.322186  0.030150  1
  La  La2  1  0.317884  0.029758  0.112708  1
  La  La3  1  0.029981  0.112526  0.319021  1
  La  La4  1  0.970018  0.887474  0.680979  1
  La  La5  1  0.682116  0.970241  0.887291  1
  La  La6  1  0.885871  0.677814  0.969850  1
  Os  Os7  1  0.000000  0.000000  0.000000  1
  Br  Br8  1  0.213658  0.682740  0.070088  1
  Br  Br9  1  0.453637  0.371024  0.158420  1
  Br  Br10  1  0.683092  0.071264  0.215210  1
  Br  Br11  1  0.929098  0.786213  0.317547  1
  Br  Br12  1  0.158387  0.453801  0.371539  1
  Br  Br13  1  0.371713  0.158817  0.454431  1
  Br  Br14  1  0.628287  0.841183  0.545569  1
  Br  Br15  1  0.841612  0.546199  0.628461  1
  Br  Br16  1  0.070903  0.213788  0.682454  1
  Br  Br17  1  0.316909  0.928737  0.784790  1
  Br  Br18  1  0.546362  0.628975  0.841580  1
  Br  Br19  1  0.786342  0.317261  0.929912  1
