# generated using pymatgen
data_Tb2LuSc2Pb3
_symmetry_space_group_name_H-M   'P 1'
_cell_length_a   8.88473376
_cell_length_b   8.86312043
_cell_length_c   6.36483700
_cell_angle_alpha   90.00000000
_cell_angle_beta   90.00000000
_cell_angle_gamma   119.91957007
_symmetry_Int_Tables_number   1
_chemical_formula_structural   Tb2LuSc2Pb3
_chemical_formula_sum   'Tb4 Lu2 Sc4 Pb6'
_cell_volume   434.41058294
_cell_formula_units_Z   2
loop_
 _symmetry_equiv_pos_site_id
 _symmetry_equiv_pos_as_xyz
  1  'x, y, z'
loop_
 _atom_site_type_symbol
 _atom_site_label
 _atom_site_symmetry_multiplicity
 _atom_site_fract_x
 _atom_site_fract_y
 _atom_site_fract_z
 _atom_site_occupancy
  Tb  Tb0  1  0.237996  0.999903  0.250000  1
  Tb  Tb1  1  0.237996  0.238093  0.750000  1
  Tb  Tb2  1  0.999104  0.763052  0.750000  1
  Tb  Tb3  1  0.999104  0.236052  0.250000  1
  Lu  Lu4  1  0.762819  0.763486  0.250000  1
  Lu  Lu5  1  0.762819  0.999334  0.750000  1
  Sc  Sc6  1  0.333197  0.666599  0.000000  1
  Sc  Sc7  1  0.667075  0.333537  0.500000  1
  Sc  Sc8  1  0.667075  0.333537  0.000000  1
  Sc  Sc9  1  0.333197  0.666599  0.500000  1
  Pb  Pb10  1  0.600673  0.998339  0.250000  1
  Pb  Pb11  1  0.600673  0.602334  0.750000  1
  Pb  Pb12  1  0.998283  0.397553  0.750000  1
  Pb  Pb13  1  0.998283  0.600730  0.250000  1
  Pb  Pb14  1  0.400852  0.401014  0.250000  1
  Pb  Pb15  1  0.400852  0.999838  0.750000  1
