# generated using pymatgen
data_Hf6BeSnSb
_symmetry_space_group_name_H-M   'P 1'
_cell_length_a   7.59975900
_cell_length_b   7.59975808
_cell_length_c   3.74368100
_cell_angle_alpha   90.00000000
_cell_angle_beta   90.00000000
_cell_angle_gamma   120.00000838
_symmetry_Int_Tables_number   1
_chemical_formula_structural   Hf6BeSnSb
_chemical_formula_sum   'Hf6 Be1 Sn1 Sb1'
_cell_volume   187.25310084
_cell_formula_units_Z   1
loop_
 _symmetry_equiv_pos_site_id
 _symmetry_equiv_pos_as_xyz
  1  'x, y, z'
loop_
 _atom_site_type_symbol
 _atom_site_label
 _atom_site_symmetry_multiplicity
 _atom_site_fract_x
 _atom_site_fract_y
 _atom_site_fract_z
 _atom_site_occupancy
  Hf  Hf0  1  0.232207  0.998503  0.500000  1
  Hf  Hf1  1  0.001497  0.233703  0.500000  1
  Hf  Hf2  1  0.766297  0.767793  0.500000  1
  Hf  Hf3  1  0.609636  0.002190  0.000000  1
  Hf  Hf4  1  0.997810  0.607445  0.000000  1
  Hf  Hf5  1  0.392555  0.390364  0.000000  1
  Be  Be6  1  0.000000  0.000000  0.000000  1
  Sn  Sn7  1  0.333333  0.666667  0.500000  1
  Sb  Sb8  1  0.666667  0.333333  0.500000  1
