# generated using pymatgen
data_La4Al18PtRh5
_symmetry_space_group_name_H-M   'P 1'
_cell_length_a   7.68540205
_cell_length_b   7.68540207
_cell_length_c   9.66801416
_cell_angle_alpha   89.98928300
_cell_angle_beta   89.98928735
_cell_angle_gamma   119.29641212
_symmetry_Int_Tables_number   1
_chemical_formula_structural   La4Al18PtRh5
_chemical_formula_sum   'La4 Al18 Pt1 Rh5'
_cell_volume   498.00841119
_cell_formula_units_Z   1
loop_
 _symmetry_equiv_pos_site_id
 _symmetry_equiv_pos_as_xyz
  1  'x, y, z'
loop_
 _atom_site_type_symbol
 _atom_site_label
 _atom_site_symmetry_multiplicity
 _atom_site_fract_x
 _atom_site_fract_y
 _atom_site_fract_z
 _atom_site_occupancy
  La  La0  1  0.996092  0.671634  0.249655  1
  La  La1  1  0.003908  0.328366  0.750345  1
  La  La2  1  0.671634  0.996092  0.249655  1
  La  La3  1  0.328366  0.003908  0.750345  1
  Al  Al4  1  0.134062  0.134062  0.253084  1
  Al  Al5  1  0.865938  0.865938  0.746916  1
  Al  Al6  1  0.004141  0.339066  0.075141  1
  Al  Al7  1  0.995859  0.660934  0.924859  1
  Al  Al8  1  0.996090  0.664134  0.573245  1
  Al  Al9  1  0.335866  0.003910  0.426755  1
  Al  Al10  1  0.003910  0.335866  0.426755  1
  Al  Al11  1  0.664134  0.996090  0.573245  1
  Al  Al12  1  0.660934  0.995859  0.924859  1
  Al  Al13  1  0.339066  0.004141  0.075141  1
  Al  Al14  1  0.334922  0.334922  0.544090  1
  Al  Al15  1  0.665078  0.665078  0.455910  1
  Al  Al16  1  0.661784  0.661784  0.045671  1
  Al  Al17  1  0.338216  0.338216  0.954329  1
  Al  Al18  1  0.340218  0.546088  0.250186  1
  Al  Al19  1  0.659782  0.453912  0.749814  1
  Al  Al20  1  0.546088  0.340218  0.250186  1
  Al  Al21  1  0.453912  0.659782  0.749814  1
  Pt  Pt22  1  0.000000  0.000000  0.000000  1
  Rh  Rh23  1  0.670542  0.329458  0.000000  1
  Rh  Rh24  1  0.329458  0.670542  0.000000  1
  Rh  Rh25  1  0.329323  0.670677  0.500000  1
  Rh  Rh26  1  0.670677  0.329323  0.500000  1
  Rh  Rh27  1  0.000000  0.000000  0.500000  1
