# generated using pymatgen
data_Dy16In3IrRh3Au
_symmetry_space_group_name_H-M   'P 1'
_cell_length_a   9.64246004
_cell_length_b   9.64247742
_cell_length_c   9.63492514
_cell_angle_alpha   59.88041118
_cell_angle_beta   59.87813979
_cell_angle_gamma   59.87607137
_symmetry_Int_Tables_number   1
_chemical_formula_structural   Dy16In3IrRh3Au
_chemical_formula_sum   'Dy16 In3 Ir1 Rh3 Au1'
_cell_volume   631.69583220
_cell_formula_units_Z   1
loop_
 _symmetry_equiv_pos_site_id
 _symmetry_equiv_pos_as_xyz
  1  'x, y, z'
loop_
 _atom_site_type_symbol
 _atom_site_label
 _atom_site_symmetry_multiplicity
 _atom_site_fract_x
 _atom_site_fract_y
 _atom_site_fract_z
 _atom_site_occupancy
  Dy  Dy0  1  0.690527  0.310209  0.308899  1
  Dy  Dy1  1  0.690297  0.690279  0.311558  1
  Dy  Dy2  1  0.310218  0.690517  0.308906  1
  Dy  Dy3  1  0.936974  0.936983  0.554299  1
  Dy  Dy4  1  0.149306  0.149286  0.550399  1
  Dy  Dy5  1  0.568306  0.939994  0.553585  1
  Dy  Dy6  1  0.151200  0.151191  0.149209  1
  Dy  Dy7  1  0.309651  0.309612  0.690737  1
  Dy  Dy8  1  0.939996  0.568284  0.553605  1
  Dy  Dy9  1  0.562652  0.562676  0.937003  1
  Dy  Dy10  1  0.564193  0.937094  0.933667  1
  Dy  Dy11  1  0.937136  0.564176  0.933683  1
  Dy  Dy12  1  0.148368  0.551853  0.148490  1
  Dy  Dy13  1  0.310782  0.691121  0.691173  1
  Dy  Dy14  1  0.691131  0.310753  0.691174  1
  Dy  Dy15  1  0.551763  0.148414  0.148491  1
  In  In16  1  0.244272  0.917644  0.922799  1
  In  In17  1  0.917607  0.244224  0.922851  1
  In  In18  1  0.917027  0.917013  0.921851  1
  Ir  Ir19  1  0.357251  0.357308  0.357348  1
  Rh  Rh20  1  0.926210  0.357584  0.357495  1
  Rh  Rh21  1  0.357947  0.358017  0.925398  1
  Rh  Rh22  1  0.357586  0.926182  0.357533  1
  Au  Au23  1  0.909600  0.909584  0.269845  1
