# generated using pymatgen
data_Tb3Lu7Cd3Co
_symmetry_space_group_name_H-M   'P 1'
_cell_length_a   9.49593600
_cell_length_b   9.49593790
_cell_length_c   9.55845400
_cell_angle_alpha   90.00000000
_cell_angle_beta   90.00000000
_cell_angle_gamma   119.99999339
_symmetry_Int_Tables_number   1
_chemical_formula_structural   Tb3Lu7Cd3Co
_chemical_formula_sum   'Tb6 Lu14 Cd6 Co2'
_cell_volume   746.43837671
_cell_formula_units_Z   2
loop_
 _symmetry_equiv_pos_site_id
 _symmetry_equiv_pos_as_xyz
  1  'x, y, z'
loop_
 _atom_site_type_symbol
 _atom_site_label
 _atom_site_symmetry_multiplicity
 _atom_site_fract_x
 _atom_site_fract_y
 _atom_site_fract_z
 _atom_site_occupancy
  Tb  Tb0  1  0.541305  0.458695  0.250000  1
  Tb  Tb1  1  0.541305  0.082610  0.250000  1
  Tb  Tb2  1  0.917390  0.458695  0.250000  1
  Tb  Tb3  1  0.458695  0.541305  0.750000  1
  Tb  Tb4  1  0.458695  0.917390  0.750000  1
  Tb  Tb5  1  0.082610  0.541305  0.750000  1
  Lu  Lu6  1  0.000000  0.000000  0.500000  1
  Lu  Lu7  1  0.000000  0.000000  0.000000  1
  Lu  Lu8  1  0.211823  0.788177  0.435863  1
  Lu  Lu9  1  0.211823  0.423646  0.435863  1
  Lu  Lu10  1  0.576354  0.788177  0.435863  1
  Lu  Lu11  1  0.788177  0.211823  0.564137  1
  Lu  Lu12  1  0.788177  0.576354  0.564137  1
  Lu  Lu13  1  0.423646  0.211823  0.564137  1
  Lu  Lu14  1  0.788177  0.211823  0.935863  1
  Lu  Lu15  1  0.788177  0.576354  0.935863  1
  Lu  Lu16  1  0.423646  0.211823  0.935863  1
  Lu  Lu17  1  0.211823  0.788177  0.064137  1
  Lu  Lu18  1  0.211823  0.423646  0.064137  1
  Lu  Lu19  1  0.576354  0.788177  0.064137  1
  Cd  Cd20  1  0.886047  0.113953  0.250000  1
  Cd  Cd21  1  0.886047  0.772093  0.250000  1
  Cd  Cd22  1  0.227907  0.113953  0.250000  1
  Cd  Cd23  1  0.113953  0.886047  0.750000  1
  Cd  Cd24  1  0.113953  0.227907  0.750000  1
  Cd  Cd25  1  0.772093  0.886047  0.750000  1
  Co  Co26  1  0.333333  0.666667  0.250000  1
  Co  Co27  1  0.666667  0.333333  0.750000  1
