# generated using pymatgen
data_Nd3Sm5InPd24
_symmetry_space_group_name_H-M   'P 1'
_cell_length_a   8.51344804
_cell_length_b   8.51344804
_cell_length_c   8.51166900
_cell_angle_alpha   90.00273255
_cell_angle_beta   90.00273255
_cell_angle_gamma   90.01106414
_symmetry_Int_Tables_number   1
_chemical_formula_structural   Nd3Sm5InPd24
_chemical_formula_sum   'Nd3 Sm5 In1 Pd24'
_cell_volume   616.91552184
_cell_formula_units_Z   1
loop_
 _symmetry_equiv_pos_site_id
 _symmetry_equiv_pos_as_xyz
  1  'x, y, z'
loop_
 _atom_site_type_symbol
 _atom_site_label
 _atom_site_symmetry_multiplicity
 _atom_site_fract_x
 _atom_site_fract_y
 _atom_site_fract_z
 _atom_site_occupancy
  Nd  Nd0  1  0.251349  0.251349  0.251303  1
  Nd  Nd1  1  0.748616  0.748616  0.748602  1
  Nd  Nd2  1  0.748703  0.748703  0.251334  1
  Sm  Sm3  1  0.748629  0.251422  0.748669  1
  Sm  Sm4  1  0.251451  0.251451  0.748541  1
  Sm  Sm5  1  0.251430  0.748545  0.251367  1
  Sm  Sm6  1  0.251422  0.748629  0.748669  1
  Sm  Sm7  1  0.748545  0.251430  0.251367  1
  In  In8  1  0.000061  0.000061  0.999923  1
  Pd  Pd9  1  0.266862  0.500646  0.999332  1
  Pd  Pd10  1  0.733157  0.498840  0.000078  1
  Pd  Pd11  1  0.999253  0.266893  0.500587  1
  Pd  Pd12  1  0.500646  0.266862  0.999332  1
  Pd  Pd13  1  0.001339  0.733148  0.499964  1
  Pd  Pd14  1  0.498840  0.733157  0.000078  1
  Pd  Pd15  1  0.500042  0.999923  0.266816  1
  Pd  Pd16  1  0.266893  0.999253  0.500587  1
  Pd  Pd17  1  0.499419  0.000669  0.733145  1
  Pd  Pd18  1  0.733148  0.001339  0.499964  1
  Pd  Pd19  1  0.999923  0.500042  0.266816  1
  Pd  Pd20  1  0.000669  0.499419  0.733145  1
  Pd  Pd21  1  0.255057  0.500758  0.500694  1
  Pd  Pd22  1  0.744926  0.498617  0.499931  1
  Pd  Pd23  1  0.500758  0.255057  0.500694  1
  Pd  Pd24  1  0.498617  0.744926  0.499931  1
  Pd  Pd25  1  0.500070  0.500070  0.255057  1
  Pd  Pd26  1  0.499307  0.499307  0.744968  1
  Pd  Pd27  1  0.313541  0.999325  0.999417  1
  Pd  Pd28  1  0.686366  0.001153  0.000093  1
  Pd  Pd29  1  0.999325  0.313541  0.999417  1
  Pd  Pd30  1  0.001153  0.686366  0.000093  1
  Pd  Pd31  1  0.999905  0.999905  0.313646  1
  Pd  Pd32  1  0.000579  0.000579  0.686444  1
