# generated using pymatgen
data_Er4InPd5Pt6
_symmetry_space_group_name_H-M   'P 1'
_cell_length_a   4.20731000
_cell_length_b   5.80162065
_cell_length_c   11.61625492
_cell_angle_alpha   87.03758005
_cell_angle_beta   90.00000000
_cell_angle_gamma   90.00000000
_symmetry_Int_Tables_number   1
_chemical_formula_structural   Er4InPd5Pt6
_chemical_formula_sum   'Er4 In1 Pd5 Pt6'
_cell_volume   283.16476796
_cell_formula_units_Z   1
loop_
 _symmetry_equiv_pos_site_id
 _symmetry_equiv_pos_as_xyz
  1  'x, y, z'
loop_
 _atom_site_type_symbol
 _atom_site_label
 _atom_site_symmetry_multiplicity
 _atom_site_fract_x
 _atom_site_fract_y
 _atom_site_fract_z
 _atom_site_occupancy
  Er  Er0  1  0.500000  0.755314  0.375733  1
  Er  Er1  1  0.500000  0.714928  0.860257  1
  Er  Er2  1  0.500000  0.284785  0.140385  1
  Er  Er3  1  0.500000  0.244849  0.624506  1
  In  In4  1  0.000000  0.000376  0.999731  1
  Pd  Pd5  1  0.000000  0.500370  0.499857  1
  Pd  Pd6  1  0.500000  0.254155  0.378202  1
  Pd  Pd7  1  0.500000  0.225031  0.882252  1
  Pd  Pd8  1  0.500000  0.774923  0.117519  1
  Pd  Pd9  1  0.000000  0.999735  0.499791  1
  Pt  Pt10  1  0.000000  0.014636  0.250466  1
  Pt  Pt11  1  0.000000  0.985170  0.749496  1
  Pt  Pt12  1  0.000000  0.499796  0.000134  1
  Pt  Pt13  1  0.000000  0.518429  0.250592  1
  Pt  Pt14  1  0.000000  0.481660  0.749479  1
  Pt  Pt15  1  0.500000  0.745843  0.621600  1
