# generated using pymatgen
data_NdHo3Se4
_symmetry_space_group_name_H-M   'P 1'
_cell_length_a   13.45710642
_cell_length_b   13.45710613
_cell_length_c   13.45710758
_cell_angle_alpha   17.60723736
_cell_angle_beta   17.60724038
_cell_angle_gamma   17.60723727
_symmetry_Int_Tables_number   1
_chemical_formula_structural   NdHo3Se4
_chemical_formula_sum   'Nd1 Ho3 Se4'
_cell_volume   194.63119960
_cell_formula_units_Z   1
loop_
 _symmetry_equiv_pos_site_id
 _symmetry_equiv_pos_as_xyz
  1  'x, y, z'
loop_
 _atom_site_type_symbol
 _atom_site_label
 _atom_site_symmetry_multiplicity
 _atom_site_fract_x
 _atom_site_fract_y
 _atom_site_fract_z
 _atom_site_occupancy
  Nd  Nd0  1  0.000000  0.000000  0.000000  1
  Ho  Ho1  1  0.248484  0.248484  0.248484  1
  Ho  Ho2  1  0.500000  0.500000  0.500000  1
  Ho  Ho3  1  0.751516  0.751516  0.751516  1
  Se  Se4  1  0.378718  0.378718  0.378718  1
  Se  Se5  1  0.126056  0.126056  0.126056  1
  Se  Se6  1  0.621282  0.621282  0.621282  1
  Se  Se7  1  0.873944  0.873944  0.873944  1
