# generated using pymatgen
data_Nd4Sn4As2Rh7
_symmetry_space_group_name_H-M   'P 1'
_cell_length_a   7.62599925
_cell_length_b   7.62600100
_cell_length_c   7.65789125
_cell_angle_alpha   109.22459277
_cell_angle_beta   109.22460577
_cell_angle_gamma   109.79779314
_symmetry_Int_Tables_number   1
_chemical_formula_structural   Nd4Sn4As2Rh7
_chemical_formula_sum   'Nd4 Sn4 As2 Rh7'
_cell_volume   343.52641660
_cell_formula_units_Z   1
loop_
 _symmetry_equiv_pos_site_id
 _symmetry_equiv_pos_as_xyz
  1  'x, y, z'
loop_
 _atom_site_type_symbol
 _atom_site_label
 _atom_site_symmetry_multiplicity
 _atom_site_fract_x
 _atom_site_fract_y
 _atom_site_fract_z
 _atom_site_occupancy
  Nd  Nd0  1  0.458961  0.458961  0.462890  1
  Nd  Nd1  1  0.006588  0.506588  0.013177  1
  Nd  Nd2  1  0.506588  0.006588  0.013177  1
  Nd  Nd3  1  0.003929  0.003929  0.462890  1
  Sn  Sn4  1  0.698307  0.989673  0.687980  1
  Sn  Sn5  1  0.667129  0.667129  0.977849  1
  Sn  Sn6  1  0.310720  0.310720  0.977849  1
  Sn  Sn7  1  0.989673  0.698307  0.687980  1
  As  As8  1  0.993527  0.345453  0.338980  1
  As  As9  1  0.345453  0.993527  0.338980  1
  Rh  Rh10  1  0.503162  0.749046  0.252207  1
  Rh  Rh11  1  0.752916  0.252916  0.505831  1
  Rh  Rh12  1  0.252916  0.752916  0.505831  1
  Rh  Rh13  1  0.236904  0.503877  0.740780  1
  Rh  Rh14  1  0.020305  0.020305  0.040608  1
  Rh  Rh15  1  0.503877  0.236904  0.740780  1
  Rh  Rh16  1  0.749046  0.503162  0.252207  1
