# generated using pymatgen
data_Yb2AgPd2
_symmetry_space_group_name_H-M   'P 1'
_cell_length_a   5.52745505
_cell_length_b   5.52745524
_cell_length_c   5.52745521
_cell_angle_alpha   132.18414076
_cell_angle_beta   116.17418920
_cell_angle_gamma   83.53379603
_symmetry_Int_Tables_number   1
_chemical_formula_structural   Yb2AgPd2
_chemical_formula_sum   'Yb2 Ag1 Pd2'
_cell_volume   107.94124388
_cell_formula_units_Z   1
loop_
 _symmetry_equiv_pos_site_id
 _symmetry_equiv_pos_as_xyz
  1  'x, y, z'
loop_
 _atom_site_type_symbol
 _atom_site_label
 _atom_site_symmetry_multiplicity
 _atom_site_fract_x
 _atom_site_fract_y
 _atom_site_fract_z
 _atom_site_occupancy
  Yb  Yb0  1  0.702696  0.202696  0.500000  1
  Yb  Yb1  1  0.297304  0.797304  0.500000  1
  Ag  Ag2  1  0.000000  0.000000  0.000000  1
  Pd  Pd3  1  0.729532  0.500000  0.229532  1
  Pd  Pd4  1  0.270468  0.500000  0.770468  1
