# generated using pymatgen
data_TmLu7Mn(B8Os)3
_symmetry_space_group_name_H-M   'P 1'
_cell_length_a   3.57610600
_cell_length_b   9.01772742
_cell_length_c   11.38844601
_cell_angle_alpha   90.04412546
_cell_angle_beta   90.00000000
_cell_angle_gamma   90.00000000
_symmetry_Int_Tables_number   1
_chemical_formula_structural   TmLu7Mn(B8Os)3
_chemical_formula_sum   'Tm1 Lu7 Mn1 B24 Os3'
_cell_volume   367.25847391
_cell_formula_units_Z   1
loop_
 _symmetry_equiv_pos_site_id
 _symmetry_equiv_pos_as_xyz
  1  'x, y, z'
loop_
 _atom_site_type_symbol
 _atom_site_label
 _atom_site_symmetry_multiplicity
 _atom_site_fract_x
 _atom_site_fract_y
 _atom_site_fract_z
 _atom_site_occupancy
  Tm  Tm0  1  0.000000  0.324882  0.412282  1
  Lu  Lu1  1  0.000000  0.677685  0.581777  1
  Lu  Lu2  1  0.000000  0.818454  0.089000  1
  Lu  Lu3  1  0.000000  0.179665  0.915223  1
  Lu  Lu4  1  0.000000  0.939666  0.371769  1
  Lu  Lu5  1  0.000000  0.056301  0.626855  1
  Lu  Lu6  1  0.000000  0.446611  0.130003  1
  Lu  Lu7  1  0.000000  0.556468  0.873059  1
  Mn  Mn8  1  0.000000  0.637605  0.320899  1
  B  B9  1  0.500000  0.553811  0.432099  1
  B  B10  1  0.500000  0.447389  0.565593  1
  B  B11  1  0.500000  0.053195  0.066479  1
  B  B12  1  0.500000  0.947239  0.934053  1
  B  B13  1  0.500000  0.746580  0.418285  1
  B  B14  1  0.500000  0.251202  0.579144  1
  B  B15  1  0.500000  0.249953  0.080223  1
  B  B16  1  0.500000  0.751187  0.920867  1
  B  B17  1  0.500000  0.789743  0.266239  1
  B  B18  1  0.500000  0.208254  0.734192  1
  B  B19  1  0.500000  0.292440  0.234811  1
  B  B20  1  0.500000  0.708350  0.765452  1
  B  B21  1  0.500000  0.630718  0.186366  1
  B  B22  1  0.500000  0.369545  0.815874  1
  B  B23  1  0.500000  0.130051  0.315334  1
  B  B24  1  0.500000  0.869086  0.683930  1
  B  B25  1  0.500000  0.980112  0.212917  1
  B  B26  1  0.500000  0.019184  0.787161  1
  B  B27  1  0.500000  0.483857  0.288086  1
  B  B28  1  0.500000  0.519110  0.712523  1
  B  B29  1  0.500000  0.605906  0.029832  1
  B  B30  1  0.500000  0.394960  0.971386  1
  B  B31  1  0.500000  0.104356  0.470464  1
  B  B32  1  0.500000  0.894111  0.528624  1
  Os  Os33  1  0.000000  0.362132  0.679544  1
  Os  Os34  1  0.000000  0.137411  0.178895  1
  Os  Os35  1  0.000000  0.862784  0.820761  1
