# generated using pymatgen
data_La4Pr7Nd5(MgIr)4
_symmetry_space_group_name_H-M   'P 1'
_cell_length_a   10.11199311
_cell_length_b   10.11199329
_cell_length_c   10.09822900
_cell_angle_alpha   60.04502068
_cell_angle_beta   60.04502011
_cell_angle_gamma   60.07384077
_symmetry_Int_Tables_number   1
_chemical_formula_structural   La4Pr7Nd5(MgIr)4
_chemical_formula_sum   'La4 Pr7 Nd5 Mg4 Ir4'
_cell_volume   731.03985176
_cell_formula_units_Z   1
loop_
 _symmetry_equiv_pos_site_id
 _symmetry_equiv_pos_as_xyz
  1  'x, y, z'
loop_
 _atom_site_type_symbol
 _atom_site_label
 _atom_site_symmetry_multiplicity
 _atom_site_fract_x
 _atom_site_fract_y
 _atom_site_fract_z
 _atom_site_occupancy
  La  La0  1  0.345872  0.345872  0.345763  1
  La  La1  1  0.345872  0.345872  0.962492  1
  La  La2  1  0.345774  0.962075  0.346075  1
  La  La3  1  0.962075  0.345774  0.346075  1
  Pr  Pr4  1  0.812004  0.812004  0.187996  1
  Pr  Pr5  1  0.937831  0.562055  0.562736  1
  Pr  Pr6  1  0.562055  0.937831  0.937378  1
  Pr  Pr7  1  0.562055  0.937831  0.562736  1
  Pr  Pr8  1  0.937831  0.562055  0.937378  1
  Pr  Pr9  1  0.562555  0.562555  0.937445  1
  Pr  Pr10  1  0.937813  0.937813  0.562187  1
  Nd  Nd11  1  0.812201  0.187859  0.187900  1
  Nd  Nd12  1  0.187859  0.812201  0.812040  1
  Nd  Nd13  1  0.187859  0.812201  0.187900  1
  Nd  Nd14  1  0.812201  0.187859  0.812040  1
  Nd  Nd15  1  0.187659  0.187659  0.812341  1
  Mg  Mg16  1  0.578895  0.578895  0.579210  1
  Mg  Mg17  1  0.578895  0.578895  0.263002  1
  Mg  Mg18  1  0.578964  0.262845  0.579096  1
  Mg  Mg19  1  0.262845  0.578964  0.579096  1
  Ir  Ir20  1  0.141844  0.141844  0.141333  1
  Ir  Ir21  1  0.141844  0.141844  0.574979  1
  Ir  Ir22  1  0.142551  0.574645  0.141402  1
  Ir  Ir23  1  0.574645  0.142551  0.141402  1
