# generated using pymatgen
data_Ca2Si2As4Pd21
_symmetry_space_group_name_H-M   'P 1'
_cell_length_a   8.80819278
_cell_length_b   8.80819283
_cell_length_c   8.77110800
_cell_angle_alpha   60.13916952
_cell_angle_beta   60.13916933
_cell_angle_gamma   59.70101478
_symmetry_Int_Tables_number   1
_chemical_formula_structural   Ca2Si2As4Pd21
_chemical_formula_sum   'Ca2 Si2 As4 Pd21'
_cell_volume   481.09232312
_cell_formula_units_Z   1
loop_
 _symmetry_equiv_pos_site_id
 _symmetry_equiv_pos_as_xyz
  1  'x, y, z'
loop_
 _atom_site_type_symbol
 _atom_site_label
 _atom_site_symmetry_multiplicity
 _atom_site_fract_x
 _atom_site_fract_y
 _atom_site_fract_z
 _atom_site_occupancy
  Ca  Ca0  1  0.750064  0.750064  0.749120  1
  Ca  Ca1  1  0.249936  0.249936  0.249249  1
  Si  Si2  1  0.735841  0.264159  0.735610  1
  Si  Si3  1  0.264159  0.735841  0.735610  1
  As  As4  1  0.735554  0.735554  0.263791  1
  As  As5  1  0.264107  0.735893  0.263759  1
  As  As6  1  0.735893  0.264107  0.263759  1
  As  As7  1  0.264446  0.264446  0.734898  1
  Pd  Pd8  1  0.000000  0.000000  0.997643  1
  Pd  Pd9  1  0.616340  0.616340  0.151985  1
  Pd  Pd10  1  0.618360  0.153373  0.619456  1
  Pd  Pd11  1  0.153373  0.618360  0.619456  1
  Pd  Pd12  1  0.612700  0.612700  0.620445  1
  Pd  Pd13  1  0.387300  0.387300  0.845845  1
  Pd  Pd14  1  0.381640  0.846627  0.391188  1
  Pd  Pd15  1  0.846627  0.381640  0.391188  1
  Pd  Pd16  1  0.383660  0.383660  0.384665  1
  Pd  Pd17  1  0.000000  0.000000  0.348627  1
  Pd  Pd18  1  0.652175  0.001103  0.345831  1
  Pd  Pd19  1  0.001103  0.652175  0.345831  1
  Pd  Pd20  1  0.654376  0.345624  0.994779  1
  Pd  Pd21  1  0.998897  0.347825  0.999109  1
  Pd  Pd22  1  0.995198  0.343577  0.654896  1
  Pd  Pd23  1  0.345624  0.654376  0.994779  1
  Pd  Pd24  1  0.343577  0.995198  0.654896  1
  Pd  Pd25  1  0.347825  0.998897  0.999109  1
  Pd  Pd26  1  0.000000  0.000000  0.657133  1
  Pd  Pd27  1  0.004802  0.656423  0.993671  1
  Pd  Pd28  1  0.656423  0.004802  0.993671  1
