# generated using pymatgen
data_Nd6ScCdAu10
_symmetry_space_group_name_H-M   'P 1'
_cell_length_a   8.14182933
_cell_length_b   8.14182932
_cell_length_c   8.14183019
_cell_angle_alpha   65.94475453
_cell_angle_beta   65.94475689
_cell_angle_gamma   65.94473146
_symmetry_Int_Tables_number   1
_chemical_formula_structural   Nd6ScCdAu10
_chemical_formula_sum   'Nd6 Sc1 Cd1 Au10'
_cell_volume   430.75935416
_cell_formula_units_Z   1
loop_
 _symmetry_equiv_pos_site_id
 _symmetry_equiv_pos_as_xyz
  1  'x, y, z'
loop_
 _atom_site_type_symbol
 _atom_site_label
 _atom_site_symmetry_multiplicity
 _atom_site_fract_x
 _atom_site_fract_y
 _atom_site_fract_z
 _atom_site_occupancy
  Nd  Nd0  1  0.885022  0.198334  0.623415  1
  Nd  Nd1  1  0.623415  0.885022  0.198334  1
  Nd  Nd2  1  0.198334  0.623415  0.885022  1
  Nd  Nd3  1  0.102272  0.813890  0.383447  1
  Nd  Nd4  1  0.383447  0.102272  0.813890  1
  Nd  Nd5  1  0.813890  0.383447  0.102272  1
  Sc  Sc6  1  0.343974  0.343974  0.343974  1
  Cd  Cd7  1  0.651784  0.651784  0.651784  1
  Au  Au8  1  0.000908  0.000908  0.000908  1
  Au  Au9  1  0.493876  0.493876  0.493876  1
  Au  Au10  1  0.802947  0.802947  0.802947  1
  Au  Au11  1  0.197735  0.197735  0.197735  1
  Au  Au12  1  0.953679  0.546943  0.309914  1
  Au  Au13  1  0.309914  0.953679  0.546943  1
  Au  Au14  1  0.546943  0.309914  0.953679  1
  Au  Au15  1  0.069252  0.445061  0.677546  1
  Au  Au16  1  0.677546  0.069252  0.445061  1
  Au  Au17  1  0.445061  0.677546  0.069252  1
