# generated using pymatgen
data_TaBe2Nb5Si2
_symmetry_space_group_name_H-M   'P 1'
_cell_length_a   6.64768205
_cell_length_b   6.64922405
_cell_length_c   3.43119500
_cell_angle_alpha   90.00000000
_cell_angle_beta   90.00000000
_cell_angle_gamma   89.98550467
_symmetry_Int_Tables_number   1
_chemical_formula_structural   TaBe2Nb5Si2
_chemical_formula_sum   'Ta1 Be2 Nb5 Si2'
_cell_volume   151.66542745
_cell_formula_units_Z   1
loop_
 _symmetry_equiv_pos_site_id
 _symmetry_equiv_pos_as_xyz
  1  'x, y, z'
loop_
 _atom_site_type_symbol
 _atom_site_label
 _atom_site_symmetry_multiplicity
 _atom_site_fract_x
 _atom_site_fract_y
 _atom_site_fract_z
 _atom_site_occupancy
  Ta  Ta0  1  0.997495  0.993442  0.000000  1
  Be  Be1  1  0.620418  0.879311  0.000000  1
  Be  Be2  1  0.119872  0.621169  0.000000  1
  Nb  Nb3  1  0.497478  0.506382  0.000000  1
  Nb  Nb4  1  0.678248  0.172529  0.500000  1
  Nb  Nb5  1  0.177672  0.326815  0.500000  1
  Nb  Nb6  1  0.822092  0.683207  0.500000  1
  Nb  Nb7  1  0.321504  0.817381  0.500000  1
  Si  Si8  1  0.882754  0.385906  0.000000  1
  Si  Si9  1  0.382468  0.113857  0.000000  1
