# generated using pymatgen
data_Dy3Al12IrRuRh2
_symmetry_space_group_name_H-M   'P 1'
_cell_length_a   8.81057500
_cell_length_b   8.82085310
_cell_length_c   9.53477005
_cell_angle_alpha   89.95289038
_cell_angle_beta   90.00000000
_cell_angle_gamma   119.96145907
_symmetry_Int_Tables_number   1
_chemical_formula_structural   Dy3Al12IrRuRh2
_chemical_formula_sum   'Dy6 Al24 Ir2 Ru2 Rh4'
_cell_volume   641.98374938
_cell_formula_units_Z   2
loop_
 _symmetry_equiv_pos_site_id
 _symmetry_equiv_pos_as_xyz
  1  'x, y, z'
loop_
 _atom_site_type_symbol
 _atom_site_label
 _atom_site_symmetry_multiplicity
 _atom_site_fract_x
 _atom_site_fract_y
 _atom_site_fract_z
 _atom_site_occupancy
  Dy  Dy0  1  0.191379  0.807631  0.251122  1
  Dy  Dy1  1  0.191897  0.383795  0.251139  1
  Dy  Dy2  1  0.616252  0.807631  0.251122  1
  Dy  Dy3  1  0.808621  0.192369  0.748878  1
  Dy  Dy4  1  0.808103  0.616205  0.748861  1
  Dy  Dy5  1  0.383748  0.192369  0.748878  1
  Al  Al6  1  0.562539  0.437735  0.249550  1
  Al  Al7  1  0.561926  0.123850  0.250066  1
  Al  Al8  1  0.875197  0.437735  0.249550  1
  Al  Al9  1  0.437461  0.562265  0.750450  1
  Al  Al10  1  0.438074  0.876150  0.749934  1
  Al  Al11  1  0.124803  0.562265  0.750450  1
  Al  Al12  1  0.326329  0.163448  0.423680  1
  Al  Al13  1  0.837118  0.163448  0.423680  1
  Al  Al14  1  0.836589  0.673178  0.424483  1
  Al  Al15  1  0.673671  0.836552  0.576320  1
  Al  Al16  1  0.162882  0.836552  0.576320  1
  Al  Al17  1  0.163411  0.326822  0.575517  1
  Al  Al18  1  0.673813  0.836842  0.923403  1
  Al  Al19  1  0.163029  0.836842  0.923403  1
  Al  Al20  1  0.163101  0.326202  0.923436  1
  Al  Al21  1  0.326187  0.163158  0.076597  1
  Al  Al22  1  0.836971  0.163158  0.076597  1
  Al  Al23  1  0.836899  0.673798  0.076564  1
  Al  Al24  1  0.666389  0.332777  0.529151  1
  Al  Al25  1  0.333611  0.667223  0.470849  1
  Al  Al26  1  0.333437  0.666876  0.029116  1
  Al  Al27  1  0.666563  0.333124  0.970884  1
  Al  Al28  1  0.999991  0.999983  0.250195  1
  Al  Al29  1  0.000009  0.000017  0.749805  1
  Ir  Ir30  1  0.500000  0.500000  0.500000  1
  Ir  Ir31  1  0.000000  0.500000  0.500000  1
  Ru  Ru32  1  0.000000  0.000000  0.500000  1
  Ru  Ru33  1  0.000000  0.000000  0.000000  1
  Rh  Rh34  1  0.500000  0.000000  0.500000  1
  Rh  Rh35  1  0.500000  0.500000  0.000000  1
  Rh  Rh36  1  0.500000  0.000000  0.000000  1
  Rh  Rh37  1  0.000000  0.500000  0.000000  1
