# generated using pymatgen
data_HfZr(ScGa2)10
_symmetry_space_group_name_H-M   'P 1'
_cell_length_a   5.79696605
_cell_length_b   9.27088600
_cell_length_c   10.95945409
_cell_angle_alpha   90.00000000
_cell_angle_beta   90.01463315
_cell_angle_gamma   90.00000000
_symmetry_Int_Tables_number   1
_chemical_formula_structural   HfZr(ScGa2)10
_chemical_formula_sum   'Hf1 Zr1 Sc10 Ga20'
_cell_volume   588.99404652
_cell_formula_units_Z   1
loop_
 _symmetry_equiv_pos_site_id
 _symmetry_equiv_pos_as_xyz
  1  'x, y, z'
loop_
 _atom_site_type_symbol
 _atom_site_label
 _atom_site_symmetry_multiplicity
 _atom_site_fract_x
 _atom_site_fract_y
 _atom_site_fract_z
 _atom_site_occupancy
  Hf  Hf0  1  0.645119  0.750000  0.567038  1
  Zr  Zr1  1  0.856828  0.750000  0.067471  1
  Sc  Sc2  1  0.151795  0.250000  0.932590  1
  Sc  Sc3  1  0.348220  0.250000  0.432713  1
  Sc  Sc4  1  0.888963  0.508894  0.354799  1
  Sc  Sc5  1  0.610833  0.991321  0.854098  1
  Sc  Sc6  1  0.109247  0.008573  0.645444  1
  Sc  Sc7  1  0.390144  0.491500  0.145475  1
  Sc  Sc8  1  0.109247  0.491427  0.645444  1
  Sc  Sc9  1  0.390144  0.008500  0.145475  1
  Sc  Sc10  1  0.888963  0.991106  0.354799  1
  Sc  Sc11  1  0.610833  0.508679  0.854098  1
  Ga  Ga12  1  0.874493  0.048810  0.094844  1
  Ga  Ga13  1  0.625147  0.452144  0.594595  1
  Ga  Ga14  1  0.125182  0.550170  0.905614  1
  Ga  Ga15  1  0.374795  0.949728  0.406190  1
  Ga  Ga16  1  0.125182  0.949830  0.905614  1
  Ga  Ga17  1  0.374795  0.550272  0.406190  1
  Ga  Ga18  1  0.874493  0.451190  0.094844  1
  Ga  Ga19  1  0.625147  0.047856  0.594595  1
  Ga  Ga20  1  0.163660  0.750000  0.250941  1
  Ga  Ga21  1  0.338153  0.750000  0.749916  1
  Ga  Ga22  1  0.839134  0.250000  0.750800  1
  Ga  Ga23  1  0.660724  0.250000  0.250995  1
  Ga  Ga24  1  0.383591  0.750000  0.007241  1
  Ga  Ga25  1  0.115464  0.750000  0.507558  1
  Ga  Ga26  1  0.618668  0.250000  0.992578  1
  Ga  Ga27  1  0.880645  0.250000  0.492721  1
  Ga  Ga28  1  0.620411  0.750000  0.291988  1
  Ga  Ga29  1  0.879480  0.750000  0.790651  1
  Ga  Ga30  1  0.380177  0.250000  0.706251  1
  Ga  Ga31  1  0.120325  0.250000  0.206429  1
