# generated using pymatgen
data_Tm3Np(Si3Ni5)4
_symmetry_space_group_name_H-M   'P 1'
_cell_length_a   3.76977300
_cell_length_b   18.67614888
_cell_length_c   6.57333079
_cell_angle_alpha   90.09818481
_cell_angle_beta   90.00000000
_cell_angle_gamma   90.00000000
_symmetry_Int_Tables_number   1
_chemical_formula_structural   Tm3Np(Si3Ni5)4
_chemical_formula_sum   'Tm3 Np1 Si12 Ni20'
_cell_volume   462.79363499
_cell_formula_units_Z   1
loop_
 _symmetry_equiv_pos_site_id
 _symmetry_equiv_pos_as_xyz
  1  'x, y, z'
loop_
 _atom_site_type_symbol
 _atom_site_label
 _atom_site_symmetry_multiplicity
 _atom_site_fract_x
 _atom_site_fract_y
 _atom_site_fract_z
 _atom_site_occupancy
  Tm  Tm0  1  0.250000  0.356405  0.877374  1
  Tm  Tm1  1  0.250000  0.855918  0.622536  1
  Tm  Tm2  1  0.750000  0.143916  0.376631  1
  Np  Np3  1  0.750000  0.643868  0.123990  1
  Si  Si4  1  0.750000  0.737515  0.620313  1
  Si  Si5  1  0.250000  0.261405  0.378346  1
  Si  Si6  1  0.250000  0.763350  0.120115  1
  Si  Si7  1  0.750000  0.238384  0.878490  1
  Si  Si8  1  0.750000  0.925773  0.345860  1
  Si  Si9  1  0.250000  0.075434  0.655285  1
  Si  Si10  1  0.250000  0.573857  0.847705  1
  Si  Si11  1  0.750000  0.424589  0.156040  1
  Si  Si12  1  0.750000  0.914331  0.916136  1
  Si  Si13  1  0.250000  0.086128  0.082272  1
  Si  Si14  1  0.250000  0.586240  0.418318  1
  Si  Si15  1  0.750000  0.413110  0.581965  1
  Ni  Ni16  1  0.750000  0.801476  0.315291  1
  Ni  Ni17  1  0.250000  0.199517  0.684590  1
  Ni  Ni18  1  0.250000  0.699981  0.813961  1
  Ni  Ni19  1  0.750000  0.300049  0.184263  1
  Ni  Ni20  1  0.750000  0.995295  0.633180  1
  Ni  Ni21  1  0.250000  0.005929  0.367219  1
  Ni  Ni22  1  0.250000  0.503640  0.134892  1
  Ni  Ni23  1  0.750000  0.493325  0.866747  1
  Ni  Ni24  1  0.750000  0.514856  0.385730  1
  Ni  Ni25  1  0.250000  0.483927  0.616124  1
  Ni  Ni26  1  0.250000  0.984567  0.882608  1
  Ni  Ni27  1  0.750000  0.015738  0.115702  1
  Ni  Ni28  1  0.750000  0.794341  0.927887  1
  Ni  Ni29  1  0.250000  0.206343  0.069230  1
  Ni  Ni30  1  0.250000  0.708244  0.429818  1
  Ni  Ni31  1  0.750000  0.293008  0.569292  1
  Ni  Ni32  1  0.750000  0.614608  0.645578  1
  Ni  Ni33  1  0.250000  0.383338  0.355993  1
  Ni  Ni34  1  0.250000  0.885420  0.144304  1
  Ni  Ni35  1  0.750000  0.116169  0.856215  1
