# generated using pymatgen
data_NdNp3(Tl2Cl5)4
_symmetry_space_group_name_H-M   'P 1'
_cell_length_a   8.36913512
_cell_length_b   8.92787400
_cell_length_c   13.47286500
_cell_angle_alpha   90.00000000
_cell_angle_beta   90.21535769
_cell_angle_gamma   90.00000000
_symmetry_Int_Tables_number   1
_chemical_formula_structural   NdNp3(Tl2Cl5)4
_chemical_formula_sum   'Nd1 Np3 Tl8 Cl20'
_cell_volume   1006.66628188
_cell_formula_units_Z   1
loop_
 _symmetry_equiv_pos_site_id
 _symmetry_equiv_pos_as_xyz
  1  'x, y, z'
loop_
 _atom_site_type_symbol
 _atom_site_label
 _atom_site_symmetry_multiplicity
 _atom_site_fract_x
 _atom_site_fract_y
 _atom_site_fract_z
 _atom_site_occupancy
  Nd  Nd0  1  0.570834  0.750000  0.003506  1
  Np  Np1  1  0.932816  0.750000  0.502228  1
  Np  Np2  1  0.067830  0.250000  0.497445  1
  Np  Np3  1  0.431082  0.250000  0.996759  1
  Tl  Tl4  1  0.948912  0.004574  0.827903  1
  Tl  Tl5  1  0.052537  0.996044  0.171917  1
  Tl  Tl6  1  0.448485  0.995385  0.671689  1
  Tl  Tl7  1  0.052537  0.503956  0.171917  1
  Tl  Tl8  1  0.551582  0.004311  0.328659  1
  Tl  Tl9  1  0.948912  0.495426  0.827903  1
  Tl  Tl10  1  0.551582  0.495689  0.328659  1
  Tl  Tl11  1  0.448485  0.504615  0.671689  1
  Cl  Cl12  1  0.116799  0.750000  0.674519  1
  Cl  Cl13  1  0.880842  0.250000  0.325133  1
  Cl  Cl14  1  0.616673  0.250000  0.825787  1
  Cl  Cl15  1  0.382176  0.750000  0.174423  1
  Cl  Cl16  1  0.842751  0.040343  0.573041  1
  Cl  Cl17  1  0.158534  0.960923  0.426933  1
  Cl  Cl18  1  0.340555  0.959328  0.926358  1
  Cl  Cl19  1  0.158534  0.539077  0.426933  1
  Cl  Cl20  1  0.658117  0.040108  0.073413  1
  Cl  Cl21  1  0.842751  0.459657  0.573041  1
  Cl  Cl22  1  0.658117  0.459892  0.073413  1
  Cl  Cl23  1  0.340555  0.540672  0.926358  1
  Cl  Cl24  1  0.592250  0.750000  0.509263  1
  Cl  Cl25  1  0.407827  0.250000  0.490752  1
  Cl  Cl26  1  0.091347  0.250000  0.990603  1
  Cl  Cl27  1  0.908549  0.750000  0.010045  1
  Cl  Cl28  1  0.656863  0.750000  0.802990  1
  Cl  Cl29  1  0.342055  0.250000  0.195749  1
  Cl  Cl30  1  0.157614  0.250000  0.697182  1
  Cl  Cl31  1  0.841496  0.750000  0.303786  1
