# generated using pymatgen
data_TbCeGa12
_symmetry_space_group_name_H-M   'P 1'
_cell_length_a   5.99184200
_cell_length_b   5.99184200
_cell_length_c   7.63082100
_cell_angle_alpha   90.00000000
_cell_angle_beta   90.00000000
_cell_angle_gamma   90.00000000
_symmetry_Int_Tables_number   1
_chemical_formula_structural   TbCeGa12
_chemical_formula_sum   'Tb1 Ce1 Ga12'
_cell_volume   273.96303700
_cell_formula_units_Z   1
loop_
 _symmetry_equiv_pos_site_id
 _symmetry_equiv_pos_as_xyz
  1  'x, y, z'
loop_
 _atom_site_type_symbol
 _atom_site_label
 _atom_site_symmetry_multiplicity
 _atom_site_fract_x
 _atom_site_fract_y
 _atom_site_fract_z
 _atom_site_occupancy
  Tb  Tb0  1  0.000000  0.500000  0.000000  1
  Ce  Ce1  1  0.500000  0.000000  0.000000  1
  Ga  Ga2  1  0.500000  0.500000  0.162060  1
  Ga  Ga3  1  0.000000  0.000000  0.162060  1
  Ga  Ga4  1  0.000000  0.000000  0.837940  1
  Ga  Ga5  1  0.500000  0.500000  0.837940  1
  Ga  Ga6  1  0.818765  0.681235  0.352868  1
  Ga  Ga7  1  0.319167  0.819167  0.352375  1
  Ga  Ga8  1  0.680833  0.180833  0.352375  1
  Ga  Ga9  1  0.181235  0.318765  0.352868  1
  Ga  Ga10  1  0.680833  0.819167  0.647625  1
  Ga  Ga11  1  0.181235  0.681235  0.647132  1
  Ga  Ga12  1  0.818765  0.318765  0.647132  1
  Ga  Ga13  1  0.319167  0.180833  0.647625  1
