# generated using pymatgen
data_K12TiMo3S16
_symmetry_space_group_name_H-M   'P 1'
_cell_length_a   9.36036600
_cell_length_b   9.43007674
_cell_length_c   10.91383500
_cell_angle_alpha   90.00000000
_cell_angle_beta   90.00000000
_cell_angle_gamma   89.69371469
_symmetry_Int_Tables_number   1
_chemical_formula_structural   K12TiMo3S16
_chemical_formula_sum   'K12 Ti1 Mo3 S16'
_cell_volume   963.33920617
_cell_formula_units_Z   1
loop_
 _symmetry_equiv_pos_site_id
 _symmetry_equiv_pos_as_xyz
  1  'x, y, z'
loop_
 _atom_site_type_symbol
 _atom_site_label
 _atom_site_symmetry_multiplicity
 _atom_site_fract_x
 _atom_site_fract_y
 _atom_site_fract_z
 _atom_site_occupancy
  K  K0  1  0.945597  0.702355  0.964334  1
  K  K1  1  0.454037  0.786847  0.960242  1
  K  K2  1  0.558245  0.215571  0.453112  1
  K  K3  1  0.041993  0.298396  0.050069  1
  K  K4  1  0.143552  0.083061  0.750000  1
  K  K5  1  0.645341  0.421759  0.750000  1
  K  K6  1  0.360277  0.580145  0.250000  1
  K  K7  1  0.853755  0.913791  0.250000  1
  K  K8  1  0.041993  0.298396  0.449931  1
  K  K9  1  0.454037  0.786847  0.539758  1
  K  K10  1  0.558245  0.215571  0.046888  1
  K  K11  1  0.945597  0.702355  0.535666  1
  Ti  Ti12  1  0.777336  0.484348  0.250000  1
  Mo  Mo13  1  0.277793  0.016144  0.250000  1
  Mo  Mo14  1  0.722530  0.985302  0.750000  1
  Mo  Mo15  1  0.220861  0.514749  0.750000  1
  S  S16  1  0.202575  0.751793  0.750000  1
  S  S17  1  0.704208  0.750173  0.750000  1
  S  S18  1  0.297529  0.250616  0.250000  1
  S  S19  1  0.797499  0.243199  0.250000  1
  S  S20  1  0.000334  0.420703  0.750000  1
  S  S21  1  0.502236  0.081646  0.750000  1
  S  S22  1  0.496651  0.920337  0.250000  1
  S  S23  1  0.002172  0.578048  0.250000  1
  S  S24  1  0.660373  0.551358  0.423791  1
  S  S25  1  0.162646  0.950400  0.080129  1
  S  S26  1  0.838760  0.051186  0.581049  1
  S  S27  1  0.336024  0.445978  0.917671  1
  S  S28  1  0.336024  0.445978  0.582329  1
  S  S29  1  0.660373  0.551358  0.076209  1
  S  S30  1  0.162646  0.950400  0.419871  1
  S  S31  1  0.838760  0.051186  0.918951  1
