# generated using pymatgen
data_Tb4Yb7In9(PdPt)2
_symmetry_space_group_name_H-M   'P 1'
_cell_length_a   13.30550120
_cell_length_b   13.36756879
_cell_length_c   3.70427000
_cell_angle_alpha   90.00000000
_cell_angle_beta   90.00000000
_cell_angle_gamma   112.63622622
_symmetry_Int_Tables_number   1
_chemical_formula_structural   Tb4Yb7In9(PdPt)2
_chemical_formula_sum   'Tb4 Yb7 In9 Pd2 Pt2'
_cell_volume   608.09649454
_cell_formula_units_Z   1
loop_
 _symmetry_equiv_pos_site_id
 _symmetry_equiv_pos_as_xyz
  1  'x, y, z'
loop_
 _atom_site_type_symbol
 _atom_site_label
 _atom_site_symmetry_multiplicity
 _atom_site_fract_x
 _atom_site_fract_y
 _atom_site_fract_z
 _atom_site_occupancy
  Tb  Tb0  1  0.380766  0.623532  0.000000  1
  Tb  Tb1  1  0.619234  0.376468  0.000000  1
  Tb  Tb2  1  0.313114  0.310125  0.000000  1
  Tb  Tb3  1  0.686886  0.689875  0.000000  1
  Yb  Yb4  1  0.412904  0.071339  0.000000  1
  Yb  Yb5  1  0.587096  0.928661  0.000000  1
  Yb  Yb6  1  0.070228  0.412661  0.000000  1
  Yb  Yb7  1  0.929772  0.587339  0.000000  1
  Yb  Yb8  1  0.159201  0.841762  0.000000  1
  Yb  Yb9  1  0.840799  0.158238  0.000000  1
  Yb  Yb10  1  0.000000  0.000000  0.000000  1
  In  In11  1  0.369414  0.836382  0.500000  1
  In  In12  1  0.630586  0.163618  0.500000  1
  In  In13  1  0.836375  0.369769  0.500000  1
  In  In14  1  0.163625  0.630231  0.500000  1
  In  In15  1  0.217950  0.078673  0.500000  1
  In  In16  1  0.782050  0.921327  0.500000  1
  In  In17  1  0.078539  0.218345  0.500000  1
  In  In18  1  0.921461  0.781655  0.500000  1
  In  In19  1  0.500000  0.500000  0.500000  1
  Pd  Pd20  1  0.246122  0.448524  0.500000  1
  Pd  Pd21  1  0.753878  0.551476  0.500000  1
  Pt  Pt22  1  0.449037  0.247761  0.500000  1
  Pt  Pt23  1  0.550963  0.752239  0.500000  1
