# generated using pymatgen
data_ZnFeBi3Sb3O14
_symmetry_space_group_name_H-M   'P 1'
_cell_length_a   7.32157769
_cell_length_b   7.32167475
_cell_length_c   7.32161054
_cell_angle_alpha   62.18861230
_cell_angle_beta   62.18861591
_cell_angle_gamma   62.18819850
_symmetry_Int_Tables_number   1
_chemical_formula_structural   ZnFeBi3Sb3O14
_chemical_formula_sum   'Zn1 Fe1 Bi3 Sb3 O14'
_cell_volume   291.09452111
_cell_formula_units_Z   1
loop_
 _symmetry_equiv_pos_site_id
 _symmetry_equiv_pos_as_xyz
  1  'x, y, z'
loop_
 _atom_site_type_symbol
 _atom_site_label
 _atom_site_symmetry_multiplicity
 _atom_site_fract_x
 _atom_site_fract_y
 _atom_site_fract_z
 _atom_site_occupancy
  Zn  Zn0  1  0.499992  0.999937  0.500074  1
  Fe  Fe1  1  0.000000  0.500008  0.000002  1
  Bi  Bi2  1  0.000002  0.000003  0.499996  1
  Bi  Bi3  1  0.500005  0.000010  0.000006  1
  Bi  Bi4  1  0.499995  0.499995  0.499992  1
  Sb  Sb5  1  0.500001  0.500007  0.999994  1
  Sb  Sb6  1  0.999996  0.499998  0.499992  1
  Sb  Sb7  1  0.000004  0.000009  0.999995  1
  O  O8  1  0.608882  0.108878  0.608893  1
  O  O9  1  0.391118  0.891110  0.391125  1
  O  O10  1  0.077606  0.180761  0.680748  1
  O  O11  1  0.680755  0.180764  0.077586  1
  O  O12  1  0.680754  0.577615  0.680750  1
  O  O13  1  0.922397  0.819242  0.319244  1
  O  O14  1  0.319252  0.819246  0.922379  1
  O  O15  1  0.319242  0.422412  0.319237  1
  O  O16  1  0.651912  0.590502  0.090497  1
  O  O17  1  0.090500  0.590500  0.651915  1
  O  O18  1  0.090503  0.151904  0.090501  1
  O  O19  1  0.348088  0.409500  0.909498  1
  O  O20  1  0.909504  0.409502  0.348083  1
  O  O21  1  0.909496  0.848098  0.909495  1
