# generated using pymatgen
data_YMgFeB6
_symmetry_space_group_name_H-M   'P 1'
_cell_length_a   3.42528500
_cell_length_b   8.85136600
_cell_length_c   11.21710100
_cell_angle_alpha   90.00000000
_cell_angle_beta   90.00000000
_cell_angle_gamma   90.00000000
_symmetry_Int_Tables_number   1
_chemical_formula_structural   YMgFeB6
_chemical_formula_sum   'Y4 Mg4 Fe4 B24'
_cell_volume   340.08512915
_cell_formula_units_Z   4
loop_
 _symmetry_equiv_pos_site_id
 _symmetry_equiv_pos_as_xyz
  1  'x, y, z'
loop_
 _atom_site_type_symbol
 _atom_site_label
 _atom_site_symmetry_multiplicity
 _atom_site_fract_x
 _atom_site_fract_y
 _atom_site_fract_z
 _atom_site_occupancy
  Y  Y0  1  0.000000  0.823186  0.085386  1
  Y  Y1  1  0.000000  0.176814  0.914614  1
  Y  Y2  1  0.000000  0.323186  0.414614  1
  Y  Y3  1  0.000000  0.676814  0.585386  1
  Mg  Mg4  1  0.000000  0.442691  0.131454  1
  Mg  Mg5  1  0.000000  0.557309  0.868546  1
  Mg  Mg6  1  0.000000  0.942691  0.368546  1
  Mg  Mg7  1  0.000000  0.057309  0.631454  1
  Fe  Fe8  1  0.000000  0.141432  0.182532  1
  Fe  Fe9  1  0.000000  0.858568  0.817468  1
  Fe  Fe10  1  0.000000  0.641432  0.317468  1
  Fe  Fe11  1  0.000000  0.358568  0.682532  1
  B  B12  1  0.500000  0.057077  0.069614  1
  B  B13  1  0.500000  0.942923  0.930386  1
  B  B14  1  0.500000  0.557077  0.430386  1
  B  B15  1  0.500000  0.442923  0.569614  1
  B  B16  1  0.500000  0.254039  0.083934  1
  B  B17  1  0.500000  0.745961  0.916066  1
  B  B18  1  0.500000  0.754039  0.416066  1
  B  B19  1  0.500000  0.245961  0.583934  1
  B  B20  1  0.500000  0.292385  0.236196  1
  B  B21  1  0.500000  0.707615  0.763804  1
  B  B22  1  0.500000  0.792385  0.263804  1
  B  B23  1  0.500000  0.207615  0.736196  1
  B  B24  1  0.500000  0.127784  0.316655  1
  B  B25  1  0.500000  0.872216  0.683345  1
  B  B26  1  0.500000  0.627784  0.183345  1
  B  B27  1  0.500000  0.372216  0.816655  1
  B  B28  1  0.500000  0.483249  0.286753  1
  B  B29  1  0.500000  0.516751  0.713247  1
  B  B30  1  0.500000  0.983249  0.213247  1
  B  B31  1  0.500000  0.016751  0.786753  1
  B  B32  1  0.500000  0.093090  0.474885  1
  B  B33  1  0.500000  0.906910  0.525115  1
  B  B34  1  0.500000  0.593090  0.025115  1
  B  B35  1  0.500000  0.406910  0.974885  1
