# generated using pymatgen
data_Li3Be(Si2Ni3)4
_symmetry_space_group_name_H-M   'P 1'
_cell_length_a   4.44578036
_cell_length_b   4.42814899
_cell_length_c   13.33969057
_cell_angle_alpha   89.24976230
_cell_angle_beta   89.21674477
_cell_angle_gamma   89.11944000
_symmetry_Int_Tables_number   1
_chemical_formula_structural   Li3Be(Si2Ni3)4
_chemical_formula_sum   'Li3 Be1 Si8 Ni12'
_cell_volume   262.53550699
_cell_formula_units_Z   1
loop_
 _symmetry_equiv_pos_site_id
 _symmetry_equiv_pos_as_xyz
  1  'x, y, z'
loop_
 _atom_site_type_symbol
 _atom_site_label
 _atom_site_symmetry_multiplicity
 _atom_site_fract_x
 _atom_site_fract_y
 _atom_site_fract_z
 _atom_site_occupancy
  Li  Li0  1  0.341521  0.841630  0.118228  1
  Li  Li1  1  0.348319  0.848178  0.445480  1
  Li  Li2  1  0.348000  0.843948  0.782723  1
  Be  Be3  1  0.842984  0.656406  0.218202  1
  Si  Si4  1  0.849348  0.673451  0.545032  1
  Si  Si5  1  0.850360  0.667942  0.883096  1
  Si  Si6  1  0.647838  0.358738  0.063736  1
  Si  Si7  1  0.651036  0.351649  0.382344  1
  Si  Si8  1  0.645204  0.347936  0.722172  1
  Si  Si9  1  0.159952  0.138801  0.278603  1
  Si  Si10  1  0.166405  0.149365  0.614923  1
  Si  Si11  1  0.169048  0.144784  0.952608  1
  Ni  Ni12  1  0.653485  0.142316  0.218339  1
  Ni  Ni13  1  0.652444  0.160308  0.549022  1
  Ni  Ni14  1  0.652724  0.155068  0.884519  1
  Ni  Ni15  1  0.134433  0.349245  0.119162  1
  Ni  Ni16  1  0.134971  0.350007  0.451814  1
  Ni  Ni17  1  0.135175  0.347416  0.785959  1
  Ni  Ni18  1  0.350604  0.631051  0.282871  1
  Ni  Ni19  1  0.358760  0.640384  0.616052  1
  Ni  Ni20  1  0.358261  0.633847  0.951445  1
  Ni  Ni21  1  0.847086  0.857449  0.045353  1
  Ni  Ni22  1  0.849879  0.854685  0.377606  1
  Ni  Ni23  1  0.852167  0.855395  0.710711  1
