# generated using pymatgen
data_Nd11Cu3Si6Ni
_symmetry_space_group_name_H-M   'P 1'
_cell_length_a   9.35503594
_cell_length_b   9.35503633
_cell_length_c   13.90008760
_cell_angle_alpha   74.72870963
_cell_angle_beta   74.72870942
_cell_angle_gamma   26.54123325
_symmetry_Int_Tables_number   1
_chemical_formula_structural   Nd11Cu3Si6Ni
_chemical_formula_sum   'Nd11 Cu3 Si6 Ni1'
_cell_volume   523.29608318
_cell_formula_units_Z   1
loop_
 _symmetry_equiv_pos_site_id
 _symmetry_equiv_pos_as_xyz
  1  'x, y, z'
loop_
 _atom_site_type_symbol
 _atom_site_label
 _atom_site_symmetry_multiplicity
 _atom_site_fract_x
 _atom_site_fract_y
 _atom_site_fract_z
 _atom_site_occupancy
  Nd  Nd0  1  0.903523  0.903523  0.280238  1
  Nd  Nd1  1  0.097028  0.097028  0.718453  1
  Nd  Nd2  1  0.551473  0.551473  0.367665  1
  Nd  Nd3  1  0.448673  0.448673  0.631221  1
  Nd  Nd4  1  0.780095  0.780095  0.603047  1
  Nd  Nd5  1  0.220299  0.220299  0.397325  1
  Nd  Nd6  1  0.861537  0.861537  0.848404  1
  Nd  Nd7  1  0.137955  0.137955  0.152160  1
  Nd  Nd8  1  0.339714  0.339714  0.099714  1
  Nd  Nd9  1  0.661118  0.661118  0.899310  1
  Nd  Nd10  1  0.000825  0.000825  0.999421  1
  Cu  Cu11  1  0.938717  0.938717  0.475009  1
  Cu  Cu12  1  0.061227  0.061227  0.524335  1
  Cu  Cu13  1  0.748871  0.748871  0.050584  1
  Si  Si14  1  0.737091  0.737091  0.235576  1
  Si  Si15  1  0.263394  0.263394  0.767624  1
  Si  Si16  1  0.627563  0.627563  0.549224  1
  Si  Si17  1  0.372058  0.372058  0.450962  1
  Si  Si18  1  0.513297  0.513297  0.151392  1
  Si  Si19  1  0.487534  0.487534  0.848156  1
  Ni  Ni20  1  0.248007  0.248007  0.950182  1
