# generated using pymatgen
data_Tm4Tc3NiB16
_symmetry_space_group_name_H-M   'P 1'
_cell_length_a   3.53303000
_cell_length_b   5.91452409
_cell_length_c   11.46770218
_cell_angle_alpha   89.97962156
_cell_angle_beta   90.00000000
_cell_angle_gamma   90.00000000
_symmetry_Int_Tables_number   1
_chemical_formula_structural   Tm4Tc3NiB16
_chemical_formula_sum   'Tm4 Tc3 Ni1 B16'
_cell_volume   239.63128062
_cell_formula_units_Z   1
loop_
 _symmetry_equiv_pos_site_id
 _symmetry_equiv_pos_as_xyz
  1  'x, y, z'
loop_
 _atom_site_type_symbol
 _atom_site_label
 _atom_site_symmetry_multiplicity
 _atom_site_fract_x
 _atom_site_fract_y
 _atom_site_fract_z
 _atom_site_occupancy
  Tm  Tm0  1  0.000000  0.628898  0.351560  1
  Tm  Tm1  1  0.000000  0.373021  0.646103  1
  Tm  Tm2  1  0.000000  0.128713  0.153095  1
  Tm  Tm3  1  0.000000  0.872114  0.847316  1
  Tc  Tc4  1  0.000000  0.632538  0.086040  1
  Tc  Tc5  1  0.000000  0.366598  0.911759  1
  Tc  Tc6  1  0.000000  0.132010  0.414754  1
  Ni  Ni7  1  0.000000  0.857341  0.596094  1
  B  B8  1  0.500000  0.788029  0.186162  1
  B  B9  1  0.500000  0.210480  0.812733  1
  B  B10  1  0.500000  0.287919  0.315048  1
  B  B11  1  0.500000  0.713863  0.683158  1
  B  B12  1  0.500000  0.866050  0.030753  1
  B  B13  1  0.500000  0.134037  0.968341  1
  B  B14  1  0.500000  0.367467  0.469835  1
  B  B15  1  0.500000  0.638321  0.531981  1
  B  B16  1  0.500000  0.886357  0.451682  1
  B  B17  1  0.500000  0.113935  0.547356  1
  B  B18  1  0.500000  0.385723  0.047308  1
  B  B19  1  0.500000  0.614492  0.951376  1
  B  B20  1  0.500000  0.975832  0.307081  1
  B  B21  1  0.500000  0.023282  0.691928  1
  B  B22  1  0.500000  0.477358  0.193597  1
  B  B23  1  0.500000  0.525621  0.804941  1
