# generated using pymatgen
data_Sc4Co6SiTc
_symmetry_space_group_name_H-M   'P 1'
_cell_length_a   5.00818100
_cell_length_b   5.00818077
_cell_length_c   7.70410000
_cell_angle_alpha   90.00000000
_cell_angle_beta   90.00000000
_cell_angle_gamma   119.99999489
_symmetry_Int_Tables_number   1
_chemical_formula_structural   Sc4Co6SiTc
_chemical_formula_sum   'Sc4 Co6 Si1 Tc1'
_cell_volume   167.34493736
_cell_formula_units_Z   1
loop_
 _symmetry_equiv_pos_site_id
 _symmetry_equiv_pos_as_xyz
  1  'x, y, z'
loop_
 _atom_site_type_symbol
 _atom_site_label
 _atom_site_symmetry_multiplicity
 _atom_site_fract_x
 _atom_site_fract_y
 _atom_site_fract_z
 _atom_site_occupancy
  Sc  Sc0  1  0.333333  0.666667  0.561528  1
  Sc  Sc1  1  0.666667  0.333333  0.438472  1
  Sc  Sc2  1  0.666667  0.333333  0.064597  1
  Sc  Sc3  1  0.333333  0.666667  0.935403  1
  Co  Co4  1  0.829566  0.170434  0.755273  1
  Co  Co5  1  0.659133  0.829566  0.244727  1
  Co  Co6  1  0.170434  0.829566  0.244727  1
  Co  Co7  1  0.829566  0.659133  0.755273  1
  Co  Co8  1  0.170434  0.340867  0.244727  1
  Co  Co9  1  0.340867  0.170434  0.755273  1
  Si  Si10  1  0.000000  0.000000  0.000000  1
  Tc  Tc11  1  0.000000  0.000000  0.500000  1
