# generated using pymatgen
data_Tm8LuMg(Ni2Sb)2
_symmetry_space_group_name_H-M   'P 1'
_cell_length_a   8.56734474
_cell_length_b   8.56734509
_cell_length_c   8.56734510
_cell_angle_alpha   129.11655304
_cell_angle_beta   129.11654842
_cell_angle_gamma   74.82310728
_symmetry_Int_Tables_number   1
_chemical_formula_structural   Tm8LuMg(Ni2Sb)2
_chemical_formula_sum   'Tm8 Lu1 Mg1 Ni4 Sb2'
_cell_volume   368.71696314
_cell_formula_units_Z   1
loop_
 _symmetry_equiv_pos_site_id
 _symmetry_equiv_pos_as_xyz
  1  'x, y, z'
loop_
 _atom_site_type_symbol
 _atom_site_label
 _atom_site_symmetry_multiplicity
 _atom_site_fract_x
 _atom_site_fract_y
 _atom_site_fract_z
 _atom_site_occupancy
  Tm  Tm0  1  0.787511  0.302083  0.824257  1
  Tm  Tm1  1  0.212489  0.697917  0.175743  1
  Tm  Tm2  1  0.477826  0.963254  0.175743  1
  Tm  Tm3  1  0.302083  0.477826  0.514571  1
  Tm  Tm4  1  0.036746  0.212489  0.514571  1
  Tm  Tm5  1  0.522174  0.036746  0.824257  1
  Tm  Tm6  1  0.697917  0.522174  0.485429  1
  Tm  Tm7  1  0.963254  0.787511  0.485429  1
  Lu  Lu8  1  0.000000  0.000000  0.000000  1
  Mg  Mg9  1  0.500000  0.500000  0.000000  1
  Ni  Ni10  1  0.124773  0.631842  0.756614  1
  Ni  Ni11  1  0.875227  0.368158  0.243386  1
  Ni  Ni12  1  0.631842  0.875227  0.507070  1
  Ni  Ni13  1  0.368158  0.124773  0.492930  1
  Sb  Sb14  1  0.242497  0.242497  0.000000  1
  Sb  Sb15  1  0.757503  0.757503  0.000000  1
