# generated using pymatgen
data_Sr2Ca3TbU2O12
_symmetry_space_group_name_H-M   'P 1'
_cell_length_a   6.91296073
_cell_length_b   6.90534658
_cell_length_c   6.88071177
_cell_angle_alpha   91.01930426
_cell_angle_beta   91.56214306
_cell_angle_gamma   91.10796335
_symmetry_Int_Tables_number   1
_chemical_formula_structural   Sr2Ca3TbU2O12
_chemical_formula_sum   'Sr2 Ca3 Tb1 U2 O12'
_cell_volume   328.22174373
_cell_formula_units_Z   1
loop_
 _symmetry_equiv_pos_site_id
 _symmetry_equiv_pos_as_xyz
  1  'x, y, z'
loop_
 _atom_site_type_symbol
 _atom_site_label
 _atom_site_symmetry_multiplicity
 _atom_site_fract_x
 _atom_site_fract_y
 _atom_site_fract_z
 _atom_site_occupancy
  Sr  Sr0  1  0.749930  0.939388  0.444701  1
  Sr  Sr1  1  0.550563  0.251546  0.060744  1
  Ca  Ca2  1  0.248635  0.059299  0.554563  1
  Ca  Ca3  1  0.060765  0.557281  0.249732  1
  Ca  Ca4  1  0.445987  0.748976  0.940937  1
  Tb  Tb5  1  0.939139  0.441924  0.749008  1
  U  U6  1  0.003781  0.996198  0.995989  1
  U  U7  1  0.493185  0.503221  0.504559  1
  O  O8  1  0.290525  0.048163  0.917660  1
  O  O9  1  0.073478  0.921330  0.286209  1
  O  O10  1  0.940431  0.297561  0.056430  1
  O  O11  1  0.714330  0.932099  0.063880  1
  O  O12  1  0.942765  0.097495  0.706169  1
  O  O13  1  0.065487  0.694163  0.924222  1
  O  O14  1  0.196437  0.415353  0.552437  1
  O  O15  1  0.405520  0.552778  0.212853  1
  O  O16  1  0.450790  0.789732  0.592572  1
  O  O17  1  0.603399  0.469569  0.796034  1
  O  O18  1  0.798889  0.572100  0.465928  1
  O  O19  1  0.525964  0.211823  0.425372  1
