# generated using pymatgen
data_Tb7Sm(Nb3Si4)4
_symmetry_space_group_name_H-M   'P 1'
_cell_length_a   7.09537342
_cell_length_b   7.09536212
_cell_length_c   13.09474055
_cell_angle_alpha   89.97988926
_cell_angle_beta   90.00607732
_cell_angle_gamma   89.99865670
_symmetry_Int_Tables_number   1
_chemical_formula_structural   Tb7Sm(Nb3Si4)4
_chemical_formula_sum   'Tb7 Sm1 Nb12 Si16'
_cell_volume   659.24476642
_cell_formula_units_Z   1
loop_
 _symmetry_equiv_pos_site_id
 _symmetry_equiv_pos_as_xyz
  1  'x, y, z'
loop_
 _atom_site_type_symbol
 _atom_site_label
 _atom_site_symmetry_multiplicity
 _atom_site_fract_x
 _atom_site_fract_y
 _atom_site_fract_z
 _atom_site_occupancy
  Tb  Tb0  1  0.001387  0.659326  0.717771  1
  Tb  Tb1  1  0.159524  0.498741  0.467947  1
  Tb  Tb2  1  0.501312  0.840587  0.032010  1
  Tb  Tb3  1  0.840666  0.501465  0.967434  1
  Tb  Tb4  1  0.498559  0.159339  0.532483  1
  Tb  Tb5  1  0.340688  0.998686  0.782133  1
  Tb  Tb6  1  0.659217  0.001303  0.282490  1
  Sm  Sm7  1  0.997069  0.339666  0.217769  1
  Nb  Nb8  1  0.170751  0.169932  0.999626  1
  Nb  Nb9  1  0.829587  0.829541  0.500309  1
  Nb  Nb10  1  0.329675  0.670631  0.250126  1
  Nb  Nb11  1  0.670421  0.329701  0.749935  1
  Nb  Nb12  1  0.155203  0.992469  0.376434  1
  Nb  Nb13  1  0.845801  0.007727  0.875431  1
  Nb  Nb14  1  0.507585  0.654455  0.626487  1
  Nb  Nb15  1  0.345804  0.492547  0.873363  1
  Nb  Nb16  1  0.492428  0.345110  0.125872  1
  Nb  Nb17  1  0.654438  0.508389  0.374374  1
  Nb  Nb18  1  0.992164  0.154307  0.624360  1
  Nb  Nb19  1  0.007863  0.845070  0.123790  1
  Si  Si20  1  0.293764  0.043856  0.186554  1
  Si  Si21  1  0.706828  0.954994  0.686498  1
  Si  Si22  1  0.454934  0.793188  0.436756  1
  Si  Si23  1  0.207696  0.545496  0.062780  1
  Si  Si24  1  0.544731  0.206936  0.936298  1
  Si  Si25  1  0.792979  0.455044  0.563614  1
  Si  Si26  1  0.045108  0.293130  0.813451  1
  Si  Si27  1  0.954809  0.708682  0.313869  1
  Si  Si28  1  0.369978  0.295467  0.317840  1
  Si  Si29  1  0.631566  0.704619  0.817675  1
  Si  Si30  1  0.204430  0.868535  0.567768  1
  Si  Si31  1  0.131602  0.795872  0.932242  1
  Si  Si32  1  0.794553  0.129933  0.066161  1
  Si  Si33  1  0.868510  0.204142  0.433508  1
  Si  Si34  1  0.295370  0.368575  0.682220  1
  Si  Si35  1  0.703000  0.632541  0.182625  1
