# generated using pymatgen
data_Hf5(In2Fe)2
_symmetry_space_group_name_H-M   'P 1'
_cell_length_a   17.33361400
_cell_length_b   7.60348300
_cell_length_c   3.26450000
_cell_angle_alpha   90.00000000
_cell_angle_beta   90.00000000
_cell_angle_gamma   90.00000000
_symmetry_Int_Tables_number   1
_chemical_formula_structural   Hf5(In2Fe)2
_chemical_formula_sum   'Hf10 In8 Fe4'
_cell_volume   430.24751765
_cell_formula_units_Z   2
loop_
 _symmetry_equiv_pos_site_id
 _symmetry_equiv_pos_as_xyz
  1  'x, y, z'
loop_
 _atom_site_type_symbol
 _atom_site_label
 _atom_site_symmetry_multiplicity
 _atom_site_fract_x
 _atom_site_fract_y
 _atom_site_fract_z
 _atom_site_occupancy
  Hf  Hf0  1  0.000000  0.000000  0.000000  1
  Hf  Hf1  1  0.413398  0.134554  0.000000  1
  Hf  Hf2  1  0.724313  0.238389  0.000000  1
  Hf  Hf3  1  0.224312  0.261610  0.000000  1
  Hf  Hf4  1  0.913398  0.365445  0.000000  1
  Hf  Hf5  1  0.500000  0.500000  0.000000  1
  Hf  Hf6  1  0.086602  0.634554  0.000000  1
  Hf  Hf7  1  0.775688  0.738389  0.000000  1
  Hf  Hf8  1  0.275688  0.761610  0.000000  1
  Hf  Hf9  1  0.586602  0.865445  0.000000  1
  In  In10  1  0.848826  0.057668  0.500000  1
  In  In11  1  0.567767  0.196550  0.500000  1
  In  In12  1  0.067768  0.303450  0.500000  1
  In  In13  1  0.348826  0.442332  0.500000  1
  In  In14  1  0.651175  0.557668  0.500000  1
  In  In15  1  0.932233  0.696551  0.500000  1
  In  In16  1  0.432232  0.803450  0.500000  1
  In  In17  1  0.151175  0.942332  0.500000  1
  Fe  Fe18  1  0.306487  0.045766  0.500000  1
  Fe  Fe19  1  0.806488  0.454233  0.500000  1
  Fe  Fe20  1  0.193513  0.545766  0.500000  1
  Fe  Fe21  1  0.693513  0.954233  0.500000  1
