# generated using pymatgen
data_Pm2UBiO8
_symmetry_space_group_name_H-M   'P 1'
_cell_length_a   6.67760100
_cell_length_b   6.67760209
_cell_length_c   6.67760082
_cell_angle_alpha   131.38257027
_cell_angle_beta   131.38258439
_cell_angle_gamma   71.20594859
_symmetry_Int_Tables_number   1
_chemical_formula_structural   Pm2UBiO8
_chemical_formula_sum   'Pm2 U1 Bi1 O8'
_cell_volume   164.10132380
_cell_formula_units_Z   1
loop_
 _symmetry_equiv_pos_site_id
 _symmetry_equiv_pos_as_xyz
  1  'x, y, z'
loop_
 _atom_site_type_symbol
 _atom_site_label
 _atom_site_symmetry_multiplicity
 _atom_site_fract_x
 _atom_site_fract_y
 _atom_site_fract_z
 _atom_site_occupancy
  Pm  Pm0  1  0.000000  0.000000  0.000000  1
  Pm  Pm1  1  0.750000  0.250000  0.500000  1
  U  U2  1  0.250000  0.750000  0.500000  1
  Bi  Bi3  1  0.500000  0.500000  0.000000  1
  O  O4  1  0.369702  0.396897  0.506805  1
  O  O5  1  0.890092  0.862897  0.493195  1
  O  O6  1  0.137103  0.109908  0.506805  1
  O  O7  1  0.603103  0.109908  0.972805  1
  O  O8  1  0.890092  0.396897  0.027195  1
  O  O9  1  0.603103  0.630298  0.493195  1
  O  O10  1  0.137103  0.630298  0.027195  1
  O  O11  1  0.369702  0.862897  0.972805  1
