# generated using pymatgen
data_Y3Co(Si3Ir4)2
_symmetry_space_group_name_H-M   'P 1'
_cell_length_a   3.96744700
_cell_length_b   11.30465100
_cell_length_c   12.88263100
_cell_angle_alpha   90.00000000
_cell_angle_beta   90.00000000
_cell_angle_gamma   90.00000000
_symmetry_Int_Tables_number   1
_chemical_formula_structural   Y3Co(Si3Ir4)2
_chemical_formula_sum   'Y6 Co2 Si12 Ir16'
_cell_volume   577.79377754
_cell_formula_units_Z   2
loop_
 _symmetry_equiv_pos_site_id
 _symmetry_equiv_pos_as_xyz
  1  'x, y, z'
loop_
 _atom_site_type_symbol
 _atom_site_label
 _atom_site_symmetry_multiplicity
 _atom_site_fract_x
 _atom_site_fract_y
 _atom_site_fract_z
 _atom_site_occupancy
  Y  Y0  1  0.000000  0.500000  0.525727  1
  Y  Y1  1  0.500000  0.000000  0.474273  1
  Y  Y2  1  0.500000  0.816627  0.202679  1
  Y  Y3  1  0.500000  0.183373  0.202679  1
  Y  Y4  1  0.000000  0.683373  0.797321  1
  Y  Y5  1  0.000000  0.316627  0.797321  1
  Co  Co6  1  0.000000  0.500000  0.980778  1
  Co  Co7  1  0.500000  0.000000  0.019222  1
  Si  Si8  1  0.500000  0.500000  0.880592  1
  Si  Si9  1  0.000000  0.000000  0.119408  1
  Si  Si10  1  0.500000  0.500000  0.341498  1
  Si  Si11  1  0.000000  0.000000  0.658502  1
  Si  Si12  1  0.500000  0.306709  0.617977  1
  Si  Si13  1  0.500000  0.693291  0.617977  1
  Si  Si14  1  0.000000  0.193291  0.382023  1
  Si  Si15  1  0.000000  0.806709  0.382023  1
  Si  Si16  1  0.500000  0.854274  0.898622  1
  Si  Si17  1  0.500000  0.145726  0.898622  1
  Si  Si18  1  0.000000  0.645726  0.101378  1
  Si  Si19  1  0.000000  0.354274  0.101378  1
  Ir  Ir20  1  0.500000  0.500000  0.154959  1
  Ir  Ir21  1  0.000000  0.000000  0.845041  1
  Ir  Ir22  1  0.500000  0.500000  0.695457  1
  Ir  Ir23  1  0.000000  0.000000  0.304543  1
  Ir  Ir24  1  0.500000  0.334233  0.988587  1
  Ir  Ir25  1  0.500000  0.665767  0.988587  1
  Ir  Ir26  1  0.000000  0.165767  0.011413  1
  Ir  Ir27  1  0.000000  0.834233  0.011413  1
  Ir  Ir28  1  0.500000  0.301898  0.430168  1
  Ir  Ir29  1  0.500000  0.698102  0.430168  1
  Ir  Ir30  1  0.000000  0.198102  0.569832  1
  Ir  Ir31  1  0.000000  0.801898  0.569832  1
  Ir  Ir32  1  0.500000  0.877463  0.713743  1
  Ir  Ir33  1  0.500000  0.122537  0.713743  1
  Ir  Ir34  1  0.000000  0.622537  0.286257  1
  Ir  Ir35  1  0.000000  0.377463  0.286257  1
