# generated using pymatgen
data_Li2Yb3Y(Co3P2)6
_symmetry_space_group_name_H-M   'P 1'
_cell_length_a   3.66173200
_cell_length_b   10.23512603
_cell_length_c   11.79897900
_cell_angle_alpha   90.00453994
_cell_angle_beta   90.00000000
_cell_angle_gamma   90.00000000
_symmetry_Int_Tables_number   1
_chemical_formula_structural   Li2Yb3Y(Co3P2)6
_chemical_formula_sum   'Li2 Yb3 Y1 Co18 P12'
_cell_volume   442.20553777
_cell_formula_units_Z   1
loop_
 _symmetry_equiv_pos_site_id
 _symmetry_equiv_pos_as_xyz
  1  'x, y, z'
loop_
 _atom_site_type_symbol
 _atom_site_label
 _atom_site_symmetry_multiplicity
 _atom_site_fract_x
 _atom_site_fract_y
 _atom_site_fract_z
 _atom_site_occupancy
  Li  Li0  1  0.250000  0.702862  0.991142  1
  Li  Li1  1  0.250000  0.797662  0.490253  1
  Yb  Yb2  1  0.250000  0.920778  0.202856  1
  Yb  Yb3  1  0.750000  0.419581  0.297150  1
  Yb  Yb4  1  0.750000  0.079938  0.796312  1
  Y  Y5  1  0.250000  0.580421  0.702911  1
  Co  Co6  1  0.750000  0.287298  0.007902  1
  Co  Co7  1  0.750000  0.212335  0.507821  1
  Co  Co8  1  0.250000  0.403296  0.486901  1
  Co  Co9  1  0.250000  0.096433  0.987171  1
  Co  Co10  1  0.750000  0.590148  0.515078  1
  Co  Co11  1  0.750000  0.910447  0.013810  1
  Co  Co12  1  0.250000  0.222202  0.173801  1
  Co  Co13  1  0.250000  0.277309  0.674472  1
  Co  Co14  1  0.750000  0.779870  0.826660  1
  Co  Co15  1  0.750000  0.718584  0.327482  1
  Co  Co16  1  0.250000  0.880542  0.698409  1
  Co  Co17  1  0.250000  0.619771  0.198505  1
  Co  Co18  1  0.750000  0.122526  0.299657  1
  Co  Co19  1  0.750000  0.377783  0.800388  1
  Co  Co20  1  0.250000  0.462587  0.932057  1
  Co  Co21  1  0.250000  0.037056  0.431260  1
  Co  Co22  1  0.750000  0.532823  0.067158  1
  Co  Co23  1  0.750000  0.967472  0.566012  1
  P  P24  1  0.250000  0.422220  0.112876  1
  P  P25  1  0.250000  0.077864  0.612211  1
  P  P26  1  0.750000  0.576699  0.885465  1
  P  P27  1  0.750000  0.923668  0.383682  1
  P  P28  1  0.250000  0.266545  0.867063  1
  P  P29  1  0.250000  0.232608  0.366004  1
  P  P30  1  0.750000  0.730458  0.139698  1
  P  P31  1  0.750000  0.771462  0.638158  1
  P  P32  1  0.250000  0.600708  0.392548  1
  P  P33  1  0.250000  0.899507  0.893216  1
  P  P34  1  0.750000  0.394933  0.606747  1
  P  P35  1  0.750000  0.103601  0.107159  1
