# generated using pymatgen
data_Y4Lu8InCo5
_symmetry_space_group_name_H-M   'P 1'
_cell_length_a   8.12639056
_cell_length_b   8.12639057
_cell_length_c   8.12639100
_cell_angle_alpha   110.68580340
_cell_angle_beta   110.58054070
_cell_angle_gamma   107.17151839
_symmetry_Int_Tables_number   1
_chemical_formula_structural   Y4Lu8InCo5
_chemical_formula_sum   'Y4 Lu8 In1 Co5'
_cell_volume   412.61824814
_cell_formula_units_Z   1
loop_
 _symmetry_equiv_pos_site_id
 _symmetry_equiv_pos_as_xyz
  1  'x, y, z'
loop_
 _atom_site_type_symbol
 _atom_site_label
 _atom_site_symmetry_multiplicity
 _atom_site_fract_x
 _atom_site_fract_y
 _atom_site_fract_z
 _atom_site_occupancy
  Y  Y0  1  0.810655  0.708636  0.519287  1
  Y  Y1  1  0.189345  0.291364  0.480713  1
  Y  Y2  1  0.189348  0.708636  0.897982  1
  Y  Y3  1  0.810652  0.291364  0.102018  1
  Lu  Lu4  1  0.685521  0.380025  0.694505  1
  Lu  Lu5  1  0.314479  0.619975  0.305495  1
  Lu  Lu6  1  0.685516  0.991047  0.305531  1
  Lu  Lu7  1  0.314484  0.008953  0.694469  1
  Lu  Lu8  1  0.599169  0.790771  0.808377  1
  Lu  Lu9  1  0.400831  0.209229  0.191623  1
  Lu  Lu10  1  0.982393  0.790771  0.191601  1
  Lu  Lu11  1  0.017607  0.209229  0.808399  1
  In  In12  1  0.500000  0.500000  0.000000  1
  Co  Co13  1  0.621929  0.000000  0.621929  1
  Co  Co14  1  0.378071  0.000000  0.378071  1
  Co  Co15  1  0.114669  0.614664  0.499995  1
  Co  Co16  1  0.885331  0.385336  0.500005  1
  Co  Co17  1  0.000000  0.000000  0.000000  1
