# generated using pymatgen
data_Dy4Er12Cd4Ir3Os
_symmetry_space_group_name_H-M   'P 1'
_cell_length_a   9.61801606
_cell_length_b   9.61119882
_cell_length_c   9.61119784
_cell_angle_alpha   59.49478655
_cell_angle_beta   59.46663849
_cell_angle_gamma   59.46663639
_symmetry_Int_Tables_number   1
_chemical_formula_structural   Dy4Er12Cd4Ir3Os
_chemical_formula_sum   'Dy4 Er12 Cd4 Ir3 Os1'
_cell_volume   620.75225454
_cell_formula_units_Z   1
loop_
 _symmetry_equiv_pos_site_id
 _symmetry_equiv_pos_as_xyz
  1  'x, y, z'
loop_
 _atom_site_type_symbol
 _atom_site_label
 _atom_site_symmetry_multiplicity
 _atom_site_fract_x
 _atom_site_fract_y
 _atom_site_fract_z
 _atom_site_occupancy
  Dy  Dy0  1  0.811352  0.188503  0.811344  1
  Dy  Dy1  1  0.189289  0.806749  0.189204  1
  Dy  Dy2  1  0.811352  0.811344  0.188503  1
  Dy  Dy3  1  0.189289  0.189204  0.806749  1
  Er  Er4  1  0.599503  0.599483  0.599483  1
  Er  Er5  1  0.598764  0.598660  0.206932  1
  Er  Er6  1  0.598764  0.206932  0.598660  1
  Er  Er7  1  0.206722  0.598817  0.598817  1
  Er  Er8  1  0.061874  0.438522  0.438522  1
  Er  Er9  1  0.437145  0.060067  0.060067  1
  Er  Er10  1  0.438742  0.061901  0.438567  1
  Er  Er11  1  0.059915  0.437212  0.059903  1
  Er  Er12  1  0.438742  0.438567  0.061901  1
  Er  Er13  1  0.059915  0.059903  0.437212  1
  Er  Er14  1  0.189252  0.810630  0.810630  1
  Er  Er15  1  0.806180  0.189756  0.189756  1
  Cd  Cd16  1  0.830075  0.829628  0.829628  1
  Cd  Cd17  1  0.830239  0.830710  0.507133  1
  Cd  Cd18  1  0.830239  0.507133  0.830710  1
  Cd  Cd19  1  0.507162  0.830314  0.830314  1
  Ir  Ir20  1  0.393186  0.393966  0.827035  1
  Ir  Ir21  1  0.393186  0.827035  0.393966  1
  Ir  Ir22  1  0.827009  0.393330  0.393330  1
  Os  Os23  1  0.392106  0.391633  0.391633  1
