# generated using pymatgen
data_YEr5FeBi2
_symmetry_space_group_name_H-M   'P 1'
_cell_length_a   8.28519400
_cell_length_b   8.26658795
_cell_length_c   4.16002500
_cell_angle_alpha   90.00000000
_cell_angle_beta   90.00000000
_cell_angle_gamma   120.07448228
_symmetry_Int_Tables_number   1
_chemical_formula_structural   YEr5FeBi2
_chemical_formula_sum   'Y1 Er5 Fe1 Bi2'
_cell_volume   246.56367992
_cell_formula_units_Z   1
loop_
 _symmetry_equiv_pos_site_id
 _symmetry_equiv_pos_as_xyz
  1  'x, y, z'
loop_
 _atom_site_type_symbol
 _atom_site_label
 _atom_site_symmetry_multiplicity
 _atom_site_fract_x
 _atom_site_fract_y
 _atom_site_fract_z
 _atom_site_occupancy
  Y  Y0  1  0.609171  0.000000  0.000000  1
  Er  Er1  1  0.229668  0.000000  0.500000  1
  Er  Er2  1  0.000637  0.230263  0.500000  1
  Er  Er3  1  0.770374  0.769737  0.500000  1
  Er  Er4  1  0.999973  0.609986  0.000000  1
  Er  Er5  1  0.389987  0.390014  0.000000  1
  Fe  Fe6  1  0.000764  0.000000  0.000000  1
  Bi  Bi7  1  0.332883  0.666342  0.500000  1
  Bi  Bi8  1  0.666543  0.333658  0.500000  1
