# generated using pymatgen
data_ErZr(Pa2Ga5)2
_symmetry_space_group_name_H-M   'P 1'
_cell_length_a   5.97366451
_cell_length_b   5.97366638
_cell_length_c   9.39926000
_cell_angle_alpha   90.00000000
_cell_angle_beta   90.00000000
_cell_angle_gamma   102.92320271
_symmetry_Int_Tables_number   1
_chemical_formula_structural   ErZr(Pa2Ga5)2
_chemical_formula_sum   'Er1 Zr1 Pa4 Ga10'
_cell_volume   326.91388675
_cell_formula_units_Z   1
loop_
 _symmetry_equiv_pos_site_id
 _symmetry_equiv_pos_as_xyz
  1  'x, y, z'
loop_
 _atom_site_type_symbol
 _atom_site_label
 _atom_site_symmetry_multiplicity
 _atom_site_fract_x
 _atom_site_fract_y
 _atom_site_fract_z
 _atom_site_occupancy
  Er  Er0  1  0.642797  0.642797  0.250000  1
  Zr  Zr1  1  0.354690  0.354690  0.750000  1
  Pa  Pa2  1  0.793012  0.204461  0.999919  1
  Pa  Pa3  1  0.204461  0.793012  0.999919  1
  Pa  Pa4  1  0.204461  0.793012  0.500081  1
  Pa  Pa5  1  0.793012  0.204461  0.500081  1
  Ga  Ga6  1  0.082844  0.485062  0.250000  1
  Ga  Ga7  1  0.926281  0.512113  0.750000  1
  Ga  Ga8  1  0.485062  0.082844  0.250000  1
  Ga  Ga9  1  0.512113  0.926281  0.750000  1
  Ga  Ga10  1  0.027933  0.027933  0.250000  1
  Ga  Ga11  1  0.977879  0.977879  0.750000  1
  Ga  Ga12  1  0.313956  0.313956  0.047170  1
  Ga  Ga13  1  0.683770  0.683770  0.943580  1
  Ga  Ga14  1  0.683770  0.683770  0.556420  1
  Ga  Ga15  1  0.313956  0.313956  0.452830  1
