# generated using pymatgen
data_Ba6ScAlAs6
_symmetry_space_group_name_H-M   'P 1'
_cell_length_a   10.73256484
_cell_length_b   10.73256522
_cell_length_c   13.50814100
_cell_angle_alpha   90.00000000
_cell_angle_beta   90.00000000
_cell_angle_gamma   141.54173832
_symmetry_Int_Tables_number   1
_chemical_formula_structural   Ba6ScAlAs6
_chemical_formula_sum   'Ba12 Sc2 Al2 As12'
_cell_volume   967.72994316
_cell_formula_units_Z   2
loop_
 _symmetry_equiv_pos_site_id
 _symmetry_equiv_pos_as_xyz
  1  'x, y, z'
loop_
 _atom_site_type_symbol
 _atom_site_label
 _atom_site_symmetry_multiplicity
 _atom_site_fract_x
 _atom_site_fract_y
 _atom_site_fract_z
 _atom_site_occupancy
  Ba  Ba0  1  0.833968  0.838492  0.344364  1
  Ba  Ba1  1  0.161508  0.166032  0.655636  1
  Ba  Ba2  1  0.661508  0.666032  0.844364  1
  Ba  Ba3  1  0.333968  0.338492  0.155636  1
  Ba  Ba4  1  0.859932  0.500293  0.133041  1
  Ba  Ba5  1  0.499707  0.140068  0.866959  1
  Ba  Ba6  1  0.999707  0.640068  0.633041  1
  Ba  Ba7  1  0.359932  0.000293  0.366959  1
  Ba  Ba8  1  0.135729  0.487460  0.869963  1
  Ba  Ba9  1  0.512540  0.864271  0.130037  1
  Ba  Ba10  1  0.012540  0.364271  0.369963  1
  Ba  Ba11  1  0.635729  0.987460  0.630037  1
  Sc  Sc12  1  0.082119  0.917881  0.000000  1
  Sc  Sc13  1  0.582119  0.417881  0.500000  1
  Al  Al14  1  0.917961  0.082039  0.000000  1
  Al  Al15  1  0.417961  0.582039  0.500000  1
  As  As16  1  0.786357  0.794649  0.098044  1
  As  As17  1  0.205351  0.213643  0.901956  1
  As  As18  1  0.705351  0.713643  0.598044  1
  As  As19  1  0.286357  0.294649  0.401956  1
  As  As20  1  0.036097  0.346719  0.116394  1
  As  As21  1  0.653281  0.963903  0.883606  1
  As  As22  1  0.153281  0.463903  0.616394  1
  As  As23  1  0.536097  0.846719  0.383606  1
  As  As24  1  0.957678  0.642229  0.879199  1
  As  As25  1  0.357771  0.042322  0.120801  1
  As  As26  1  0.857771  0.542322  0.379199  1
  As  As27  1  0.457678  0.142229  0.620801  1
