# generated using pymatgen
data_Er4Al18IrPd4Ru
_symmetry_space_group_name_H-M   'P 1'
_cell_length_a   7.59915294
_cell_length_b   7.59915279
_cell_length_c   9.42563779
_cell_angle_alpha   89.96447006
_cell_angle_beta   89.96446747
_cell_angle_gamma   119.54989133
_symmetry_Int_Tables_number   1
_chemical_formula_structural   Er4Al18IrPd4Ru
_chemical_formula_sum   'Er4 Al18 Ir1 Pd4 Ru1'
_cell_volume   473.50370221
_cell_formula_units_Z   1
loop_
 _symmetry_equiv_pos_site_id
 _symmetry_equiv_pos_as_xyz
  1  'x, y, z'
loop_
 _atom_site_type_symbol
 _atom_site_label
 _atom_site_symmetry_multiplicity
 _atom_site_fract_x
 _atom_site_fract_y
 _atom_site_fract_z
 _atom_site_occupancy
  Er  Er0  1  0.995620  0.670653  0.249852  1
  Er  Er1  1  0.004380  0.329347  0.750148  1
  Er  Er2  1  0.670653  0.995620  0.249852  1
  Er  Er3  1  0.329347  0.004380  0.750148  1
  Al  Al4  1  0.125863  0.125863  0.248250  1
  Al  Al5  1  0.874137  0.874137  0.751750  1
  Al  Al6  1  0.999447  0.329647  0.075729  1
  Al  Al7  1  0.000553  0.670353  0.924271  1
  Al  Al8  1  0.999829  0.667808  0.577060  1
  Al  Al9  1  0.332192  0.000171  0.422940  1
  Al  Al10  1  0.000171  0.332192  0.422940  1
  Al  Al11  1  0.667808  0.999829  0.577060  1
  Al  Al12  1  0.670353  0.000553  0.924271  1
  Al  Al13  1  0.329647  0.999447  0.075729  1
  Al  Al14  1  0.330043  0.330043  0.556159  1
  Al  Al15  1  0.669957  0.669957  0.443841  1
  Al  Al16  1  0.671902  0.671902  0.055388  1
  Al  Al17  1  0.328098  0.328098  0.944612  1
  Al  Al18  1  0.341141  0.547854  0.249568  1
  Al  Al19  1  0.658859  0.452146  0.750432  1
  Al  Al20  1  0.547854  0.341141  0.249568  1
  Al  Al21  1  0.452146  0.658859  0.750432  1
  Ir  Ir22  1  0.000000  0.000000  0.500000  1
  Pd  Pd23  1  0.672379  0.327621  0.000000  1
  Pd  Pd24  1  0.327621  0.672379  0.000000  1
  Pd  Pd25  1  0.327714  0.672286  0.500000  1
  Pd  Pd26  1  0.672286  0.327714  0.500000  1
  Ru  Ru27  1  0.000000  0.000000  0.000000  1
