# generated using pymatgen
data_Cs4(SbAu2)3
_symmetry_space_group_name_H-M   'P 1'
_cell_length_a   11.52387929
_cell_length_b   11.52387859
_cell_length_c   11.52388026
_cell_angle_alpha   35.22677850
_cell_angle_beta   35.22678212
_cell_angle_gamma   35.22677949
_symmetry_Int_Tables_number   1
_chemical_formula_structural   Cs4(SbAu2)3
_chemical_formula_sum   'Cs4 Sb3 Au6'
_cell_volume   454.81017792
_cell_formula_units_Z   1
loop_
 _symmetry_equiv_pos_site_id
 _symmetry_equiv_pos_as_xyz
  1  'x, y, z'
loop_
 _atom_site_type_symbol
 _atom_site_label
 _atom_site_symmetry_multiplicity
 _atom_site_fract_x
 _atom_site_fract_y
 _atom_site_fract_z
 _atom_site_occupancy
  Cs  Cs0  1  0.686348  0.686348  0.686348  1
  Cs  Cs1  1  0.313652  0.313652  0.313652  1
  Cs  Cs2  1  0.812593  0.812593  0.812593  1
  Cs  Cs3  1  0.187407  0.187407  0.187407  1
  Sb  Sb4  1  0.445099  0.445099  0.445099  1
  Sb  Sb5  1  0.554901  0.554901  0.554901  1
  Sb  Sb6  1  0.000000  0.000000  0.000000  1
  Au  Au7  1  0.201771  0.787972  0.787972  1
  Au  Au8  1  0.787972  0.787972  0.201771  1
  Au  Au9  1  0.787972  0.201771  0.787972  1
  Au  Au10  1  0.212028  0.798229  0.212028  1
  Au  Au11  1  0.798229  0.212028  0.212028  1
  Au  Au12  1  0.212028  0.212028  0.798229  1
