# generated using pymatgen
data_BMo2(PO4)3
_symmetry_space_group_name_H-M   'P 1'
_cell_length_a   8.26092500
_cell_length_b   8.26092476
_cell_length_c   8.01785700
_cell_angle_alpha   90.00000000
_cell_angle_beta   90.00000000
_cell_angle_gamma   120.00000278
_symmetry_Int_Tables_number   1
_chemical_formula_structural   BMo2(PO4)3
_chemical_formula_sum   'B2 Mo4 P6 O24'
_cell_volume   473.85587744
_cell_formula_units_Z   2
loop_
 _symmetry_equiv_pos_site_id
 _symmetry_equiv_pos_as_xyz
  1  'x, y, z'
loop_
 _atom_site_type_symbol
 _atom_site_label
 _atom_site_symmetry_multiplicity
 _atom_site_fract_x
 _atom_site_fract_y
 _atom_site_fract_z
 _atom_site_occupancy
  B  B0  1  0.000000  0.000000  0.750000  1
  B  B1  1  0.000000  0.000000  0.250000  1
  Mo  Mo2  1  0.666667  0.333333  0.552835  1
  Mo  Mo3  1  0.333333  0.666667  0.052835  1
  Mo  Mo4  1  0.333333  0.666667  0.447165  1
  Mo  Mo5  1  0.666667  0.333333  0.947165  1
  P  P6  1  0.046967  0.355717  0.750000  1
  P  P7  1  0.644283  0.691251  0.750000  1
  P  P8  1  0.308749  0.953033  0.750000  1
  P  P9  1  0.953033  0.644283  0.250000  1
  P  P10  1  0.355717  0.308749  0.250000  1
  P  P11  1  0.691251  0.046967  0.250000  1
  O  O12  1  0.945583  0.131842  0.750000  1
  O  O13  1  0.868158  0.813740  0.750000  1
  O  O14  1  0.186260  0.054417  0.750000  1
  O  O15  1  0.054417  0.868158  0.250000  1
  O  O16  1  0.131842  0.186260  0.250000  1
  O  O17  1  0.813740  0.945583  0.250000  1
  O  O18  1  0.876180  0.389171  0.750000  1
  O  O19  1  0.610829  0.487009  0.750000  1
  O  O20  1  0.512991  0.123820  0.750000  1
  O  O21  1  0.123820  0.610829  0.250000  1
  O  O22  1  0.389171  0.512991  0.250000  1
  O  O23  1  0.487009  0.876180  0.250000  1
  O  O24  1  0.157436  0.426021  0.589511  1
  O  O25  1  0.573979  0.731416  0.589511  1
  O  O26  1  0.268584  0.842564  0.589511  1
  O  O27  1  0.842564  0.573979  0.089511  1
  O  O28  1  0.426021  0.268584  0.089511  1
  O  O29  1  0.731416  0.157436  0.089511  1
  O  O30  1  0.842564  0.573979  0.410489  1
  O  O31  1  0.426021  0.268584  0.410489  1
  O  O32  1  0.731416  0.157436  0.410489  1
  O  O33  1  0.157436  0.426021  0.910489  1
  O  O34  1  0.573979  0.731416  0.910489  1
  O  O35  1  0.268584  0.842564  0.910489  1
