# generated using pymatgen
data_EuBeAl2Si
_symmetry_space_group_name_H-M   'P 1'
_cell_length_a   4.13956397
_cell_length_b   4.13956456
_cell_length_c   5.96470549
_cell_angle_alpha   69.69576252
_cell_angle_beta   69.69576468
_cell_angle_gamma   89.99998556
_symmetry_Int_Tables_number   1
_chemical_formula_structural   EuBeAl2Si
_chemical_formula_sum   'Eu1 Be1 Al2 Si1'
_cell_volume   89.05724351
_cell_formula_units_Z   1
loop_
 _symmetry_equiv_pos_site_id
 _symmetry_equiv_pos_as_xyz
  1  'x, y, z'
loop_
 _atom_site_type_symbol
 _atom_site_label
 _atom_site_symmetry_multiplicity
 _atom_site_fract_x
 _atom_site_fract_y
 _atom_site_fract_z
 _atom_site_occupancy
  Eu  Eu0  1  0.996784  0.996784  0.006433  1
  Be  Be1  1  0.617972  0.617972  0.764054  1
  Al  Al2  1  0.743451  0.243451  0.513097  1
  Al  Al3  1  0.243451  0.743451  0.513097  1
  Si  Si4  1  0.398341  0.398341  0.203320  1
