# generated using pymatgen
data_Sc2Ta3B4Ru10W
_symmetry_space_group_name_H-M   'P 1'
_cell_length_a   9.44356909
_cell_length_b   9.43940600
_cell_length_c   3.05441300
_cell_angle_alpha   90.00000000
_cell_angle_beta   90.00000000
_cell_angle_gamma   90.00764453
_symmetry_Int_Tables_number   1
_chemical_formula_structural   Sc2Ta3B4Ru10W
_chemical_formula_sum   'Sc2 Ta3 B4 Ru10 W1'
_cell_volume   272.27551214
_cell_formula_units_Z   1
loop_
 _symmetry_equiv_pos_site_id
 _symmetry_equiv_pos_as_xyz
  1  'x, y, z'
loop_
 _atom_site_type_symbol
 _atom_site_label
 _atom_site_symmetry_multiplicity
 _atom_site_fract_x
 _atom_site_fract_y
 _atom_site_fract_z
 _atom_site_occupancy
  Sc  Sc0  1  0.825457  0.675037  0.000000  1
  Sc  Sc1  1  0.174543  0.324963  0.000000  1
  Ta  Ta2  1  0.322815  0.824373  0.000000  1
  Ta  Ta3  1  0.677185  0.175627  0.000000  1
  Ta  Ta4  1  0.000000  0.000000  0.000000  1
  B  B5  1  0.623495  0.878286  0.000000  1
  B  B6  1  0.376505  0.121714  0.000000  1
  B  B7  1  0.118831  0.620544  0.000000  1
  B  B8  1  0.881169  0.379456  0.000000  1
  Ru  Ru9  1  0.564053  0.717952  0.500000  1
  Ru  Ru10  1  0.435947  0.282048  0.500000  1
  Ru  Ru11  1  0.079006  0.783838  0.500000  1
  Ru  Ru12  1  0.920994  0.216162  0.500000  1
  Ru  Ru13  1  0.286428  0.573913  0.500000  1
  Ru  Ru14  1  0.713572  0.426087  0.500000  1
  Ru  Ru15  1  0.220491  0.066875  0.500000  1
  Ru  Ru16  1  0.779509  0.933125  0.500000  1
  Ru  Ru17  1  0.500000  0.000000  0.500000  1
  Ru  Ru18  1  0.000000  0.500000  0.500000  1
  W  W19  1  0.500000  0.500000  0.000000  1
