# generated using pymatgen
data_TcOs5Pb4O19
_symmetry_space_group_name_H-M   'P 1'
_cell_length_a   8.05483876
_cell_length_b   8.04821326
_cell_length_c   8.05483819
_cell_angle_alpha   109.53345352
_cell_angle_beta   109.36938375
_cell_angle_gamma   109.54431543
_symmetry_Int_Tables_number   1
_chemical_formula_structural   TcOs5Pb4O19
_chemical_formula_sum   'Tc1 Os5 Pb4 O19'
_cell_volume   401.80068350
_cell_formula_units_Z   1
loop_
 _symmetry_equiv_pos_site_id
 _symmetry_equiv_pos_as_xyz
  1  'x, y, z'
loop_
 _atom_site_type_symbol
 _atom_site_label
 _atom_site_symmetry_multiplicity
 _atom_site_fract_x
 _atom_site_fract_y
 _atom_site_fract_z
 _atom_site_occupancy
  Tc  Tc0  1  0.638370  0.500000  0.138370  1
  Os  Os1  1  0.499717  0.861960  0.361988  1
  Os  Os2  1  0.862549  0.361726  0.500857  1
  Os  Os3  1  0.139133  0.638275  0.500823  1
  Os  Os4  1  0.500027  0.138039  0.637756  1
  Os  Os5  1  0.362790  0.500000  0.862789  1
  Pb  Pb6  1  0.298006  0.002554  0.000911  1
  Pb  Pb7  1  0.002700  0.296952  0.999167  1
  Pb  Pb8  1  0.998357  0.997446  0.295453  1
  Pb  Pb9  1  0.702213  0.703046  0.705747  1
  O  O10  1  0.000252  0.000000  0.000252  1
  O  O11  1  0.330220  0.332279  0.998991  1
  O  O12  1  0.666712  0.667721  0.997941  1
  O  O13  1  0.353615  0.707390  0.066013  1
  O  O14  1  0.934827  0.640356  0.289906  1
  O  O15  1  0.649549  0.359643  0.294470  1
  O  O16  1  0.332382  0.000000  0.332382  1
  O  O17  1  0.000394  0.332614  0.333398  1
  O  O18  1  0.708071  0.066615  0.354167  1
  O  O19  1  0.642928  0.712043  0.348858  1
  O  O20  1  0.292373  0.645774  0.358921  1
  O  O21  1  0.287554  0.933386  0.641457  1
  O  O22  1  0.358623  0.292609  0.646225  1
  O  O23  1  0.713143  0.354222  0.646598  1
  O  O24  1  0.666949  0.000000  0.666948  1
  O  O25  1  0.000784  0.667387  0.667781  1
  O  O26  1  0.066155  0.353394  0.708179  1
  O  O27  1  0.354784  0.646606  0.712761  1
  O  O28  1  0.636815  0.287957  0.930886  1
