# generated using pymatgen
data_Er12InFe4Ag
_symmetry_space_group_name_H-M   'P 1'
_cell_length_a   8.29003813
_cell_length_b   8.29003846
_cell_length_c   8.29003892
_cell_angle_alpha   110.85445135
_cell_angle_beta   110.85220142
_cell_angle_gamma   106.74102771
_symmetry_Int_Tables_number   1
_chemical_formula_structural   Er12InFe4Ag
_chemical_formula_sum   'Er12 In1 Fe4 Ag1'
_cell_volume   437.83651423
_cell_formula_units_Z   1
loop_
 _symmetry_equiv_pos_site_id
 _symmetry_equiv_pos_as_xyz
  1  'x, y, z'
loop_
 _atom_site_type_symbol
 _atom_site_label
 _atom_site_symmetry_multiplicity
 _atom_site_fract_x
 _atom_site_fract_y
 _atom_site_fract_z
 _atom_site_occupancy
  Er  Er0  1  0.187792  0.290554  0.478346  1
  Er  Er1  1  0.812208  0.709446  0.521654  1
  Er  Er2  1  0.187792  0.709446  0.897239  1
  Er  Er3  1  0.812208  0.290554  0.102761  1
  Er  Er4  1  0.313078  0.613692  0.300614  1
  Er  Er5  1  0.686922  0.386308  0.699386  1
  Er  Er6  1  0.313078  0.012465  0.699386  1
  Er  Er7  1  0.686922  0.987535  0.300614  1
  Er  Er8  1  0.429684  0.223897  0.205787  1
  Er  Er9  1  0.570316  0.776103  0.794213  1
  Er  Er10  1  0.018110  0.223897  0.794213  1
  Er  Er11  1  0.981890  0.776103  0.205787  1
  In  In12  1  0.500000  0.500000  0.000000  1
  Fe  Fe13  1  0.108507  0.608507  0.500000  1
  Fe  Fe14  1  0.891493  0.391493  0.500000  1
  Fe  Fe15  1  0.384478  0.000000  0.384478  1
  Fe  Fe16  1  0.615522  0.000000  0.615522  1
  Ag  Ag17  1  0.000000  0.000000  0.000000  1
