# generated using pymatgen
data_LiTm16In3Ni4
_symmetry_space_group_name_H-M   'P 1'
_cell_length_a   9.45712946
_cell_length_b   9.40955678
_cell_length_c   9.40955700
_cell_angle_alpha   60.00000276
_cell_angle_beta   60.16626634
_cell_angle_gamma   60.16627074
_symmetry_Int_Tables_number   1
_chemical_formula_structural   LiTm16In3Ni4
_chemical_formula_sum   'Li1 Tm16 In3 Ni4'
_cell_volume   593.56676682
_cell_formula_units_Z   1
loop_
 _symmetry_equiv_pos_site_id
 _symmetry_equiv_pos_as_xyz
  1  'x, y, z'
loop_
 _atom_site_type_symbol
 _atom_site_label
 _atom_site_symmetry_multiplicity
 _atom_site_fract_x
 _atom_site_fract_y
 _atom_site_fract_z
 _atom_site_occupancy
  Li  Li0  1  0.279022  0.573660  0.573660  1
  Tm  Tm1  1  0.348650  0.346296  0.346296  1
  Tm  Tm2  1  0.348650  0.346296  0.958758  1
  Tm  Tm3  1  0.348650  0.958758  0.346296  1
  Tm  Tm4  1  0.955792  0.348069  0.348069  1
  Tm  Tm5  1  0.809650  0.188926  0.188926  1
  Tm  Tm6  1  0.184999  0.814523  0.814523  1
  Tm  Tm7  1  0.184999  0.814523  0.185956  1
  Tm  Tm8  1  0.809650  0.188926  0.812499  1
  Tm  Tm9  1  0.184999  0.185956  0.814523  1
  Tm  Tm10  1  0.809650  0.812499  0.188926  1
  Tm  Tm11  1  0.936591  0.563817  0.563817  1
  Tm  Tm12  1  0.564704  0.936185  0.936185  1
  Tm  Tm13  1  0.564704  0.936185  0.562925  1
  Tm  Tm14  1  0.936591  0.563817  0.935775  1
  Tm  Tm15  1  0.564704  0.562925  0.936185  1
  Tm  Tm16  1  0.936591  0.935775  0.563817  1
  In  In17  1  0.578268  0.583330  0.583330  1
  In  In18  1  0.578268  0.583330  0.255072  1
  In  In19  1  0.578268  0.255072  0.583330  1
  Ni  Ni20  1  0.141300  0.142523  0.142523  1
  Ni  Ni21  1  0.141300  0.142523  0.573654  1
  Ni  Ni22  1  0.141300  0.573654  0.142523  1
  Ni  Ni23  1  0.572702  0.142433  0.142433  1
