# generated using pymatgen
data_ErZr(NbSe2)8
_symmetry_space_group_name_H-M   'P 1'
_cell_length_a   7.03095713
_cell_length_b   7.02440013
_cell_length_c   13.92417224
_cell_angle_alpha   89.99999860
_cell_angle_beta   90.08756500
_cell_angle_gamma   119.96921035
_symmetry_Int_Tables_number   1
_chemical_formula_structural   ErZr(NbSe2)8
_chemical_formula_sum   'Er1 Zr1 Nb8 Se16'
_cell_volume   595.74128063
_cell_formula_units_Z   1
loop_
 _symmetry_equiv_pos_site_id
 _symmetry_equiv_pos_as_xyz
  1  'x, y, z'
loop_
 _atom_site_type_symbol
 _atom_site_label
 _atom_site_symmetry_multiplicity
 _atom_site_fract_x
 _atom_site_fract_y
 _atom_site_fract_z
 _atom_site_occupancy
  Er  Er0  1  0.000000  0.000000  0.000000  1
  Zr  Zr1  1  0.000000  0.000000  0.500000  1
  Nb  Nb2  1  0.986641  0.493321  0.257153  1
  Nb  Nb3  1  0.013359  0.506679  0.742847  1
  Nb  Nb4  1  0.493417  0.506810  0.742940  1
  Nb  Nb5  1  0.506583  0.013393  0.257060  1
  Nb  Nb6  1  0.000147  0.000074  0.742203  1
  Nb  Nb7  1  0.999853  0.999926  0.257797  1
  Nb  Nb8  1  0.506583  0.493190  0.257060  1
  Nb  Nb9  1  0.493417  0.986607  0.742940  1
  Se  Se10  1  0.332982  0.666492  0.619699  1
  Se  Se11  1  0.666486  0.333242  0.133216  1
  Se  Se12  1  0.667018  0.333508  0.380301  1
  Se  Se13  1  0.333514  0.666758  0.866784  1
  Se  Se14  1  0.170154  0.339730  0.377156  1
  Se  Se15  1  0.831228  0.169441  0.862255  1
  Se  Se16  1  0.338701  0.169349  0.862376  1
  Se  Se17  1  0.660455  0.830228  0.377021  1
  Se  Se18  1  0.170154  0.830424  0.377156  1
  Se  Se19  1  0.831228  0.661787  0.862255  1
  Se  Se20  1  0.168772  0.338213  0.137745  1
  Se  Se21  1  0.829846  0.169576  0.622844  1
  Se  Se22  1  0.339545  0.169772  0.622979  1
  Se  Se23  1  0.661299  0.830651  0.137624  1
  Se  Se24  1  0.168772  0.830559  0.137745  1
  Se  Se25  1  0.829846  0.660270  0.622844  1
