# generated using pymatgen
data_Th2CuSnRu
_symmetry_space_group_name_H-M   'P 1'
_cell_length_a   7.67673900
_cell_length_b   7.70711500
_cell_length_c   3.90160400
_cell_angle_alpha   90.00000000
_cell_angle_beta   90.00000000
_cell_angle_gamma   90.00000000
_symmetry_Int_Tables_number   1
_chemical_formula_structural   Th2CuSnRu
_chemical_formula_sum   'Th4 Cu2 Sn2 Ru2'
_cell_volume   230.84039164
_cell_formula_units_Z   2
loop_
 _symmetry_equiv_pos_site_id
 _symmetry_equiv_pos_as_xyz
  1  'x, y, z'
loop_
 _atom_site_type_symbol
 _atom_site_label
 _atom_site_symmetry_multiplicity
 _atom_site_fract_x
 _atom_site_fract_y
 _atom_site_fract_z
 _atom_site_occupancy
  Th  Th0  1  0.326987  0.811794  0.500000  1
  Th  Th1  1  0.826987  0.688206  0.500000  1
  Th  Th2  1  0.172183  0.339438  0.500000  1
  Th  Th3  1  0.672183  0.160562  0.500000  1
  Cu  Cu4  1  0.370457  0.123519  0.000000  1
  Cu  Cu5  1  0.870457  0.376481  0.000000  1
  Sn  Sn6  1  0.004631  0.004739  0.000000  1
  Sn  Sn7  1  0.504631  0.495261  0.000000  1
  Ru  Ru8  1  0.125742  0.621797  0.000000  1
  Ru  Ru9  1  0.625742  0.878203  0.000000  1
