# generated using pymatgen
data_Yb5Co4Si5P7Ir15
_symmetry_space_group_name_H-M   'P 1'
_cell_length_a   12.54302900
_cell_length_b   12.56156321
_cell_length_c   3.85508400
_cell_angle_alpha   90.00000000
_cell_angle_beta   90.00000000
_cell_angle_gamma   120.16336073
_symmetry_Int_Tables_number   1
_chemical_formula_structural   Yb5Co4Si5P7Ir15
_chemical_formula_sum   'Yb5 Co4 Si5 P7 Ir15'
_cell_volume   525.16204361
_cell_formula_units_Z   1
loop_
 _symmetry_equiv_pos_site_id
 _symmetry_equiv_pos_as_xyz
  1  'x, y, z'
loop_
 _atom_site_type_symbol
 _atom_site_label
 _atom_site_symmetry_multiplicity
 _atom_site_fract_x
 _atom_site_fract_y
 _atom_site_fract_z
 _atom_site_occupancy
  Yb  Yb0  1  0.665896  0.333574  0.000000  1
  Yb  Yb1  1  0.333380  0.666237  0.000000  1
  Yb  Yb2  1  0.175779  0.174953  0.500000  1
  Yb  Yb3  1  0.824220  0.001805  0.500000  1
  Yb  Yb4  1  0.998645  0.823083  0.500000  1
  Co  Co5  1  0.716216  0.722681  0.500000  1
  Co  Co6  1  0.283618  0.997761  0.500000  1
  Co  Co7  1  0.004996  0.283392  0.500000  1
  Co  Co8  1  0.000857  0.000670  0.000000  1
  Si  Si9  1  0.360629  0.359546  0.000000  1
  Si  Si10  1  0.639768  0.000480  0.000000  1
  Si  Si11  1  0.999432  0.638587  0.000000  1
  Si  Si12  1  0.841785  0.318968  0.500000  1
  Si  Si13  1  0.681831  0.524678  0.500000  1
  P  P14  1  0.476420  0.160466  0.500000  1
  P  P15  1  0.312215  0.834160  0.500000  1
  P  P16  1  0.522219  0.688101  0.500000  1
  P  P17  1  0.165915  0.477149  0.500000  1
  P  P18  1  0.825148  0.827766  0.000000  1
  P  P19  1  0.172688  0.997441  0.000000  1
  P  P20  1  0.001045  0.174690  0.000000  1
  Ir  Ir21  1  0.826518  0.193852  0.000000  1
  Ir  Ir22  1  0.806071  0.634954  0.000000  1
  Ir  Ir23  1  0.368574  0.170697  0.000000  1
  Ir  Ir24  1  0.197308  0.824915  0.000000  1
  Ir  Ir25  1  0.626065  0.801723  0.000000  1
  Ir  Ir26  1  0.175432  0.372443  0.000000  1
  Ir  Ir27  1  0.553705  0.547592  0.000000  1
  Ir  Ir28  1  0.450771  0.000731  0.000000  1
  Ir  Ir29  1  0.995163  0.446142  0.000000  1
  Ir  Ir30  1  0.642545  0.130714  0.500000  1
  Ir  Ir31  1  0.871544  0.518845  0.500000  1
  Ir  Ir32  1  0.481445  0.351406  0.500000  1
  Ir  Ir33  1  0.130487  0.639593  0.500000  1
  Ir  Ir34  1  0.510766  0.870745  0.500000  1
  Ir  Ir35  1  0.360906  0.489461  0.500000  1
