# generated using pymatgen
data_Tb15NdCd2(AgPt2)2
_symmetry_space_group_name_H-M   'P 1'
_cell_length_a   9.71507487
_cell_length_b   9.71507517
_cell_length_c   9.69423300
_cell_angle_alpha   60.07094545
_cell_angle_beta   60.07094442
_cell_angle_gamma   59.98054743
_symmetry_Int_Tables_number   1
_chemical_formula_structural   Tb15NdCd2(AgPt2)2
_chemical_formula_sum   'Tb15 Nd1 Cd2 Ag2 Pt4'
_cell_volume   647.57731347
_cell_formula_units_Z   1
loop_
 _symmetry_equiv_pos_site_id
 _symmetry_equiv_pos_as_xyz
  1  'x, y, z'
loop_
 _atom_site_type_symbol
 _atom_site_label
 _atom_site_symmetry_multiplicity
 _atom_site_fract_x
 _atom_site_fract_y
 _atom_site_fract_z
 _atom_site_occupancy
  Tb  Tb0  1  0.352221  0.352221  0.350743  1
  Tb  Tb1  1  0.352221  0.352221  0.944813  1
  Tb  Tb2  1  0.355621  0.938896  0.352742  1
  Tb  Tb3  1  0.938896  0.355621  0.352742  1
  Tb  Tb4  1  0.810554  0.190620  0.189610  1
  Tb  Tb5  1  0.190620  0.810554  0.809214  1
  Tb  Tb6  1  0.190620  0.810554  0.189610  1
  Tb  Tb7  1  0.810554  0.190620  0.809214  1
  Tb  Tb8  1  0.190735  0.190735  0.809265  1
  Tb  Tb9  1  0.810792  0.810792  0.189208  1
  Tb  Tb10  1  0.932702  0.561987  0.566127  1
  Tb  Tb11  1  0.561987  0.932702  0.939184  1
  Tb  Tb12  1  0.561987  0.932702  0.566127  1
  Tb  Tb13  1  0.932702  0.561987  0.939184  1
  Tb  Tb14  1  0.564305  0.564305  0.935695  1
  Nd  Nd15  1  0.933394  0.933394  0.566606  1
  Cd  Cd16  1  0.579893  0.259498  0.580305  1
  Cd  Cd17  1  0.259498  0.579893  0.580305  1
  Ag  Ag18  1  0.584712  0.584712  0.583902  1
  Ag  Ag19  1  0.584712  0.584712  0.246674  1
  Pt  Pt20  1  0.144323  0.144323  0.143138  1
  Pt  Pt21  1  0.144323  0.144323  0.568218  1
  Pt  Pt22  1  0.142519  0.570108  0.143686  1
  Pt  Pt23  1  0.570108  0.142519  0.143686  1
