# generated using pymatgen
data_NdEr19Si15As
_symmetry_space_group_name_H-M   'P 1'
_cell_length_a   7.44643864
_cell_length_b   7.60687097
_cell_length_c   14.51567370
_cell_angle_alpha   90.12643655
_cell_angle_beta   93.85257264
_cell_angle_gamma   89.92195006
_symmetry_Int_Tables_number   1
_chemical_formula_structural   NdEr19Si15As
_chemical_formula_sum   'Nd1 Er19 Si15 As1'
_cell_volume   820.36659966
_cell_formula_units_Z   1
loop_
 _symmetry_equiv_pos_site_id
 _symmetry_equiv_pos_as_xyz
  1  'x, y, z'
loop_
 _atom_site_type_symbol
 _atom_site_label
 _atom_site_symmetry_multiplicity
 _atom_site_fract_x
 _atom_site_fract_y
 _atom_site_fract_z
 _atom_site_occupancy
  Nd  Nd0  1  0.999326  0.815395  0.599287  1
  Er  Er1  1  0.492501  0.672940  0.600784  1
  Er  Er2  1  0.324488  0.823674  0.122807  1
  Er  Er3  1  0.824668  0.676663  0.122874  1
  Er  Er4  1  0.830189  0.504363  0.746978  1
  Er  Er5  1  0.474404  0.315929  0.101834  1
  Er  Er6  1  0.026412  0.814735  0.898331  1
  Er  Er7  1  0.502654  0.320924  0.399635  1
  Er  Er8  1  0.668879  0.006510  0.250769  1
  Er  Er9  1  0.526415  0.684679  0.900708  1
  Er  Er10  1  0.674024  0.177309  0.879018  1
  Er  Er11  1  0.145083  0.335435  0.620274  1
  Er  Er12  1  0.175363  0.322628  0.878974  1
  Er  Er13  1  0.855408  0.663560  0.378798  1
  Er  Er14  1  0.353315  0.834941  0.379963  1
  Er  Er15  1  0.330350  0.994037  0.745749  1
  Er  Er16  1  0.644690  0.164153  0.619501  1
  Er  Er17  1  0.169815  0.495119  0.253229  1
  Er  Er18  1  0.974876  0.185018  0.101387  1
  Er  Er19  1  0.007971  0.182849  0.398687  1
  Si  Si20  1  0.218082  0.626892  0.754446  1
  Si  Si21  1  0.296299  0.040259  0.541165  1
  Si  Si22  1  0.041988  0.891211  0.248777  1
  Si  Si23  1  0.711427  0.870376  0.753675  1
  Si  Si24  1  0.287064  0.130996  0.248145  1
  Si  Si25  1  0.791823  0.461664  0.540999  1
  Si  Si26  1  0.457858  0.389705  0.753033  1
  Si  Si27  1  0.204212  0.534250  0.456456  1
  Si  Si28  1  0.145537  0.529063  0.042599  1
  Si  Si29  1  0.955602  0.111014  0.752780  1
  Si  Si30  1  0.787485  0.369368  0.247954  1
  Si  Si31  1  0.353540  0.028631  0.958881  1
  Si  Si32  1  0.854942  0.472289  0.957981  1
  Si  Si33  1  0.645654  0.972107  0.042600  1
  Si  Si34  1  0.542008  0.609803  0.248559  1
  As  As35  1  0.705646  0.971511  0.452364  1
