# generated using pymatgen
data_Dy5ErVFeB14
_symmetry_space_group_name_H-M   'P 1'
_cell_length_a   8.09342929
_cell_length_b   8.09342965
_cell_length_c   9.32820900
_cell_angle_alpha   90.00000000
_cell_angle_beta   90.00000000
_cell_angle_gamma   155.54005005
_symmetry_Int_Tables_number   1
_chemical_formula_structural   Dy5ErVFeB14
_chemical_formula_sum   'Dy5 Er1 V1 Fe1 B14'
_cell_volume   253.00182226
_cell_formula_units_Z   1
loop_
 _symmetry_equiv_pos_site_id
 _symmetry_equiv_pos_as_xyz
  1  'x, y, z'
loop_
 _atom_site_type_symbol
 _atom_site_label
 _atom_site_symmetry_multiplicity
 _atom_site_fract_x
 _atom_site_fract_y
 _atom_site_fract_z
 _atom_site_occupancy
  Dy  Dy0  1  0.893905  0.106095  0.441949  1
  Dy  Dy1  1  0.105124  0.894876  0.563435  1
  Dy  Dy2  1  0.893905  0.106095  0.058051  1
  Dy  Dy3  1  0.105124  0.894876  0.936565  1
  Dy  Dy4  1  0.243396  0.756604  0.250000  1
  Er  Er5  1  0.759513  0.240487  0.750000  1
  V  V6  1  0.052578  0.947422  0.250000  1
  Fe  Fe7  1  0.945148  0.054852  0.750000  1
  B  B8  1  0.728021  0.271979  0.469253  1
  B  B9  1  0.273119  0.726881  0.535631  1
  B  B10  1  0.728021  0.271979  0.030747  1
  B  B11  1  0.273119  0.726881  0.964369  1
  B  B12  1  0.632763  0.367237  0.148997  1
  B  B13  1  0.370449  0.629551  0.846556  1
  B  B14  1  0.632763  0.367237  0.351003  1
  B  B15  1  0.370449  0.629551  0.653444  1
  B  B16  1  0.520628  0.479372  0.093671  1
  B  B17  1  0.477948  0.522052  0.902237  1
  B  B18  1  0.520628  0.479372  0.406329  1
  B  B19  1  0.477948  0.522052  0.597763  1
  B  B20  1  0.457858  0.542142  0.250000  1
  B  B21  1  0.537594  0.462406  0.750000  1
