# generated using pymatgen
data_TbErNi6(BIr)2
_symmetry_space_group_name_H-M   'P 1'
_cell_length_a   4.97019200
_cell_length_b   5.14820189
_cell_length_c   7.07506200
_cell_angle_alpha   90.00000000
_cell_angle_beta   90.00000000
_cell_angle_gamma   118.86262866
_symmetry_Int_Tables_number   1
_chemical_formula_structural   TbErNi6(BIr)2
_chemical_formula_sum   'Tb1 Er1 Ni6 B2 Ir2'
_cell_volume   158.54545326
_cell_formula_units_Z   1
loop_
 _symmetry_equiv_pos_site_id
 _symmetry_equiv_pos_as_xyz
  1  'x, y, z'
loop_
 _atom_site_type_symbol
 _atom_site_label
 _atom_site_symmetry_multiplicity
 _atom_site_fract_x
 _atom_site_fract_y
 _atom_site_fract_z
 _atom_site_occupancy
  Tb  Tb0  1  0.500000  0.000000  0.000000  1
  Er  Er1  1  0.500000  0.000000  0.500000  1
  Ni  Ni2  1  0.832324  0.664646  0.000000  1
  Ni  Ni3  1  0.167676  0.335354  0.000000  1
  Ni  Ni4  1  0.500000  0.500000  0.707980  1
  Ni  Ni5  1  0.000000  0.500000  0.707980  1
  Ni  Ni6  1  0.500000  0.500000  0.292020  1
  Ni  Ni7  1  0.000000  0.500000  0.292020  1
  B  B8  1  0.826989  0.653976  0.500000  1
  B  B9  1  0.173011  0.346024  0.500000  1
  Ir  Ir10  1  0.000000  0.000000  0.709673  1
  Ir  Ir11  1  0.000000  0.000000  0.290327  1
