# generated using pymatgen
data_HoErMgCuNi
_symmetry_space_group_name_H-M   'P 1'
_cell_length_a   7.50868024
_cell_length_b   7.50867873
_cell_length_c   3.65450700
_cell_angle_alpha   90.00000000
_cell_angle_beta   90.00000000
_cell_angle_gamma   88.53283703
_symmetry_Int_Tables_number   1
_chemical_formula_structural   HoErMgCuNi
_chemical_formula_sum   'Ho2 Er2 Mg2 Cu2 Ni2'
_cell_volume   205.97453444
_cell_formula_units_Z   2
loop_
 _symmetry_equiv_pos_site_id
 _symmetry_equiv_pos_as_xyz
  1  'x, y, z'
loop_
 _atom_site_type_symbol
 _atom_site_label
 _atom_site_symmetry_multiplicity
 _atom_site_fract_x
 _atom_site_fract_y
 _atom_site_fract_z
 _atom_site_occupancy
  Ho  Ho0  1  0.180302  0.319698  0.500000  1
  Ho  Ho1  1  0.819698  0.680302  0.500000  1
  Er  Er2  1  0.661188  0.161188  0.500000  1
  Er  Er3  1  0.338812  0.838812  0.500000  1
  Mg  Mg4  1  0.000000  0.000000  0.000000  1
  Mg  Mg5  1  0.500000  0.500000  0.000000  1
  Cu  Cu6  1  0.122937  0.622937  0.000000  1
  Cu  Cu7  1  0.877063  0.377063  0.000000  1
  Ni  Ni8  1  0.622584  0.877416  0.000000  1
  Ni  Ni9  1  0.377416  0.122584  0.000000  1
