# generated using pymatgen
data_DyEr9(In2Pt)4
_symmetry_space_group_name_H-M   'P 1'
_cell_length_a   3.63165900
_cell_length_b   8.07165600
_cell_length_c   18.13792700
_cell_angle_alpha   89.99937970
_cell_angle_beta   90.00000000
_cell_angle_gamma   90.00000000
_symmetry_Int_Tables_number   1
_chemical_formula_structural   DyEr9(In2Pt)4
_chemical_formula_sum   'Dy1 Er9 In8 Pt4'
_cell_volume   531.68616223
_cell_formula_units_Z   1
loop_
 _symmetry_equiv_pos_site_id
 _symmetry_equiv_pos_as_xyz
  1  'x, y, z'
loop_
 _atom_site_type_symbol
 _atom_site_label
 _atom_site_symmetry_multiplicity
 _atom_site_fract_x
 _atom_site_fract_y
 _atom_site_fract_z
 _atom_site_occupancy
  Dy  Dy0  1  0.000000  0.000000  0.000000  1
  Er  Er1  1  0.000000  0.116591  0.414236  1
  Er  Er2  1  0.000000  0.883409  0.585764  1
  Er  Er3  1  0.000000  0.383326  0.914191  1
  Er  Er4  1  0.000000  0.616674  0.085809  1
  Er  Er5  1  0.000000  0.243694  0.220748  1
  Er  Er6  1  0.000000  0.756306  0.779252  1
  Er  Er7  1  0.000000  0.256348  0.720752  1
  Er  Er8  1  0.000000  0.743652  0.279248  1
  Er  Er9  1  0.000000  0.500000  0.500000  1
  In  In10  1  0.500000  0.423473  0.351595  1
  In  In11  1  0.500000  0.576527  0.648405  1
  In  In12  1  0.500000  0.076753  0.851154  1
  In  In13  1  0.500000  0.923247  0.148846  1
  In  In14  1  0.500000  0.293111  0.066805  1
  In  In15  1  0.500000  0.706889  0.933195  1
  In  In16  1  0.500000  0.208007  0.566548  1
  In  In17  1  0.500000  0.791993  0.433452  1
  Pt  Pt18  1  0.500000  0.024902  0.303889  1
  Pt  Pt19  1  0.500000  0.975098  0.696111  1
  Pt  Pt20  1  0.500000  0.475179  0.803666  1
  Pt  Pt21  1  0.500000  0.524821  0.196334  1
