# generated using pymatgen
data_Y16Ho4(Ir3Rh)3
_symmetry_space_group_name_H-M   'P 1'
_cell_length_a   10.90920300
_cell_length_b   10.90920300
_cell_length_c   6.39317100
_cell_angle_alpha   90.00000000
_cell_angle_beta   90.00000000
_cell_angle_gamma   90.00000000
_symmetry_Int_Tables_number   1
_chemical_formula_structural   Y16Ho4(Ir3Rh)3
_chemical_formula_sum   'Y16 Ho4 Ir9 Rh3'
_cell_volume   760.85582047
_cell_formula_units_Z   1
loop_
 _symmetry_equiv_pos_site_id
 _symmetry_equiv_pos_as_xyz
  1  'x, y, z'
loop_
 _atom_site_type_symbol
 _atom_site_label
 _atom_site_symmetry_multiplicity
 _atom_site_fract_x
 _atom_site_fract_y
 _atom_site_fract_z
 _atom_site_occupancy
  Y  Y0  1  0.290168  0.088612  0.379445  1
  Y  Y1  1  0.290069  0.910999  0.879231  1
  Y  Y2  1  0.709931  0.089001  0.879231  1
  Y  Y3  1  0.709832  0.911388  0.379445  1
  Y  Y4  1  0.589001  0.790069  0.879231  1
  Y  Y5  1  0.588612  0.209832  0.379445  1
  Y  Y6  1  0.411388  0.790168  0.379445  1
  Y  Y7  1  0.410999  0.209931  0.879231  1
  Y  Y8  1  0.209081  0.411408  0.619479  1
  Y  Y9  1  0.209404  0.588932  0.121980  1
  Y  Y10  1  0.790596  0.411068  0.121980  1
  Y  Y11  1  0.790919  0.588592  0.619479  1
  Y  Y12  1  0.911068  0.709404  0.121980  1
  Y  Y13  1  0.911408  0.290919  0.619479  1
  Y  Y14  1  0.088592  0.709081  0.619479  1
  Y  Y15  1  0.088932  0.290596  0.121980  1
  Ho  Ho16  1  0.000000  0.000000  0.500317  1
  Ho  Ho17  1  0.000000  0.000000  0.000061  1
  Ho  Ho18  1  0.500000  0.500000  0.000061  1
  Ho  Ho19  1  0.500000  0.500000  0.500317  1
  Ir  Ir20  1  0.846919  0.152022  0.249713  1
  Ir  Ir21  1  0.847093  0.847642  0.749923  1
  Ir  Ir22  1  0.152907  0.152358  0.749923  1
  Ir  Ir23  1  0.153081  0.847978  0.249713  1
  Ir  Ir24  1  0.652358  0.347093  0.749923  1
  Ir  Ir25  1  0.652022  0.653081  0.249713  1
  Ir  Ir26  1  0.347978  0.346919  0.249713  1
  Ir  Ir27  1  0.347642  0.652907  0.749923  1
  Ir  Ir28  1  0.000000  0.500000  0.375913  1
  Rh  Rh29  1  0.500000  0.000000  0.124008  1
  Rh  Rh30  1  0.500000  0.000000  0.624313  1
  Rh  Rh31  1  0.000000  0.500000  0.875926  1
