# generated using pymatgen
data_KMn(S2O7)2
_symmetry_space_group_name_H-M   'P 1'
_cell_length_a   5.17092557
_cell_length_b   7.52664236
_cell_length_c   8.79894600
_cell_angle_alpha   92.25981547
_cell_angle_beta   93.58548829
_cell_angle_gamma   107.04455364
_symmetry_Int_Tables_number   1
_chemical_formula_structural   KMn(S2O7)2
_chemical_formula_sum   'K1 Mn1 S4 O14'
_cell_volume   326.17078352
_cell_formula_units_Z   1
loop_
 _symmetry_equiv_pos_site_id
 _symmetry_equiv_pos_as_xyz
  1  'x, y, z'
loop_
 _atom_site_type_symbol
 _atom_site_label
 _atom_site_symmetry_multiplicity
 _atom_site_fract_x
 _atom_site_fract_y
 _atom_site_fract_z
 _atom_site_occupancy
  K  K0  1  0.500000  0.000000  0.500000  1
  Mn  Mn1  1  0.000000  0.500000  0.000000  1
  S  S2  1  0.492240  0.663378  0.804597  1
  S  S3  1  0.507760  0.336622  0.195403  1
  S  S4  1  0.157043  0.294197  0.703056  1
  S  S5  1  0.842957  0.705803  0.296944  1
  O  O6  1  0.673994  0.575549  0.880755  1
  O  O7  1  0.326006  0.424451  0.119245  1
  O  O8  1  0.278007  0.689065  0.903998  1
  O  O9  1  0.721993  0.310935  0.096002  1
  O  O10  1  0.615208  0.830441  0.731983  1
  O  O11  1  0.384792  0.169559  0.268017  1
  O  O12  1  0.322892  0.516896  0.666846  1
  O  O13  1  0.677108  0.483104  0.333154  1
  O  O14  1  0.990445  0.233846  0.562911  1
  O  O15  1  0.009555  0.766154  0.437089  1
  O  O16  1  0.359468  0.203975  0.741566  1
  O  O17  1  0.640532  0.796025  0.258434  1
  O  O18  1  0.993218  0.315195  0.833656  1
  O  O19  1  0.006782  0.684805  0.166344  1
