# generated using pymatgen
data_Cs12CeMo3Se16
_symmetry_space_group_name_H-M   'P 1'
_cell_length_a   10.40357900
_cell_length_b   10.52839989
_cell_length_c   12.11148500
_cell_angle_alpha   90.00000000
_cell_angle_beta   90.00000000
_cell_angle_gamma   89.65497375
_symmetry_Int_Tables_number   1
_chemical_formula_structural   Cs12CeMo3Se16
_chemical_formula_sum   'Cs12 Ce1 Mo3 Se16'
_cell_volume   1326.58371828
_cell_formula_units_Z   1
loop_
 _symmetry_equiv_pos_site_id
 _symmetry_equiv_pos_as_xyz
  1  'x, y, z'
loop_
 _atom_site_type_symbol
 _atom_site_label
 _atom_site_symmetry_multiplicity
 _atom_site_fract_x
 _atom_site_fract_y
 _atom_site_fract_z
 _atom_site_occupancy
  Cs  Cs0  1  0.549071  0.707706  0.043087  1
  Cs  Cs1  1  0.048768  0.794918  0.460659  1
  Cs  Cs2  1  0.445165  0.294714  0.540082  1
  Cs  Cs3  1  0.958425  0.200931  0.949773  1
  Cs  Cs4  1  0.445165  0.294714  0.959918  1
  Cs  Cs5  1  0.958425  0.200931  0.550227  1
  Cs  Cs6  1  0.549071  0.707706  0.456913  1
  Cs  Cs7  1  0.048768  0.794918  0.039341  1
  Cs  Cs8  1  0.357038  0.073771  0.250000  1
  Cs  Cs9  1  0.852751  0.412648  0.250000  1
  Cs  Cs10  1  0.645335  0.915892  0.750000  1
  Cs  Cs11  1  0.139860  0.590562  0.750000  1
  Ce  Ce12  1  0.234948  0.011072  0.750000  1
  Mo  Mo13  1  0.272487  0.515110  0.250000  1
  Mo  Mo14  1  0.782122  0.985488  0.250000  1
  Mo  Mo15  1  0.720960  0.480506  0.750000  1
  Se  Se16  1  0.290467  0.737593  0.250000  1
  Se  Se17  1  0.795571  0.760086  0.250000  1
  Se  Se18  1  0.699354  0.257227  0.750000  1
  Se  Se19  1  0.205979  0.267303  0.750000  1
  Se  Se20  1  0.482227  0.424339  0.250000  1
  Se  Se21  1  0.991626  0.072536  0.250000  1
  Se  Se22  1  0.513954  0.575169  0.750000  1
  Se  Se23  1  0.990206  0.919473  0.750000  1
  Se  Se24  1  0.160889  0.454781  0.088820  1
  Se  Se25  1  0.672734  0.052344  0.409431  1
  Se  Se26  1  0.831925  0.539885  0.588026  1
  Se  Se27  1  0.345582  0.955332  0.948084  1
  Se  Se28  1  0.831925  0.539885  0.911974  1
  Se  Se29  1  0.345582  0.955332  0.551916  1
  Se  Se30  1  0.160889  0.454781  0.411180  1
  Se  Se31  1  0.672734  0.052344  0.090569  1
