# generated using pymatgen
data_Ho3Mg(AlPt)4
_symmetry_space_group_name_H-M   'P 1'
_cell_length_a   4.33862500
_cell_length_b   6.83235263
_cell_length_c   7.72479037
_cell_angle_alpha   92.50133331
_cell_angle_beta   90.00000000
_cell_angle_gamma   90.00000000
_symmetry_Int_Tables_number   1
_chemical_formula_structural   Ho3Mg(AlPt)4
_chemical_formula_sum   'Ho3 Mg1 Al4 Pt4'
_cell_volume   228.76790768
_cell_formula_units_Z   1
loop_
 _symmetry_equiv_pos_site_id
 _symmetry_equiv_pos_as_xyz
  1  'x, y, z'
loop_
 _atom_site_type_symbol
 _atom_site_label
 _atom_site_symmetry_multiplicity
 _atom_site_fract_x
 _atom_site_fract_y
 _atom_site_fract_z
 _atom_site_occupancy
  Ho  Ho0  1  0.250000  0.528285  0.817320  1
  Ho  Ho1  1  0.750000  0.974153  0.330107  1
  Ho  Ho2  1  0.750000  0.469415  0.179440  1
  Mg  Mg3  1  0.250000  0.027937  0.677289  1
  Al  Al4  1  0.250000  0.138347  0.054555  1
  Al  Al5  1  0.250000  0.649081  0.440403  1
  Al  Al6  1  0.750000  0.859494  0.936777  1
  Al  Al7  1  0.750000  0.355558  0.563619  1
  Pt  Pt8  1  0.250000  0.272433  0.382493  1
  Pt  Pt9  1  0.250000  0.773283  0.125359  1
  Pt  Pt10  1  0.750000  0.730182  0.620285  1
  Pt  Pt11  1  0.750000  0.221831  0.872355  1
