# generated using pymatgen
data_Sc22FeOs6Rh
_symmetry_space_group_name_H-M   'P 1'
_cell_length_a   9.44636341
_cell_length_b   9.43118835
_cell_length_c   9.44636394
_cell_angle_alpha   60.05312797
_cell_angle_beta   60.11972208
_cell_angle_gamma   60.05312603
_symmetry_Int_Tables_number   1
_chemical_formula_structural   Sc22FeOs6Rh
_chemical_formula_sum   'Sc22 Fe1 Os6 Rh1'
_cell_volume   596.10266288
_cell_formula_units_Z   1
loop_
 _symmetry_equiv_pos_site_id
 _symmetry_equiv_pos_as_xyz
  1  'x, y, z'
loop_
 _atom_site_type_symbol
 _atom_site_label
 _atom_site_symmetry_multiplicity
 _atom_site_fract_x
 _atom_site_fract_y
 _atom_site_fract_z
 _atom_site_occupancy
  Sc  Sc0  1  0.843200  0.842916  0.843200  1
  Sc  Sc1  1  0.530227  0.157419  0.154935  1
  Sc  Sc2  1  0.154935  0.157419  0.530227  1
  Sc  Sc3  1  0.156800  0.529316  0.156800  1
  Sc  Sc4  1  0.845065  0.842581  0.469773  1
  Sc  Sc5  1  0.843200  0.470684  0.843200  1
  Sc  Sc6  1  0.469773  0.842581  0.845065  1
  Sc  Sc7  1  0.156800  0.157084  0.156800  1
  Sc  Sc8  1  0.199188  0.800812  0.199188  1
  Sc  Sc9  1  0.197153  0.800087  0.802847  1
  Sc  Sc10  1  0.802847  0.199913  0.197153  1
  Sc  Sc11  1  0.802847  0.800087  0.197153  1
  Sc  Sc12  1  0.197153  0.199913  0.802847  1
  Sc  Sc13  1  0.800812  0.199188  0.800812  1
  Sc  Sc14  1  0.383187  0.388908  0.383187  1
  Sc  Sc15  1  0.154712  0.614999  0.615293  1
  Sc  Sc16  1  0.616813  0.155284  0.616813  1
  Sc  Sc17  1  0.615293  0.614999  0.154712  1
  Sc  Sc18  1  0.383187  0.844716  0.383187  1
  Sc  Sc19  1  0.384707  0.385001  0.845288  1
  Sc  Sc20  1  0.845288  0.385001  0.384707  1
  Sc  Sc21  1  0.616813  0.611092  0.616813  1
  Fe  Fe22  1  0.500000  0.500000  0.500000  1
  Os  Os23  1  0.500000  0.500000  0.000000  1
  Os  Os24  1  0.000000  0.000000  0.500000  1
  Os  Os25  1  0.000000  0.500000  0.500000  1
  Os  Os26  1  0.500000  0.000000  0.000000  1
  Os  Os27  1  0.000000  0.500000  0.000000  1
  Os  Os28  1  0.000000  0.000000  0.000000  1
  Rh  Rh29  1  0.500000  0.000000  0.500000  1
