# generated using pymatgen
data_Nb9(CoS3)2
_symmetry_space_group_name_H-M   'P 1'
_cell_length_a   10.36585800
_cell_length_b   10.36585855
_cell_length_c   3.36749900
_cell_angle_alpha   90.00000000
_cell_angle_beta   90.00000000
_cell_angle_gamma   119.99999823
_symmetry_Int_Tables_number   1
_chemical_formula_structural   Nb9(CoS3)2
_chemical_formula_sum   'Nb9 Co2 S6'
_cell_volume   313.36367264
_cell_formula_units_Z   1
loop_
 _symmetry_equiv_pos_site_id
 _symmetry_equiv_pos_as_xyz
  1  'x, y, z'
loop_
 _atom_site_type_symbol
 _atom_site_label
 _atom_site_symmetry_multiplicity
 _atom_site_fract_x
 _atom_site_fract_y
 _atom_site_fract_z
 _atom_site_occupancy
  Nb  Nb0  1  0.543027  0.543027  0.000000  1
  Nb  Nb1  1  0.456973  0.000000  0.000000  1
  Nb  Nb2  1  0.000000  0.456973  0.000000  1
  Nb  Nb3  1  0.799763  0.538210  0.500000  1
  Nb  Nb4  1  0.461790  0.261552  0.500000  1
  Nb  Nb5  1  0.738448  0.200237  0.500000  1
  Nb  Nb6  1  0.538210  0.799763  0.500000  1
  Nb  Nb7  1  0.261552  0.461790  0.500000  1
  Nb  Nb8  1  0.200237  0.738448  0.500000  1
  Co  Co9  1  0.666667  0.333333  0.000000  1
  Co  Co10  1  0.333333  0.666667  0.000000  1
  S  S11  1  0.722731  0.722731  0.500000  1
  S  S12  1  0.277269  0.000000  0.500000  1
  S  S13  1  0.000000  0.277269  0.500000  1
  S  S14  1  0.298172  0.298172  0.000000  1
  S  S15  1  0.701828  0.000000  0.000000  1
  S  S16  1  0.000000  0.701828  0.000000  1
