# generated using pymatgen
data_Tm11LuInCo4Ru
_symmetry_space_group_name_H-M   'P 1'
_cell_length_a   8.15755690
_cell_length_b   8.15938174
_cell_length_c   8.15938168
_cell_angle_alpha   111.24782690
_cell_angle_beta   111.08284434
_cell_angle_gamma   106.14221037
_symmetry_Int_Tables_number   1
_chemical_formula_structural   Tm11LuInCo4Ru
_chemical_formula_sum   'Tm11 Lu1 In1 Co4 Ru1'
_cell_volume   416.97550185
_cell_formula_units_Z   1
loop_
 _symmetry_equiv_pos_site_id
 _symmetry_equiv_pos_as_xyz
  1  'x, y, z'
loop_
 _atom_site_type_symbol
 _atom_site_label
 _atom_site_symmetry_multiplicity
 _atom_site_fract_x
 _atom_site_fract_y
 _atom_site_fract_z
 _atom_site_occupancy
  Tm  Tm0  1  0.585354  0.779090  0.806265  1
  Tm  Tm1  1  0.027288  0.220654  0.806634  1
  Tm  Tm2  1  0.973072  0.779417  0.193656  1
  Tm  Tm3  1  0.184083  0.281842  0.465711  1
  Tm  Tm4  1  0.815871  0.717869  0.533942  1
  Tm  Tm5  1  0.184083  0.718372  0.902241  1
  Tm  Tm6  1  0.815871  0.281929  0.098001  1
  Tm  Tm7  1  0.314186  0.619571  0.305766  1
  Tm  Tm8  1  0.685639  0.380073  0.693827  1
  Tm  Tm9  1  0.314186  0.008420  0.694614  1
  Tm  Tm10  1  0.685639  0.991812  0.305566  1
  Lu  Lu11  1  0.414193  0.220460  0.193732  1
  In  In12  1  0.500037  0.499932  0.000105  1
  Co  Co13  1  0.374785  0.000113  0.374672  1
  Co  Co14  1  0.625251  0.000103  0.625148  1
  Co  Co15  1  0.112014  0.612135  0.499879  1
  Co  Co16  1  0.887697  0.387802  0.499895  1
  Ru  Ru17  1  0.000751  0.000405  0.000345  1
