# generated using pymatgen
data_VPt(SeO3)4
_symmetry_space_group_name_H-M   'P 1'
_cell_length_a   8.03433100
_cell_length_b   8.09351173
_cell_length_c   8.17479727
_cell_angle_alpha   89.69024094
_cell_angle_beta   90.00000000
_cell_angle_gamma   90.00000000
_symmetry_Int_Tables_number   1
_chemical_formula_structural   VPt(SeO3)4
_chemical_formula_sum   'V2 Pt2 Se8 O24'
_cell_volume   531.56620802
_cell_formula_units_Z   2
loop_
 _symmetry_equiv_pos_site_id
 _symmetry_equiv_pos_as_xyz
  1  'x, y, z'
loop_
 _atom_site_type_symbol
 _atom_site_label
 _atom_site_symmetry_multiplicity
 _atom_site_fract_x
 _atom_site_fract_y
 _atom_site_fract_z
 _atom_site_occupancy
  V  V0  1  0.000000  0.500000  0.000000  1
  V  V1  1  0.500000  0.500000  0.500000  1
  Pt  Pt2  1  0.000000  0.000000  0.500000  1
  Pt  Pt3  1  0.500000  0.000000  0.000000  1
  Se  Se4  1  0.322923  0.679108  0.164814  1
  Se  Se5  1  0.822923  0.320892  0.335186  1
  Se  Se6  1  0.670460  0.836540  0.676456  1
  Se  Se7  1  0.170460  0.163460  0.823544  1
  Se  Se8  1  0.677077  0.320892  0.835186  1
  Se  Se9  1  0.177077  0.679108  0.664814  1
  Se  Se10  1  0.329540  0.163460  0.323544  1
  Se  Se11  1  0.829540  0.836540  0.176456  1
  O  O12  1  0.239577  0.520030  0.049674  1
  O  O13  1  0.739577  0.479970  0.450326  1
  O  O14  1  0.751346  0.962237  0.519686  1
  O  O15  1  0.251346  0.037763  0.980314  1
  O  O16  1  0.536531  0.990111  0.754866  1
  O  O17  1  0.466857  0.562254  0.275157  1
  O  O18  1  0.966857  0.437746  0.224843  1
  O  O19  1  0.036531  0.009889  0.745134  1
  O  O20  1  0.960422  0.247191  0.486662  1
  O  O21  1  0.522469  0.736004  0.561313  1
  O  O22  1  0.460422  0.752809  0.013338  1
  O  O23  1  0.022469  0.263996  0.938687  1
  O  O24  1  0.760423  0.479970  0.950326  1
  O  O25  1  0.260423  0.520030  0.549674  1
  O  O26  1  0.248654  0.037763  0.480314  1
  O  O27  1  0.748654  0.962237  0.019686  1
  O  O28  1  0.463469  0.009889  0.245134  1
  O  O29  1  0.533143  0.437746  0.724843  1
  O  O30  1  0.033143  0.562254  0.775157  1
  O  O31  1  0.963469  0.990111  0.254866  1
  O  O32  1  0.039578  0.752809  0.513338  1
  O  O33  1  0.477531  0.263996  0.438687  1
  O  O34  1  0.539578  0.247191  0.986662  1
  O  O35  1  0.977531  0.736004  0.061313  1
