# generated using pymatgen
data_Cs7B12(IrPt)6
_symmetry_space_group_name_H-M   'P 1'
_cell_length_a   9.47549797
_cell_length_b   9.47549798
_cell_length_c   9.47549787
_cell_angle_alpha   111.55274165
_cell_angle_beta   111.55275302
_cell_angle_gamma   111.55274880
_symmetry_Int_Tables_number   1
_chemical_formula_structural   Cs7B12(IrPt)6
_chemical_formula_sum   'Cs7 B12 Ir6 Pt6'
_cell_volume   599.16215002
_cell_formula_units_Z   1
loop_
 _symmetry_equiv_pos_site_id
 _symmetry_equiv_pos_as_xyz
  1  'x, y, z'
loop_
 _atom_site_type_symbol
 _atom_site_label
 _atom_site_symmetry_multiplicity
 _atom_site_fract_x
 _atom_site_fract_y
 _atom_site_fract_z
 _atom_site_occupancy
  Cs  Cs0  1  0.996286  0.732368  0.732368  1
  Cs  Cs1  1  0.732368  0.732368  0.996286  1
  Cs  Cs2  1  0.732368  0.996286  0.732368  1
  Cs  Cs3  1  0.267632  0.003714  0.267632  1
  Cs  Cs4  1  0.003714  0.267632  0.267632  1
  Cs  Cs5  1  0.267632  0.267632  0.003714  1
  Cs  Cs6  1  0.500000  0.500000  0.500000  1
  B  B7  1  0.267191  0.732809  0.500000  1
  B  B8  1  0.732809  0.500000  0.267191  1
  B  B9  1  0.500000  0.267191  0.732809  1
  B  B10  1  0.732809  0.267191  0.500000  1
  B  B11  1  0.267191  0.500000  0.732809  1
  B  B12  1  0.500000  0.732809  0.267191  1
  B  B13  1  0.060899  0.939101  0.500000  1
  B  B14  1  0.939101  0.500000  0.060899  1
  B  B15  1  0.500000  0.060899  0.939101  1
  B  B16  1  0.939101  0.060899  0.500000  1
  B  B17  1  0.060899  0.500000  0.939101  1
  B  B18  1  0.500000  0.939101  0.060899  1
  Ir  Ir19  1  0.671795  0.328205  0.000000  1
  Ir  Ir20  1  0.328205  0.000000  0.671795  1
  Ir  Ir21  1  0.000000  0.671795  0.328205  1
  Ir  Ir22  1  0.328205  0.671795  0.000000  1
  Ir  Ir23  1  0.671795  0.000000  0.328205  1
  Ir  Ir24  1  0.000000  0.328205  0.671795  1
  Pt  Pt25  1  0.637255  0.243468  0.243468  1
  Pt  Pt26  1  0.243468  0.243468  0.637255  1
  Pt  Pt27  1  0.243468  0.637255  0.243468  1
  Pt  Pt28  1  0.756532  0.362745  0.756532  1
  Pt  Pt29  1  0.362745  0.756532  0.756532  1
  Pt  Pt30  1  0.756532  0.756532  0.362745  1
