# generated using pymatgen
data_ThZrMn12P7
_symmetry_space_group_name_H-M   'P 1'
_cell_length_a   9.25964200
_cell_length_b   9.25964133
_cell_length_c   3.62553800
_cell_angle_alpha   90.00000000
_cell_angle_beta   90.00000000
_cell_angle_gamma   119.99999527
_symmetry_Int_Tables_number   1
_chemical_formula_structural   ThZrMn12P7
_chemical_formula_sum   'Th1 Zr1 Mn12 P7'
_cell_volume   269.21017754
_cell_formula_units_Z   1
loop_
 _symmetry_equiv_pos_site_id
 _symmetry_equiv_pos_as_xyz
  1  'x, y, z'
loop_
 _atom_site_type_symbol
 _atom_site_label
 _atom_site_symmetry_multiplicity
 _atom_site_fract_x
 _atom_site_fract_y
 _atom_site_fract_z
 _atom_site_occupancy
  Th  Th0  1  0.000000  0.000000  0.500000  1
  Zr  Zr1  1  0.333333  0.666667  0.000000  1
  Mn  Mn2  1  0.046376  0.287131  0.000000  1
  Mn  Mn3  1  0.712869  0.759245  0.000000  1
  Mn  Mn4  1  0.240755  0.953624  0.000000  1
  Mn  Mn5  1  0.541746  0.054100  0.000000  1
  Mn  Mn6  1  0.945900  0.487646  0.000000  1
  Mn  Mn7  1  0.512354  0.458254  0.000000  1
  Mn  Mn8  1  0.616556  0.893790  0.500000  1
  Mn  Mn9  1  0.106210  0.722766  0.500000  1
  Mn  Mn10  1  0.277234  0.383444  0.500000  1
  Mn  Mn11  1  0.789346  0.230089  0.500000  1
  Mn  Mn12  1  0.769911  0.559258  0.500000  1
  Mn  Mn13  1  0.440742  0.210654  0.500000  1
  P  P14  1  0.779912  0.044722  0.000000  1
  P  P15  1  0.955278  0.735191  0.000000  1
  P  P16  1  0.264809  0.220088  0.000000  1
  P  P17  1  0.383306  0.920012  0.500000  1
  P  P18  1  0.079988  0.463294  0.500000  1
  P  P19  1  0.536706  0.616694  0.500000  1
  P  P20  1  0.666667  0.333333  0.000000  1
