# generated using pymatgen
data_Ce4Cd2SiRh10
_symmetry_space_group_name_H-M   'P 1'
_cell_length_a   7.29607981
_cell_length_b   7.36639804
_cell_length_c   7.36639763
_cell_angle_alpha   107.49628679
_cell_angle_beta   110.66098227
_cell_angle_gamma   110.68674178
_symmetry_Int_Tables_number   1
_chemical_formula_structural   Ce4Cd2SiRh10
_chemical_formula_sum   'Ce4 Cd2 Si1 Rh10'
_cell_volume   302.91391148
_cell_formula_units_Z   1
loop_
 _symmetry_equiv_pos_site_id
 _symmetry_equiv_pos_as_xyz
  1  'x, y, z'
loop_
 _atom_site_type_symbol
 _atom_site_label
 _atom_site_symmetry_multiplicity
 _atom_site_fract_x
 _atom_site_fract_y
 _atom_site_fract_z
 _atom_site_occupancy
  Ce  Ce0  1  0.034775  0.017432  0.517390  1
  Ce  Ce1  1  0.034775  0.517385  0.017343  1
  Ce  Ce2  1  0.472534  0.960546  0.960299  1
  Ce  Ce3  1  0.472534  0.512235  0.511989  1
  Cd  Cd4  1  0.745482  0.248516  0.496966  1
  Cd  Cd5  1  0.745599  0.496907  0.248693  1
  Si  Si6  1  0.000100  0.000053  0.000046  1
  Rh  Rh7  1  0.513104  0.256545  0.756499  1
  Rh  Rh8  1  0.242335  0.494103  0.748232  1
  Rh  Rh9  1  0.242190  0.748066  0.494124  1
  Rh  Rh10  1  0.513104  0.756605  0.256560  1
  Rh  Rh11  1  0.732628  0.724568  0.008060  1
  Rh  Rh12  1  0.279333  0.003161  0.276173  1
  Rh  Rh13  1  0.979653  0.258501  0.258440  1
  Rh  Rh14  1  0.279680  0.276332  0.003348  1
  Rh  Rh15  1  0.732514  0.007831  0.724682  1
  Rh  Rh16  1  0.979653  0.721213  0.721152  1
