# generated using pymatgen
data_OsN(OF3)2
_symmetry_space_group_name_H-M   'P 1'
_cell_length_a   5.56463325
_cell_length_b   5.56461361
_cell_length_c   5.22600435
_cell_angle_alpha   89.92882099
_cell_angle_beta   89.92846986
_cell_angle_gamma   66.41939741
_symmetry_Int_Tables_number   1
_chemical_formula_structural   OsN(OF3)2
_chemical_formula_sum   'Os1 N1 O2 F6'
_cell_volume   148.31069475
_cell_formula_units_Z   1
loop_
 _symmetry_equiv_pos_site_id
 _symmetry_equiv_pos_as_xyz
  1  'x, y, z'
loop_
 _atom_site_type_symbol
 _atom_site_label
 _atom_site_symmetry_multiplicity
 _atom_site_fract_x
 _atom_site_fract_y
 _atom_site_fract_z
 _atom_site_occupancy
  Os  Os0  1  0.000000  0.000000  0.500000  1
  N  N1  1  0.499999  0.499999  0.000000  1
  O  O2  1  0.607940  0.607941  0.102641  1
  O  O3  1  0.392059  0.392058  0.897359  1
  F  F4  1  0.124839  0.124838  0.209713  1
  F  F5  1  0.663382  0.114640  0.337799  1
  F  F6  1  0.114628  0.663385  0.337791  1
  F  F7  1  0.885372  0.336616  0.662207  1
  F  F8  1  0.336619  0.885360  0.662199  1
  F  F9  1  0.875160  0.875161  0.790288  1
