# generated using pymatgen
data_ErLu7(BBr6)2
_symmetry_space_group_name_H-M   'P 1'
_cell_length_a   3.87827900
_cell_length_b   12.93782378
_cell_length_c   13.39924388
_cell_angle_alpha   90.07516711
_cell_angle_beta   90.00000000
_cell_angle_gamma   90.00000000
_symmetry_Int_Tables_number   1
_chemical_formula_structural   ErLu7(BBr6)2
_chemical_formula_sum   'Er1 Lu7 B2 Br12'
_cell_volume   672.32645193
_cell_formula_units_Z   1
loop_
 _symmetry_equiv_pos_site_id
 _symmetry_equiv_pos_as_xyz
  1  'x, y, z'
loop_
 _atom_site_type_symbol
 _atom_site_label
 _atom_site_symmetry_multiplicity
 _atom_site_fract_x
 _atom_site_fract_y
 _atom_site_fract_z
 _atom_site_occupancy
  Er  Er0  1  0.500000  0.121975  0.856646  1
  Lu  Lu1  1  0.000000  0.099508  0.079433  1
  Lu  Lu2  1  0.000000  0.900121  0.921023  1
  Lu  Lu3  1  0.000000  0.599650  0.420847  1
  Lu  Lu4  1  0.000000  0.400391  0.579100  1
  Lu  Lu5  1  0.500000  0.878669  0.142603  1
  Lu  Lu6  1  0.500000  0.621203  0.642416  1
  Lu  Lu7  1  0.500000  0.378827  0.357553  1
  B  B8  1  0.500000  0.999401  0.000710  1
  B  B9  1  0.500000  0.500060  0.499956  1
  Br  Br10  1  0.500000  0.268884  0.681111  1
  Br  Br11  1  0.500000  0.731784  0.318064  1
  Br  Br12  1  0.500000  0.768010  0.817951  1
  Br  Br13  1  0.500000  0.231909  0.182159  1
  Br  Br14  1  0.000000  0.261777  0.932038  1
  Br  Br15  1  0.000000  0.739457  0.069354  1
  Br  Br16  1  0.000000  0.479906  0.239847  1
  Br  Br17  1  0.000000  0.520132  0.760144  1
  Br  Br18  1  0.000000  0.979955  0.260357  1
  Br  Br19  1  0.000000  0.018382  0.738748  1
  Br  Br20  1  0.000000  0.239671  0.430581  1
  Br  Br21  1  0.000000  0.760329  0.569359  1
