# generated using pymatgen
data_Lu12Fe3RhPb
_symmetry_space_group_name_H-M   'P 1'
_cell_length_a   8.05812174
_cell_length_b   8.05812066
_cell_length_c   8.05812200
_cell_angle_alpha   111.04284580
_cell_angle_beta   106.67794593
_cell_angle_gamma   110.72862653
_symmetry_Int_Tables_number   1
_chemical_formula_structural   Lu12Fe3RhPb
_chemical_formula_sum   'Lu12 Fe3 Rh1 Pb1'
_cell_volume   402.07404701
_cell_formula_units_Z   1
loop_
 _symmetry_equiv_pos_site_id
 _symmetry_equiv_pos_as_xyz
  1  'x, y, z'
loop_
 _atom_site_type_symbol
 _atom_site_label
 _atom_site_symmetry_multiplicity
 _atom_site_fract_x
 _atom_site_fract_y
 _atom_site_fract_z
 _atom_site_occupancy
  Lu  Lu0  1  0.307121  0.311246  0.618367  1
  Lu  Lu1  1  0.692879  0.688754  0.381633  1
  Lu  Lu2  1  0.692880  0.311246  0.004126  1
  Lu  Lu3  1  0.307120  0.688754  0.995874  1
  Lu  Lu4  1  0.187945  0.459650  0.271705  1
  Lu  Lu5  1  0.812055  0.540350  0.728295  1
  Lu  Lu6  1  0.187943  0.916240  0.728298  1
  Lu  Lu7  1  0.973248  0.190314  0.782937  1
  Lu  Lu8  1  0.812057  0.083760  0.271702  1
  Lu  Lu9  1  0.026752  0.809686  0.217063  1
  Lu  Lu10  1  0.407378  0.190314  0.217066  1
  Lu  Lu11  1  0.592622  0.809686  0.782934  1
  Fe  Fe12  1  0.381488  0.381489  0.000001  1
  Fe  Fe13  1  0.618512  0.618511  0.999999  1
  Fe  Fe14  1  0.000000  0.000000  0.000000  1
  Rh  Rh15  1  0.000000  0.500000  0.500000  1
  Pb  Pb16  1  0.500000  0.000000  0.500000  1
