# generated using pymatgen
data_Dy2Er3Tm(RuI3)2
_symmetry_space_group_name_H-M   'P 1'
_cell_length_a   4.19160400
_cell_length_b   8.86161947
_cell_length_c   12.28446294
_cell_angle_alpha   94.62366235
_cell_angle_beta   90.00000000
_cell_angle_gamma   90.00000000
_symmetry_Int_Tables_number   1
_chemical_formula_structural   Dy2Er3Tm(RuI3)2
_chemical_formula_sum   'Dy2 Er3 Tm1 Ru2 I6'
_cell_volume   454.81405379
_cell_formula_units_Z   1
loop_
 _symmetry_equiv_pos_site_id
 _symmetry_equiv_pos_as_xyz
  1  'x, y, z'
loop_
 _atom_site_type_symbol
 _atom_site_label
 _atom_site_symmetry_multiplicity
 _atom_site_fract_x
 _atom_site_fract_y
 _atom_site_fract_z
 _atom_site_occupancy
  Dy  Dy0  1  0.750000  0.266443  0.604365  1
  Dy  Dy1  1  0.250000  0.733437  0.395925  1
  Er  Er2  1  0.250000  0.124363  0.374160  1
  Er  Er3  1  0.750000  0.893771  0.185540  1
  Er  Er4  1  0.250000  0.105899  0.814320  1
  Tm  Tm5  1  0.750000  0.876495  0.625764  1
  Ru  Ru6  1  0.750000  0.940955  0.407033  1
  Ru  Ru7  1  0.250000  0.058484  0.593207  1
  I  I8  1  0.750000  0.420712  0.365872  1
  I  I9  1  0.250000  0.579755  0.634223  1
  I  I10  1  0.750000  0.865531  0.889661  1
  I  I11  1  0.250000  0.134274  0.109981  1
  I  I12  1  0.750000  0.358957  0.867551  1
  I  I13  1  0.250000  0.640924  0.132399  1
