# generated using pymatgen
data_Yb3Y(IrRu3)2
_symmetry_space_group_name_H-M   'P 1'
_cell_length_a   5.21409809
_cell_length_b   5.21411904
_cell_length_c   9.00481100
_cell_angle_alpha   89.99957542
_cell_angle_beta   90.00068425
_cell_angle_gamma   119.99328242
_symmetry_Int_Tables_number   1
_chemical_formula_structural   Yb3Y(IrRu3)2
_chemical_formula_sum   'Yb3 Y1 Ir2 Ru6'
_cell_volume   212.02875659
_cell_formula_units_Z   1
loop_
 _symmetry_equiv_pos_site_id
 _symmetry_equiv_pos_as_xyz
  1  'x, y, z'
loop_
 _atom_site_type_symbol
 _atom_site_label
 _atom_site_symmetry_multiplicity
 _atom_site_fract_x
 _atom_site_fract_y
 _atom_site_fract_z
 _atom_site_occupancy
  Yb  Yb0  1  0.333332  0.666669  0.429785  1
  Yb  Yb1  1  0.333337  0.666662  0.065569  1
  Yb  Yb2  1  0.666660  0.333340  0.937739  1
  Y  Y3  1  0.666654  0.333345  0.567706  1
  Ir  Ir4  1  0.000005  0.999993  0.499095  1
  Ir  Ir5  1  0.000003  0.999995  0.999183  1
  Ru  Ru6  1  0.170841  0.341705  0.750025  1
  Ru  Ru7  1  0.170890  0.829108  0.750028  1
  Ru  Ru8  1  0.658295  0.829159  0.750024  1
  Ru  Ru9  1  0.829452  0.658848  0.250281  1
  Ru  Ru10  1  0.829375  0.170627  0.250284  1
  Ru  Ru11  1  0.341155  0.170549  0.250282  1
