# generated using pymatgen
data_La10In(HgRu2)3
_symmetry_space_group_name_H-M   'P 1'
_cell_length_a   8.74581644
_cell_length_b   8.78707589
_cell_length_c   8.74581500
_cell_angle_alpha   109.56681200
_cell_angle_beta   109.37545419
_cell_angle_gamma   109.56682496
_symmetry_Int_Tables_number   1
_chemical_formula_structural   La10In(HgRu2)3
_chemical_formula_sum   'La10 In1 Hg3 Ru6'
_cell_volume   516.78438852
_cell_formula_units_Z   1
loop_
 _symmetry_equiv_pos_site_id
 _symmetry_equiv_pos_as_xyz
  1  'x, y, z'
loop_
 _atom_site_type_symbol
 _atom_site_label
 _atom_site_symmetry_multiplicity
 _atom_site_fract_x
 _atom_site_fract_y
 _atom_site_fract_z
 _atom_site_occupancy
  La  La0  1  0.250626  0.683642  0.435748  1
  La  La1  1  0.748139  0.815080  0.062715  1
  La  La2  1  0.437285  0.252366  0.685424  1
  La  La3  1  0.685122  0.433017  0.249374  1
  La  La4  1  0.064252  0.747896  0.814878  1
  La  La5  1  0.814576  0.066941  0.751861  1
  La  La6  1  0.211539  0.212603  0.212376  1
  La  La7  1  0.500838  0.001064  0.288461  1
  La  La8  1  0.287624  0.500226  0.999162  1
  La  La9  1  0.000000  0.288536  0.500000  1
  In  In10  1  0.000000  0.904938  0.500000  1
  Hg  Hg11  1  0.594406  0.594251  0.592610  1
  Hg  Hg12  1  0.498204  0.999844  0.905594  1
  Hg  Hg13  1  0.907390  0.501642  0.001796  1
  Ru  Ru14  1  0.243654  0.137714  0.884823  1
  Ru  Ru15  1  0.748193  0.355739  0.605739  1
  Ru  Ru16  1  0.894260  0.250001  0.142454  1
  Ru  Ru17  1  0.141169  0.894059  0.256346  1
  Ru  Ru18  1  0.615177  0.752892  0.358831  1
  Ru  Ru19  1  0.357546  0.607547  0.751807  1
