# generated using pymatgen
data_Ho4ZnGa3Te2
_symmetry_space_group_name_H-M   'P 1'
_cell_length_a   4.16147400
_cell_length_b   4.16147246
_cell_length_c   16.21098500
_cell_angle_alpha   90.00000000
_cell_angle_beta   90.00000000
_cell_angle_gamma   119.99999635
_symmetry_Int_Tables_number   1
_chemical_formula_structural   Ho4ZnGa3Te2
_chemical_formula_sum   'Ho4 Zn1 Ga3 Te2'
_cell_volume   243.12759947
_cell_formula_units_Z   1
loop_
 _symmetry_equiv_pos_site_id
 _symmetry_equiv_pos_as_xyz
  1  'x, y, z'
loop_
 _atom_site_type_symbol
 _atom_site_label
 _atom_site_symmetry_multiplicity
 _atom_site_fract_x
 _atom_site_fract_y
 _atom_site_fract_z
 _atom_site_occupancy
  Ho  Ho0  1  0.000000  0.000000  0.124851  1
  Ho  Ho1  1  0.000000  0.000000  0.875902  1
  Ho  Ho2  1  0.000000  0.000000  0.625656  1
  Ho  Ho3  1  0.000000  0.000000  0.374622  1
  Zn  Zn4  1  0.333333  0.666667  0.986441  1
  Ga  Ga5  1  0.333333  0.666667  0.520435  1
  Ga  Ga6  1  0.666667  0.333333  0.479554  1
  Ga  Ga7  1  0.666667  0.333333  0.012378  1
  Te  Te8  1  0.333333  0.666667  0.249716  1
  Te  Te9  1  0.666667  0.333333  0.750444  1
