# generated using pymatgen
data_Tb4Gd2OsO12
_symmetry_space_group_name_H-M   'P 1'
_cell_length_a   6.53875981
_cell_length_b   6.52747959
_cell_length_c   6.52589036
_cell_angle_alpha   98.66113478
_cell_angle_beta   98.69042948
_cell_angle_gamma   98.69923340
_symmetry_Int_Tables_number   1
_chemical_formula_structural   Tb4Gd2OsO12
_chemical_formula_sum   'Tb4 Gd2 Os1 O12'
_cell_volume   267.84842090
_cell_formula_units_Z   1
loop_
 _symmetry_equiv_pos_site_id
 _symmetry_equiv_pos_as_xyz
  1  'x, y, z'
loop_
 _atom_site_type_symbol
 _atom_site_label
 _atom_site_symmetry_multiplicity
 _atom_site_fract_x
 _atom_site_fract_y
 _atom_site_fract_z
 _atom_site_occupancy
  Tb  Tb0  1  0.855561  0.387506  0.686326  1
  Tb  Tb1  1  0.610592  0.311242  0.144026  1
  Tb  Tb2  1  0.314604  0.143992  0.611168  1
  Tb  Tb3  1  0.687453  0.856164  0.389642  1
  Gd  Gd4  1  0.391536  0.687366  0.856756  1
  Gd  Gd5  1  0.143451  0.609696  0.312977  1
  Os  Os6  1  0.999635  0.000807  0.999551  1
  O  O7  1  0.926718  0.034687  0.704430  1
  O  O8  1  0.962592  0.294575  0.069614  1
  O  O9  1  0.592029  0.177100  0.435276  1
  O  O10  1  0.821616  0.564402  0.409896  1
  O  O11  1  0.294410  0.075223  0.963719  1
  O  O12  1  0.566239  0.405787  0.822842  1
  O  O13  1  0.436717  0.590396  0.178635  1
  O  O14  1  0.705074  0.930104  0.039124  1
  O  O15  1  0.176828  0.432650  0.591710  1
  O  O16  1  0.410137  0.823049  0.564952  1
  O  O17  1  0.031776  0.707176  0.925140  1
  O  O18  1  0.073032  0.968079  0.294215  1
