# generated using pymatgen
data_Na8Zr3PaBr24
_symmetry_space_group_name_H-M   'P 1'
_cell_length_a   7.35182300
_cell_length_b   7.35182370
_cell_length_c   28.06067400
_cell_angle_alpha   90.00000000
_cell_angle_beta   90.00000000
_cell_angle_gamma   120.00000136
_symmetry_Int_Tables_number   1
_chemical_formula_structural   Na8Zr3PaBr24
_chemical_formula_sum   'Na8 Zr3 Pa1 Br24'
_cell_volume   1313.46604606
_cell_formula_units_Z   1
loop_
 _symmetry_equiv_pos_site_id
 _symmetry_equiv_pos_as_xyz
  1  'x, y, z'
loop_
 _atom_site_type_symbol
 _atom_site_label
 _atom_site_symmetry_multiplicity
 _atom_site_fract_x
 _atom_site_fract_y
 _atom_site_fract_z
 _atom_site_occupancy
  Na  Na0  1  0.000000  0.000000  0.250156  1
  Na  Na1  1  0.000000  0.000000  0.749844  1
  Na  Na2  1  0.333333  0.666667  0.000368  1
  Na  Na3  1  0.333333  0.666667  0.499387  1
  Na  Na4  1  0.333333  0.666667  0.249958  1
  Na  Na5  1  0.666667  0.333333  0.750042  1
  Na  Na6  1  0.666667  0.333333  0.999632  1
  Na  Na7  1  0.666667  0.333333  0.500613  1
  Zr  Zr8  1  0.000000  0.000000  0.500000  1
  Zr  Zr9  1  0.333333  0.666667  0.749732  1
  Zr  Zr10  1  0.666667  0.333333  0.250268  1
  Pa  Pa11  1  0.000000  0.000000  0.000000  1
  Br  Br12  1  0.371200  0.037488  0.305153  1
  Br  Br13  1  0.333546  0.962385  0.804791  1
  Br  Br14  1  0.999221  0.312988  0.057826  1
  Br  Br15  1  0.999995  0.295961  0.554959  1
  Br  Br16  1  0.962512  0.333714  0.305153  1
  Br  Br17  1  0.037615  0.371160  0.804791  1
  Br  Br18  1  0.371160  0.333546  0.195209  1
  Br  Br19  1  0.333714  0.371200  0.694847  1
  Br  Br20  1  0.295961  0.295966  0.445041  1
  Br  Br21  1  0.312988  0.313767  0.942174  1
  Br  Br22  1  0.704034  0.999995  0.445041  1
  Br  Br23  1  0.313767  0.000779  0.057826  1
  Br  Br24  1  0.295966  0.000005  0.554959  1
  Br  Br25  1  0.687012  0.686233  0.057826  1
  Br  Br26  1  0.704039  0.704034  0.554959  1
  Br  Br27  1  0.666286  0.628800  0.305153  1
  Br  Br28  1  0.628840  0.666454  0.804791  1
  Br  Br29  1  0.962385  0.628840  0.195209  1
  Br  Br30  1  0.037488  0.666286  0.694847  1
  Br  Br31  1  0.000005  0.704039  0.445041  1
  Br  Br32  1  0.000779  0.687012  0.942174  1
  Br  Br33  1  0.686233  0.999221  0.942174  1
  Br  Br34  1  0.666454  0.037615  0.195209  1
  Br  Br35  1  0.628800  0.962512  0.694847  1
