# generated using pymatgen
data_Lu2Nb2Bi3SbRh4
_symmetry_space_group_name_H-M   'P 1'
_cell_length_a   6.42981174
_cell_length_b   4.54710500
_cell_length_c   9.08202522
_cell_angle_alpha   90.00000000
_cell_angle_beta   89.74647660
_cell_angle_gamma   90.00000000
_symmetry_Int_Tables_number   1
_chemical_formula_structural   Lu2Nb2Bi3SbRh4
_chemical_formula_sum   'Lu2 Nb2 Bi3 Sb1 Rh4'
_cell_volume   265.52883639
_cell_formula_units_Z   1
loop_
 _symmetry_equiv_pos_site_id
 _symmetry_equiv_pos_as_xyz
  1  'x, y, z'
loop_
 _atom_site_type_symbol
 _atom_site_label
 _atom_site_symmetry_multiplicity
 _atom_site_fract_x
 _atom_site_fract_y
 _atom_site_fract_z
 _atom_site_occupancy
  Lu  Lu0  1  0.007163  0.499999  0.375457  1
  Lu  Lu1  1  0.506930  0.000000  0.628045  1
  Nb  Nb2  1  0.492886  0.000000  0.120290  1
  Nb  Nb3  1  0.994955  0.499999  0.876410  1
  Bi  Bi4  1  0.984736  0.000000  0.125517  1
  Bi  Bi5  1  0.512309  0.499999  0.375275  1
  Bi  Bi6  1  0.012015  0.000000  0.625164  1
  Sb  Sb7  1  0.485366  0.499999  0.874201  1
  Rh  Rh8  1  0.731694  0.499999  0.107227  1
  Rh  Rh9  1  0.265768  0.000000  0.357068  1
  Rh  Rh10  1  0.763060  0.499999  0.647688  1
  Rh  Rh11  1  0.243122  0.000000  0.887668  1
