# generated using pymatgen
data_Li6Nd6Te3WO24
_symmetry_space_group_name_H-M   'P 1'
_cell_length_a   11.00174778
_cell_length_b   10.98764358
_cell_length_c   10.98758929
_cell_angle_alpha   109.41578958
_cell_angle_beta   109.47562360
_cell_angle_gamma   109.47041202
_symmetry_Int_Tables_number   1
_chemical_formula_structural   Li6Nd6Te3WO24
_chemical_formula_sum   'Li12 Nd12 Te6 W2 O48'
_cell_volume   1023.11437695
_cell_formula_units_Z   2
loop_
 _symmetry_equiv_pos_site_id
 _symmetry_equiv_pos_as_xyz
  1  'x, y, z'
loop_
 _atom_site_type_symbol
 _atom_site_label
 _atom_site_symmetry_multiplicity
 _atom_site_fract_x
 _atom_site_fract_y
 _atom_site_fract_z
 _atom_site_occupancy
  Li  Li0  1  0.750002  0.375133  0.125133  1
  Li  Li1  1  0.876833  0.750503  0.124121  1
  Li  Li2  1  0.126514  0.373498  0.249569  1
  Li  Li3  1  0.626522  0.876950  0.253022  1
  Li  Li4  1  0.250002  0.125615  0.375616  1
  Li  Li5  1  0.623162  0.247288  0.373668  1
  Li  Li6  1  0.376837  0.752712  0.626332  1
  Li  Li7  1  0.749995  0.874384  0.624382  1
  Li  Li8  1  0.373478  0.123050  0.746979  1
  Li  Li9  1  0.873486  0.626502  0.750431  1
  Li  Li10  1  0.123165  0.249495  0.875878  1
  Li  Li11  1  0.249997  0.624866  0.874866  1
  Nd  Nd12  1  0.250000  0.875208  0.125208  1
  Nd  Nd13  1  0.375430  0.250845  0.123671  1
  Nd  Nd14  1  0.875813  0.127191  0.251215  1
  Nd  Nd15  1  0.375814  0.624600  0.248622  1
  Nd  Nd16  1  0.750000  0.623516  0.373516  1
  Nd  Nd17  1  0.124569  0.748241  0.375415  1
  Nd  Nd18  1  0.875430  0.251759  0.624585  1
  Nd  Nd19  1  0.250000  0.376483  0.626483  1
  Nd  Nd20  1  0.624187  0.375401  0.751377  1
  Nd  Nd21  1  0.124186  0.872809  0.748786  1
  Nd  Nd22  1  0.749998  0.124790  0.874790  1
  Nd  Nd23  1  0.624570  0.749155  0.876328  1
  Te  Te24  1  0.999999  0.999999  0.999999  1
  Te  Te25  1  0.499999  0.999999  0.999999  1
  Te  Te26  1  0.999999  0.499999  0.999999  1
  Te  Te27  1  0.999999  0.999999  0.500000  1
  Te  Te28  1  0.500000  0.000001  0.500000  1
  Te  Te29  1  0.500000  0.500000  0.500000  1
  W  W30  1  0.500002  0.500001  0.000001  1
  W  W31  1  0.000001  0.500001  0.500002  1
  O  O32  1  0.328384  0.406367  0.021728  1
  O  O33  1  0.193805  0.616435  0.022733  1
  O  O34  1  0.693805  0.171070  0.077370  1
  O  O35  1  0.883455  0.907356  0.077998  1
  O  O36  1  0.976971  0.171006  0.093142  1
  O  O37  1  0.616720  0.923176  0.094378  1
  O  O38  1  0.593009  0.421515  0.115450  1
  O  O39  1  0.023799  0.693906  0.117405  1
  O  O40  1  0.476201  0.093605  0.170108  1
  O  O41  1  0.193907  0.077414  0.170775  1
  O  O42  1  0.116720  0.522342  0.193542  1
  O  O43  1  0.578118  0.671289  0.193827  1
  O  O44  1  0.330010  0.423546  0.305837  1
  O  O45  1  0.476971  0.883832  0.305968  1
  O  O46  1  0.906991  0.522439  0.328506  1
  O  O47  1  0.923237  0.806196  0.328944  1
  O  O48  1  0.576761  0.405707  0.382962  1
  O  O49  1  0.306096  0.976870  0.383509  1
  O  O50  1  0.830010  0.024170  0.406463  1
  O  O51  1  0.078117  0.384289  0.406829  1
  O  O52  1  0.094192  0.118001  0.424070  1
  O  O53  1  0.828385  0.306656  0.422018  1
  O  O54  1  0.594197  0.670126  0.476193  1
  O  O55  1  0.383453  0.805454  0.476096  1
  O  O56  1  0.405804  0.329873  0.523807  1
  O  O57  1  0.616548  0.194547  0.523905  1
  O  O58  1  0.905805  0.881999  0.575931  1
  O  O59  1  0.171614  0.693345  0.577985  1
  O  O60  1  0.169991  0.975831  0.593537  1
  O  O61  1  0.921883  0.615711  0.593173  1
  O  O62  1  0.693903  0.023130  0.616490  1
  O  O63  1  0.423240  0.594293  0.617038  1
  O  O64  1  0.076761  0.193801  0.671054  1
  O  O65  1  0.093009  0.477561  0.671496  1
  O  O66  1  0.523030  0.116168  0.694032  1
  O  O67  1  0.669990  0.576453  0.694161  1
  O  O68  1  0.421884  0.328712  0.806172  1
  O  O69  1  0.883282  0.477660  0.806458  1
  O  O70  1  0.523798  0.906395  0.829891  1
  O  O71  1  0.806091  0.922583  0.829223  1
  O  O72  1  0.976199  0.306093  0.882594  1
  O  O73  1  0.406991  0.578486  0.884550  1
  O  O74  1  0.383279  0.076823  0.905622  1
  O  O75  1  0.023030  0.828996  0.906860  1
  O  O76  1  0.116545  0.092641  0.922001  1
  O  O77  1  0.306194  0.828929  0.922629  1
  O  O78  1  0.806193  0.383564  0.977264  1
  O  O79  1  0.671617  0.593632  0.978272  1
