# generated using pymatgen
data_YGa3NiAg
_symmetry_space_group_name_H-M   'P 1'
_cell_length_a   8.05426273
_cell_length_b   8.05426240
_cell_length_c   6.62487500
_cell_angle_alpha   90.00000000
_cell_angle_beta   90.00000000
_cell_angle_gamma   150.76825367
_symmetry_Int_Tables_number   1
_chemical_formula_structural   YGa3NiAg
_chemical_formula_sum   'Y2 Ga6 Ni2 Ag2'
_cell_volume   209.87197291
_cell_formula_units_Z   2
loop_
 _symmetry_equiv_pos_site_id
 _symmetry_equiv_pos_as_xyz
  1  'x, y, z'
loop_
 _atom_site_type_symbol
 _atom_site_label
 _atom_site_symmetry_multiplicity
 _atom_site_fract_x
 _atom_site_fract_y
 _atom_site_fract_z
 _atom_site_occupancy
  Y  Y0  1  0.374144  0.625856  0.750000  1
  Y  Y1  1  0.625856  0.374144  0.250000  1
  Ga  Ga2  1  0.569946  0.430054  0.750000  1
  Ga  Ga3  1  0.430054  0.569946  0.250000  1
  Ga  Ga4  1  0.186767  0.813233  0.949112  1
  Ga  Ga5  1  0.813233  0.186767  0.050888  1
  Ga  Ga6  1  0.186767  0.813233  0.550888  1
  Ga  Ga7  1  0.813233  0.186767  0.449112  1
  Ni  Ni8  1  0.723766  0.276234  0.750000  1
  Ni  Ni9  1  0.276234  0.723766  0.250000  1
  Ag  Ag10  1  0.000000  0.000000  0.000000  1
  Ag  Ag11  1  0.000000  0.000000  0.500000  1
