# generated using pymatgen
data_Tb2Dy2Bi3Sb3Rh7
_symmetry_space_group_name_H-M   'P 1'
_cell_length_a   7.75151275
_cell_length_b   7.71570733
_cell_length_c   7.71195618
_cell_angle_alpha   109.37683851
_cell_angle_beta   109.56520346
_cell_angle_gamma   109.58514357
_symmetry_Int_Tables_number   1
_chemical_formula_structural   Tb2Dy2Bi3Sb3Rh7
_chemical_formula_sum   'Tb2 Dy2 Bi3 Sb3 Rh7'
_cell_volume   354.56315934
_cell_formula_units_Z   1
loop_
 _symmetry_equiv_pos_site_id
 _symmetry_equiv_pos_as_xyz
  1  'x, y, z'
loop_
 _atom_site_type_symbol
 _atom_site_label
 _atom_site_symmetry_multiplicity
 _atom_site_fract_x
 _atom_site_fract_y
 _atom_site_fract_z
 _atom_site_occupancy
  Tb  Tb0  1  0.004459  0.000001  0.514085  1
  Tb  Tb1  1  0.490373  0.485916  0.485915  1
  Dy  Dy2  1  0.465041  0.999983  0.000000  1
  Dy  Dy3  1  0.004587  0.514235  0.000000  1
  Bi  Bi4  1  0.987974  0.297728  0.297535  1
  Bi  Bi5  1  0.690439  0.000192  0.702465  1
  Bi  Bi6  1  0.690427  0.702260  0.000000  1
  Sb  Sb7  1  0.989246  0.665117  0.665350  1
  Sb  Sb8  1  0.323896  0.999767  0.334650  1
  Sb  Sb9  1  0.323926  0.334888  0.000000  1
  Rh  Rh10  1  0.064734  0.999980  0.000000  1
  Rh  Rh11  1  0.495928  0.752701  0.253070  1
  Rh  Rh12  1  0.743421  0.500365  0.247054  1
  Rh  Rh13  1  0.242867  0.746668  0.499410  1
  Rh  Rh14  1  0.242857  0.499630  0.746930  1
  Rh  Rh15  1  0.496366  0.253311  0.752946  1
  Rh  Rh16  1  0.743457  0.247258  0.500590  1
