# generated using pymatgen
data_Rb3Pr(TaSe4)2
_symmetry_space_group_name_H-M   'P 1'
_cell_length_a   10.18458206
_cell_length_b   11.05587114
_cell_length_c   11.87634700
_cell_angle_alpha   106.88457506
_cell_angle_beta   103.80211691
_cell_angle_gamma   114.10567678
_symmetry_Int_Tables_number   1
_chemical_formula_structural   Rb3Pr(TaSe4)2
_chemical_formula_sum   'Rb6 Pr2 Ta4 Se16'
_cell_volume   1065.89640323
_cell_formula_units_Z   2
loop_
 _symmetry_equiv_pos_site_id
 _symmetry_equiv_pos_as_xyz
  1  'x, y, z'
loop_
 _atom_site_type_symbol
 _atom_site_label
 _atom_site_symmetry_multiplicity
 _atom_site_fract_x
 _atom_site_fract_y
 _atom_site_fract_z
 _atom_site_occupancy
  Rb  Rb0  1  0.499999  0.499997  0.999997  1
  Rb  Rb1  1  0.999998  0.499996  0.999997  1
  Rb  Rb2  1  0.257874  0.007850  0.015704  1
  Rb  Rb3  1  0.490260  0.740178  0.480331  1
  Rb  Rb4  1  0.509738  0.259815  0.519664  1
  Rb  Rb5  1  0.742122  0.992143  0.984291  1
  Pr  Pr6  1  0.991591  0.241825  0.483546  1
  Pr  Pr7  1  0.008413  0.758176  0.516452  1
  Ta  Ta8  1  0.004982  0.907272  0.256143  1
  Ta  Ta9  1  0.750884  0.348469  0.256261  1
  Ta  Ta10  1  0.249119  0.651537  0.743746  1
  Ta  Ta11  1  0.995018  0.092725  0.743854  1
  Se  Se12  1  0.881254  0.757877  0.027797  1
  Se  Se13  1  0.646215  0.269620  0.028037  1
  Se  Se14  1  0.132533  0.165258  0.296433  1
  Se  Se15  1  0.663452  0.130854  0.296465  1
  Se  Se16  1  0.814634  0.866683  0.349849  1
  Se  Se17  1  0.034726  0.481874  0.349478  1
  Se  Se18  1  0.196474  0.853533  0.358605  1
  Se  Se19  1  0.662387  0.504748  0.359289  1
  Se  Se20  1  0.337609  0.495261  0.640721  1
  Se  Se21  1  0.803527  0.146465  0.641392  1
  Se  Se22  1  0.965274  0.518130  0.650521  1
  Se  Se23  1  0.185367  0.133314  0.650148  1
  Se  Se24  1  0.336554  0.869151  0.703535  1
  Se  Se25  1  0.867469  0.834740  0.703564  1
  Se  Se26  1  0.353783  0.730386  0.971980  1
  Se  Se27  1  0.118747  0.242120  0.972203  1
