# generated using pymatgen
data_CeErPa(GaRh)3
_symmetry_space_group_name_H-M   'P 1'
_cell_length_a   7.21509184
_cell_length_b   7.28119218
_cell_length_c   3.84865600
_cell_angle_alpha   90.00000000
_cell_angle_beta   90.00000000
_cell_angle_gamma   120.30386963
_symmetry_Int_Tables_number   1
_chemical_formula_structural   CeErPa(GaRh)3
_chemical_formula_sum   'Ce1 Er1 Pa1 Ga3 Rh3'
_cell_volume   174.56055626
_cell_formula_units_Z   1
loop_
 _symmetry_equiv_pos_site_id
 _symmetry_equiv_pos_as_xyz
  1  'x, y, z'
loop_
 _atom_site_type_symbol
 _atom_site_label
 _atom_site_symmetry_multiplicity
 _atom_site_fract_x
 _atom_site_fract_y
 _atom_site_fract_z
 _atom_site_occupancy
  Ce  Ce0  1  0.409737  0.997129  0.000000  1
  Er  Er1  1  0.594792  0.592037  0.000000  1
  Pa  Pa2  1  0.999516  0.413032  0.000000  1
  Ga  Ga3  1  0.262817  0.257361  0.500000  1
  Ga  Ga4  1  0.992045  0.758295  0.500000  1
  Ga  Ga5  1  0.743555  0.985883  0.500000  1
  Rh  Rh6  1  0.690119  0.328088  0.500000  1
  Rh  Rh7  1  0.303501  0.648818  0.500000  1
  Rh  Rh8  1  0.003919  0.019356  0.000000  1
