# generated using pymatgen
data_Tb16MgCd3PdRuPt2
_symmetry_space_group_name_H-M   'P 1'
_cell_length_a   9.76569841
_cell_length_b   9.76569817
_cell_length_c   9.76569900
_cell_angle_alpha   59.61225695
_cell_angle_beta   59.61226457
_cell_angle_gamma   59.61225837
_symmetry_Int_Tables_number   1
_chemical_formula_structural   Tb16MgCd3PdRuPt2
_chemical_formula_sum   'Tb16 Mg1 Cd3 Pd1 Ru1 Pt2'
_cell_volume   652.75601356
_cell_formula_units_Z   1
loop_
 _symmetry_equiv_pos_site_id
 _symmetry_equiv_pos_as_xyz
  1  'x, y, z'
loop_
 _atom_site_type_symbol
 _atom_site_label
 _atom_site_symmetry_multiplicity
 _atom_site_fract_x
 _atom_site_fract_y
 _atom_site_fract_z
 _atom_site_occupancy
  Tb  Tb0  1  0.352707  0.352707  0.350858  1
  Tb  Tb1  1  0.347995  0.347995  0.951618  1
  Tb  Tb2  1  0.348768  0.950671  0.347073  1
  Tb  Tb3  1  0.950671  0.348768  0.347073  1
  Tb  Tb4  1  0.814292  0.189557  0.189319  1
  Tb  Tb5  1  0.187980  0.809730  0.812002  1
  Tb  Tb6  1  0.189557  0.814292  0.189319  1
  Tb  Tb7  1  0.809730  0.187980  0.812002  1
  Tb  Tb8  1  0.189373  0.189373  0.816013  1
  Tb  Tb9  1  0.810857  0.810857  0.187809  1
  Tb  Tb10  1  0.935883  0.567029  0.565784  1
  Tb  Tb11  1  0.561089  0.936555  0.936372  1
  Tb  Tb12  1  0.567029  0.935883  0.565784  1
  Tb  Tb13  1  0.936555  0.561089  0.936372  1
  Tb  Tb14  1  0.565953  0.565953  0.935958  1
  Tb  Tb15  1  0.936083  0.936083  0.561024  1
  Mg  Mg16  1  0.576194  0.576194  0.576299  1
  Cd  Cd17  1  0.581365  0.581365  0.253858  1
  Cd  Cd18  1  0.581253  0.253912  0.581443  1
  Cd  Cd19  1  0.253912  0.581253  0.581443  1
  Pd  Pd20  1  0.143933  0.143933  0.571466  1
  Ru  Ru21  1  0.143225  0.143225  0.142715  1
  Pt  Pt22  1  0.143954  0.571647  0.144201  1
  Pt  Pt23  1  0.571647  0.143954  0.144201  1
