# generated using pymatgen
data_Lu4Ga2Co4SiGe
_symmetry_space_group_name_H-M   'P 1'
_cell_length_a   4.23613600
_cell_length_b   6.78022895
_cell_length_c   6.94552414
_cell_angle_alpha   89.79441796
_cell_angle_beta   90.00000000
_cell_angle_gamma   90.00000000
_symmetry_Int_Tables_number   1
_chemical_formula_structural   Lu4Ga2Co4SiGe
_chemical_formula_sum   'Lu4 Ga2 Co4 Si1 Ge1'
_cell_volume   199.48786528
_cell_formula_units_Z   1
loop_
 _symmetry_equiv_pos_site_id
 _symmetry_equiv_pos_as_xyz
  1  'x, y, z'
loop_
 _atom_site_type_symbol
 _atom_site_label
 _atom_site_symmetry_multiplicity
 _atom_site_fract_x
 _atom_site_fract_y
 _atom_site_fract_z
 _atom_site_occupancy
  Lu  Lu0  1  0.750000  0.513098  0.805657  1
  Lu  Lu1  1  0.750000  0.019001  0.693748  1
  Lu  Lu2  1  0.250000  0.486938  0.198427  1
  Lu  Lu3  1  0.250000  0.988616  0.304785  1
  Ga  Ga4  1  0.750000  0.201661  0.105660  1
  Ga  Ga5  1  0.750000  0.702048  0.395826  1
  Co  Co6  1  0.750000  0.339496  0.447487  1
  Co  Co7  1  0.750000  0.841085  0.059686  1
  Co  Co8  1  0.250000  0.645737  0.565865  1
  Co  Co9  1  0.250000  0.158791  0.924438  1
  Si  Si10  1  0.250000  0.303174  0.605077  1
  Ge  Ge11  1  0.250000  0.800351  0.893343  1
