# generated using pymatgen
data_Ti5SiSn2Sb
_symmetry_space_group_name_H-M   'P 1'
_cell_length_a   8.23221546
_cell_length_b   8.23221415
_cell_length_c   5.52561800
_cell_angle_alpha   90.00000000
_cell_angle_beta   90.00000000
_cell_angle_gamma   120.06680055
_symmetry_Int_Tables_number   1
_chemical_formula_structural   Ti5SiSn2Sb
_chemical_formula_sum   'Ti10 Si2 Sn4 Sb2'
_cell_volume   324.07993924
_cell_formula_units_Z   2
loop_
 _symmetry_equiv_pos_site_id
 _symmetry_equiv_pos_as_xyz
  1  'x, y, z'
loop_
 _atom_site_type_symbol
 _atom_site_label
 _atom_site_symmetry_multiplicity
 _atom_site_fract_x
 _atom_site_fract_y
 _atom_site_fract_z
 _atom_site_occupancy
  Ti  Ti0  1  0.667095  0.331907  0.998975  1
  Ti  Ti1  1  0.331907  0.667095  0.998975  1
  Ti  Ti2  1  0.331907  0.667095  0.501025  1
  Ti  Ti3  1  0.667095  0.331907  0.501025  1
  Ti  Ti4  1  0.739366  0.739366  0.750000  1
  Ti  Ti5  1  0.261973  0.000525  0.750000  1
  Ti  Ti6  1  0.000525  0.261973  0.750000  1
  Ti  Ti7  1  0.254238  0.254238  0.250000  1
  Ti  Ti8  1  0.744096  0.001158  0.250000  1
  Ti  Ti9  1  0.001158  0.744096  0.250000  1
  Si  Si10  1  0.998761  0.998761  0.994491  1
  Si  Si11  1  0.998761  0.998761  0.505509  1
  Sn  Sn12  1  0.394038  0.394038  0.750000  1
  Sn  Sn13  1  0.608625  0.999029  0.750000  1
  Sn  Sn14  1  0.999029  0.608625  0.750000  1
  Sn  Sn15  1  0.603963  0.603963  0.250000  1
  Sb  Sb16  1  0.397451  0.000011  0.250000  1
  Sb  Sb17  1  0.000011  0.397451  0.250000  1
