# generated using pymatgen
data_Cs2La3Pr7Os2Br17
_symmetry_space_group_name_H-M   'P 1'
_cell_length_a   9.66824345
_cell_length_b   11.33046238
_cell_length_c   11.34963748
_cell_angle_alpha   107.61037569
_cell_angle_beta   93.56975561
_cell_angle_gamma   93.56081958
_symmetry_Int_Tables_number   1
_chemical_formula_structural   Cs2La3Pr7Os2Br17
_chemical_formula_sum   'Cs2 La3 Pr7 Os2 Br17'
_cell_volume   1178.44850787
_cell_formula_units_Z   1
loop_
 _symmetry_equiv_pos_site_id
 _symmetry_equiv_pos_as_xyz
  1  'x, y, z'
loop_
 _atom_site_type_symbol
 _atom_site_label
 _atom_site_symmetry_multiplicity
 _atom_site_fract_x
 _atom_site_fract_y
 _atom_site_fract_z
 _atom_site_occupancy
  Cs  Cs0  1  0.000412  0.823221  0.177645  1
  Cs  Cs1  1  0.000246  0.177647  0.823213  1
  La  La2  1  0.167519  0.710458  0.710155  1
  La  La3  1  0.425629  0.488496  0.797277  1
  La  La4  1  0.561880  0.839449  0.839221  1
  Pr  Pr5  1  0.439861  0.164961  0.165654  1
  Pr  Pr6  1  0.575529  0.512828  0.199056  1
  Pr  Pr7  1  0.827078  0.290717  0.290688  1
  Pr  Pr8  1  0.308799  0.431273  0.430757  1
  Pr  Pr9  1  0.425881  0.796291  0.488929  1
  Pr  Pr10  1  0.575491  0.197931  0.511716  1
  Pr  Pr11  1  0.691536  0.563005  0.562444  1
  Os  Os12  1  0.570140  0.358308  0.358236  1
  Os  Os13  1  0.426375  0.643954  0.646969  1
  Br  Br14  1  0.579246  0.688264  0.021381  1
  Br  Br15  1  0.716038  0.067842  0.067744  1
  Br  Br16  1  0.856433  0.449998  0.119731  1
  Br  Br17  1  0.134885  0.207215  0.207075  1
  Br  Br18  1  0.284058  0.604181  0.256010  1
  Br  Br19  1  0.421411  0.978311  0.314135  1
  Br  Br20  1  0.716274  0.744482  0.396130  1
  Br  Br21  1  0.856707  0.119561  0.449763  1
  Br  Br22  1  0.998451  0.498605  0.498485  1
  Br  Br23  1  0.145544  0.881281  0.548824  1
  Br  Br24  1  0.283266  0.254680  0.601943  1
  Br  Br25  1  0.577796  0.019661  0.685780  1
  Br  Br26  1  0.718133  0.395319  0.742822  1
  Br  Br27  1  0.867809  0.793339  0.793074  1
  Br  Br28  1  0.142358  0.550178  0.881532  1
  Br  Br29  1  0.283648  0.934555  0.934401  1
  Br  Br30  1  0.421570  0.313987  0.979210  1
