# generated using pymatgen
data_Ti2Re3Si2BMo
_symmetry_space_group_name_H-M   'P 1'
_cell_length_a   6.76647100
_cell_length_b   6.66126105
_cell_length_c   3.13530200
_cell_angle_alpha   90.00000000
_cell_angle_beta   90.00000000
_cell_angle_gamma   120.52386617
_symmetry_Int_Tables_number   1
_chemical_formula_structural   Ti2Re3Si2BMo
_chemical_formula_sum   'Ti2 Re3 Si2 B1 Mo1'
_cell_volume   121.73398419
_cell_formula_units_Z   1
loop_
 _symmetry_equiv_pos_site_id
 _symmetry_equiv_pos_as_xyz
  1  'x, y, z'
loop_
 _atom_site_type_symbol
 _atom_site_label
 _atom_site_symmetry_multiplicity
 _atom_site_fract_x
 _atom_site_fract_y
 _atom_site_fract_z
 _atom_site_occupancy
  Ti  Ti0  1  0.393224  0.390427  0.000000  1
  Ti  Ti1  1  0.002798  0.609573  0.000000  1
  Re  Re2  1  0.244926  0.000000  0.500000  1
  Re  Re3  1  0.755234  0.755278  0.500000  1
  Re  Re4  1  0.999956  0.244722  0.500000  1
  Si  Si5  1  0.332333  0.665203  0.500000  1
  Si  Si6  1  0.667130  0.334797  0.500000  1
  B  B7  1  0.000627  0.000000  0.000000  1
  Mo  Mo8  1  0.603772  0.000000  0.000000  1
