# generated using pymatgen
data_Tm8Cd2IrRu
_symmetry_space_group_name_H-M   'P 1'
_cell_length_a   9.50692040
_cell_length_b   9.50692027
_cell_length_c   9.54264700
_cell_angle_alpha   59.87561275
_cell_angle_beta   59.87561319
_cell_angle_gamma   59.74694053
_symmetry_Int_Tables_number   1
_chemical_formula_structural   Tm8Cd2IrRu
_chemical_formula_sum   'Tm16 Cd4 Ir2 Ru2'
_cell_volume   607.54735251
_cell_formula_units_Z   2
loop_
 _symmetry_equiv_pos_site_id
 _symmetry_equiv_pos_as_xyz
  1  'x, y, z'
loop_
 _atom_site_type_symbol
 _atom_site_label
 _atom_site_symmetry_multiplicity
 _atom_site_fract_x
 _atom_site_fract_y
 _atom_site_fract_z
 _atom_site_occupancy
  Tm  Tm0  1  0.598243  0.598243  0.598183  1
  Tm  Tm1  1  0.598243  0.598243  0.205332  1
  Tm  Tm2  1  0.597324  0.207645  0.597516  1
  Tm  Tm3  1  0.207645  0.597324  0.597516  1
  Tm  Tm4  1  0.061752  0.438299  0.440080  1
  Tm  Tm5  1  0.438299  0.061752  0.059869  1
  Tm  Tm6  1  0.438299  0.061752  0.440080  1
  Tm  Tm7  1  0.061752  0.438299  0.059869  1
  Tm  Tm8  1  0.438260  0.438260  0.061740  1
  Tm  Tm9  1  0.059357  0.059357  0.440643  1
  Tm  Tm10  1  0.188646  0.809963  0.812650  1
  Tm  Tm11  1  0.809963  0.188646  0.188741  1
  Tm  Tm12  1  0.809963  0.188646  0.812650  1
  Tm  Tm13  1  0.188646  0.809963  0.188741  1
  Tm  Tm14  1  0.811309  0.811309  0.188691  1
  Tm  Tm15  1  0.188741  0.188741  0.811259  1
  Cd  Cd16  1  0.830668  0.830668  0.830992  1
  Cd  Cd17  1  0.830668  0.830668  0.507670  1
  Cd  Cd18  1  0.830864  0.506861  0.831137  1
  Cd  Cd19  1  0.506861  0.830864  0.831137  1
  Ir  Ir20  1  0.393291  0.827316  0.389696  1
  Ir  Ir21  1  0.827316  0.393291  0.389696  1
  Ru  Ru22  1  0.391944  0.391944  0.387801  1
  Ru  Ru23  1  0.391944  0.391944  0.828310  1
