# generated using pymatgen
data_Rb3NaLiTiP3
_symmetry_space_group_name_H-M   'P 1'
_cell_length_a   10.44785313
_cell_length_b   10.44785318
_cell_length_c   15.42265600
_cell_angle_alpha   90.00000000
_cell_angle_beta   90.00000000
_cell_angle_gamma   143.96584196
_symmetry_Int_Tables_number   1
_chemical_formula_structural   Rb3NaLiTiP3
_chemical_formula_sum   'Rb12 Na4 Li4 Ti4 P12'
_cell_volume   990.34865781
_cell_formula_units_Z   4
loop_
 _symmetry_equiv_pos_site_id
 _symmetry_equiv_pos_as_xyz
  1  'x, y, z'
loop_
 _atom_site_type_symbol
 _atom_site_label
 _atom_site_symmetry_multiplicity
 _atom_site_fract_x
 _atom_site_fract_y
 _atom_site_fract_z
 _atom_site_occupancy
  Rb  Rb0  1  0.943682  0.609578  0.825560  1
  Rb  Rb1  1  0.556318  0.890422  0.325560  1
  Rb  Rb2  1  0.390422  0.056318  0.174440  1
  Rb  Rb3  1  0.056318  0.390422  0.174440  1
  Rb  Rb4  1  0.890422  0.556318  0.325560  1
  Rb  Rb5  1  0.443682  0.109578  0.674440  1
  Rb  Rb6  1  0.609578  0.943682  0.825560  1
  Rb  Rb7  1  0.283169  0.283169  0.317657  1
  Rb  Rb8  1  0.783169  0.783169  0.182343  1
  Rb  Rb9  1  0.216831  0.216831  0.817657  1
  Rb  Rb10  1  0.716831  0.716831  0.682343  1
  Rb  Rb11  1  0.109578  0.443682  0.674440  1
  Na  Na12  1  0.755697  0.244303  0.000000  1
  Na  Na13  1  0.744303  0.255697  0.500000  1
  Na  Na14  1  0.244303  0.755697  0.000000  1
  Na  Na15  1  0.255697  0.744303  0.500000  1
  Li  Li16  1  0.922519  0.077481  0.000000  1
  Li  Li17  1  0.577481  0.422519  0.500000  1
  Li  Li18  1  0.077481  0.922519  0.000000  1
  Li  Li19  1  0.422519  0.577481  0.500000  1
  Ti  Ti20  1  0.583031  0.416969  0.000000  1
  Ti  Ti21  1  0.916969  0.083031  0.500000  1
  Ti  Ti22  1  0.416969  0.583031  0.000000  1
  Ti  Ti23  1  0.083031  0.916969  0.500000  1
  P  P24  1  0.872580  0.572047  0.089338  1
  P  P25  1  0.427953  0.127420  0.910662  1
  P  P26  1  0.627420  0.927953  0.589338  1
  P  P27  1  0.927953  0.627420  0.589338  1
  P  P28  1  0.127420  0.427953  0.910662  1
  P  P29  1  0.572047  0.872580  0.089338  1
  P  P30  1  0.372580  0.072047  0.410662  1
  P  P31  1  0.215838  0.215838  0.576663  1
  P  P32  1  0.715838  0.715838  0.923337  1
  P  P33  1  0.284162  0.284162  0.076663  1
  P  P34  1  0.072047  0.372580  0.410662  1
  P  P35  1  0.784162  0.784162  0.423337  1
