# generated using pymatgen
data_PrNd19Si15Se
_symmetry_space_group_name_H-M   'P 1'
_cell_length_a   7.87753272
_cell_length_b   7.91976626
_cell_length_c   15.15424268
_cell_angle_alpha   89.30095195
_cell_angle_beta   90.30582807
_cell_angle_gamma   90.18665897
_symmetry_Int_Tables_number   1
_chemical_formula_structural   PrNd19Si15Se
_chemical_formula_sum   'Pr1 Nd19 Si15 Se1'
_cell_volume   945.35754042
_cell_formula_units_Z   1
loop_
 _symmetry_equiv_pos_site_id
 _symmetry_equiv_pos_as_xyz
  1  'x, y, z'
loop_
 _atom_site_type_symbol
 _atom_site_label
 _atom_site_symmetry_multiplicity
 _atom_site_fract_x
 _atom_site_fract_y
 _atom_site_fract_z
 _atom_site_occupancy
  Pr  Pr0  1  0.481018  0.368442  0.125566  1
  Nd  Nd1  1  0.980550  0.133389  0.626598  1
  Nd  Nd2  1  0.869921  0.018500  0.875464  1
  Nd  Nd3  1  0.130026  0.974794  0.379763  1
  Nd  Nd4  1  0.513733  0.634013  0.620681  1
  Nd  Nd5  1  0.370105  0.484097  0.874729  1
  Nd  Nd6  1  0.635710  0.513266  0.373235  1
  Nd  Nd7  1  0.018504  0.872059  0.123368  1
  Nd  Nd8  1  0.624416  0.986290  0.448211  1
  Nd  Nd9  1  0.378195  0.009685  0.947970  1
  Nd  Nd10  1  0.988668  0.620434  0.551327  1
  Nd  Nd11  1  0.488325  0.874442  0.200148  1
  Nd  Nd12  1  0.516317  0.135038  0.704008  1
  Nd  Nd13  1  0.876317  0.491398  0.802230  1
  Nd  Nd14  1  0.120051  0.503993  0.298013  1
  Nd  Nd15  1  0.009267  0.378057  0.052230  1
  Nd  Nd16  1  0.307198  0.319616  0.498821  1
  Nd  Nd17  1  0.189930  0.810787  0.754020  1
  Nd  Nd18  1  0.810495  0.185939  0.249780  1
  Nd  Nd19  1  0.688176  0.691016  0.998972  1
  Si  Si20  1  0.712852  0.076862  0.059571  1
  Si  Si21  1  0.922029  0.280384  0.441174  1
  Si  Si22  1  0.425980  0.201222  0.311782  1
  Si  Si23  1  0.574524  0.789346  0.807426  1
  Si  Si24  1  0.210415  0.428957  0.689489  1
  Si  Si25  1  0.787464  0.577900  0.189098  1
  Si  Si26  1  0.074630  0.711452  0.940686  1
  Si  Si27  1  0.803519  0.833186  0.698000  1
  Si  Si28  1  0.196597  0.161401  0.203809  1
  Si  Si29  1  0.833234  0.804653  0.298879  1
  Si  Si30  1  0.333491  0.674352  0.433176  1
  Si  Si31  1  0.667169  0.303270  0.949534  1
  Si  Si32  1  0.694682  0.332344  0.550416  1
  Si  Si33  1  0.302559  0.668020  0.049831  1
  Si  Si34  1  0.167065  0.198614  0.800608  1
  Se  Se35  1  0.296865  0.952781  0.571388  1
