# generated using pymatgen
data_DyCd3(Ir2O7)2
_symmetry_space_group_name_H-M   'P 1'
_cell_length_a   7.21816106
_cell_length_b   7.30196846
_cell_length_c   7.21816000
_cell_angle_alpha   60.37893438
_cell_angle_beta   59.99998653
_cell_angle_gamma   60.37894140
_symmetry_Int_Tables_number   1
_chemical_formula_structural   DyCd3(Ir2O7)2
_chemical_formula_sum   'Dy1 Cd3 Ir4 O14'
_cell_volume   270.54646619
_cell_formula_units_Z   1
loop_
 _symmetry_equiv_pos_site_id
 _symmetry_equiv_pos_as_xyz
  1  'x, y, z'
loop_
 _atom_site_type_symbol
 _atom_site_label
 _atom_site_symmetry_multiplicity
 _atom_site_fract_x
 _atom_site_fract_y
 _atom_site_fract_z
 _atom_site_occupancy
  Dy  Dy0  1  0.125000  0.625000  0.125000  1
  Cd  Cd1  1  0.625000  0.125000  0.125000  1
  Cd  Cd2  1  0.125000  0.125000  0.625000  1
  Cd  Cd3  1  0.125000  0.125000  0.125000  1
  Ir  Ir4  1  0.125000  0.625000  0.625000  1
  Ir  Ir5  1  0.625000  0.125000  0.625000  1
  Ir  Ir6  1  0.625000  0.625000  0.125000  1
  Ir  Ir7  1  0.625000  0.625000  0.625000  1
  O  O8  1  0.712973  0.695666  0.295681  1
  O  O9  1  0.300645  0.303788  0.697784  1
  O  O10  1  0.697784  0.303788  0.697784  1
  O  O11  1  0.295681  0.695666  0.295681  1
  O  O12  1  0.295681  0.695666  0.712973  1
  O  O13  1  0.697784  0.303788  0.300645  1
  O  O14  1  0.537027  0.554334  0.954319  1
  O  O15  1  0.949355  0.946212  0.552216  1
  O  O16  1  0.552216  0.946212  0.552216  1
  O  O17  1  0.954319  0.554334  0.954319  1
  O  O18  1  0.954319  0.554334  0.537027  1
  O  O19  1  0.552216  0.946212  0.949355  1
  O  O20  1  0.250562  0.248313  0.250562  1
  O  O21  1  0.999438  0.001687  0.999438  1
