# generated using pymatgen
data_EuF18
_symmetry_space_group_name_H-M   'P 1'
_cell_length_a   6.65091757
_cell_length_b   10.47073757
_cell_length_c   11.14485400
_cell_angle_alpha   93.71230562
_cell_angle_beta   101.65595804
_cell_angle_gamma   72.97734860
_symmetry_Int_Tables_number   1
_chemical_formula_structural   EuF18
_chemical_formula_sum   'Eu2 F36'
_cell_volume   726.80810715
_cell_formula_units_Z   2
loop_
 _symmetry_equiv_pos_site_id
 _symmetry_equiv_pos_as_xyz
  1  'x, y, z'
loop_
 _atom_site_type_symbol
 _atom_site_label
 _atom_site_symmetry_multiplicity
 _atom_site_fract_x
 _atom_site_fract_y
 _atom_site_fract_z
 _atom_site_occupancy
  Eu  Eu0  1  0.740673  0.817279  0.855733  1
  Eu  Eu1  1  0.259327  0.182721  0.144267  1
  F  F2  1  0.343739  0.415712  0.912640  1
  F  F3  1  0.656261  0.584288  0.087360  1
  F  F4  1  0.319986  0.264385  0.588622  1
  F  F5  1  0.680014  0.735615  0.411378  1
  F  F6  1  0.865432  0.230110  0.796566  1
  F  F7  1  0.134568  0.769890  0.203434  1
  F  F8  1  0.711915  0.871049  0.035289  1
  F  F9  1  0.288085  0.128951  0.964711  1
  F  F10  1  0.738085  0.623955  0.887720  1
  F  F11  1  0.261915  0.376045  0.112280  1
  F  F12  1  0.424747  0.450464  0.814003  1
  F  F13  1  0.575253  0.549536  0.185997  1
  F  F14  1  0.759415  0.763048  0.674987  1
  F  F15  1  0.240585  0.236952  0.325013  1
  F  F16  1  0.747739  0.005919  0.499451  1
  F  F17  1  0.252261  0.994081  0.500549  1
  F  F18  1  0.307975  0.183223  0.683142  1
  F  F19  1  0.692025  0.816777  0.316858  1
  F  F20  1  0.814961  0.092639  0.592417  1
  F  F21  1  0.185039  0.907361  0.407583  1
  F  F22  1  0.754288  0.007078  0.823928  1
  F  F23  1  0.245712  0.992922  0.176072  1
  F  F24  1  0.881791  0.362463  0.793729  1
  F  F25  1  0.118209  0.637537  0.206271  1
  F  F26  1  0.111188  0.734458  0.921020  1
  F  F27  1  0.888812  0.265542  0.078980  1
  F  F28  1  0.373052  0.901081  0.785411  1
  F  F29  1  0.626948  0.098919  0.214589  1
  F  F30  1  0.140938  0.736750  0.561852  1
  F  F31  1  0.859062  0.263250  0.438148  1
  F  F32  1  0.191856  0.630584  0.646497  1
  F  F33  1  0.808144  0.369416  0.353503  1
  F  F34  1  0.241843  0.818412  0.854358  1
  F  F35  1  0.758157  0.181588  0.145642  1
  F  F36  1  0.517110  0.444512  0.538143  1
  F  F37  1  0.482890  0.555488  0.461857  1
