# generated using pymatgen
data_LaTbY7Ho11Si15Os
_symmetry_space_group_name_H-M   'P 1'
_cell_length_a   7.40448248
_cell_length_b   7.75990051
_cell_length_c   14.60540447
_cell_angle_alpha   89.81461615
_cell_angle_beta   89.92453653
_cell_angle_gamma   90.01879162
_symmetry_Int_Tables_number   1
_chemical_formula_structural   LaTbY7Ho11Si15Os
_chemical_formula_sum   'La1 Tb1 Y7 Ho11 Si15 Os1'
_cell_volume   839.19285503
_cell_formula_units_Z   1
loop_
 _symmetry_equiv_pos_site_id
 _symmetry_equiv_pos_as_xyz
  1  'x, y, z'
loop_
 _atom_site_type_symbol
 _atom_site_label
 _atom_site_symmetry_multiplicity
 _atom_site_fract_x
 _atom_site_fract_y
 _atom_site_fract_z
 _atom_site_occupancy
  La  La0  1  0.022769  0.426967  0.656644  1
  Tb  Tb1  1  0.524929  0.566835  0.344434  1
  Y  Y2  1  0.850493  0.734939  0.499730  1
  Y  Y3  1  0.478333  0.924469  0.848247  1
  Y  Y4  1  0.973528  0.067360  0.151978  1
  Y  Y5  1  0.476607  0.924052  0.152279  1
  Y  Y6  1  0.973297  0.068131  0.849505  1
  Y  Y7  1  0.526516  0.566540  0.653226  1
  Y  Y8  1  0.027450  0.432751  0.347113  1
  Ho  Ho9  1  0.807204  0.576959  0.877958  1
  Ho  Ho10  1  0.327601  0.434392  0.124062  1
  Ho  Ho11  1  0.183619  0.926925  0.372029  1
  Ho  Ho12  1  0.681149  0.068934  0.625559  1
  Ho  Ho13  1  0.184491  0.926198  0.627353  1
  Ho  Ho14  1  0.680466  0.068909  0.372003  1
  Ho  Ho15  1  0.808410  0.574835  0.123436  1
  Ho  Ho16  1  0.328341  0.436712  0.875779  1
  Ho  Ho17  1  0.644420  0.239854  0.999824  1
  Ho  Ho18  1  0.158775  0.761331  0.000357  1
  Ho  Ho19  1  0.349341  0.263025  0.499459  1
  Si  Si20  1  0.019778  0.352487  0.000275  1
  Si  Si21  1  0.477116  0.856838  0.499066  1
  Si  Si22  1  0.978782  0.136906  0.498305  1
  Si  Si23  1  0.653265  0.275752  0.789331  1
  Si  Si24  1  0.145099  0.719880  0.210575  1
  Si  Si25  1  0.353115  0.220024  0.288722  1
  Si  Si26  1  0.849103  0.784621  0.713168  1
  Si  Si27  1  0.360731  0.218127  0.711809  1
  Si  Si28  1  0.852538  0.778502  0.289144  1
  Si  Si29  1  0.650116  0.274160  0.209624  1
  Si  Si30  1  0.142318  0.727342  0.792172  1
  Si  Si31  1  0.767773  0.883773  0.000970  1
  Si  Si32  1  0.258801  0.127407  0.000139  1
  Si  Si33  1  0.235218  0.624189  0.498760  1
  Si  Si34  1  0.729602  0.374955  0.496482  1
  Os  Os35  1  0.518904  0.654920  0.000479  1
