# generated using pymatgen
data_Na3Yb(CeSe3)2
_symmetry_space_group_name_H-M   'P 1'
_cell_length_a   7.30273900
_cell_length_b   7.30273898
_cell_length_c   7.41964400
_cell_angle_alpha   80.51011517
_cell_angle_beta   80.51011519
_cell_angle_gamma   119.98868370
_symmetry_Int_Tables_number   1
_chemical_formula_structural   Na3Yb(CeSe3)2
_chemical_formula_sum   'Na3 Yb1 Ce2 Se6'
_cell_volume   323.55471046
_cell_formula_units_Z   1
loop_
 _symmetry_equiv_pos_site_id
 _symmetry_equiv_pos_as_xyz
  1  'x, y, z'
loop_
 _atom_site_type_symbol
 _atom_site_label
 _atom_site_symmetry_multiplicity
 _atom_site_fract_x
 _atom_site_fract_y
 _atom_site_fract_z
 _atom_site_occupancy
  Na  Na0  1  0.500000  0.500000  0.500000  1
  Na  Na1  1  0.837186  0.162814  0.500000  1
  Na  Na2  1  0.162814  0.837186  0.500000  1
  Yb  Yb3  1  0.000000  0.000000  0.000000  1
  Ce  Ce4  1  0.666969  0.333031  0.000000  1
  Ce  Ce5  1  0.333031  0.666969  0.000000  1
  Se  Se6  1  0.260100  0.260100  0.233678  1
  Se  Se7  1  0.416279  0.078190  0.767250  1
  Se  Se8  1  0.078190  0.416279  0.767250  1
  Se  Se9  1  0.739900  0.739900  0.766322  1
  Se  Se10  1  0.583721  0.921810  0.232750  1
  Se  Se11  1  0.921810  0.583721  0.232750  1
