# generated using pymatgen
data_Tb2ScZnAg3Ge2
_symmetry_space_group_name_H-M   'P 1'
_cell_length_a   7.13861100
_cell_length_b   7.20494601
_cell_length_c   4.10440900
_cell_angle_alpha   90.00000000
_cell_angle_beta   90.00000000
_cell_angle_gamma   120.30786292
_symmetry_Int_Tables_number   1
_chemical_formula_structural   Tb2ScZnAg3Ge2
_chemical_formula_sum   'Tb2 Sc1 Zn1 Ag3 Ge2'
_cell_volume   182.25105549
_cell_formula_units_Z   1
loop_
 _symmetry_equiv_pos_site_id
 _symmetry_equiv_pos_as_xyz
  1  'x, y, z'
loop_
 _atom_site_type_symbol
 _atom_site_label
 _atom_site_symmetry_multiplicity
 _atom_site_fract_x
 _atom_site_fract_y
 _atom_site_fract_z
 _atom_site_occupancy
  Tb  Tb0  1  0.416872  0.418814  0.000000  1
  Tb  Tb1  1  0.583128  0.001942  0.000000  1
  Sc  Sc2  1  0.000000  0.581175  0.000000  1
  Zn  Zn3  1  0.000000  0.991597  0.000000  1
  Ag  Ag4  1  0.752031  0.751208  0.500000  1
  Ag  Ag5  1  0.247969  0.999176  0.500000  1
  Ag  Ag6  1  0.000000  0.249657  0.500000  1
  Ge  Ge7  1  0.678417  0.342423  0.500000  1
  Ge  Ge8  1  0.321583  0.664007  0.500000  1
