# generated using pymatgen
data_Hf5Co16Si7Ir
_symmetry_space_group_name_H-M   'P 1'
_cell_length_a   7.95375262
_cell_length_b   7.96209607
_cell_length_c   7.96209737
_cell_angle_alpha   59.93067430
_cell_angle_beta   60.03467092
_cell_angle_gamma   60.03467107
_symmetry_Int_Tables_number   1
_chemical_formula_structural   Hf5Co16Si7Ir
_chemical_formula_sum   'Hf5 Co16 Si7 Ir1'
_cell_volume   356.54231449
_cell_formula_units_Z   1
loop_
 _symmetry_equiv_pos_site_id
 _symmetry_equiv_pos_as_xyz
  1  'x, y, z'
loop_
 _atom_site_type_symbol
 _atom_site_label
 _atom_site_symmetry_multiplicity
 _atom_site_fract_x
 _atom_site_fract_y
 _atom_site_fract_z
 _atom_site_occupancy
  Hf  Hf0  1  0.799850  0.791517  0.200150  1
  Hf  Hf1  1  0.786981  0.213019  0.213019  1
  Hf  Hf2  1  0.208483  0.200150  0.791517  1
  Hf  Hf3  1  0.799850  0.200150  0.791517  1
  Hf  Hf4  1  0.208483  0.791517  0.200150  1
  Co  Co5  1  0.620438  0.618645  0.140479  1
  Co  Co6  1  0.169941  0.484172  0.175948  1
  Co  Co7  1  0.859521  0.379562  0.379562  1
  Co  Co8  1  0.515828  0.830059  0.830059  1
  Co  Co9  1  0.498046  0.168181  0.168181  1
  Co  Co10  1  0.831819  0.834407  0.501954  1
  Co  Co11  1  0.169941  0.175948  0.484172  1
  Co  Co12  1  0.146268  0.620183  0.620183  1
  Co  Co13  1  0.165593  0.168181  0.168181  1
  Co  Co14  1  0.379817  0.386632  0.853732  1
  Co  Co15  1  0.613368  0.620183  0.620183  1
  Co  Co16  1  0.379817  0.853732  0.386632  1
  Co  Co17  1  0.381355  0.379562  0.379562  1
  Co  Co18  1  0.824052  0.830059  0.830059  1
  Co  Co19  1  0.620438  0.140479  0.618645  1
  Co  Co20  1  0.831819  0.501954  0.834407  1
  Si  Si21  1  0.493751  0.990494  0.506249  1
  Si  Si22  1  0.493751  0.506249  0.990494  1
  Si  Si23  1  0.504463  0.495537  0.495537  1
  Si  Si24  1  0.009506  0.990494  0.506249  1
  Si  Si25  1  0.009506  0.506249  0.990494  1
  Si  Si26  1  0.997169  0.502831  0.502831  1
  Si  Si27  1  0.497169  0.002831  0.002831  1
  Ir  Ir28  1  0.182977  0.817023  0.817023  1
