# generated using pymatgen
data_Nd6MgCuSb14
_symmetry_space_group_name_H-M   'P 1'
_cell_length_a   12.51923097
_cell_length_b   12.51923148
_cell_length_c   4.26840560
_cell_angle_alpha   80.19700590
_cell_angle_beta   80.19700423
_cell_angle_gamma   101.43689958
_symmetry_Int_Tables_number   1
_chemical_formula_structural   Nd6MgCuSb14
_chemical_formula_sum   'Nd6 Mg1 Cu1 Sb14'
_cell_volume   631.55396836
_cell_formula_units_Z   1
loop_
 _symmetry_equiv_pos_site_id
 _symmetry_equiv_pos_as_xyz
  1  'x, y, z'
loop_
 _atom_site_type_symbol
 _atom_site_label
 _atom_site_symmetry_multiplicity
 _atom_site_fract_x
 _atom_site_fract_y
 _atom_site_fract_z
 _atom_site_occupancy
  Nd  Nd0  1  0.327390  0.678661  0.930889  1
  Nd  Nd1  1  0.678661  0.327390  0.930889  1
  Nd  Nd2  1  0.273070  0.006087  0.793665  1
  Nd  Nd3  1  0.726804  0.999022  0.070092  1
  Nd  Nd4  1  0.999022  0.726804  0.070092  1
  Nd  Nd5  1  0.006087  0.273070  0.793665  1
  Mg  Mg6  1  0.376640  0.376640  0.056178  1
  Cu  Cu7  1  0.265397  0.265397  0.668028  1
  Sb  Sb8  1  0.568779  0.568779  0.864151  1
  Sb  Sb9  1  0.473271  0.256101  0.568574  1
  Sb  Sb10  1  0.551876  0.745314  0.283827  1
  Sb  Sb11  1  0.745314  0.551876  0.283827  1
  Sb  Sb12  1  0.256101  0.473271  0.568574  1
  Sb  Sb13  1  0.513627  0.913472  0.719634  1
  Sb  Sb14  1  0.488385  0.082204  0.147089  1
  Sb  Sb15  1  0.082204  0.488385  0.147089  1
  Sb  Sb16  1  0.913472  0.513627  0.719634  1
  Sb  Sb17  1  0.160664  0.160664  0.272029  1
  Sb  Sb18  1  0.855878  0.855878  0.576638  1
  Sb  Sb19  1  0.201122  0.802625  0.431440  1
  Sb  Sb20  1  0.802625  0.201122  0.431440  1
  Sb  Sb21  1  0.994212  0.994212  0.939854  1
