# generated using pymatgen
data_Ho7ErMg2(SiB4)4
_symmetry_space_group_name_H-M   'P 1'
_cell_length_a   7.14946602
_cell_length_b   7.14945102
_cell_length_c   7.79098900
_cell_angle_alpha   90.00088206
_cell_angle_beta   90.00127360
_cell_angle_gamma   89.99232258
_symmetry_Int_Tables_number   1
_chemical_formula_structural   Ho7ErMg2(SiB4)4
_chemical_formula_sum   'Ho7 Er1 Mg2 Si4 B16'
_cell_volume   398.23450644
_cell_formula_units_Z   1
loop_
 _symmetry_equiv_pos_site_id
 _symmetry_equiv_pos_as_xyz
  1  'x, y, z'
loop_
 _atom_site_type_symbol
 _atom_site_label
 _atom_site_symmetry_multiplicity
 _atom_site_fract_x
 _atom_site_fract_y
 _atom_site_fract_z
 _atom_site_occupancy
  Ho  Ho0  1  0.317145  0.817145  0.766650  1
  Ho  Ho1  1  0.317152  0.817155  0.233303  1
  Ho  Ho2  1  0.817146  0.682888  0.233190  1
  Ho  Ho3  1  0.817096  0.682824  0.766782  1
  Ho  Ho4  1  0.682911  0.182910  0.766756  1
  Ho  Ho5  1  0.182824  0.317098  0.766784  1
  Ho  Ho6  1  0.182889  0.317147  0.233190  1
  Er  Er7  1  0.682816  0.182813  0.232635  1
  Mg  Mg8  1  0.999867  0.000067  0.499910  1
  Mg  Mg9  1  0.500065  0.499869  0.499916  1
  Si  Si10  1  0.115460  0.615459  0.499931  1
  Si  Si11  1  0.884267  0.384267  0.499763  1
  Si  Si12  1  0.384770  0.115575  0.499794  1
  Si  Si13  1  0.615574  0.884770  0.499792  1
  B  B14  1  0.173747  0.039948  0.000053  1
  B  B15  1  0.826146  0.960235  0.000161  1
  B  B16  1  0.960000  0.173901  0.000077  1
  B  B17  1  0.326200  0.539831  0.000094  1
  B  B18  1  0.039832  0.826202  0.000094  1
  B  B19  1  0.673903  0.460005  0.000078  1
  B  B20  1  0.539951  0.673743  0.000056  1
  B  B21  1  0.460236  0.326146  0.000161  1
  B  B22  1  0.089414  0.589412  0.000041  1
  B  B23  1  0.910551  0.410553  0.000051  1
  B  B24  1  0.410607  0.089508  0.000179  1
  B  B25  1  0.589508  0.910605  0.000183  1
  B  B26  1  0.999787  0.000097  0.164144  1
  B  B27  1  0.999990  0.000048  0.836045  1
  B  B28  1  0.500049  0.499991  0.836046  1
  B  B29  1  0.500097  0.499788  0.164145  1
