# generated using pymatgen
data_Y2Si3Sn(AsRh4)3
_symmetry_space_group_name_H-M   'P 1'
_cell_length_a   9.99165100
_cell_length_b   9.99165210
_cell_length_c   3.90153300
_cell_angle_alpha   90.00000000
_cell_angle_beta   90.00000000
_cell_angle_gamma   120.00000628
_symmetry_Int_Tables_number   1
_chemical_formula_structural   Y2Si3Sn(AsRh4)3
_chemical_formula_sum   'Y2 Si3 Sn1 As3 Rh12'
_cell_volume   337.31872413
_cell_formula_units_Z   1
loop_
 _symmetry_equiv_pos_site_id
 _symmetry_equiv_pos_as_xyz
  1  'x, y, z'
loop_
 _atom_site_type_symbol
 _atom_site_label
 _atom_site_symmetry_multiplicity
 _atom_site_fract_x
 _atom_site_fract_y
 _atom_site_fract_z
 _atom_site_occupancy
  Y  Y0  1  0.333333  0.666667  0.754474  1
  Y  Y1  1  0.000000  0.000000  0.246621  1
  Si  Si2  1  0.957586  0.218726  0.747833  1
  Si  Si3  1  0.781274  0.738860  0.747833  1
  Si  Si4  1  0.261140  0.042414  0.747833  1
  Sn  Sn5  1  0.666667  0.333333  0.594102  1
  As  As6  1  0.376465  0.448177  0.252746  1
  As  As7  1  0.551823  0.928289  0.252746  1
  As  As8  1  0.071711  0.623535  0.252746  1
  Rh  Rh9  1  0.740309  0.955814  0.750257  1
  Rh  Rh10  1  0.044186  0.784494  0.750257  1
  Rh  Rh11  1  0.215506  0.259691  0.750257  1
  Rh  Rh12  1  0.614063  0.723389  0.250530  1
  Rh  Rh13  1  0.276611  0.890675  0.250530  1
  Rh  Rh14  1  0.109325  0.385937  0.250530  1
  Rh  Rh15  1  0.953758  0.457301  0.755250  1
  Rh  Rh16  1  0.542699  0.496457  0.755250  1
  Rh  Rh17  1  0.503543  0.046242  0.755250  1
  Rh  Rh18  1  0.393152  0.207977  0.246380  1
  Rh  Rh19  1  0.792023  0.185175  0.246380  1
  Rh  Rh20  1  0.814825  0.606848  0.246380  1
