# generated using pymatgen
data_Er3Zr(Ni4P3)2
_symmetry_space_group_name_H-M   'P 1'
_cell_length_a   3.78151700
_cell_length_b   10.77822600
_cell_length_c   12.37555300
_cell_angle_alpha   90.00000000
_cell_angle_beta   90.00000000
_cell_angle_gamma   90.00000000
_symmetry_Int_Tables_number   1
_chemical_formula_structural   Er3Zr(Ni4P3)2
_chemical_formula_sum   'Er6 Zr2 Ni16 P12'
_cell_volume   504.40334420
_cell_formula_units_Z   2
loop_
 _symmetry_equiv_pos_site_id
 _symmetry_equiv_pos_as_xyz
  1  'x, y, z'
loop_
 _atom_site_type_symbol
 _atom_site_label
 _atom_site_symmetry_multiplicity
 _atom_site_fract_x
 _atom_site_fract_y
 _atom_site_fract_z
 _atom_site_occupancy
  Er  Er0  1  0.750000  0.250000  0.471570  1
  Er  Er1  1  0.250000  0.750000  0.528430  1
  Er  Er2  1  0.250000  0.929051  0.794536  1
  Er  Er3  1  0.250000  0.570949  0.794536  1
  Er  Er4  1  0.750000  0.070949  0.205464  1
  Er  Er5  1  0.750000  0.429051  0.205464  1
  Zr  Zr6  1  0.250000  0.250000  0.844453  1
  Zr  Zr7  1  0.750000  0.750000  0.155547  1
  Ni  Ni8  1  0.250000  0.250000  0.298511  1
  Ni  Ni9  1  0.750000  0.750000  0.701489  1
  Ni  Ni10  1  0.750000  0.250000  0.017356  1
  Ni  Ni11  1  0.250000  0.750000  0.982644  1
  Ni  Ni12  1  0.250000  0.415377  0.011924  1
  Ni  Ni13  1  0.250000  0.084623  0.011924  1
  Ni  Ni14  1  0.750000  0.584623  0.988076  1
  Ni  Ni15  1  0.750000  0.915377  0.988076  1
  Ni  Ni16  1  0.250000  0.450293  0.568418  1
  Ni  Ni17  1  0.250000  0.049707  0.568418  1
  Ni  Ni18  1  0.750000  0.549707  0.431582  1
  Ni  Ni19  1  0.750000  0.950293  0.431582  1
  Ni  Ni20  1  0.250000  0.873131  0.295529  1
  Ni  Ni21  1  0.250000  0.626869  0.295529  1
  Ni  Ni22  1  0.750000  0.126869  0.704471  1
  Ni  Ni23  1  0.750000  0.373131  0.704471  1
  P  P24  1  0.250000  0.250000  0.121124  1
  P  P25  1  0.750000  0.750000  0.878876  1
  P  P26  1  0.250000  0.250000  0.637652  1
  P  P27  1  0.750000  0.750000  0.362348  1
  P  P28  1  0.250000  0.435534  0.384389  1
  P  P29  1  0.250000  0.064466  0.384389  1
  P  P30  1  0.750000  0.564466  0.615611  1
  P  P31  1  0.750000  0.935534  0.615611  1
  P  P32  1  0.250000  0.912110  0.106451  1
  P  P33  1  0.250000  0.587890  0.106451  1
  P  P34  1  0.750000  0.087890  0.893549  1
  P  P35  1  0.750000  0.412110  0.893549  1
