# generated using pymatgen
data_ErPaRh2Pb
_symmetry_space_group_name_H-M   'P 1'
_cell_length_a   7.88985100
_cell_length_b   7.69875500
_cell_length_c   3.59258300
_cell_angle_alpha   90.00000000
_cell_angle_beta   90.00000000
_cell_angle_gamma   90.00000000
_symmetry_Int_Tables_number   1
_chemical_formula_structural   ErPaRh2Pb
_chemical_formula_sum   'Er2 Pa2 Rh4 Pb2'
_cell_volume   218.22078377
_cell_formula_units_Z   2
loop_
 _symmetry_equiv_pos_site_id
 _symmetry_equiv_pos_as_xyz
  1  'x, y, z'
loop_
 _atom_site_type_symbol
 _atom_site_label
 _atom_site_symmetry_multiplicity
 _atom_site_fract_x
 _atom_site_fract_y
 _atom_site_fract_z
 _atom_site_occupancy
  Er  Er0  1  0.830110  0.668403  0.500000  1
  Er  Er1  1  0.330110  0.831597  0.500000  1
  Pa  Pa2  1  0.674878  0.161788  0.500000  1
  Pa  Pa3  1  0.174878  0.338212  0.500000  1
  Rh  Rh4  1  0.361199  0.156030  0.000000  1
  Rh  Rh5  1  0.126242  0.598782  0.000000  1
  Rh  Rh6  1  0.626242  0.901218  0.000000  1
  Rh  Rh7  1  0.861199  0.343970  0.000000  1
  Pb  Pb8  1  0.007572  0.988306  0.000000  1
  Pb  Pb9  1  0.507572  0.511694  0.000000  1
