# generated using pymatgen
data_Hf6Al16CoIrPt5
_symmetry_space_group_name_H-M   'P 1'
_cell_length_a   8.71881166
_cell_length_b   8.71825776
_cell_length_c   8.71825921
_cell_angle_alpha   59.86304860
_cell_angle_beta   59.99790448
_cell_angle_gamma   59.99790102
_symmetry_Int_Tables_number   1
_chemical_formula_structural   Hf6Al16CoIrPt5
_chemical_formula_sum   'Hf6 Al16 Co1 Ir1 Pt5'
_cell_volume   468.09772023
_cell_formula_units_Z   1
loop_
 _symmetry_equiv_pos_site_id
 _symmetry_equiv_pos_as_xyz
  1  'x, y, z'
loop_
 _atom_site_type_symbol
 _atom_site_label
 _atom_site_symmetry_multiplicity
 _atom_site_fract_x
 _atom_site_fract_y
 _atom_site_fract_z
 _atom_site_occupancy
  Hf  Hf0  1  0.683406  0.316593  0.316593  1
  Hf  Hf1  1  0.316593  0.683406  0.683406  1
  Hf  Hf2  1  0.316866  0.681025  0.318974  1
  Hf  Hf3  1  0.316866  0.318974  0.681025  1
  Hf  Hf4  1  0.683133  0.318974  0.681025  1
  Hf  Hf5  1  0.683133  0.681025  0.318974  1
  Al  Al6  1  0.333658  0.336692  0.336692  1
  Al  Al7  1  0.335696  0.335859  0.992748  1
  Al  Al8  1  0.992960  0.336692  0.336692  1
  Al  Al9  1  0.335696  0.992748  0.335859  1
  Al  Al10  1  0.666342  0.663308  0.663308  1
  Al  Al11  1  0.664304  0.664141  0.007252  1
  Al  Al12  1  0.664304  0.007252  0.664141  1
  Al  Al13  1  0.007040  0.663308  0.663308  1
  Al  Al14  1  0.115229  0.116145  0.116145  1
  Al  Al15  1  0.114019  0.121727  0.650236  1
  Al  Al16  1  0.652480  0.116145  0.116145  1
  Al  Al17  1  0.114019  0.650236  0.121727  1
  Al  Al18  1  0.884770  0.883854  0.883854  1
  Al  Al19  1  0.885980  0.878272  0.349767  1
  Al  Al20  1  0.885980  0.349767  0.878272  1
  Al  Al21  1  0.347523  0.883854  0.883854  1
  Co  Co22  1  0.000000  0.000000  0.000000  1
  Ir  Ir23  1  0.000000  0.500000  0.500000  1
  Pt  Pt24  1  0.500000  0.000000  0.000000  1
  Pt  Pt25  1  0.000000  0.500000  0.000000  1
  Pt  Pt26  1  0.000000  0.000000  0.500000  1
  Pt  Pt27  1  0.500000  0.000000  0.500000  1
  Pt  Pt28  1  0.500000  0.500000  0.000000  1
