# generated using pymatgen
data_Dy2CrReN6
_symmetry_space_group_name_H-M   'P 1'
_cell_length_a   7.09061621
_cell_length_b   7.07874488
_cell_length_c   5.96139614
_cell_angle_alpha   76.41326026
_cell_angle_beta   76.82631057
_cell_angle_gamma   83.59421138
_symmetry_Int_Tables_number   1
_chemical_formula_structural   Dy2CrReN6
_chemical_formula_sum   'Dy4 Cr2 Re2 N12'
_cell_volume   282.65803388
_cell_formula_units_Z   2
loop_
 _symmetry_equiv_pos_site_id
 _symmetry_equiv_pos_as_xyz
  1  'x, y, z'
loop_
 _atom_site_type_symbol
 _atom_site_label
 _atom_site_symmetry_multiplicity
 _atom_site_fract_x
 _atom_site_fract_y
 _atom_site_fract_z
 _atom_site_occupancy
  Dy  Dy0  1  0.320340  0.678016  0.755916  1
  Dy  Dy1  1  0.679660  0.321984  0.244084  1
  Dy  Dy2  1  0.083880  0.905210  0.258624  1
  Dy  Dy3  1  0.916120  0.094790  0.741376  1
  Cr  Cr4  1  0.810610  0.614365  0.747780  1
  Cr  Cr5  1  0.189390  0.385635  0.252220  1
  Re  Re6  1  0.382855  0.204403  0.753830  1
  Re  Re7  1  0.617145  0.795597  0.246170  1
  N  N8  1  0.997147  0.771437  0.660595  1
  N  N9  1  0.879778  0.386235  0.856224  1
  N  N10  1  0.773145  0.001263  0.148558  1
  N  N11  1  0.120222  0.613765  0.143776  1
  N  N12  1  0.002853  0.228563  0.339405  1
  N  N13  1  0.226855  0.998737  0.851442  1
  N  N14  1  0.623898  0.118603  0.637477  1
  N  N15  1  0.615607  0.666189  0.006196  1
  N  N16  1  0.384393  0.333811  0.993804  1
  N  N17  1  0.376102  0.881397  0.362523  1
  N  N18  1  0.673028  0.616305  0.506547  1
  N  N19  1  0.326972  0.383695  0.493453  1
