# generated using pymatgen
data_Tb2Ho2Al4OsPd3
_symmetry_space_group_name_H-M   'P 1'
_cell_length_a   4.35587800
_cell_length_b   6.90918133
_cell_length_c   7.89244500
_cell_angle_alpha   89.94362202
_cell_angle_beta   90.00000000
_cell_angle_gamma   90.00000000
_symmetry_Int_Tables_number   1
_chemical_formula_structural   Tb2Ho2Al4OsPd3
_chemical_formula_sum   'Tb2 Ho2 Al4 Os1 Pd3'
_cell_volume   237.52736581
_cell_formula_units_Z   1
loop_
 _symmetry_equiv_pos_site_id
 _symmetry_equiv_pos_as_xyz
  1  'x, y, z'
loop_
 _atom_site_type_symbol
 _atom_site_label
 _atom_site_symmetry_multiplicity
 _atom_site_fract_x
 _atom_site_fract_y
 _atom_site_fract_z
 _atom_site_occupancy
  Tb  Tb0  1  0.250000  0.034262  0.678332  1
  Tb  Tb1  1  0.250000  0.530314  0.819366  1
  Ho  Ho2  1  0.750000  0.980896  0.320205  1
  Ho  Ho3  1  0.750000  0.464096  0.186712  1
  Al  Al4  1  0.250000  0.145989  0.065603  1
  Al  Al5  1  0.250000  0.638217  0.436410  1
  Al  Al6  1  0.750000  0.855935  0.939239  1
  Al  Al7  1  0.750000  0.353113  0.558007  1
  Os  Os8  1  0.250000  0.267634  0.378429  1
  Pd  Pd9  1  0.250000  0.773747  0.117932  1
  Pd  Pd10  1  0.750000  0.727880  0.618858  1
  Pd  Pd11  1  0.750000  0.227917  0.880906  1
