# generated using pymatgen
data_DyLu4Bi3
_symmetry_space_group_name_H-M   'P 1'
_cell_length_a   8.16620100
_cell_length_b   9.37663500
_cell_length_c   11.84364700
_cell_angle_alpha   90.00000000
_cell_angle_beta   90.00000000
_cell_angle_gamma   90.00000000
_symmetry_Int_Tables_number   1
_chemical_formula_structural   DyLu4Bi3
_chemical_formula_sum   'Dy4 Lu16 Bi12'
_cell_volume   906.88565180
_cell_formula_units_Z   4
loop_
 _symmetry_equiv_pos_site_id
 _symmetry_equiv_pos_as_xyz
  1  'x, y, z'
loop_
 _atom_site_type_symbol
 _atom_site_label
 _atom_site_symmetry_multiplicity
 _atom_site_fract_x
 _atom_site_fract_y
 _atom_site_fract_z
 _atom_site_occupancy
  Dy  Dy0  1  0.312122  0.250000  0.218150  1
  Dy  Dy1  1  0.812122  0.250000  0.281850  1
  Dy  Dy2  1  0.687878  0.750000  0.781850  1
  Dy  Dy3  1  0.187878  0.750000  0.718150  1
  Lu  Lu4  1  0.352179  0.750000  0.217891  1
  Lu  Lu5  1  0.852179  0.750000  0.282109  1
  Lu  Lu6  1  0.647821  0.250000  0.782109  1
  Lu  Lu7  1  0.147821  0.250000  0.717891  1
  Lu  Lu8  1  0.693157  0.567170  0.059793  1
  Lu  Lu9  1  0.193157  0.932830  0.440207  1
  Lu  Lu10  1  0.306843  0.067170  0.940207  1
  Lu  Lu11  1  0.806843  0.432830  0.559793  1
  Lu  Lu12  1  0.306843  0.432830  0.940207  1
  Lu  Lu13  1  0.806843  0.067170  0.559793  1
  Lu  Lu14  1  0.693157  0.932830  0.059793  1
  Lu  Lu15  1  0.193157  0.567170  0.440207  1
  Lu  Lu16  1  0.476342  0.250000  0.489382  1
  Lu  Lu17  1  0.976342  0.250000  0.010618  1
  Lu  Lu18  1  0.523658  0.750000  0.510618  1
  Lu  Lu19  1  0.023658  0.750000  0.989382  1
  Bi  Bi20  1  0.404168  0.750000  0.958941  1
  Bi  Bi21  1  0.904168  0.750000  0.541059  1
  Bi  Bi22  1  0.595832  0.250000  0.041059  1
  Bi  Bi23  1  0.095832  0.250000  0.458941  1
  Bi  Bi24  1  0.565271  0.994249  0.325726  1
  Bi  Bi25  1  0.065271  0.505751  0.174274  1
  Bi  Bi26  1  0.434729  0.494249  0.674274  1
  Bi  Bi27  1  0.934729  0.005751  0.825726  1
  Bi  Bi28  1  0.434729  0.005751  0.674274  1
  Bi  Bi29  1  0.934729  0.494249  0.825726  1
  Bi  Bi30  1  0.565271  0.505751  0.325726  1
  Bi  Bi31  1  0.065271  0.994249  0.174274  1
