# generated using pymatgen
data_TbNd2YCuPt3
_symmetry_space_group_name_H-M   'P 1'
_cell_length_a   4.55887000
_cell_length_b   5.65679716
_cell_length_c   7.22654452
_cell_angle_alpha   88.72623070
_cell_angle_beta   90.00000000
_cell_angle_gamma   90.00000000
_symmetry_Int_Tables_number   1
_chemical_formula_structural   TbNd2YCuPt3
_chemical_formula_sum   'Tb1 Nd2 Y1 Cu1 Pt3'
_cell_volume   186.31643503
_cell_formula_units_Z   1
loop_
 _symmetry_equiv_pos_site_id
 _symmetry_equiv_pos_as_xyz
  1  'x, y, z'
loop_
 _atom_site_type_symbol
 _atom_site_label
 _atom_site_symmetry_multiplicity
 _atom_site_fract_x
 _atom_site_fract_y
 _atom_site_fract_z
 _atom_site_occupancy
  Tb  Tb0  1  0.000000  0.857999  0.821441  1
  Nd  Nd1  1  0.000000  0.638952  0.314871  1
  Nd  Nd2  1  0.500000  0.366107  0.687710  1
  Y  Y3  1  0.500000  0.137696  0.174727  1
  Cu  Cu4  1  0.000000  0.129865  0.461951  1
  Pt  Pt5  1  0.000000  0.335211  0.959857  1
  Pt  Pt6  1  0.500000  0.875656  0.537960  1
  Pt  Pt7  1  0.500000  0.658514  0.041483  1
