# generated using pymatgen
data_Ho3Er2In4IrPd
_symmetry_space_group_name_H-M   'P 1'
_cell_length_a   3.60573100
_cell_length_b   8.11602399
_cell_length_c   18.20181760
_cell_angle_alpha   90.09506185
_cell_angle_beta   90.00000000
_cell_angle_gamma   90.00000000
_symmetry_Int_Tables_number   1
_chemical_formula_structural   Ho3Er2In4IrPd
_chemical_formula_sum   'Ho6 Er4 In8 Ir2 Pd2'
_cell_volume   532.66088439
_cell_formula_units_Z   2
loop_
 _symmetry_equiv_pos_site_id
 _symmetry_equiv_pos_as_xyz
  1  'x, y, z'
loop_
 _atom_site_type_symbol
 _atom_site_label
 _atom_site_symmetry_multiplicity
 _atom_site_fract_x
 _atom_site_fract_y
 _atom_site_fract_z
 _atom_site_occupancy
  Ho  Ho0  1  0.000000  0.500000  0.500000  1
  Ho  Ho1  1  0.000000  0.000000  0.000000  1
  Ho  Ho2  1  0.000000  0.728318  0.277512  1
  Ho  Ho3  1  0.000000  0.271682  0.722488  1
  Ho  Ho4  1  0.000000  0.747451  0.779934  1
  Ho  Ho5  1  0.000000  0.252549  0.220066  1
  Er  Er6  1  0.000000  0.613259  0.087033  1
  Er  Er7  1  0.000000  0.386741  0.912967  1
  Er  Er8  1  0.000000  0.885014  0.584451  1
  Er  Er9  1  0.000000  0.114986  0.415549  1
  In  In10  1  0.500000  0.709649  0.932277  1
  In  In11  1  0.500000  0.290351  0.067723  1
  In  In12  1  0.500000  0.790813  0.432131  1
  In  In13  1  0.500000  0.209187  0.567869  1
  In  In14  1  0.500000  0.579367  0.648141  1
  In  In15  1  0.500000  0.420633  0.351859  1
  In  In16  1  0.500000  0.921916  0.149661  1
  In  In17  1  0.500000  0.078084  0.850339  1
  Ir  Ir18  1  0.500000  0.519525  0.195654  1
  Ir  Ir19  1  0.500000  0.480475  0.804346  1
  Pd  Pd20  1  0.500000  0.980246  0.695949  1
  Pd  Pd21  1  0.500000  0.019754  0.304051  1
