# generated using pymatgen
data_Nd4SnI6
_symmetry_space_group_name_H-M   'P 1'
_cell_length_a   4.46043500
_cell_length_b   14.70686900
_cell_length_c   15.53339500
_cell_angle_alpha   90.00000000
_cell_angle_beta   90.00000000
_cell_angle_gamma   90.00000000
_symmetry_Int_Tables_number   1
_chemical_formula_structural   Nd4SnI6
_chemical_formula_sum   'Nd8 Sn2 I12'
_cell_volume   1018.97569475
_cell_formula_units_Z   2
loop_
 _symmetry_equiv_pos_site_id
 _symmetry_equiv_pos_as_xyz
  1  'x, y, z'
loop_
 _atom_site_type_symbol
 _atom_site_label
 _atom_site_symmetry_multiplicity
 _atom_site_fract_x
 _atom_site_fract_y
 _atom_site_fract_z
 _atom_site_occupancy
  Nd  Nd0  1  0.500000  0.118695  0.340956  1
  Nd  Nd1  1  0.500000  0.881305  0.659044  1
  Nd  Nd2  1  0.500000  0.618695  0.159044  1
  Nd  Nd3  1  0.500000  0.381305  0.840956  1
  Nd  Nd4  1  0.000000  0.118967  0.579102  1
  Nd  Nd5  1  0.000000  0.881033  0.420898  1
  Nd  Nd6  1  0.000000  0.618967  0.920898  1
  Nd  Nd7  1  0.000000  0.381033  0.079102  1
  Sn  Sn8  1  0.500000  0.000000  0.500000  1
  Sn  Sn9  1  0.500000  0.500000  0.000000  1
  I  I10  1  0.500000  0.243655  0.161869  1
  I  I11  1  0.500000  0.756345  0.838131  1
  I  I12  1  0.500000  0.743655  0.338131  1
  I  I13  1  0.500000  0.256345  0.661869  1
  I  I14  1  0.000000  0.255840  0.412104  1
  I  I15  1  0.000000  0.744160  0.587896  1
  I  I16  1  0.000000  0.755840  0.087896  1
  I  I17  1  0.000000  0.244160  0.912104  1
  I  I18  1  0.000000  0.000711  0.242963  1
  I  I19  1  0.000000  0.999289  0.757037  1
  I  I20  1  0.000000  0.500711  0.257037  1
  I  I21  1  0.000000  0.499289  0.742963  1
