# generated using pymatgen
data_Yb3Si6(Pd4Pt)4
_symmetry_space_group_name_H-M   'P 1'
_cell_length_a   8.70647919
_cell_length_b   8.73192875
_cell_length_c   8.73192851
_cell_angle_alpha   59.78848396
_cell_angle_beta   59.69998813
_cell_angle_gamma   59.69998590
_symmetry_Int_Tables_number   1
_chemical_formula_structural   Yb3Si6(Pd4Pt)4
_chemical_formula_sum   'Yb3 Si6 Pd16 Pt4'
_cell_volume   466.52065210
_cell_formula_units_Z   1
loop_
 _symmetry_equiv_pos_site_id
 _symmetry_equiv_pos_as_xyz
  1  'x, y, z'
loop_
 _atom_site_type_symbol
 _atom_site_label
 _atom_site_symmetry_multiplicity
 _atom_site_fract_x
 _atom_site_fract_y
 _atom_site_fract_z
 _atom_site_occupancy
  Yb  Yb0  1  0.250288  0.250294  0.250294  1
  Yb  Yb1  1  0.748703  0.750299  0.750299  1
  Yb  Yb2  1  0.999959  0.000067  0.000067  1
  Si  Si3  1  0.730098  0.268906  0.268906  1
  Si  Si4  1  0.271124  0.729462  0.729462  1
  Si  Si5  1  0.270478  0.729654  0.269763  1
  Si  Si6  1  0.729685  0.270212  0.730744  1
  Si  Si7  1  0.270478  0.269763  0.729654  1
  Si  Si8  1  0.729685  0.730744  0.270212  1
  Pd  Pd9  1  0.619512  0.616149  0.148675  1
  Pd  Pd10  1  0.619512  0.148675  0.616149  1
  Pd  Pd11  1  0.851037  0.381850  0.381850  1
  Pd  Pd12  1  0.146890  0.617918  0.617918  1
  Pd  Pd13  1  0.342955  0.000735  0.000735  1
  Pd  Pd14  1  0.655947  0.000352  0.000352  1
  Pd  Pd15  1  0.999229  0.344496  0.657283  1
  Pd  Pd16  1  0.999229  0.657283  0.344496  1
  Pd  Pd17  1  0.999654  0.344253  0.000363  1
  Pd  Pd18  1  0.656459  0.999839  0.344371  1
  Pd  Pd19  1  0.999340  0.656582  0.000388  1
  Pd  Pd20  1  0.343124  0.000260  0.657304  1
  Pd  Pd21  1  0.999654  0.000363  0.344253  1
  Pd  Pd22  1  0.999340  0.000388  0.656582  1
  Pd  Pd23  1  0.656459  0.344371  0.999839  1
  Pd  Pd24  1  0.343124  0.657304  0.000260  1
  Pt  Pt25  1  0.384297  0.384552  0.384552  1
  Pt  Pt26  1  0.618086  0.614719  0.614719  1
  Pt  Pt27  1  0.382827  0.383328  0.847179  1
  Pt  Pt28  1  0.382827  0.847179  0.383328  1
