# generated using pymatgen
data_DyY3(OF4)2
_symmetry_space_group_name_H-M   'P 1'
_cell_length_a   6.78595643
_cell_length_b   6.78688786
_cell_length_c   5.73650438
_cell_angle_alpha   79.84975677
_cell_angle_beta   79.84491659
_cell_angle_gamma   46.28794933
_symmetry_Int_Tables_number   1
_chemical_formula_structural   DyY3(OF4)2
_chemical_formula_sum   'Dy1 Y3 O2 F8'
_cell_volume   187.42612368
_cell_formula_units_Z   1
loop_
 _symmetry_equiv_pos_site_id
 _symmetry_equiv_pos_as_xyz
  1  'x, y, z'
loop_
 _atom_site_type_symbol
 _atom_site_label
 _atom_site_symmetry_multiplicity
 _atom_site_fract_x
 _atom_site_fract_y
 _atom_site_fract_z
 _atom_site_occupancy
  Dy  Dy0  1  0.896050  0.318845  0.422814  1
  Y  Y1  1  0.103842  0.681276  0.577093  1
  Y  Y2  1  0.681351  0.103830  0.077180  1
  Y  Y3  1  0.318702  0.896105  0.922874  1
  O  O4  1  0.950849  0.049497  0.749427  1
  O  O5  1  0.048745  0.951566  0.250249  1
  F  F6  1  0.316726  0.513596  0.921314  1
  F  F7  1  0.514000  0.316726  0.421354  1
  F  F8  1  0.705915  0.853118  0.828764  1
  F  F9  1  0.853172  0.705547  0.328834  1
  F  F10  1  0.146567  0.293998  0.670794  1
  F  F11  1  0.293432  0.147177  0.171688  1
  F  F12  1  0.487146  0.682532  0.578379  1
  F  F13  1  0.683502  0.486186  0.079236  1
