# generated using pymatgen
data_Sr2LiZnSb4
_symmetry_space_group_name_H-M   'P 1'
_cell_length_a   4.39307800
_cell_length_b   4.43218005
_cell_length_c   23.65440248
_cell_angle_alpha   90.07851440
_cell_angle_beta   90.00000000
_cell_angle_gamma   90.00000000
_symmetry_Int_Tables_number   1
_chemical_formula_structural   Sr2LiZnSb4
_chemical_formula_sum   'Sr4 Li2 Zn2 Sb8'
_cell_volume   460.57237292
_cell_formula_units_Z   2
loop_
 _symmetry_equiv_pos_site_id
 _symmetry_equiv_pos_as_xyz
  1  'x, y, z'
loop_
 _atom_site_type_symbol
 _atom_site_label
 _atom_site_symmetry_multiplicity
 _atom_site_fract_x
 _atom_site_fract_y
 _atom_site_fract_z
 _atom_site_occupancy
  Sr  Sr0  1  0.250000  0.772416  0.618849  1
  Sr  Sr1  1  0.750000  0.227584  0.381151  1
  Sr  Sr2  1  0.750000  0.272812  0.880841  1
  Sr  Sr3  1  0.250000  0.727188  0.119159  1
  Li  Li4  1  0.250000  0.274426  0.750491  1
  Li  Li5  1  0.750000  0.725574  0.249509  1
  Zn  Zn6  1  0.750000  0.774562  0.749691  1
  Zn  Zn7  1  0.250000  0.225438  0.250309  1
  Sb  Sb8  1  0.250000  0.216317  0.002242  1
  Sb  Sb9  1  0.750000  0.783683  0.997758  1
  Sb  Sb10  1  0.750000  0.716018  0.499344  1
  Sb  Sb11  1  0.250000  0.283982  0.500656  1
  Sb  Sb12  1  0.250000  0.726275  0.322151  1
  Sb  Sb13  1  0.750000  0.273725  0.677849  1
  Sb  Sb14  1  0.750000  0.226043  0.178087  1
  Sb  Sb15  1  0.250000  0.773957  0.821913  1
