# generated using pymatgen
data_TbEr2Al7Cu2
_symmetry_space_group_name_H-M   'P 1'
_cell_length_a   9.05334375
_cell_length_b   9.05334430
_cell_length_c   9.05334440
_cell_angle_alpha   35.16747256
_cell_angle_beta   35.16746694
_cell_angle_gamma   35.16746673
_symmetry_Int_Tables_number   1
_chemical_formula_structural   TbEr2Al7Cu2
_chemical_formula_sum   'Tb1 Er2 Al7 Cu2'
_cell_volume   219.85794475
_cell_formula_units_Z   1
loop_
 _symmetry_equiv_pos_site_id
 _symmetry_equiv_pos_as_xyz
  1  'x, y, z'
loop_
 _atom_site_type_symbol
 _atom_site_label
 _atom_site_symmetry_multiplicity
 _atom_site_fract_x
 _atom_site_fract_y
 _atom_site_fract_z
 _atom_site_occupancy
  Tb  Tb0  1  0.000000  0.000000  0.000000  1
  Er  Er1  1  0.857722  0.857722  0.857722  1
  Er  Er2  1  0.142278  0.142278  0.142278  1
  Al  Al3  1  0.418034  0.418034  0.926995  1
  Al  Al4  1  0.926995  0.418034  0.418034  1
  Al  Al5  1  0.418034  0.926995  0.418034  1
  Al  Al6  1  0.500000  0.500000  0.500000  1
  Al  Al7  1  0.581966  0.073005  0.581966  1
  Al  Al8  1  0.073005  0.581966  0.581966  1
  Al  Al9  1  0.581966  0.581966  0.073005  1
  Cu  Cu10  1  0.664831  0.664831  0.664831  1
  Cu  Cu11  1  0.335169  0.335169  0.335169  1
