# generated using pymatgen
data_PrCl37
_symmetry_space_group_name_H-M   'P 1'
_cell_length_a   12.78763379
_cell_length_b   13.76759013
_cell_length_c   12.98174600
_cell_angle_alpha   103.00376751
_cell_angle_beta   48.80056927
_cell_angle_gamma   81.50743368
_symmetry_Int_Tables_number   1
_chemical_formula_structural   PrCl37
_chemical_formula_sum   'Pr1 Cl37'
_cell_volume   1533.02354663
_cell_formula_units_Z   1
loop_
 _symmetry_equiv_pos_site_id
 _symmetry_equiv_pos_as_xyz
  1  'x, y, z'
loop_
 _atom_site_type_symbol
 _atom_site_label
 _atom_site_symmetry_multiplicity
 _atom_site_fract_x
 _atom_site_fract_y
 _atom_site_fract_z
 _atom_site_occupancy
  Pr  Pr0  1  0.500000  0.000000  0.000000  1
  Cl  Cl1  1  0.776477  0.313582  0.167531  1
  Cl  Cl2  1  0.223523  0.686418  0.832469  1
  Cl  Cl3  1  0.724139  0.076818  0.365112  1
  Cl  Cl4  1  0.275861  0.923182  0.634888  1
  Cl  Cl5  1  0.101938  0.324996  0.152105  1
  Cl  Cl6  1  0.898062  0.675004  0.847895  1
  Cl  Cl7  1  0.866912  0.540529  0.248605  1
  Cl  Cl8  1  0.133088  0.459471  0.751395  1
  Cl  Cl9  1  0.683618  0.286147  0.535206  1
  Cl  Cl10  1  0.316382  0.713853  0.464794  1
  Cl  Cl11  1  0.049121  0.135548  0.482385  1
  Cl  Cl12  1  0.950879  0.864452  0.517615  1
  Cl  Cl13  1  0.994543  0.001371  0.272569  1
  Cl  Cl14  1  0.005457  0.998629  0.727431  1
  Cl  Cl15  1  0.944313  0.367390  0.628040  1
  Cl  Cl16  1  0.055687  0.632610  0.371960  1
  Cl  Cl17  1  0.586352  0.419589  0.243180  1
  Cl  Cl18  1  0.413648  0.580411  0.756820  1
  Cl  Cl19  1  0.178150  0.468630  0.264491  1
  Cl  Cl20  1  0.821850  0.531370  0.735509  1
  Cl  Cl21  1  0.000000  0.500000  0.000000  1
  Cl  Cl22  1  0.568835  0.950319  0.149392  1
  Cl  Cl23  1  0.431165  0.049681  0.850608  1
  Cl  Cl24  1  0.291369  0.045654  0.327803  1
  Cl  Cl25  1  0.708631  0.954346  0.672197  1
  Cl  Cl26  1  0.531445  0.119924  0.411850  1
  Cl  Cl27  1  0.468555  0.880076  0.588150  1
  Cl  Cl28  1  0.074659  0.203240  0.062967  1
  Cl  Cl29  1  0.925341  0.796760  0.937033  1
  Cl  Cl30  1  0.677930  0.691088  0.391416  1
  Cl  Cl31  1  0.322070  0.308912  0.608584  1
  Cl  Cl32  1  0.905025  0.134456  0.914386  1
  Cl  Cl33  1  0.094975  0.865544  0.085614  1
  Cl  Cl34  1  0.462015  0.206018  0.097827  1
  Cl  Cl35  1  0.537985  0.793982  0.902173  1
  Cl  Cl36  1  0.668065  0.425009  0.645698  1
  Cl  Cl37  1  0.331935  0.574991  0.354302  1
