# generated using pymatgen
data_YEr2In3Cu2Ir
_symmetry_space_group_name_H-M   'P 1'
_cell_length_a   7.53961004
_cell_length_b   7.51205544
_cell_length_c   3.88662100
_cell_angle_alpha   90.00000000
_cell_angle_beta   90.00000000
_cell_angle_gamma   120.01818949
_symmetry_Int_Tables_number   1
_chemical_formula_structural   YEr2In3Cu2Ir
_chemical_formula_sum   'Y1 Er2 In3 Cu2 Ir1'
_cell_volume   190.60349612
_cell_formula_units_Z   1
loop_
 _symmetry_equiv_pos_site_id
 _symmetry_equiv_pos_as_xyz
  1  'x, y, z'
loop_
 _atom_site_type_symbol
 _atom_site_label
 _atom_site_symmetry_multiplicity
 _atom_site_fract_x
 _atom_site_fract_y
 _atom_site_fract_z
 _atom_site_occupancy
  Y  Y0  1  0.015561  0.597769  0.500000  1
  Er  Er1  1  0.401438  0.419317  0.500000  1
  Er  Er2  1  0.580869  0.982013  0.500000  1
  In  In3  1  0.749787  0.743659  0.000000  1
  In  In4  1  0.993207  0.249292  0.000000  1
  In  In5  1  0.256982  0.007517  0.000000  1
  Cu  Cu6  1  0.999933  0.000618  0.500000  1
  Cu  Cu7  1  0.665379  0.332202  0.000000  1
  Ir  Ir8  1  0.336844  0.667613  0.000000  1
