# generated using pymatgen
data_Hf8Ni2MoRh
_symmetry_space_group_name_H-M   'P 1'
_cell_length_a   8.65218619
_cell_length_b   8.65218601
_cell_length_c   8.63926600
_cell_angle_alpha   60.04939220
_cell_angle_beta   60.04939286
_cell_angle_gamma   60.19784850
_symmetry_Int_Tables_number   1
_chemical_formula_structural   Hf8Ni2MoRh
_chemical_formula_sum   'Hf16 Ni4 Mo2 Rh2'
_cell_volume   458.33552532
_cell_formula_units_Z   2
loop_
 _symmetry_equiv_pos_site_id
 _symmetry_equiv_pos_as_xyz
  1  'x, y, z'
loop_
 _atom_site_type_symbol
 _atom_site_label
 _atom_site_symmetry_multiplicity
 _atom_site_fract_x
 _atom_site_fract_y
 _atom_site_fract_z
 _atom_site_occupancy
  Hf  Hf0  1  0.678323  0.108893  0.106391  1
  Hf  Hf1  1  0.108893  0.678323  0.106391  1
  Hf  Hf2  1  0.104054  0.104054  0.687735  1
  Hf  Hf3  1  0.104054  0.104054  0.104156  1
  Hf  Hf4  1  0.316038  0.316038  0.683962  1
  Hf  Hf5  1  0.685632  0.685632  0.314368  1
  Hf  Hf6  1  0.316362  0.689360  0.315161  1
  Hf  Hf7  1  0.689360  0.316362  0.679116  1
  Hf  Hf8  1  0.689360  0.316362  0.315161  1
  Hf  Hf9  1  0.316362  0.689360  0.679116  1
  Hf  Hf10  1  0.951931  0.951931  0.548069  1
  Hf  Hf11  1  0.551670  0.551670  0.948330  1
  Hf  Hf12  1  0.945835  0.552005  0.949482  1
  Hf  Hf13  1  0.552005  0.945835  0.552679  1
  Hf  Hf14  1  0.552005  0.945835  0.949482  1
  Hf  Hf15  1  0.945835  0.552005  0.552679  1
  Ni  Ni16  1  0.321688  0.889047  0.894632  1
  Ni  Ni17  1  0.889047  0.321688  0.894632  1
  Ni  Ni18  1  0.892097  0.892097  0.318375  1
  Ni  Ni19  1  0.892097  0.892097  0.897431  1
  Mo  Mo20  1  0.997822  0.332934  0.334621  1
  Mo  Mo21  1  0.332934  0.997822  0.334621  1
  Rh  Rh22  1  0.333296  0.333296  0.995174  1
  Rh  Rh23  1  0.333296  0.333296  0.338232  1
