# generated using pymatgen
data_Sr12Ca4Sb5(RuO12)3
_symmetry_space_group_name_H-M   'P 1'
_cell_length_a   5.84834125
_cell_length_b   10.04229466
_cell_length_c   14.27085542
_cell_angle_alpha   89.86391809
_cell_angle_beta   90.00607513
_cell_angle_gamma   89.96702308
_symmetry_Int_Tables_number   1
_chemical_formula_structural   Sr12Ca4Sb5(RuO12)3
_chemical_formula_sum   'Sr12 Ca4 Sb5 Ru3 O36'
_cell_volume   838.13576504
_cell_formula_units_Z   1
loop_
 _symmetry_equiv_pos_site_id
 _symmetry_equiv_pos_as_xyz
  1  'x, y, z'
loop_
 _atom_site_type_symbol
 _atom_site_label
 _atom_site_symmetry_multiplicity
 _atom_site_fract_x
 _atom_site_fract_y
 _atom_site_fract_z
 _atom_site_occupancy
  Sr  Sr0  1  0.534914  0.833629  0.415135  1
  Sr  Sr1  1  0.535311  0.494368  0.753033  1
  Sr  Sr2  1  0.962470  0.332869  0.415029  1
  Sr  Sr3  1  0.466301  0.834158  0.919968  1
  Sr  Sr4  1  0.536812  0.168082  0.090950  1
  Sr  Sr5  1  0.040070  0.010197  0.247552  1
  Sr  Sr6  1  0.033333  0.333703  0.920567  1
  Sr  Sr7  1  0.964399  0.994475  0.752748  1
  Sr  Sr8  1  0.458646  0.167425  0.573257  1
  Sr  Sr9  1  0.039915  0.666624  0.574180  1
  Sr  Sr10  1  0.462634  0.504534  0.248353  1
  Sr  Sr11  1  0.960747  0.664342  0.087604  1
  Ca  Ca12  1  0.499726  0.500497  0.000064  1
  Ca  Ca13  1  0.998533  0.999319  0.500083  1
  Ca  Ca14  1  0.501152  0.500888  0.500180  1
  Ca  Ca15  1  0.000162  0.999612  0.999250  1
  Sb  Sb16  1  0.504139  0.828496  0.666952  1
  Sb  Sb17  1  0.995370  0.327798  0.666882  1
  Sb  Sb18  1  0.494115  0.162073  0.832791  1
  Sb  Sb19  1  0.002801  0.672248  0.329914  1
  Sb  Sb20  1  0.005808  0.661896  0.832465  1
  Ru  Ru21  1  0.498082  0.170990  0.330057  1
  Ru  Ru22  1  0.506385  0.840443  0.168941  1
  Ru  Ru23  1  0.996341  0.335777  0.169291  1
  O  O24  1  0.018156  0.795069  0.933599  1
  O  O25  1  0.804151  0.601180  0.430696  1
  O  O26  1  0.781115  0.868516  0.594757  1
  O  O27  1  0.785040  0.263535  0.778629  1
  O  O28  1  0.782515  0.218222  0.249499  1
  O  O29  1  0.193881  0.445727  0.094161  1
  O  O30  1  0.700339  0.046870  0.905301  1
  O  O31  1  0.518107  0.025307  0.722008  1
  O  O32  1  0.715266  0.763538  0.778359  1
  O  O33  1  0.232489  0.129603  0.404712  1
  O  O34  1  0.694158  0.103915  0.427682  1
  O  O35  1  0.024510  0.146793  0.618734  1
  O  O36  1  0.982745  0.201839  0.073160  1
  O  O37  1  0.733189  0.424767  0.118966  1
  O  O38  1  0.019884  0.481184  0.275179  1
  O  O39  1  0.482150  0.294962  0.934360  1
  O  O40  1  0.981647  0.524656  0.722013  1
  O  O41  1  0.715914  0.709920  0.248243  1
  O  O42  1  0.307487  0.949128  0.093963  1
  O  O43  1  0.277219  0.571592  0.881239  1
  O  O44  1  0.280591  0.242177  0.226998  1
  O  O45  1  0.518588  0.344660  0.382875  1
  O  O46  1  0.216653  0.790195  0.752825  1
  O  O47  1  0.209576  0.737389  0.222210  1
  O  O48  1  0.518304  0.706122  0.072270  1
  O  O49  1  0.770940  0.925682  0.119652  1
  O  O50  1  0.484713  0.980095  0.271287  1
  O  O51  1  0.191861  0.396174  0.565625  1
  O  O52  1  0.474562  0.647230  0.619589  1
  O  O53  1  0.717880  0.367150  0.594755  1
  O  O54  1  0.976895  0.853815  0.380771  1
  O  O55  1  0.277902  0.630905  0.405537  1
  O  O56  1  0.283239  0.289988  0.752816  1
  O  O57  1  0.222078  0.072065  0.880916  1
  O  O58  1  0.308385  0.898390  0.565864  1
  O  O59  1  0.799706  0.547198  0.905505  1
