# generated using pymatgen
data_Ca2Ge2SbPd9
_symmetry_space_group_name_H-M   'P 1'
_cell_length_a   7.86030803
_cell_length_b   7.86030847
_cell_length_c   9.25899500
_cell_angle_alpha   90.00000000
_cell_angle_beta   90.00000000
_cell_angle_gamma   119.86996672
_symmetry_Int_Tables_number   1
_chemical_formula_structural   Ca2Ge2SbPd9
_chemical_formula_sum   'Ca4 Ge4 Sb2 Pd18'
_cell_volume   496.06798887
_cell_formula_units_Z   2
loop_
 _symmetry_equiv_pos_site_id
 _symmetry_equiv_pos_as_xyz
  1  'x, y, z'
loop_
 _atom_site_type_symbol
 _atom_site_label
 _atom_site_symmetry_multiplicity
 _atom_site_fract_x
 _atom_site_fract_y
 _atom_site_fract_z
 _atom_site_occupancy
  Ca  Ca0  1  0.326419  0.016478  0.751203  1
  Ca  Ca1  1  0.673581  0.983522  0.251203  1
  Ca  Ca2  1  0.016478  0.326419  0.748797  1
  Ca  Ca3  1  0.983522  0.673581  0.248797  1
  Ge  Ge4  1  0.000924  0.999076  0.500000  1
  Ge  Ge5  1  0.676057  0.323943  0.000000  1
  Ge  Ge6  1  0.323943  0.676057  0.500000  1
  Ge  Ge7  1  0.999076  0.000924  0.000000  1
  Sb  Sb8  1  0.326624  0.673376  0.000000  1
  Sb  Sb9  1  0.673376  0.326624  0.500000  1
  Pd  Pd10  1  0.327597  0.324416  0.968264  1
  Pd  Pd11  1  0.448646  0.651208  0.740436  1
  Pd  Pd12  1  0.551354  0.348792  0.240436  1
  Pd  Pd13  1  0.651208  0.448646  0.759564  1
  Pd  Pd14  1  0.988548  0.331282  0.078626  1
  Pd  Pd15  1  0.011452  0.668718  0.578626  1
  Pd  Pd16  1  0.331282  0.988548  0.421374  1
  Pd  Pd17  1  0.668718  0.011452  0.921374  1
  Pd  Pd18  1  0.998785  0.662179  0.922150  1
  Pd  Pd19  1  0.001215  0.337821  0.422150  1
  Pd  Pd20  1  0.662179  0.998785  0.577850  1
  Pd  Pd21  1  0.877886  0.877886  0.750000  1
  Pd  Pd22  1  0.324416  0.327597  0.531736  1
  Pd  Pd23  1  0.675584  0.672403  0.031736  1
  Pd  Pd24  1  0.337821  0.001215  0.077850  1
  Pd  Pd25  1  0.672403  0.675584  0.468264  1
  Pd  Pd26  1  0.122114  0.122114  0.250000  1
  Pd  Pd27  1  0.348792  0.551354  0.259564  1
