# generated using pymatgen
data_SmCu(NiPt)2
_symmetry_space_group_name_H-M   'P 1'
_cell_length_a   5.11447107
_cell_length_b   5.42363439
_cell_length_c   4.08712400
_cell_angle_alpha   90.00000000
_cell_angle_beta   90.00000000
_cell_angle_gamma   122.02062563
_symmetry_Int_Tables_number   1
_chemical_formula_structural   SmCu(NiPt)2
_chemical_formula_sum   'Sm1 Cu1 Ni2 Pt2'
_cell_volume   96.12396990
_cell_formula_units_Z   1
loop_
 _symmetry_equiv_pos_site_id
 _symmetry_equiv_pos_as_xyz
  1  'x, y, z'
loop_
 _atom_site_type_symbol
 _atom_site_label
 _atom_site_symmetry_multiplicity
 _atom_site_fract_x
 _atom_site_fract_y
 _atom_site_fract_z
 _atom_site_occupancy
  Sm  Sm0  1  0.998592  0.999296  0.000000  1
  Cu  Cu1  1  0.305189  0.652595  0.000000  1
  Ni  Ni2  1  0.692742  0.346370  0.000000  1
  Ni  Ni3  1  0.000246  0.500123  0.500000  1
  Pt  Pt4  1  0.501616  0.001651  0.500000  1
  Pt  Pt5  1  0.501616  0.499965  0.500000  1
