# generated using pymatgen
data_DyThMgZnRh2
_symmetry_space_group_name_H-M   'P 1'
_cell_length_a   3.97909700
_cell_length_b   7.23403003
_cell_length_c   8.65312164
_cell_angle_alpha   92.72194051
_cell_angle_beta   90.00000000
_cell_angle_gamma   90.00000000
_symmetry_Int_Tables_number   1
_chemical_formula_structural   DyThMgZnRh2
_chemical_formula_sum   'Dy2 Th2 Mg2 Zn2 Rh4'
_cell_volume   248.79828281
_cell_formula_units_Z   2
loop_
 _symmetry_equiv_pos_site_id
 _symmetry_equiv_pos_as_xyz
  1  'x, y, z'
loop_
 _atom_site_type_symbol
 _atom_site_label
 _atom_site_symmetry_multiplicity
 _atom_site_fract_x
 _atom_site_fract_y
 _atom_site_fract_z
 _atom_site_occupancy
  Dy  Dy0  1  0.250000  0.050418  0.330632  1
  Dy  Dy1  1  0.750000  0.949582  0.669368  1
  Th  Th2  1  0.250000  0.534737  0.199034  1
  Th  Th3  1  0.750000  0.465263  0.800966  1
  Mg  Mg4  1  0.250000  0.128078  0.936108  1
  Mg  Mg5  1  0.750000  0.871922  0.063892  1
  Zn  Zn6  1  0.250000  0.637682  0.557257  1
  Zn  Zn7  1  0.750000  0.362318  0.442743  1
  Rh  Rh8  1  0.750000  0.744927  0.368287  1
  Rh  Rh9  1  0.250000  0.255073  0.631713  1
  Rh  Rh10  1  0.750000  0.265844  0.130675  1
  Rh  Rh11  1  0.250000  0.734156  0.869325  1
