# generated using pymatgen
data_DyLuSc2(CrB6)2
_symmetry_space_group_name_H-M   'P 1'
_cell_length_a   3.44895200
_cell_length_b   8.98527901
_cell_length_c   11.32766301
_cell_angle_alpha   89.99575726
_cell_angle_beta   90.00000000
_cell_angle_gamma   90.00000000
_symmetry_Int_Tables_number   1
_chemical_formula_structural   DyLuSc2(CrB6)2
_chemical_formula_sum   'Dy2 Lu2 Sc4 Cr4 B24'
_cell_volume   351.04196479
_cell_formula_units_Z   2
loop_
 _symmetry_equiv_pos_site_id
 _symmetry_equiv_pos_as_xyz
  1  'x, y, z'
loop_
 _atom_site_type_symbol
 _atom_site_label
 _atom_site_symmetry_multiplicity
 _atom_site_fract_x
 _atom_site_fract_y
 _atom_site_fract_z
 _atom_site_occupancy
  Dy  Dy0  1  0.000000  0.322721  0.414602  1
  Dy  Dy1  1  0.000000  0.677279  0.585398  1
  Lu  Lu2  1  0.000000  0.823062  0.085284  1
  Lu  Lu3  1  0.000000  0.176938  0.914716  1
  Sc  Sc4  1  0.000000  0.443281  0.130292  1
  Sc  Sc5  1  0.000000  0.556719  0.869708  1
  Sc  Sc6  1  0.000000  0.943146  0.368717  1
  Sc  Sc7  1  0.000000  0.056854  0.631283  1
  Cr  Cr8  1  0.000000  0.141017  0.181079  1
  Cr  Cr9  1  0.000000  0.858983  0.818921  1
  Cr  Cr10  1  0.000000  0.641944  0.317357  1
  Cr  Cr11  1  0.000000  0.358056  0.682643  1
  B  B12  1  0.500000  0.054298  0.066691  1
  B  B13  1  0.500000  0.945702  0.933309  1
  B  B14  1  0.500000  0.554959  0.432035  1
  B  B15  1  0.500000  0.445041  0.567965  1
  B  B16  1  0.500000  0.252608  0.081433  1
  B  B17  1  0.500000  0.747392  0.918567  1
  B  B18  1  0.500000  0.753193  0.416956  1
  B  B19  1  0.500000  0.246807  0.583044  1
  B  B20  1  0.500000  0.294370  0.235101  1
  B  B21  1  0.500000  0.705630  0.764899  1
  B  B22  1  0.500000  0.794937  0.263207  1
  B  B23  1  0.500000  0.205063  0.736793  1
  B  B24  1  0.500000  0.129389  0.316241  1
  B  B25  1  0.500000  0.870611  0.683759  1
  B  B26  1  0.500000  0.630462  0.182502  1
  B  B27  1  0.500000  0.369538  0.817498  1
  B  B28  1  0.500000  0.482902  0.286117  1
  B  B29  1  0.500000  0.517098  0.713883  1
  B  B30  1  0.500000  0.981965  0.212460  1
  B  B31  1  0.500000  0.018035  0.787540  1
  B  B32  1  0.500000  0.095949  0.473962  1
  B  B33  1  0.500000  0.904051  0.526038  1
  B  B34  1  0.500000  0.597202  0.026334  1
  B  B35  1  0.500000  0.402798  0.973666  1
