# generated using pymatgen
data_Ho8CdNi2Ag
_symmetry_space_group_name_H-M   'P 1'
_cell_length_a   9.47416387
_cell_length_b   9.47416399
_cell_length_c   9.45994000
_cell_angle_alpha   60.04965865
_cell_angle_beta   60.04965825
_cell_angle_gamma   60.01592973
_symmetry_Int_Tables_number   1
_chemical_formula_structural   Ho8CdNi2Ag
_chemical_formula_sum   'Ho16 Cd2 Ni4 Ag2'
_cell_volume   600.94271905
_cell_formula_units_Z   2
loop_
 _symmetry_equiv_pos_site_id
 _symmetry_equiv_pos_as_xyz
  1  'x, y, z'
loop_
 _atom_site_type_symbol
 _atom_site_label
 _atom_site_symmetry_multiplicity
 _atom_site_fract_x
 _atom_site_fract_y
 _atom_site_fract_z
 _atom_site_occupancy
  Ho  Ho0  1  0.348710  0.348710  0.348147  1
  Ho  Ho1  1  0.348710  0.348710  0.954431  1
  Ho  Ho2  1  0.350934  0.949667  0.349699  1
  Ho  Ho3  1  0.949667  0.350934  0.349699  1
  Ho  Ho4  1  0.811532  0.188810  0.189540  1
  Ho  Ho5  1  0.188810  0.811532  0.810118  1
  Ho  Ho6  1  0.188810  0.811532  0.189540  1
  Ho  Ho7  1  0.811532  0.188810  0.810118  1
  Ho  Ho8  1  0.189531  0.189531  0.810469  1
  Ho  Ho9  1  0.811515  0.811515  0.188485  1
  Ho  Ho10  1  0.933025  0.563454  0.564789  1
  Ho  Ho11  1  0.563454  0.933025  0.938731  1
  Ho  Ho12  1  0.563454  0.933025  0.564789  1
  Ho  Ho13  1  0.933025  0.563454  0.938731  1
  Ho  Ho14  1  0.563355  0.563355  0.936645  1
  Ho  Ho15  1  0.935893  0.935893  0.564107  1
  Cd  Cd16  1  0.581719  0.258952  0.579665  1
  Cd  Cd17  1  0.258952  0.581719  0.579665  1
  Ni  Ni18  1  0.143019  0.143019  0.143331  1
  Ni  Ni19  1  0.143019  0.143019  0.570631  1
  Ni  Ni20  1  0.142298  0.571975  0.142864  1
  Ni  Ni21  1  0.571975  0.142298  0.142864  1
  Ag  Ag22  1  0.583530  0.583530  0.581744  1
  Ag  Ag23  1  0.583530  0.583530  0.251197  1
