# generated using pymatgen
data_Y4Al4Pd3Rh
_symmetry_space_group_name_H-M   'P 1'
_cell_length_a   4.43831600
_cell_length_b   6.88252938
_cell_length_c   7.80373558
_cell_angle_alpha   89.92725665
_cell_angle_beta   90.00000000
_cell_angle_gamma   90.00000000
_symmetry_Int_Tables_number   1
_chemical_formula_structural   Y4Al4Pd3Rh
_chemical_formula_sum   'Y4 Al4 Pd3 Rh1'
_cell_volume   238.37927213
_cell_formula_units_Z   1
loop_
 _symmetry_equiv_pos_site_id
 _symmetry_equiv_pos_as_xyz
  1  'x, y, z'
loop_
 _atom_site_type_symbol
 _atom_site_label
 _atom_site_symmetry_multiplicity
 _atom_site_fract_x
 _atom_site_fract_y
 _atom_site_fract_z
 _atom_site_occupancy
  Y  Y0  1  0.250000  0.035951  0.322770  1
  Y  Y1  1  0.250000  0.531834  0.180462  1
  Y  Y2  1  0.750000  0.974882  0.679997  1
  Y  Y3  1  0.750000  0.465009  0.816945  1
  Al  Al4  1  0.250000  0.146582  0.935787  1
  Al  Al5  1  0.250000  0.638857  0.562652  1
  Al  Al6  1  0.750000  0.854970  0.061123  1
  Al  Al7  1  0.750000  0.354547  0.440328  1
  Pd  Pd8  1  0.250000  0.774458  0.881147  1
  Pd  Pd9  1  0.750000  0.726735  0.380556  1
  Pd  Pd10  1  0.750000  0.226171  0.120024  1
  Rh  Rh11  1  0.250000  0.270004  0.618209  1
