# generated using pymatgen
data_Tb3Y(ZnSi)4
_symmetry_space_group_name_H-M   'P 1'
_cell_length_a   4.15672600
_cell_length_b   4.15672623
_cell_length_c   15.91223600
_cell_angle_alpha   90.00000000
_cell_angle_beta   90.00000000
_cell_angle_gamma   120.00001409
_symmetry_Int_Tables_number   1
_chemical_formula_structural   Tb3Y(ZnSi)4
_chemical_formula_sum   'Tb3 Y1 Zn4 Si4'
_cell_volume   238.10285408
_cell_formula_units_Z   1
loop_
 _symmetry_equiv_pos_site_id
 _symmetry_equiv_pos_as_xyz
  1  'x, y, z'
loop_
 _atom_site_type_symbol
 _atom_site_label
 _atom_site_symmetry_multiplicity
 _atom_site_fract_x
 _atom_site_fract_y
 _atom_site_fract_z
 _atom_site_occupancy
  Tb  Tb0  1  0.000000  0.000000  0.750000  1
  Tb  Tb1  1  0.000000  0.000000  0.498615  1
  Tb  Tb2  1  0.000000  0.000000  0.001385  1
  Y  Y3  1  0.000000  0.000000  0.250000  1
  Zn  Zn4  1  0.666667  0.333333  0.864305  1
  Zn  Zn5  1  0.666667  0.333333  0.635695  1
  Zn  Zn6  1  0.333333  0.666667  0.138507  1
  Zn  Zn7  1  0.333333  0.666667  0.361493  1
  Si  Si8  1  0.666667  0.333333  0.119226  1
  Si  Si9  1  0.666667  0.333333  0.380774  1
  Si  Si10  1  0.333333  0.666667  0.882095  1
  Si  Si11  1  0.333333  0.666667  0.617905  1
