# generated using pymatgen
data_Ce2HoCd3Ru2
_symmetry_space_group_name_H-M   'P 1'
_cell_length_a   8.20465478
_cell_length_b   8.20465342
_cell_length_c   4.94208999
_cell_angle_alpha   83.16906022
_cell_angle_beta   83.16905955
_cell_angle_gamma   34.89895181
_symmetry_Int_Tables_number   1
_chemical_formula_structural   Ce2HoCd3Ru2
_chemical_formula_sum   'Ce2 Ho1 Cd3 Ru2'
_cell_volume   188.85332097
_cell_formula_units_Z   1
loop_
 _symmetry_equiv_pos_site_id
 _symmetry_equiv_pos_as_xyz
  1  'x, y, z'
loop_
 _atom_site_type_symbol
 _atom_site_label
 _atom_site_symmetry_multiplicity
 _atom_site_fract_x
 _atom_site_fract_y
 _atom_site_fract_z
 _atom_site_occupancy
  Ce  Ce0  1  0.826809  0.826809  0.575087  1
  Ce  Ce1  1  0.173191  0.173191  0.424913  1
  Ho  Ho2  1  0.000000  0.000000  0.000000  1
  Cd  Cd3  1  0.377196  0.377196  0.043973  1
  Cd  Cd4  1  0.500000  0.500000  0.500000  1
  Cd  Cd5  1  0.622804  0.622804  0.956027  1
  Ru  Ru6  1  0.791969  0.791969  0.121568  1
  Ru  Ru7  1  0.208031  0.208031  0.878432  1
