# generated using pymatgen
data_V12Zn5Ga3N4
_symmetry_space_group_name_H-M   'P 1'
_cell_length_a   6.59025517
_cell_length_b   6.59025517
_cell_length_c   6.59025517
_cell_angle_alpha   89.98165416
_cell_angle_beta   89.98165416
_cell_angle_gamma   89.98165416
_symmetry_Int_Tables_number   1
_chemical_formula_structural   V12Zn5Ga3N4
_chemical_formula_sum   'V12 Zn5 Ga3 N4'
_cell_volume   286.22438078
_cell_formula_units_Z   1
loop_
 _symmetry_equiv_pos_site_id
 _symmetry_equiv_pos_as_xyz
  1  'x, y, z'
loop_
 _atom_site_type_symbol
 _atom_site_label
 _atom_site_symmetry_multiplicity
 _atom_site_fract_x
 _atom_site_fract_y
 _atom_site_fract_z
 _atom_site_occupancy
  V  V0  1  0.790125  0.961539  0.374023  1
  V  V1  1  0.710146  0.039805  0.875961  1
  V  V2  1  0.210218  0.461274  0.124519  1
  V  V3  1  0.289063  0.538909  0.624616  1
  V  V4  1  0.961539  0.374023  0.790125  1
  V  V5  1  0.039805  0.875961  0.710146  1
  V  V6  1  0.461274  0.124519  0.210218  1
  V  V7  1  0.538909  0.624616  0.289063  1
  V  V8  1  0.374023  0.790125  0.961539  1
  V  V9  1  0.875961  0.710146  0.039805  1
  V  V10  1  0.124519  0.210218  0.461274  1
  V  V11  1  0.624616  0.289063  0.538909  1
  Zn  Zn12  1  0.678246  0.678246  0.678246  1
  Zn  Zn13  1  0.571667  0.432310  0.926006  1
  Zn  Zn14  1  0.432310  0.926006  0.571667  1
  Zn  Zn15  1  0.926006  0.571667  0.432310  1
  Zn  Zn16  1  0.070586  0.070586  0.070586  1
  Ga  Ga17  1  0.177355  0.822260  0.323482  1
  Ga  Ga18  1  0.323482  0.177355  0.822260  1
  Ga  Ga19  1  0.822260  0.323482  0.177355  1
  N  N20  1  0.873108  0.124840  0.625732  1
  N  N21  1  0.625732  0.873108  0.124840  1
  N  N22  1  0.124840  0.625732  0.873108  1
  N  N23  1  0.374211  0.374211  0.374211  1
