# generated using pymatgen
data_SrSm6RuI12
_symmetry_space_group_name_H-M   'P 1'
_cell_length_a   9.97374390
_cell_length_b   9.97374393
_cell_length_c   9.97374325
_cell_angle_alpha   106.45382557
_cell_angle_beta   106.45382704
_cell_angle_gamma   106.45382537
_symmetry_Int_Tables_number   1
_chemical_formula_structural   SrSm6RuI12
_chemical_formula_sum   'Sr1 Sm6 Ru1 I12'
_cell_volume   838.27280274
_cell_formula_units_Z   1
loop_
 _symmetry_equiv_pos_site_id
 _symmetry_equiv_pos_as_xyz
  1  'x, y, z'
loop_
 _atom_site_type_symbol
 _atom_site_label
 _atom_site_symmetry_multiplicity
 _atom_site_fract_x
 _atom_site_fract_y
 _atom_site_fract_z
 _atom_site_occupancy
  Sr  Sr0  1  0.500000  0.500000  0.500000  1
  Sm  Sm1  1  0.905666  0.702598  0.979685  1
  Sm  Sm2  1  0.979685  0.905666  0.702598  1
  Sm  Sm3  1  0.702598  0.979685  0.905666  1
  Sm  Sm4  1  0.094334  0.297402  0.020315  1
  Sm  Sm5  1  0.020315  0.094334  0.297402  1
  Sm  Sm6  1  0.297402  0.020315  0.094334  1
  Ru  Ru7  1  0.000000  0.000000  0.000000  1
  I  I8  1  0.630120  0.861036  0.550201  1
  I  I9  1  0.550201  0.630120  0.861036  1
  I  I10  1  0.861036  0.550201  0.630120  1
  I  I11  1  0.369880  0.138964  0.449799  1
  I  I12  1  0.449799  0.369880  0.138964  1
  I  I13  1  0.138964  0.449799  0.369880  1
  I  I14  1  0.679198  0.074175  0.223997  1
  I  I15  1  0.223997  0.679198  0.074175  1
  I  I16  1  0.074175  0.223997  0.679198  1
  I  I17  1  0.320802  0.925825  0.776003  1
  I  I18  1  0.776003  0.320802  0.925825  1
  I  I19  1  0.925825  0.776003  0.320802  1
