# generated using pymatgen
data_Ca6OsRhO12
_symmetry_space_group_name_H-M   'P 1'
_cell_length_a   5.87925075
_cell_length_b   5.57428020
_cell_length_c   9.80896070
_cell_angle_alpha   55.10770762
_cell_angle_beta   90.83150967
_cell_angle_gamma   90.10621385
_symmetry_Int_Tables_number   1
_chemical_formula_structural   Ca6OsRhO12
_chemical_formula_sum   'Ca6 Os1 Rh1 O12'
_cell_volume   263.63899596
_cell_formula_units_Z   1
loop_
 _symmetry_equiv_pos_site_id
 _symmetry_equiv_pos_as_xyz
  1  'x, y, z'
loop_
 _atom_site_type_symbol
 _atom_site_label
 _atom_site_symmetry_multiplicity
 _atom_site_fract_x
 _atom_site_fract_y
 _atom_site_fract_z
 _atom_site_occupancy
  Ca  Ca0  1  0.054105  0.711798  0.773778  1
  Ca  Ca1  1  0.945895  0.288202  0.226222  1
  Ca  Ca2  1  0.568492  0.257692  0.763039  1
  Ca  Ca3  1  0.431508  0.742308  0.236961  1
  Ca  Ca4  1  0.500000  0.500000  0.000000  1
  Ca  Ca5  1  0.000000  0.500000  0.500000  1
  Os  Os6  1  0.500000  0.000000  0.500000  1
  Rh  Rh7  1  0.000000  0.000000  0.000000  1
  O  O8  1  0.452747  0.893017  0.720390  1
  O  O9  1  0.547253  0.106983  0.279610  1
  O  O10  1  0.943846  0.114881  0.767465  1
  O  O11  1  0.056154  0.885119  0.232535  1
  O  O12  1  0.771886  0.765577  0.571656  1
  O  O13  1  0.228114  0.234423  0.428344  1
  O  O14  1  0.279112  0.245852  0.930156  1
  O  O15  1  0.720888  0.754148  0.069844  1
  O  O16  1  0.328860  0.668489  0.551920  1
  O  O17  1  0.671140  0.331511  0.448080  1
  O  O18  1  0.812586  0.339765  0.948770  1
  O  O19  1  0.187414  0.660235  0.051230  1
