# generated using pymatgen
data_Ti7MnP4
_symmetry_space_group_name_H-M   'P 1'
_cell_length_a   6.40448217
_cell_length_b   3.41970800
_cell_length_c   7.79400211
_cell_angle_alpha   90.00000000
_cell_angle_beta   90.13101831
_cell_angle_gamma   90.00000000
_symmetry_Int_Tables_number   1
_chemical_formula_structural   Ti7MnP4
_chemical_formula_sum   'Ti7 Mn1 P4'
_cell_volume   170.69957077
_cell_formula_units_Z   1
loop_
 _symmetry_equiv_pos_site_id
 _symmetry_equiv_pos_as_xyz
  1  'x, y, z'
loop_
 _atom_site_type_symbol
 _atom_site_label
 _atom_site_symmetry_multiplicity
 _atom_site_fract_x
 _atom_site_fract_y
 _atom_site_fract_z
 _atom_site_occupancy
  Ti  Ti0  1  0.456070  0.749999  0.165946  1
  Ti  Ti1  1  0.963113  0.749999  0.326599  1
  Ti  Ti2  1  0.634839  0.250001  0.435587  1
  Ti  Ti3  1  0.354380  0.749999  0.561692  1
  Ti  Ti4  1  0.040129  0.250001  0.676328  1
  Ti  Ti5  1  0.535943  0.250001  0.834589  1
  Ti  Ti6  1  0.870483  0.749999  0.940511  1
  Mn  Mn7  1  0.139798  0.250001  0.058318  1
  P  P8  1  0.759936  0.250001  0.139123  1
  P  P9  1  0.251036  0.250001  0.350017  1
  P  P10  1  0.746249  0.749999  0.638969  1
  P  P11  1  0.248023  0.749999  0.872325  1
