# generated using pymatgen
data_Tb5Y3Ti9Si16W3
_symmetry_space_group_name_H-M   'P 1'
_cell_length_a   7.01258781
_cell_length_b   7.01186130
_cell_length_c   12.90750502
_cell_angle_alpha   90.02863610
_cell_angle_beta   89.97902871
_cell_angle_gamma   89.92189577
_symmetry_Int_Tables_number   1
_chemical_formula_structural   Tb5Y3Ti9Si16W3
_chemical_formula_sum   'Tb5 Y3 Ti9 Si16 W3'
_cell_volume   634.67800022
_cell_formula_units_Z   1
loop_
 _symmetry_equiv_pos_site_id
 _symmetry_equiv_pos_as_xyz
  1  'x, y, z'
loop_
 _atom_site_type_symbol
 _atom_site_label
 _atom_site_symmetry_multiplicity
 _atom_site_fract_x
 _atom_site_fract_y
 _atom_site_fract_z
 _atom_site_occupancy
  Tb  Tb0  1  0.840897  0.498338  0.281794  1
  Tb  Tb1  1  0.159347  0.500816  0.783146  1
  Tb  Tb2  1  0.660125  0.999092  0.967160  1
  Tb  Tb3  1  0.002173  0.339784  0.533274  1
  Tb  Tb4  1  0.999113  0.660078  0.032847  1
  Y  Y5  1  0.339903  0.002019  0.466742  1
  Y  Y6  1  0.498413  0.841028  0.718124  1
  Y  Y7  1  0.500509  0.159293  0.216758  1
  Ti  Ti8  1  0.672994  0.672835  0.500000  1
  Ti  Ti9  1  0.153528  0.009261  0.876542  1
  Ti  Ti10  1  0.490373  0.653727  0.125745  1
  Ti  Ti11  1  0.508339  0.345378  0.627806  1
  Ti  Ti12  1  0.653774  0.490247  0.874255  1
  Ti  Ti13  1  0.345302  0.508626  0.372241  1
  Ti  Ti14  1  0.847734  0.991543  0.375307  1
  Ti  Ti15  1  0.009527  0.153578  0.123493  1
  Ti  Ti16  1  0.991321  0.847614  0.624809  1
  Si  Si17  1  0.200562  0.128917  0.685001  1
  Si  Si18  1  0.370687  0.699638  0.935111  1
  Si  Si19  1  0.629328  0.298074  0.435082  1
  Si  Si20  1  0.699422  0.370645  0.065050  1
  Si  Si21  1  0.298309  0.629750  0.565017  1
  Si  Si22  1  0.799816  0.870989  0.185397  1
  Si  Si23  1  0.129354  0.200221  0.314900  1
  Si  Si24  1  0.870705  0.799980  0.814469  1
  Si  Si25  1  0.291622  0.953735  0.065258  1
  Si  Si26  1  0.545523  0.791111  0.314832  1
  Si  Si27  1  0.453315  0.208652  0.815554  1
  Si  Si28  1  0.790718  0.545817  0.685028  1
  Si  Si29  1  0.209094  0.453205  0.184296  1
  Si  Si30  1  0.708261  0.047799  0.566220  1
  Si  Si31  1  0.953623  0.291519  0.934879  1
  Si  Si32  1  0.048086  0.708563  0.433841  1
  W  W33  1  0.327057  0.327021  0.000047  1
  W  W34  1  0.173996  0.827115  0.249268  1
  W  W35  1  0.827146  0.173990  0.750706  1
