# generated using pymatgen
data_Ta4Mn5VGa2
_symmetry_space_group_name_H-M   'P 1'
_cell_length_a   4.86291640
_cell_length_b   4.92497083
_cell_length_c   8.12516700
_cell_angle_alpha   90.00000000
_cell_angle_beta   90.00000000
_cell_angle_gamma   120.42304454
_symmetry_Int_Tables_number   1
_chemical_formula_structural   Ta4Mn5VGa2
_chemical_formula_sum   'Ta4 Mn5 V1 Ga2'
_cell_volume   167.80164721
_cell_formula_units_Z   1
loop_
 _symmetry_equiv_pos_site_id
 _symmetry_equiv_pos_as_xyz
  1  'x, y, z'
loop_
 _atom_site_type_symbol
 _atom_site_label
 _atom_site_symmetry_multiplicity
 _atom_site_fract_x
 _atom_site_fract_y
 _atom_site_fract_z
 _atom_site_occupancy
  Ta  Ta0  1  0.331322  0.665661  0.431817  1
  Ta  Ta1  1  0.667250  0.333624  0.564876  1
  Ta  Ta2  1  0.667250  0.333624  0.935124  1
  Ta  Ta3  1  0.331322  0.665661  0.068183  1
  Mn  Mn4  1  0.823448  0.170084  0.250000  1
  Mn  Mn5  1  0.823448  0.653365  0.250000  1
  Mn  Mn6  1  0.355167  0.177584  0.250000  1
  Mn  Mn7  1  0.172208  0.827245  0.750000  1
  Mn  Mn8  1  0.172208  0.344963  0.750000  1
  V  V9  1  0.646057  0.823028  0.750000  1
  Ga  Ga10  1  0.005159  0.002580  0.497012  1
  Ga  Ga11  1  0.005159  0.002580  0.002988  1
