# generated using pymatgen
data_NaCo2(NiAs)3
_symmetry_space_group_name_H-M   'P 1'
_cell_length_a   3.73514500
_cell_length_b   10.73458600
_cell_length_c   12.26029000
_cell_angle_alpha   90.00000000
_cell_angle_beta   90.00000000
_cell_angle_gamma   90.00000000
_symmetry_Int_Tables_number   1
_chemical_formula_structural   NaCo2(NiAs)3
_chemical_formula_sum   'Na4 Co8 Ni12 As12'
_cell_volume   491.57921148
_cell_formula_units_Z   4
loop_
 _symmetry_equiv_pos_site_id
 _symmetry_equiv_pos_as_xyz
  1  'x, y, z'
loop_
 _atom_site_type_symbol
 _atom_site_label
 _atom_site_symmetry_multiplicity
 _atom_site_fract_x
 _atom_site_fract_y
 _atom_site_fract_z
 _atom_site_occupancy
  Na  Na0  1  0.250000  0.580962  0.704408  1
  Na  Na1  1  0.250000  0.919038  0.204408  1
  Na  Na2  1  0.750000  0.419038  0.295592  1
  Na  Na3  1  0.750000  0.080962  0.795592  1
  Co  Co4  1  0.250000  0.877953  0.695782  1
  Co  Co5  1  0.250000  0.622047  0.195782  1
  Co  Co6  1  0.750000  0.122047  0.304218  1
  Co  Co7  1  0.750000  0.377953  0.804218  1
  Co  Co8  1  0.250000  0.464469  0.933707  1
  Co  Co9  1  0.250000  0.035531  0.433707  1
  Co  Co10  1  0.750000  0.535531  0.066293  1
  Co  Co11  1  0.750000  0.964469  0.566293  1
  Ni  Ni12  1  0.250000  0.707926  0.987271  1
  Ni  Ni13  1  0.250000  0.792074  0.487271  1
  Ni  Ni14  1  0.750000  0.292074  0.012729  1
  Ni  Ni15  1  0.750000  0.207926  0.512729  1
  Ni  Ni16  1  0.250000  0.407298  0.487281  1
  Ni  Ni17  1  0.250000  0.092702  0.987281  1
  Ni  Ni18  1  0.750000  0.592702  0.512719  1
  Ni  Ni19  1  0.750000  0.907298  0.012719  1
  Ni  Ni20  1  0.250000  0.215593  0.175641  1
  Ni  Ni21  1  0.250000  0.284407  0.675641  1
  Ni  Ni22  1  0.750000  0.784407  0.824359  1
  Ni  Ni23  1  0.750000  0.715593  0.324359  1
  As  As24  1  0.250000  0.420912  0.117010  1
  As  As25  1  0.250000  0.079088  0.617010  1
  As  As26  1  0.750000  0.579088  0.882990  1
  As  As27  1  0.750000  0.920912  0.382990  1
  As  As28  1  0.250000  0.265262  0.868485  1
  As  As29  1  0.250000  0.234738  0.368485  1
  As  As30  1  0.750000  0.734738  0.131515  1
  As  As31  1  0.750000  0.765262  0.631515  1
  As  As32  1  0.250000  0.598247  0.387782  1
  As  As33  1  0.250000  0.901753  0.887782  1
  As  As34  1  0.750000  0.401753  0.612218  1
  As  As35  1  0.750000  0.098247  0.112218  1
