# generated using pymatgen
data_Dy5VSbO12
_symmetry_space_group_name_H-M   'P 1'
_cell_length_a   6.85276996
_cell_length_b   6.85277052
_cell_length_c   7.30792241
_cell_angle_alpha   74.44690099
_cell_angle_beta   74.44689877
_cell_angle_gamma   51.33375402
_symmetry_Int_Tables_number   1
_chemical_formula_structural   Dy5VSbO12
_chemical_formula_sum   'Dy5 V1 Sb1 O12'
_cell_volume   255.82577270
_cell_formula_units_Z   1
loop_
 _symmetry_equiv_pos_site_id
 _symmetry_equiv_pos_as_xyz
  1  'x, y, z'
loop_
 _atom_site_type_symbol
 _atom_site_label
 _atom_site_symmetry_multiplicity
 _atom_site_fract_x
 _atom_site_fract_y
 _atom_site_fract_z
 _atom_site_occupancy
  Dy  Dy0  1  0.307312  0.295600  0.362031  1
  Dy  Dy1  1  0.704400  0.692688  0.637969  1
  Dy  Dy2  1  0.308057  0.305672  0.828822  1
  Dy  Dy3  1  0.694328  0.691943  0.171178  1
  Dy  Dy4  1  0.002013  0.997987  0.500000  1
  V  V5  1  0.749834  0.250166  0.000000  1
  Sb  Sb6  1  0.238070  0.761930  0.000000  1
  O  O7  1  0.895770  0.421782  0.919310  1
  O  O8  1  0.432212  0.901915  0.916678  1
  O  O9  1  0.098085  0.567788  0.083322  1
  O  O10  1  0.578218  0.104230  0.080690  1
  O  O11  1  0.100351  0.591447  0.575629  1
  O  O12  1  0.601011  0.092723  0.574731  1
  O  O13  1  0.907277  0.398989  0.425269  1
  O  O14  1  0.408553  0.899649  0.424371  1
  O  O15  1  0.994109  0.006680  0.813761  1
  O  O16  1  0.993320  0.005891  0.186239  1
  O  O17  1  0.493108  0.506023  0.812664  1
  O  O18  1  0.493977  0.506892  0.187336  1
