# generated using pymatgen
data_Zr10In5Ga2Sb
_symmetry_space_group_name_H-M   'P 1'
_cell_length_a   8.79190300
_cell_length_b   8.77080068
_cell_length_c   5.90927000
_cell_angle_alpha   90.00000000
_cell_angle_beta   90.00000000
_cell_angle_gamma   120.07961716
_symmetry_Int_Tables_number   1
_chemical_formula_structural   Zr10In5Ga2Sb
_chemical_formula_sum   'Zr10 In5 Ga2 Sb1'
_cell_volume   394.30983727
_cell_formula_units_Z   1
loop_
 _symmetry_equiv_pos_site_id
 _symmetry_equiv_pos_as_xyz
  1  'x, y, z'
loop_
 _atom_site_type_symbol
 _atom_site_label
 _atom_site_symmetry_multiplicity
 _atom_site_fract_x
 _atom_site_fract_y
 _atom_site_fract_z
 _atom_site_occupancy
  Zr  Zr0  1  0.995079  0.260609  0.250000  1
  Zr  Zr1  1  0.735368  0.000000  0.750000  1
  Zr  Zr2  1  0.734470  0.739391  0.250000  1
  Zr  Zr3  1  0.666521  0.331760  0.500130  1
  Zr  Zr4  1  0.999874  0.733983  0.750000  1
  Zr  Zr5  1  0.265891  0.266017  0.750000  1
  Zr  Zr6  1  0.334760  0.668240  0.999870  1
  Zr  Zr7  1  0.666521  0.331760  0.999870  1
  Zr  Zr8  1  0.334760  0.668240  0.500130  1
  Zr  Zr9  1  0.267521  0.000000  0.250000  1
  In  In10  1  0.383099  0.000000  0.750000  1
  In  In11  1  0.384572  0.386401  0.250000  1
  In  In12  1  0.998171  0.613599  0.250000  1
  In  In13  1  0.001543  0.386867  0.750000  1
  In  In14  1  0.614675  0.613133  0.750000  1
  Ga  Ga15  1  0.003036  0.000000  0.998395  1
  Ga  Ga16  1  0.003036  0.000000  0.501605  1
  Sb  Sb17  1  0.611099  0.000000  0.250000  1
