# generated using pymatgen
data_Y3ErTm4(ReB6)4
_symmetry_space_group_name_H-M   'P 1'
_cell_length_a   3.65741300
_cell_length_b   9.13200100
_cell_length_c   11.51634000
_cell_angle_alpha   89.99792993
_cell_angle_beta   90.00000000
_cell_angle_gamma   90.00000000
_symmetry_Int_Tables_number   1
_chemical_formula_structural   Y3ErTm4(ReB6)4
_chemical_formula_sum   'Y3 Er1 Tm4 Re4 B24'
_cell_volume   384.63998819
_cell_formula_units_Z   1
loop_
 _symmetry_equiv_pos_site_id
 _symmetry_equiv_pos_as_xyz
  1  'x, y, z'
loop_
 _atom_site_type_symbol
 _atom_site_label
 _atom_site_symmetry_multiplicity
 _atom_site_fract_x
 _atom_site_fract_y
 _atom_site_fract_z
 _atom_site_occupancy
  Y  Y0  1  0.000000  0.323214  0.413870  1
  Y  Y1  1  0.000000  0.676747  0.586162  1
  Y  Y2  1  0.000000  0.823278  0.086096  1
  Er  Er3  1  0.000000  0.176517  0.913857  1
  Tm  Tm4  1  0.000000  0.943538  0.370187  1
  Tm  Tm5  1  0.000000  0.056558  0.629862  1
  Tm  Tm6  1  0.000000  0.443392  0.129624  1
  Tm  Tm7  1  0.000000  0.556410  0.870292  1
  Re  Re8  1  0.000000  0.639261  0.320326  1
  Re  Re9  1  0.000000  0.360558  0.679936  1
  Re  Re10  1  0.000000  0.139272  0.179299  1
  Re  Re11  1  0.000000  0.861137  0.820483  1
  B  B12  1  0.500000  0.553598  0.432709  1
  B  B13  1  0.500000  0.446330  0.567366  1
  B  B14  1  0.500000  0.053833  0.066877  1
  B  B15  1  0.500000  0.946901  0.932734  1
  B  B16  1  0.500000  0.750323  0.418552  1
  B  B17  1  0.500000  0.249688  0.581578  1
  B  B18  1  0.500000  0.250186  0.080883  1
  B  B19  1  0.500000  0.749817  0.918532  1
  B  B20  1  0.500000  0.792898  0.265660  1
  B  B21  1  0.500000  0.206948  0.734757  1
  B  B22  1  0.500000  0.292844  0.234172  1
  B  B23  1  0.500000  0.707163  0.765736  1
  B  B24  1  0.500000  0.630476  0.185265  1
  B  B25  1  0.500000  0.369074  0.815052  1
  B  B26  1  0.500000  0.130526  0.314629  1
  B  B27  1  0.500000  0.869604  0.685400  1
  B  B28  1  0.500000  0.982306  0.212387  1
  B  B29  1  0.500000  0.018283  0.787809  1
  B  B30  1  0.500000  0.482183  0.287449  1
  B  B31  1  0.500000  0.517681  0.712588  1
  B  B32  1  0.500000  0.598902  0.027586  1
  B  B33  1  0.500000  0.400512  0.972236  1
  B  B34  1  0.500000  0.098910  0.472425  1
  B  B35  1  0.500000  0.901131  0.527621  1
