# generated using pymatgen
data_CePr2Dy(B2Ir5)2
_symmetry_space_group_name_H-M   'P 1'
_cell_length_a   11.11017937
_cell_length_b   11.11017906
_cell_length_c   11.11017972
_cell_angle_alpha   28.81458362
_cell_angle_beta   28.81458626
_cell_angle_gamma   28.81458273
_symmetry_Int_Tables_number   1
_chemical_formula_structural   CePr2Dy(B2Ir5)2
_chemical_formula_sum   'Ce1 Pr2 Dy1 B4 Ir10'
_cell_volume   281.70408774
_cell_formula_units_Z   1
loop_
 _symmetry_equiv_pos_site_id
 _symmetry_equiv_pos_as_xyz
  1  'x, y, z'
loop_
 _atom_site_type_symbol
 _atom_site_label
 _atom_site_symmetry_multiplicity
 _atom_site_fract_x
 _atom_site_fract_y
 _atom_site_fract_z
 _atom_site_occupancy
  Ce  Ce0  1  0.050812  0.050812  0.050812  1
  Pr  Pr1  1  0.950184  0.950184  0.950184  1
  Pr  Pr2  1  0.848139  0.848139  0.848139  1
  Dy  Dy3  1  0.153017  0.153017  0.153017  1
  B  B4  1  0.617668  0.617668  0.617668  1
  B  B5  1  0.716520  0.716520  0.716520  1
  B  B6  1  0.381743  0.381743  0.381743  1
  B  B7  1  0.283410  0.283410  0.283410  1
  Ir  Ir8  1  0.407195  0.898767  0.407195  1
  Ir  Ir9  1  0.898767  0.407195  0.407195  1
  Ir  Ir10  1  0.500342  0.500342  0.000037  1
  Ir  Ir11  1  0.500342  0.000037  0.500342  1
  Ir  Ir12  1  0.000037  0.500342  0.500342  1
  Ir  Ir13  1  0.499473  0.499473  0.499473  1
  Ir  Ir14  1  0.591373  0.102408  0.591373  1
  Ir  Ir15  1  0.591373  0.591373  0.102408  1
  Ir  Ir16  1  0.102408  0.591373  0.591373  1
  Ir  Ir17  1  0.407195  0.407195  0.898767  1
