# generated using pymatgen
data_TaTi7Si2(B2Mo)2
_symmetry_space_group_name_H-M   'P 1'
_cell_length_a   7.17967039
_cell_length_b   7.19410585
_cell_length_c   7.19512434
_cell_angle_alpha   129.80858755
_cell_angle_beta   129.75482737
_cell_angle_gamma   73.66844144
_symmetry_Int_Tables_number   1
_chemical_formula_structural   TaTi7Si2(B2Mo)2
_chemical_formula_sum   'Ta1 Ti7 Si2 B4 Mo2'
_cell_volume   214.24310008
_cell_formula_units_Z   1
loop_
 _symmetry_equiv_pos_site_id
 _symmetry_equiv_pos_as_xyz
  1  'x, y, z'
loop_
 _atom_site_type_symbol
 _atom_site_label
 _atom_site_symmetry_multiplicity
 _atom_site_fract_x
 _atom_site_fract_y
 _atom_site_fract_z
 _atom_site_occupancy
  Ta  Ta0  1  0.459936  0.308127  0.500000  1
  Ti  Ti1  1  0.807352  0.956612  0.500000  1
  Ti  Ti2  1  0.308428  0.807903  0.852178  1
  Ti  Ti3  1  0.192370  0.042933  0.500000  1
  Ti  Ti4  1  0.543574  0.691917  0.500000  1
  Ti  Ti5  1  0.040131  0.542389  0.847854  1
  Ti  Ti6  1  0.692278  0.194536  0.152146  1
  Ti  Ti7  1  0.956249  0.455724  0.147822  1
  Si  Si8  1  0.752018  0.753100  0.002761  1
  Si  Si9  1  0.249257  0.250339  0.997239  1
  B  B10  1  0.390229  0.888968  0.281002  1
  B  B11  1  0.892104  0.608911  0.500000  1
  B  B12  1  0.609226  0.107966  0.718998  1
  B  B13  1  0.109202  0.391511  0.500000  1
  Mo  Mo14  1  0.997786  0.998494  0.997925  1
  Mo  Mo15  1  0.499862  0.500570  0.002075  1
