# generated using pymatgen
data_Dy4Sn3As3Rh7
_symmetry_space_group_name_H-M   'P 1'
_cell_length_a   7.42304485
_cell_length_b   7.42304484
_cell_length_c   7.49623600
_cell_angle_alpha   109.67108475
_cell_angle_beta   109.67108473
_cell_angle_gamma   109.27061921
_symmetry_Int_Tables_number   1
_chemical_formula_structural   Dy4Sn3As3Rh7
_chemical_formula_sum   'Dy4 Sn3 As3 Rh7'
_cell_volume   317.18186709
_cell_formula_units_Z   1
loop_
 _symmetry_equiv_pos_site_id
 _symmetry_equiv_pos_as_xyz
  1  'x, y, z'
loop_
 _atom_site_type_symbol
 _atom_site_label
 _atom_site_symmetry_multiplicity
 _atom_site_fract_x
 _atom_site_fract_y
 _atom_site_fract_z
 _atom_site_occupancy
  Dy  Dy0  1  0.000000  0.000000  0.449478  1
  Dy  Dy1  1  0.000000  0.523392  0.010309  1
  Dy  Dy2  1  0.523392  0.000000  0.010309  1
  Dy  Dy3  1  0.476608  0.476608  0.486918  1
  Sn  Sn4  1  0.291581  0.291581  0.982528  1
  Sn  Sn5  1  0.708419  0.000000  0.690946  1
  Sn  Sn6  1  0.000000  0.708419  0.690946  1
  As  As7  1  0.658446  0.658446  0.989511  1
  As  As8  1  0.341554  0.000000  0.331065  1
  As  As9  1  0.000000  0.341554  0.331065  1
  Rh  Rh10  1  0.754030  0.254838  0.500020  1
  Rh  Rh11  1  0.745162  0.499192  0.245182  1
  Rh  Rh12  1  0.500808  0.245970  0.745990  1
  Rh  Rh13  1  0.245970  0.500808  0.745990  1
  Rh  Rh14  1  0.254838  0.754030  0.500020  1
  Rh  Rh15  1  0.499192  0.745162  0.245182  1
  Rh  Rh16  1  0.000000  0.000000  0.044540  1
