# generated using pymatgen
data_CaYbHoGa8Ag3
_symmetry_space_group_name_H-M   'P 1'
_cell_length_a   4.38229582
_cell_length_b   8.37224955
_cell_length_c   8.37224965
_cell_angle_alpha   70.90371146
_cell_angle_beta   74.82811521
_cell_angle_gamma   74.82812289
_symmetry_Int_Tables_number   1
_chemical_formula_structural   CaYbHoGa8Ag3
_chemical_formula_sum   'Ca1 Yb1 Ho1 Ga8 Ag3'
_cell_volume   274.88236637
_cell_formula_units_Z   1
loop_
 _symmetry_equiv_pos_site_id
 _symmetry_equiv_pos_as_xyz
  1  'x, y, z'
loop_
 _atom_site_type_symbol
 _atom_site_label
 _atom_site_symmetry_multiplicity
 _atom_site_fract_x
 _atom_site_fract_y
 _atom_site_fract_z
 _atom_site_occupancy
  Ca  Ca0  1  0.499618  0.500382  0.500382  1
  Yb  Yb1  1  0.200299  0.799701  0.799701  1
  Ho  Ho2  1  0.796737  0.203263  0.203263  1
  Ga  Ga3  1  0.357864  0.360978  0.923293  1
  Ga  Ga4  1  0.644628  0.635839  0.074905  1
  Ga  Ga5  1  0.357864  0.923293  0.360978  1
  Ga  Ga6  1  0.644628  0.074905  0.635839  1
  Ga  Ga7  1  0.159983  0.471481  0.208552  1
  Ga  Ga8  1  0.838489  0.528228  0.794796  1
  Ga  Ga9  1  0.159983  0.208552  0.471481  1
  Ga  Ga10  1  0.838489  0.794796  0.528228  1
  Ag  Ag11  1  0.500123  0.999877  0.999877  1
  Ag  Ag12  1  0.000648  0.807593  0.191113  1
  Ag  Ag13  1  0.000648  0.191113  0.807593  1
