# generated using pymatgen
data_HoTmCo9CuP6
_symmetry_space_group_name_H-M   'P 1'
_cell_length_a   3.65747100
_cell_length_b   10.22797600
_cell_length_c   11.77593500
_cell_angle_alpha   90.00000000
_cell_angle_beta   90.00000000
_cell_angle_gamma   90.00000000
_symmetry_Int_Tables_number   1
_chemical_formula_structural   HoTmCo9CuP6
_chemical_formula_sum   'Ho2 Tm2 Co18 Cu2 P12'
_cell_volume   440.52036601
_cell_formula_units_Z   2
loop_
 _symmetry_equiv_pos_site_id
 _symmetry_equiv_pos_as_xyz
  1  'x, y, z'
loop_
 _atom_site_type_symbol
 _atom_site_label
 _atom_site_symmetry_multiplicity
 _atom_site_fract_x
 _atom_site_fract_y
 _atom_site_fract_z
 _atom_site_occupancy
  Ho  Ho0  1  0.750000  0.418521  0.296812  1
  Ho  Ho1  1  0.750000  0.081479  0.796812  1
  Tm  Tm2  1  0.250000  0.579154  0.701847  1
  Tm  Tm3  1  0.250000  0.920846  0.201847  1
  Co  Co4  1  0.750000  0.286907  0.008632  1
  Co  Co5  1  0.750000  0.213093  0.508632  1
  Co  Co6  1  0.250000  0.405252  0.487035  1
  Co  Co7  1  0.250000  0.094748  0.987035  1
  Co  Co8  1  0.750000  0.592227  0.516094  1
  Co  Co9  1  0.750000  0.907773  0.016094  1
  Co  Co10  1  0.250000  0.222687  0.175279  1
  Co  Co11  1  0.250000  0.277313  0.675279  1
  Co  Co12  1  0.750000  0.777743  0.825956  1
  Co  Co13  1  0.750000  0.722257  0.325956  1
  Co  Co14  1  0.250000  0.881521  0.698733  1
  Co  Co15  1  0.250000  0.618479  0.198733  1
  Co  Co16  1  0.750000  0.119726  0.299708  1
  Co  Co17  1  0.750000  0.380274  0.799708  1
  Co  Co18  1  0.250000  0.465728  0.931110  1
  Co  Co19  1  0.250000  0.034272  0.431110  1
  Co  Co20  1  0.750000  0.534759  0.066407  1
  Co  Co21  1  0.750000  0.965241  0.566407  1
  Cu  Cu22  1  0.250000  0.712238  0.991349  1
  Cu  Cu23  1  0.250000  0.787762  0.491349  1
  P  P24  1  0.250000  0.420301  0.111774  1
  P  P25  1  0.250000  0.079699  0.611774  1
  P  P26  1  0.750000  0.576478  0.883249  1
  P  P27  1  0.750000  0.923522  0.383249  1
  P  P28  1  0.250000  0.268762  0.867972  1
  P  P29  1  0.250000  0.231238  0.367972  1
  P  P30  1  0.750000  0.730935  0.138845  1
  P  P31  1  0.750000  0.769065  0.638845  1
  P  P32  1  0.250000  0.598769  0.391282  1
  P  P33  1  0.250000  0.901231  0.891282  1
  P  P34  1  0.750000  0.396963  0.607919  1
  P  P35  1  0.750000  0.103037  0.107919  1
