# generated using pymatgen
data_Sc6Al14Fe5Si10W
_symmetry_space_group_name_H-M   'P 1'
_cell_length_a   8.38178095
_cell_length_b   8.38178092
_cell_length_c   8.95504976
_cell_angle_alpha   89.19735682
_cell_angle_beta   90.80264351
_cell_angle_gamma   120.71338771
_symmetry_Int_Tables_number   1
_chemical_formula_structural   Sc6Al14Fe5Si10W
_chemical_formula_sum   'Sc6 Al14 Fe5 Si10 W1'
_cell_volume   540.81380718
_cell_formula_units_Z   1
loop_
 _symmetry_equiv_pos_site_id
 _symmetry_equiv_pos_as_xyz
  1  'x, y, z'
loop_
 _atom_site_type_symbol
 _atom_site_label
 _atom_site_symmetry_multiplicity
 _atom_site_fract_x
 _atom_site_fract_y
 _atom_site_fract_z
 _atom_site_occupancy
  Sc  Sc0  1  0.197095  0.802905  0.248796  1
  Sc  Sc1  1  0.202925  0.401260  0.251794  1
  Sc  Sc2  1  0.598740  0.797075  0.251794  1
  Sc  Sc3  1  0.802905  0.197095  0.751204  1
  Sc  Sc4  1  0.797075  0.598740  0.748206  1
  Sc  Sc5  1  0.401260  0.202925  0.748206  1
  Al  Al6  1  0.162324  0.837676  0.921060  1
  Al  Al7  1  0.159430  0.323127  0.924448  1
  Al  Al8  1  0.676873  0.840570  0.924448  1
  Al  Al9  1  0.837676  0.162324  0.078940  1
  Al  Al10  1  0.840570  0.676873  0.075552  1
  Al  Al11  1  0.323127  0.159430  0.075552  1
  Al  Al12  1  0.837495  0.162505  0.419430  1
  Al  Al13  1  0.848375  0.679829  0.418027  1
  Al  Al14  1  0.320171  0.151625  0.418027  1
  Al  Al15  1  0.162505  0.837495  0.580570  1
  Al  Al16  1  0.151625  0.320171  0.581973  1
  Al  Al17  1  0.679829  0.848375  0.581973  1
  Al  Al18  1  0.998734  0.001266  0.246661  1
  Al  Al19  1  0.001266  0.998734  0.753339  1
  Fe  Fe20  1  0.500000  0.000000  0.500000  1
  Fe  Fe21  1  0.000000  0.500000  0.500000  1
  Fe  Fe22  1  0.500000  0.500000  0.000000  1
  Fe  Fe23  1  0.500000  0.000000  0.000000  1
  Fe  Fe24  1  0.000000  0.500000  0.000000  1
  Si  Si25  1  0.564028  0.435972  0.241949  1
  Si  Si26  1  0.560120  0.119827  0.248455  1
  Si  Si27  1  0.880173  0.439880  0.248455  1
  Si  Si28  1  0.435972  0.564028  0.758051  1
  Si  Si29  1  0.439880  0.880173  0.751545  1
  Si  Si30  1  0.119827  0.560120  0.751545  1
  Si  Si31  1  0.328108  0.671892  0.460644  1
  Si  Si32  1  0.671892  0.328108  0.539356  1
  Si  Si33  1  0.667675  0.332325  0.958362  1
  Si  Si34  1  0.332325  0.667675  0.041638  1
  W  W35  1  0.500000  0.500000  0.500000  1
