# generated using pymatgen
data_Tb9Dy3Co4CuSn
_symmetry_space_group_name_H-M   'P 1'
_cell_length_a   8.33302828
_cell_length_b   8.33302753
_cell_length_c   8.33858967
_cell_angle_alpha   106.97825642
_cell_angle_beta   110.32297988
_cell_angle_gamma   111.11572291
_symmetry_Int_Tables_number   1
_chemical_formula_structural   Tb9Dy3Co4CuSn
_chemical_formula_sum   'Tb9 Dy3 Co4 Cu1 Sn1'
_cell_volume   445.22979901
_cell_formula_units_Z   1
loop_
 _symmetry_equiv_pos_site_id
 _symmetry_equiv_pos_as_xyz
  1  'x, y, z'
loop_
 _atom_site_type_symbol
 _atom_site_label
 _atom_site_symmetry_multiplicity
 _atom_site_fract_x
 _atom_site_fract_y
 _atom_site_fract_z
 _atom_site_occupancy
  Tb  Tb0  1  0.477294  0.291114  0.185951  1
  Tb  Tb1  1  0.104873  0.290880  0.814256  1
  Tb  Tb2  1  0.894837  0.708657  0.185951  1
  Tb  Tb3  1  0.523376  0.709383  0.814256  1
  Tb  Tb4  1  0.305323  0.620313  0.314539  1
  Tb  Tb5  1  0.305503  0.990617  0.685689  1
  Tb  Tb6  1  0.695072  0.380186  0.685689  1
  Tb  Tb7  1  0.694226  0.009216  0.314539  1
  Tb  Tb8  1  0.199258  0.214574  0.413830  1
  Dy  Dy9  1  0.800483  0.785598  0.586082  1
  Dy  Dy10  1  0.199242  0.784986  0.984227  1
  Dy  Dy11  1  0.800308  0.214654  0.014962  1
  Co  Co12  1  0.499800  0.612361  0.112161  1
  Co  Co13  1  0.500458  0.387649  0.888107  1
  Co  Co14  1  0.375922  0.999576  0.375499  1
  Co  Co15  1  0.624635  0.000343  0.624978  1
  Cu  Cu16  1  0.999659  0.999614  0.999273  1
  Sn  Sn17  1  0.999731  0.500278  0.500010  1
