# generated using pymatgen
data_La2Nd14CdNi4Hg3
_symmetry_space_group_name_H-M   'P 1'
_cell_length_a   9.86304009
_cell_length_b   9.89230768
_cell_length_c   9.90782700
_cell_angle_alpha   59.94808670
_cell_angle_beta   59.84967142
_cell_angle_gamma   59.76610736
_symmetry_Int_Tables_number   1
_chemical_formula_structural   La2Nd14CdNi4Hg3
_chemical_formula_sum   'La2 Nd14 Cd1 Ni4 Hg3'
_cell_volume   681.29386991
_cell_formula_units_Z   1
loop_
 _symmetry_equiv_pos_site_id
 _symmetry_equiv_pos_as_xyz
  1  'x, y, z'
loop_
 _atom_site_type_symbol
 _atom_site_label
 _atom_site_symmetry_multiplicity
 _atom_site_fract_x
 _atom_site_fract_y
 _atom_site_fract_z
 _atom_site_occupancy
  La  La0  1  0.596781  0.596857  0.598875  1
  La  La1  1  0.596781  0.596857  0.207488  1
  Nd  Nd2  1  0.598717  0.200155  0.600565  1
  Nd  Nd3  1  0.196725  0.599976  0.601649  1
  Nd  Nd4  1  0.060835  0.440790  0.440216  1
  Nd  Nd5  1  0.439324  0.061792  0.058989  1
  Nd  Nd6  1  0.439324  0.061792  0.439897  1
  Nd  Nd7  1  0.060835  0.440790  0.058159  1
  Nd  Nd8  1  0.439734  0.440609  0.059829  1
  Nd  Nd9  1  0.058932  0.059342  0.440864  1
  Nd  Nd10  1  0.187957  0.813681  0.814551  1
  Nd  Nd11  1  0.812601  0.188278  0.185026  1
  Nd  Nd12  1  0.812601  0.188278  0.814095  1
  Nd  Nd13  1  0.187957  0.813681  0.183811  1
  Nd  Nd14  1  0.812366  0.813367  0.187134  1
  Nd  Nd15  1  0.186418  0.185474  0.814054  1
  Cd  Cd16  1  0.513072  0.830060  0.828434  1
  Ni  Ni17  1  0.391761  0.392323  0.393364  1
  Ni  Ni18  1  0.391761  0.392323  0.822552  1
  Ni  Ni19  1  0.391750  0.823719  0.392266  1
  Ni  Ni20  1  0.823531  0.391888  0.392291  1
  Hg  Hg21  1  0.833268  0.834967  0.833144  1
  Hg  Hg22  1  0.833268  0.834967  0.498622  1
  Hg  Hg23  1  0.833703  0.498038  0.834130  1
