# generated using pymatgen
data_Hf4Zr6Al12Co7
_symmetry_space_group_name_H-M   'P 1'
_cell_length_a   8.72261150
_cell_length_b   8.72261123
_cell_length_c   8.72261100
_cell_angle_alpha   59.99999708
_cell_angle_beta   59.99999810
_cell_angle_gamma   59.99999771
_symmetry_Int_Tables_number   1
_chemical_formula_structural   Hf4Zr6Al12Co7
_chemical_formula_sum   'Hf4 Zr6 Al12 Co7'
_cell_volume   469.27187842
_cell_formula_units_Z   1
loop_
 _symmetry_equiv_pos_site_id
 _symmetry_equiv_pos_as_xyz
  1  'x, y, z'
loop_
 _atom_site_type_symbol
 _atom_site_label
 _atom_site_symmetry_multiplicity
 _atom_site_fract_x
 _atom_site_fract_y
 _atom_site_fract_z
 _atom_site_occupancy
  Hf  Hf0  1  0.645388  0.118204  0.118204  1
  Hf  Hf1  1  0.118204  0.645388  0.118204  1
  Hf  Hf2  1  0.118204  0.118204  0.645388  1
  Hf  Hf3  1  0.118204  0.118204  0.118204  1
  Zr  Zr4  1  0.689685  0.310315  0.310315  1
  Zr  Zr5  1  0.689685  0.310315  0.689685  1
  Zr  Zr6  1  0.689685  0.689685  0.310315  1
  Zr  Zr7  1  0.310315  0.689685  0.689685  1
  Zr  Zr8  1  0.310315  0.689685  0.310315  1
  Zr  Zr9  1  0.310315  0.310315  0.689685  1
  Al  Al10  1  0.364483  0.878506  0.878506  1
  Al  Al11  1  0.878506  0.364483  0.878506  1
  Al  Al12  1  0.878506  0.878506  0.364483  1
  Al  Al13  1  0.878506  0.878506  0.878506  1
  Al  Al14  1  0.989952  0.336683  0.336683  1
  Al  Al15  1  0.336683  0.989952  0.336683  1
  Al  Al16  1  0.336683  0.336683  0.989952  1
  Al  Al17  1  0.336683  0.336683  0.336683  1
  Al  Al18  1  0.003789  0.665403  0.665403  1
  Al  Al19  1  0.665403  0.003789  0.665403  1
  Al  Al20  1  0.665403  0.665403  0.003789  1
  Al  Al21  1  0.665403  0.665403  0.665403  1
  Co  Co22  1  0.000000  0.000000  0.000000  1
  Co  Co23  1  0.498227  0.001773  0.001773  1
  Co  Co24  1  0.498227  0.001773  0.498227  1
  Co  Co25  1  0.498227  0.498227  0.001773  1
  Co  Co26  1  0.001773  0.498227  0.498227  1
  Co  Co27  1  0.001773  0.498227  0.001773  1
  Co  Co28  1  0.001773  0.001773  0.498227  1
