# generated using pymatgen
data_Mg8SnPd3O16
_symmetry_space_group_name_H-M   'P 1'
_cell_length_a   6.10133800
_cell_length_b   6.12392049
_cell_length_c   8.60839432
_cell_angle_alpha   89.87614322
_cell_angle_beta   90.00000000
_cell_angle_gamma   90.00000000
_symmetry_Int_Tables_number   1
_chemical_formula_structural   Mg8SnPd3O16
_chemical_formula_sum   'Mg8 Sn1 Pd3 O16'
_cell_volume   321.64423035
_cell_formula_units_Z   1
loop_
 _symmetry_equiv_pos_site_id
 _symmetry_equiv_pos_as_xyz
  1  'x, y, z'
loop_
 _atom_site_type_symbol
 _atom_site_label
 _atom_site_symmetry_multiplicity
 _atom_site_fract_x
 _atom_site_fract_y
 _atom_site_fract_z
 _atom_site_occupancy
  Mg  Mg0  1  0.000692  0.239706  0.996804  1
  Mg  Mg1  1  0.000692  0.760294  0.503196  1
  Mg  Mg2  1  0.244103  0.000000  0.750000  1
  Mg  Mg3  1  0.253675  0.244197  0.374875  1
  Mg  Mg4  1  0.253675  0.755803  0.125125  1
  Mg  Mg5  1  0.748412  0.250819  0.627401  1
  Mg  Mg6  1  0.748412  0.749181  0.872599  1
  Mg  Mg7  1  0.755901  0.000000  0.250000  1
  Sn  Sn8  1  0.763110  0.500000  0.250000  1
  Pd  Pd9  1  0.245398  0.500000  0.750000  1
  Pd  Pd10  1  0.498127  0.246418  0.998261  1
  Pd  Pd11  1  0.498127  0.753582  0.501739  1
  O  O12  1  0.020238  0.256172  0.754881  1
  O  O13  1  0.020238  0.743828  0.745119  1
  O  O14  1  0.251913  0.480154  0.987445  1
  O  O15  1  0.251913  0.519846  0.512555  1
  O  O16  1  0.257550  0.019303  0.991064  1
  O  O17  1  0.257550  0.980697  0.508936  1
  O  O18  1  0.477407  0.253285  0.762362  1
  O  O19  1  0.477407  0.746715  0.737638  1
  O  O20  1  0.518446  0.252712  0.235812  1
  O  O21  1  0.518446  0.747288  0.264188  1
  O  O22  1  0.740691  0.980998  0.495411  1
  O  O23  1  0.740691  0.019002  0.004589  1
  O  O24  1  0.742905  0.480700  0.007683  1
  O  O25  1  0.742905  0.519300  0.492317  1
  O  O26  1  0.985687  0.250830  0.245586  1
  O  O27  1  0.985687  0.749170  0.254414  1
