# generated using pymatgen
data_Ga4Ag
_symmetry_space_group_name_H-M   'P 1'
_cell_length_a   12.02932099
_cell_length_b   12.02932087
_cell_length_c   12.02932118
_cell_angle_alpha   14.24298783
_cell_angle_beta   14.24299140
_cell_angle_gamma   14.24298177
_symmetry_Int_Tables_number   1
_chemical_formula_structural   Ga4Ag
_chemical_formula_sum   'Ga4 Ag1'
_cell_volume   91.72275914
_cell_formula_units_Z   1
loop_
 _symmetry_equiv_pos_site_id
 _symmetry_equiv_pos_as_xyz
  1  'x, y, z'
loop_
 _atom_site_type_symbol
 _atom_site_label
 _atom_site_symmetry_multiplicity
 _atom_site_fract_x
 _atom_site_fract_y
 _atom_site_fract_z
 _atom_site_occupancy
  Ga  Ga0  1  0.600603  0.600603  0.600603  1
  Ga  Ga1  1  0.199982  0.199982  0.199982  1
  Ga  Ga2  1  0.800018  0.800018  0.800018  1
  Ga  Ga3  1  0.399397  0.399397  0.399397  1
  Ag  Ag4  1  0.000000  0.000000  0.000000  1
