# generated using pymatgen
data_Ho12InCo3NiRu
_symmetry_space_group_name_H-M   'P 1'
_cell_length_a   8.26417466
_cell_length_b   8.26419343
_cell_length_c   8.26417491
_cell_angle_alpha   111.34102397
_cell_angle_beta   110.97895675
_cell_angle_gamma   106.14415950
_symmetry_Int_Tables_number   1
_chemical_formula_structural   Ho12InCo3NiRu
_chemical_formula_sum   'Ho12 In1 Co3 Ni1 Ru1'
_cell_volume   433.39311805
_cell_formula_units_Z   1
loop_
 _symmetry_equiv_pos_site_id
 _symmetry_equiv_pos_as_xyz
  1  'x, y, z'
loop_
 _atom_site_type_symbol
 _atom_site_label
 _atom_site_symmetry_multiplicity
 _atom_site_fract_x
 _atom_site_fract_y
 _atom_site_fract_z
 _atom_site_occupancy
  Ho  Ho0  1  0.317927  0.622712  0.304784  1
  Ho  Ho1  1  0.685537  0.379294  0.693757  1
  Ho  Ho2  1  0.317929  0.013148  0.695220  1
  Ho  Ho3  1  0.685539  0.991784  0.306244  1
  Ho  Ho4  1  0.182426  0.282111  0.467742  1
  Ho  Ho5  1  0.814369  0.714690  0.532260  1
  Ho  Ho6  1  0.182429  0.714690  0.900320  1
  Ho  Ho7  1  0.814369  0.282111  0.099685  1
  Ho  Ho8  1  0.410160  0.217375  0.192788  1
  Ho  Ho9  1  0.589899  0.782674  0.807227  1
  Ho  Ho10  1  0.024586  0.217375  0.807215  1
  Ho  Ho11  1  0.975448  0.782674  0.192775  1
  In  In12  1  0.499393  0.499363  0.999970  1
  Co  Co13  1  0.887159  0.387162  0.500004  1
  Co  Co14  1  0.374784  0.999272  0.375514  1
  Co  Co15  1  0.623758  0.999272  0.624488  1
  Ni  Ni16  1  0.115007  0.615012  0.500006  1
  Ru  Ru17  1  0.999279  0.999280  0.000001  1
