# generated using pymatgen
data_Cs9K3Al2(FeS6)2
_symmetry_space_group_name_H-M   'P 1'
_cell_length_a   10.45620151
_cell_length_b   10.46049393
_cell_length_c   13.27305400
_cell_angle_alpha   89.88971350
_cell_angle_beta   89.78516090
_cell_angle_gamma   140.36039252
_symmetry_Int_Tables_number   1
_chemical_formula_structural   Cs9K3Al2(FeS6)2
_chemical_formula_sum   'Cs9 K3 Al2 Fe2 S12'
_cell_volume   926.13146497
_cell_formula_units_Z   1
loop_
 _symmetry_equiv_pos_site_id
 _symmetry_equiv_pos_as_xyz
  1  'x, y, z'
loop_
 _atom_site_type_symbol
 _atom_site_label
 _atom_site_symmetry_multiplicity
 _atom_site_fract_x
 _atom_site_fract_y
 _atom_site_fract_z
 _atom_site_occupancy
  Cs  Cs0  1  0.371311  0.369773  0.820880  1
  Cs  Cs1  1  0.171134  0.531206  0.134393  1
  Cs  Cs2  1  0.484071  0.834452  0.871676  1
  Cs  Cs3  1  0.967882  0.326359  0.634772  1
  Cs  Cs4  1  0.669219  0.021023  0.369838  1
  Cs  Cs5  1  0.837680  0.485481  0.873555  1
  Cs  Cs6  1  0.527203  0.166803  0.133336  1
  Cs  Cs7  1  0.017677  0.665541  0.371382  1
  Cs  Cs8  1  0.330179  0.970421  0.633464  1
  K  K9  1  0.850713  0.850570  0.653973  1
  K  K10  1  0.150532  0.151540  0.329293  1
  K  K11  1  0.649385  0.649883  0.161530  1
  Al  Al12  1  0.932623  0.089608  0.003119  1
  Al  Al13  1  0.411841  0.567501  0.497251  1
  Fe  Fe14  1  0.088700  0.931890  0.003332  1
  Fe  Fe15  1  0.566647  0.411702  0.497701  1
  S  S16  1  0.276197  0.278177  0.566633  1
  S  S17  1  0.688128  0.689660  0.416405  1
  S  S18  1  0.208859  0.210893  0.082342  1
  S  S19  1  0.826489  0.828123  0.916596  1
  S  S20  1  0.706062  0.983916  0.116719  1
  S  S21  1  0.013560  0.308353  0.894016  1
  S  S22  1  0.506094  0.781404  0.615209  1
  S  S23  1  0.194014  0.482086  0.387602  1
  S  S24  1  0.306726  0.010064  0.894507  1
  S  S25  1  0.983707  0.705007  0.116842  1
  S  S26  1  0.482052  0.193911  0.388299  1
  S  S27  1  0.781316  0.504651  0.615333  1
