# generated using pymatgen
data_K2Te(IO3)6
_symmetry_space_group_name_H-M   'P 1'
_cell_length_a   7.85757451
_cell_length_b   7.85757476
_cell_length_c   7.85757606
_cell_angle_alpha   97.04129423
_cell_angle_beta   97.04130158
_cell_angle_gamma   97.04129549
_symmetry_Int_Tables_number   1
_chemical_formula_structural   K2Te(IO3)6
_chemical_formula_sum   'K2 Te1 I6 O18'
_cell_volume   473.16159698
_cell_formula_units_Z   1
loop_
 _symmetry_equiv_pos_site_id
 _symmetry_equiv_pos_as_xyz
  1  'x, y, z'
loop_
 _atom_site_type_symbol
 _atom_site_label
 _atom_site_symmetry_multiplicity
 _atom_site_fract_x
 _atom_site_fract_y
 _atom_site_fract_z
 _atom_site_occupancy
  K  K0  1  0.325592  0.325592  0.325592  1
  K  K1  1  0.674408  0.674408  0.674408  1
  Te  Te2  1  0.000000  0.000000  0.000000  1
  I  I3  1  0.823054  0.620562  0.205439  1
  I  I4  1  0.620562  0.205439  0.823054  1
  I  I5  1  0.176946  0.379438  0.794561  1
  I  I6  1  0.205439  0.823054  0.620562  1
  I  I7  1  0.379438  0.794561  0.176946  1
  I  I8  1  0.794561  0.176946  0.379438  1
  O  O9  1  0.819054  0.783014  0.043645  1
  O  O10  1  0.601569  0.118464  0.218658  1
  O  O11  1  0.218658  0.601569  0.118464  1
  O  O12  1  0.216986  0.956355  0.180946  1
  O  O13  1  0.587481  0.579011  0.194287  1
  O  O14  1  0.194287  0.587481  0.579011  1
  O  O15  1  0.781342  0.398431  0.881536  1
  O  O16  1  0.398431  0.881536  0.781342  1
  O  O17  1  0.118464  0.218658  0.601569  1
  O  O18  1  0.956355  0.180946  0.216986  1
  O  O19  1  0.043645  0.819054  0.783014  1
  O  O20  1  0.180946  0.216986  0.956355  1
  O  O21  1  0.783014  0.043645  0.819054  1
  O  O22  1  0.579011  0.194287  0.587481  1
  O  O23  1  0.881536  0.781342  0.398431  1
  O  O24  1  0.412519  0.420989  0.805713  1
  O  O25  1  0.420989  0.805713  0.412519  1
  O  O26  1  0.805713  0.412519  0.420989  1
