# generated using pymatgen
data_Ho10In8Pd2PtRh
_symmetry_space_group_name_H-M   'P 1'
_cell_length_a   3.60976700
_cell_length_b   8.13156933
_cell_length_c   18.25535737
_cell_angle_alpha   90.04425317
_cell_angle_beta   90.00000000
_cell_angle_gamma   90.00000000
_symmetry_Int_Tables_number   1
_chemical_formula_structural   Ho10In8Pd2PtRh
_chemical_formula_sum   'Ho10 In8 Pd2 Pt1 Rh1'
_cell_volume   535.85063408
_cell_formula_units_Z   1
loop_
 _symmetry_equiv_pos_site_id
 _symmetry_equiv_pos_as_xyz
  1  'x, y, z'
loop_
 _atom_site_type_symbol
 _atom_site_label
 _atom_site_symmetry_multiplicity
 _atom_site_fract_x
 _atom_site_fract_y
 _atom_site_fract_z
 _atom_site_occupancy
  Ho  Ho0  1  0.000000  0.500038  0.499937  1
  Ho  Ho1  1  0.000000  0.999902  0.000250  1
  Ho  Ho2  1  0.000000  0.731595  0.277975  1
  Ho  Ho3  1  0.000000  0.264078  0.720577  1
  Ho  Ho4  1  0.000000  0.756623  0.780137  1
  Ho  Ho5  1  0.000000  0.252181  0.219881  1
  Ho  Ho6  1  0.000000  0.613576  0.086649  1
  Ho  Ho7  1  0.000000  0.384014  0.916076  1
  Ho  Ho8  1  0.000000  0.883772  0.583299  1
  Ho  Ho9  1  0.000000  0.116181  0.415587  1
  In  In10  1  0.500000  0.710192  0.933092  1
  In  In11  1  0.500000  0.290140  0.068683  1
  In  In12  1  0.500000  0.790212  0.431585  1
  In  In13  1  0.500000  0.209109  0.567776  1
  In  In14  1  0.500000  0.581181  0.648912  1
  In  In15  1  0.500000  0.421521  0.350431  1
  In  In16  1  0.500000  0.920579  0.150048  1
  In  In17  1  0.500000  0.078848  0.850258  1
  Pd  Pd18  1  0.500000  0.976819  0.695952  1
  Pd  Pd19  1  0.500000  0.021256  0.303577  1
  Pt  Pt20  1  0.500000  0.476641  0.804148  1
  Rh  Rh21  1  0.500000  0.521543  0.195169  1
