# generated using pymatgen
data_Y2Sc10Tc3Os
_symmetry_space_group_name_H-M   'P 1'
_cell_length_a   5.85041849
_cell_length_b   7.28397015
_cell_length_c   8.42358800
_cell_angle_alpha   90.00000000
_cell_angle_beta   90.00000000
_cell_angle_gamma   92.56913189
_symmetry_Int_Tables_number   1
_chemical_formula_structural   Y2Sc10Tc3Os
_chemical_formula_sum   'Y2 Sc10 Tc3 Os1'
_cell_volume   358.60427533
_cell_formula_units_Z   1
loop_
 _symmetry_equiv_pos_site_id
 _symmetry_equiv_pos_as_xyz
  1  'x, y, z'
loop_
 _atom_site_type_symbol
 _atom_site_label
 _atom_site_symmetry_multiplicity
 _atom_site_fract_x
 _atom_site_fract_y
 _atom_site_fract_z
 _atom_site_occupancy
  Y  Y0  1  0.617299  0.022468  0.250000  1
  Y  Y1  1  0.383151  0.976938  0.750000  1
  Sc  Sc2  1  0.338493  0.654630  0.060072  1
  Sc  Sc3  1  0.130337  0.191738  0.436208  1
  Sc  Sc4  1  0.661040  0.345819  0.560282  1
  Sc  Sc5  1  0.867236  0.807929  0.935948  1
  Sc  Sc6  1  0.661040  0.345819  0.939718  1
  Sc  Sc7  1  0.867236  0.807929  0.564052  1
  Sc  Sc8  1  0.338493  0.654630  0.439928  1
  Sc  Sc9  1  0.130337  0.191738  0.063792  1
  Sc  Sc10  1  0.883710  0.549637  0.250000  1
  Sc  Sc11  1  0.119445  0.449624  0.750000  1
  Tc  Tc12  1  0.085752  0.885507  0.250000  1
  Tc  Tc13  1  0.462299  0.379774  0.250000  1
  Tc  Tc14  1  0.914794  0.115045  0.750000  1
  Os  Os15  1  0.539337  0.620774  0.750000  1
