# generated using pymatgen
data_Sm4Co16Re4Si11P
_symmetry_space_group_name_H-M   'P 1'
_cell_length_a   3.78497700
_cell_length_b   10.62919600
_cell_length_c   12.10906410
_cell_angle_alpha   89.95069915
_cell_angle_beta   90.00000000
_cell_angle_gamma   90.00000000
_symmetry_Int_Tables_number   1
_chemical_formula_structural   Sm4Co16Re4Si11P
_chemical_formula_sum   'Sm4 Co16 Re4 Si11 P1'
_cell_volume   487.16275483
_cell_formula_units_Z   1
loop_
 _symmetry_equiv_pos_site_id
 _symmetry_equiv_pos_as_xyz
  1  'x, y, z'
loop_
 _atom_site_type_symbol
 _atom_site_label
 _atom_site_symmetry_multiplicity
 _atom_site_fract_x
 _atom_site_fract_y
 _atom_site_fract_z
 _atom_site_occupancy
  Sm  Sm0  1  0.250000  0.579574  0.703883  1
  Sm  Sm1  1  0.250000  0.920777  0.201777  1
  Sm  Sm2  1  0.750000  0.420820  0.296913  1
  Sm  Sm3  1  0.750000  0.081044  0.794965  1
  Co  Co4  1  0.250000  0.404727  0.489913  1
  Co  Co5  1  0.250000  0.095693  0.992375  1
  Co  Co6  1  0.750000  0.595004  0.510671  1
  Co  Co7  1  0.750000  0.909194  0.011659  1
  Co  Co8  1  0.250000  0.213937  0.173322  1
  Co  Co9  1  0.250000  0.284016  0.674113  1
  Co  Co10  1  0.750000  0.785835  0.826997  1
  Co  Co11  1  0.750000  0.715215  0.325981  1
  Co  Co12  1  0.250000  0.884513  0.697615  1
  Co  Co13  1  0.250000  0.615722  0.198290  1
  Co  Co14  1  0.750000  0.115386  0.298130  1
  Co  Co15  1  0.750000  0.383512  0.803332  1
  Co  Co16  1  0.250000  0.466665  0.935407  1
  Co  Co17  1  0.250000  0.032914  0.432473  1
  Co  Co18  1  0.750000  0.531730  0.065945  1
  Co  Co19  1  0.750000  0.967050  0.564185  1
  Re  Re20  1  0.250000  0.700186  0.991905  1
  Re  Re21  1  0.250000  0.801117  0.492126  1
  Re  Re22  1  0.750000  0.296244  0.011285  1
  Re  Re23  1  0.750000  0.199149  0.506636  1
  Si  Si24  1  0.250000  0.416777  0.114017  1
  Si  Si25  1  0.250000  0.083036  0.611889  1
  Si  Si26  1  0.750000  0.583250  0.887306  1
  Si  Si27  1  0.750000  0.916418  0.385412  1
  Si  Si28  1  0.250000  0.271490  0.866196  1
  Si  Si29  1  0.250000  0.229062  0.364985  1
  Si  Si30  1  0.750000  0.727662  0.134735  1
  Si  Si31  1  0.750000  0.771623  0.634859  1
  Si  Si32  1  0.250000  0.601795  0.394539  1
  Si  Si33  1  0.250000  0.899809  0.893850  1
  Si  Si34  1  0.750000  0.397846  0.606452  1
  P  P35  1  0.750000  0.101208  0.105864  1
