# generated using pymatgen
data_TbDy2Er5(OsBr4)2
_symmetry_space_group_name_H-M   'P 1'
_cell_length_a   8.96437577
_cell_length_b   8.95678911
_cell_length_c   6.51486459
_cell_angle_alpha   89.37785600
_cell_angle_beta   89.32551069
_cell_angle_gamma   89.22594091
_symmetry_Int_Tables_number   1
_chemical_formula_structural   TbDy2Er5(OsBr4)2
_chemical_formula_sum   'Tb1 Dy2 Er5 Os2 Br8'
_cell_volume   522.97773618
_cell_formula_units_Z   1
loop_
 _symmetry_equiv_pos_site_id
 _symmetry_equiv_pos_as_xyz
  1  'x, y, z'
loop_
 _atom_site_type_symbol
 _atom_site_label
 _atom_site_symmetry_multiplicity
 _atom_site_fract_x
 _atom_site_fract_y
 _atom_site_fract_z
 _atom_site_occupancy
  Tb  Tb0  1  0.099779  0.748842  0.491875  1
  Dy  Dy1  1  0.249413  0.901524  0.009510  1
  Dy  Dy2  1  0.750132  0.100074  0.991799  1
  Er  Er3  1  0.901564  0.246699  0.510394  1
  Er  Er4  1  0.754447  0.904031  0.510394  1
  Er  Er5  1  0.245143  0.096088  0.491253  1
  Er  Er6  1  0.095125  0.246149  0.991260  1
  Er  Er7  1  0.903720  0.754887  0.010324  1
  Os  Os8  1  0.995520  0.004749  0.251154  1
  Os  Os9  1  0.004011  0.995925  0.750896  1
  Br  Br10  1  0.419667  0.818933  0.414193  1
  Br  Br11  1  0.582106  0.182687  0.585178  1
  Br  Br12  1  0.182296  0.581431  0.083618  1
  Br  Br13  1  0.818231  0.419445  0.910660  1
  Br  Br14  1  0.410508  0.190575  0.089120  1
  Br  Br15  1  0.588923  0.810532  0.910855  1
  Br  Br16  1  0.810633  0.587414  0.409071  1
  Br  Br17  1  0.188783  0.410015  0.588445  1
