# generated using pymatgen
data_La4FeMo3F28
_symmetry_space_group_name_H-M   'P 1'
_cell_length_a   5.93181243
_cell_length_b   9.54997135
_cell_length_c   12.73125200
_cell_angle_alpha   62.78318288
_cell_angle_beta   89.86110247
_cell_angle_gamma   90.32840298
_symmetry_Int_Tables_number   1
_chemical_formula_structural   La4FeMo3F28
_chemical_formula_sum   'La4 Fe1 Mo3 F28'
_cell_volume   641.33664178
_cell_formula_units_Z   1
loop_
 _symmetry_equiv_pos_site_id
 _symmetry_equiv_pos_as_xyz
  1  'x, y, z'
loop_
 _atom_site_type_symbol
 _atom_site_label
 _atom_site_symmetry_multiplicity
 _atom_site_fract_x
 _atom_site_fract_y
 _atom_site_fract_z
 _atom_site_occupancy
  La  La0  1  0.756768  0.801572  0.286034  1
  La  La1  1  0.261600  0.164675  0.246354  1
  La  La2  1  0.236664  0.213546  0.720622  1
  La  La3  1  0.739763  0.817663  0.748058  1
  Fe  Fe4  1  0.242319  0.726205  0.543270  1
  Mo  Mo5  1  0.741770  0.269993  0.961856  1
  Mo  Mo6  1  0.753275  0.278664  0.449089  1
  Mo  Mo7  1  0.253653  0.723872  0.046450  1
  F  F8  1  0.981733  0.710410  0.452133  1
  F  F9  1  0.471870  0.280407  0.060936  1
  F  F10  1  0.031311  0.288090  0.541577  1
  F  F11  1  0.512854  0.716896  0.953676  1
  F  F12  1  0.049554  0.708636  0.933148  1
  F  F13  1  0.552748  0.298695  0.565606  1
  F  F14  1  0.955169  0.282437  0.077279  1
  F  F15  1  0.459763  0.715063  0.429055  1
  F  F16  1  0.740321  0.504217  0.869025  1
  F  F17  1  0.240556  0.495465  0.635089  1
  F  F18  1  0.257195  0.501834  0.134195  1
  F  F19  1  0.761897  0.511260  0.353639  1
  F  F20  1  0.734361  0.038006  0.055102  1
  F  F21  1  0.232850  0.956784  0.442360  1
  F  F22  1  0.254030  0.944397  0.963294  1
  F  F23  1  0.746393  0.047256  0.542711  1
  F  F24  1  0.028603  0.751762  0.654747  1
  F  F25  1  0.530277  0.251148  0.846299  1
  F  F26  1  0.955147  0.259094  0.331080  1
  F  F27  1  0.458401  0.739864  0.161938  1
  F  F28  1  0.003336  0.254768  0.859639  1
  F  F29  1  0.487921  0.745440  0.640564  1
  F  F30  1  0.996109  0.728284  0.140847  1
  F  F31  1  0.481054  0.272756  0.351882  1
  F  F32  1  0.080226  0.963165  0.228289  1
  F  F33  1  0.595625  0.025577  0.273687  1
  F  F34  1  0.958433  0.016531  0.758219  1
  F  F35  1  0.456453  0.995564  0.742247  1
