# generated using pymatgen
data_Pr2Tl2IrRh3O14
_symmetry_space_group_name_H-M   'P 1'
_cell_length_a   7.34544656
_cell_length_b   7.34695828
_cell_length_c   7.25028400
_cell_angle_alpha   60.43432142
_cell_angle_beta   60.42763191
_cell_angle_gamma   61.51681843
_symmetry_Int_Tables_number   1
_chemical_formula_structural   Pr2Tl2IrRh3O14
_chemical_formula_sum   'Pr2 Tl2 Ir1 Rh3 O14'
_cell_volume   281.55443885
_cell_formula_units_Z   1
loop_
 _symmetry_equiv_pos_site_id
 _symmetry_equiv_pos_as_xyz
  1  'x, y, z'
loop_
 _atom_site_type_symbol
 _atom_site_label
 _atom_site_symmetry_multiplicity
 _atom_site_fract_x
 _atom_site_fract_y
 _atom_site_fract_z
 _atom_site_occupancy
  Pr  Pr0  1  0.625000  0.125000  0.125000  1
  Pr  Pr1  1  0.125000  0.625000  0.125000  1
  Tl  Tl2  1  0.125000  0.125000  0.625000  1
  Tl  Tl3  1  0.125000  0.125000  0.125000  1
  Ir  Ir4  1  0.125000  0.625000  0.625000  1
  Rh  Rh5  1  0.625000  0.625000  0.625000  1
  Rh  Rh6  1  0.625000  0.125000  0.625000  1
  Rh  Rh7  1  0.625000  0.625000  0.125000  1
  O  O8  1  0.953382  0.545989  0.552253  1
  O  O9  1  0.293948  0.300280  0.702886  1
  O  O10  1  0.953382  0.545989  0.948376  1
  O  O11  1  0.709891  0.296735  0.295313  1
  O  O12  1  0.535773  0.540483  0.961872  1
  O  O13  1  0.540109  0.953265  0.551938  1
  O  O14  1  0.540109  0.953265  0.954687  1
  O  O15  1  0.242845  0.244712  0.256221  1
  O  O16  1  0.296618  0.704011  0.697747  1
  O  O17  1  0.709891  0.296735  0.698062  1
  O  O18  1  0.007155  0.005288  0.993779  1
  O  O19  1  0.956052  0.949720  0.547114  1
  O  O20  1  0.296618  0.704011  0.301624  1
  O  O21  1  0.714227  0.709517  0.288128  1
