# generated using pymatgen
data_KBa(PtPb2)2
_symmetry_space_group_name_H-M   'P 1'
_cell_length_a   4.63214057
_cell_length_b   8.11240100
_cell_length_c   6.66635227
_cell_angle_alpha   90.00000000
_cell_angle_beta   110.15720724
_cell_angle_gamma   90.00000000
_symmetry_Int_Tables_number   1
_chemical_formula_structural   KBa(PtPb2)2
_chemical_formula_sum   'K1 Ba1 Pt2 Pb4'
_cell_volume   235.16335778
_cell_formula_units_Z   1
loop_
 _symmetry_equiv_pos_site_id
 _symmetry_equiv_pos_as_xyz
  1  'x, y, z'
loop_
 _atom_site_type_symbol
 _atom_site_label
 _atom_site_symmetry_multiplicity
 _atom_site_fract_x
 _atom_site_fract_y
 _atom_site_fract_z
 _atom_site_occupancy
  K  K0  1  0.062535  0.250001  0.123740  1
  Ba  Ba1  1  0.939670  0.750000  0.880426  1
  Pt  Pt2  1  0.214723  0.750000  0.424985  1
  Pt  Pt3  1  0.786742  0.250001  0.578528  1
  Pb  Pb4  1  0.655247  0.548500  0.307174  1
  Pb  Pb5  1  0.655247  0.951500  0.307174  1
  Pb  Pb6  1  0.342919  0.053040  0.688988  1
  Pb  Pb7  1  0.342919  0.446960  0.688988  1
