# generated using pymatgen
data_DyEr2Lu(Al3Ir)6
_symmetry_space_group_name_H-M   'P 1'
_cell_length_a   7.53694535
_cell_length_b   7.53333542
_cell_length_c   9.44214000
_cell_angle_alpha   90.00000000
_cell_angle_beta   90.00000000
_cell_angle_gamma   119.47859048
_symmetry_Int_Tables_number   1
_chemical_formula_structural   DyEr2Lu(Al3Ir)6
_chemical_formula_sum   'Dy1 Er2 Lu1 Al18 Ir6'
_cell_volume   466.70414392
_cell_formula_units_Z   1
loop_
 _symmetry_equiv_pos_site_id
 _symmetry_equiv_pos_as_xyz
  1  'x, y, z'
loop_
 _atom_site_type_symbol
 _atom_site_label
 _atom_site_symmetry_multiplicity
 _atom_site_fract_x
 _atom_site_fract_y
 _atom_site_fract_z
 _atom_site_occupancy
  Dy  Dy0  1  0.328111  0.005675  0.250000  1
  Er  Er1  1  0.005752  0.327649  0.250000  1
  Er  Er2  1  0.671910  0.994642  0.750000  1
  Lu  Lu3  1  0.994963  0.672845  0.750000  1
  Al  Al4  1  0.128868  0.128935  0.750000  1
  Al  Al5  1  0.870133  0.869682  0.250000  1
  Al  Al6  1  0.000243  0.335937  0.575666  1
  Al  Al7  1  0.998792  0.664244  0.426998  1
  Al  Al8  1  0.998792  0.664244  0.073002  1
  Al  Al9  1  0.335206  0.000357  0.923966  1
  Al  Al10  1  0.000243  0.335937  0.924334  1
  Al  Al11  1  0.664836  0.998712  0.074130  1
  Al  Al12  1  0.664836  0.998712  0.425870  1
  Al  Al13  1  0.335206  0.000357  0.576034  1
  Al  Al14  1  0.333326  0.333648  0.049639  1
  Al  Al15  1  0.667500  0.667208  0.946094  1
  Al  Al16  1  0.667500  0.667208  0.553906  1
  Al  Al17  1  0.333326  0.333648  0.450361  1
  Al  Al18  1  0.339069  0.549257  0.750000  1
  Al  Al19  1  0.660934  0.451551  0.250000  1
  Al  Al20  1  0.550356  0.340782  0.750000  1
  Al  Al21  1  0.450893  0.659163  0.250000  1
  Ir  Ir22  1  0.672220  0.327742  0.500453  1
  Ir  Ir23  1  0.327716  0.672137  0.500459  1
  Ir  Ir24  1  0.327716  0.672137  0.999541  1
  Ir  Ir25  1  0.672220  0.327742  0.999547  1
  Ir  Ir26  1  0.999666  0.999925  0.500586  1
  Ir  Ir27  1  0.999666  0.999925  0.999414  1
