# generated using pymatgen
data_Tb4Nb(ReN4)3
_symmetry_space_group_name_H-M   'P 1'
_cell_length_a   7.41360753
_cell_length_b   7.47913737
_cell_length_c   6.35013782
_cell_angle_alpha   72.50385046
_cell_angle_beta   73.26324369
_cell_angle_gamma   81.76242449
_symmetry_Int_Tables_number   1
_chemical_formula_structural   Tb4Nb(ReN4)3
_chemical_formula_sum   'Tb4 Nb1 Re3 N12'
_cell_volume   320.96360596
_cell_formula_units_Z   1
loop_
 _symmetry_equiv_pos_site_id
 _symmetry_equiv_pos_as_xyz
  1  'x, y, z'
loop_
 _atom_site_type_symbol
 _atom_site_label
 _atom_site_symmetry_multiplicity
 _atom_site_fract_x
 _atom_site_fract_y
 _atom_site_fract_z
 _atom_site_occupancy
  Tb  Tb0  1  0.908336  0.092218  0.750898  1
  Tb  Tb1  1  0.096692  0.907544  0.247386  1
  Tb  Tb2  1  0.704428  0.277450  0.252918  1
  Tb  Tb3  1  0.287293  0.709755  0.752418  1
  Nb  Nb4  1  0.624644  0.796103  0.280609  1
  Re  Re5  1  0.201116  0.377866  0.218282  1
  Re  Re6  1  0.376789  0.206244  0.719563  1
  Re  Re7  1  0.795807  0.619116  0.785336  1
  N  N8  1  0.664187  0.617489  0.079010  1
  N  N9  1  0.372062  0.877700  0.351527  1
  N  N10  1  0.356403  0.331352  0.421425  1
  N  N11  1  0.128997  0.626461  0.157413  1
  N  N12  1  0.003881  0.224697  0.333714  1
  N  N13  1  0.791641  0.002122  0.146957  1
  N  N14  1  0.227224  0.005688  0.837118  1
  N  N15  1  0.628391  0.138947  0.655835  1
  N  N16  1  0.330759  0.360265  0.920760  1
  N  N17  1  0.886276  0.382369  0.823985  1
  N  N18  1  0.627825  0.663376  0.602947  1
  N  N19  1  0.987247  0.783237  0.661899  1
