# generated using pymatgen
data_Ce2Nd6AlZn7Rh8
_symmetry_space_group_name_H-M   'P 1'
_cell_length_a   3.95658100
_cell_length_b   7.46570109
_cell_length_c   16.51782831
_cell_angle_alpha   90.14016423
_cell_angle_beta   90.00000000
_cell_angle_gamma   90.00000000
_symmetry_Int_Tables_number   1
_chemical_formula_structural   Ce2Nd6AlZn7Rh8
_chemical_formula_sum   'Ce2 Nd6 Al1 Zn7 Rh8'
_cell_volume   487.91290726
_cell_formula_units_Z   1
loop_
 _symmetry_equiv_pos_site_id
 _symmetry_equiv_pos_as_xyz
  1  'x, y, z'
loop_
 _atom_site_type_symbol
 _atom_site_label
 _atom_site_symmetry_multiplicity
 _atom_site_fract_x
 _atom_site_fract_y
 _atom_site_fract_z
 _atom_site_occupancy
  Ce  Ce0  1  0.250000  0.176311  0.940424  1
  Ce  Ce1  1  0.250000  0.672765  0.560137  1
  Nd  Nd2  1  0.750000  0.332208  0.437079  1
  Nd  Nd3  1  0.750000  0.947338  0.284574  1
  Nd  Nd4  1  0.750000  0.831355  0.060654  1
  Nd  Nd5  1  0.750000  0.447758  0.214435  1
  Nd  Nd6  1  0.250000  0.049206  0.718473  1
  Nd  Nd7  1  0.250000  0.550187  0.784796  1
  Al  Al8  1  0.750000  0.009083  0.561056  1
  Zn  Zn9  1  0.250000  0.622714  0.349063  1
  Zn  Zn10  1  0.750000  0.379547  0.653105  1
  Zn  Zn11  1  0.250000  0.501531  0.059317  1
  Zn  Zn12  1  0.750000  0.508676  0.939726  1
  Zn  Zn13  1  0.250000  0.000114  0.438570  1
  Zn  Zn14  1  0.250000  0.120661  0.150631  1
  Zn  Zn15  1  0.750000  0.882276  0.849239  1
  Rh  Rh16  1  0.750000  0.753294  0.445078  1
  Rh  Rh17  1  0.250000  0.244395  0.313056  1
  Rh  Rh18  1  0.750000  0.245626  0.824254  1
  Rh  Rh19  1  0.750000  0.749753  0.672819  1
  Rh  Rh20  1  0.250000  0.232660  0.566555  1
  Rh  Rh21  1  0.250000  0.743934  0.187227  1
  Rh  Rh22  1  0.750000  0.248510  0.056516  1
  Rh  Rh23  1  0.250000  0.750097  0.933218  1
