# generated using pymatgen
data_Nb2Ni2PdSe8
_symmetry_space_group_name_H-M   'P 1'
_cell_length_a   3.51203300
_cell_length_b   10.73360300
_cell_length_c   15.21187500
_cell_angle_alpha   90.00000000
_cell_angle_beta   90.00000000
_cell_angle_gamma   90.00000000
_symmetry_Int_Tables_number   1
_chemical_formula_structural   Nb2Ni2PdSe8
_chemical_formula_sum   'Nb4 Ni4 Pd2 Se16'
_cell_volume   573.43852188
_cell_formula_units_Z   2
loop_
 _symmetry_equiv_pos_site_id
 _symmetry_equiv_pos_as_xyz
  1  'x, y, z'
loop_
 _atom_site_type_symbol
 _atom_site_label
 _atom_site_symmetry_multiplicity
 _atom_site_fract_x
 _atom_site_fract_y
 _atom_site_fract_z
 _atom_site_occupancy
  Nb  Nb0  1  0.500000  0.791078  0.879823  1
  Nb  Nb1  1  0.500000  0.208922  0.120177  1
  Nb  Nb2  1  0.500000  0.291078  0.620177  1
  Nb  Nb3  1  0.500000  0.708922  0.379823  1
  Ni  Ni4  1  0.000000  0.622750  0.779617  1
  Ni  Ni5  1  0.000000  0.377250  0.220383  1
  Ni  Ni6  1  0.000000  0.122750  0.720383  1
  Ni  Ni7  1  0.000000  0.877250  0.279617  1
  Pd  Pd8  1  0.000000  0.000000  0.000000  1
  Pd  Pd9  1  0.000000  0.500000  0.500000  1
  Se  Se10  1  0.000000  0.768499  0.006601  1
  Se  Se11  1  0.000000  0.231501  0.993399  1
  Se  Se12  1  0.000000  0.268499  0.493399  1
  Se  Se13  1  0.000000  0.731501  0.506601  1
  Se  Se14  1  0.000000  0.964068  0.838189  1
  Se  Se15  1  0.000000  0.035932  0.161811  1
  Se  Se16  1  0.000000  0.464068  0.661811  1
  Se  Se17  1  0.000000  0.535932  0.338189  1
  Se  Se18  1  0.500000  0.740989  0.715355  1
  Se  Se19  1  0.500000  0.259011  0.284645  1
  Se  Se20  1  0.500000  0.240989  0.784645  1
  Se  Se21  1  0.500000  0.759011  0.215355  1
  Se  Se22  1  0.500000  0.550387  0.871392  1
  Se  Se23  1  0.500000  0.449613  0.128608  1
  Se  Se24  1  0.500000  0.050387  0.628608  1
  Se  Se25  1  0.500000  0.949613  0.371392  1
