# generated using pymatgen
data_LiYHo15In3Ir4
_symmetry_space_group_name_H-M   'P 1'
_cell_length_a   9.64209961
_cell_length_b   9.64204067
_cell_length_c   9.63262101
_cell_angle_alpha   59.81510136
_cell_angle_beta   59.81534466
_cell_angle_gamma   59.81592167
_symmetry_Int_Tables_number   1
_chemical_formula_structural   LiYHo15In3Ir4
_chemical_formula_sum   'Li1 Y1 Ho15 In3 Ir4'
_cell_volume   630.58989647
_cell_formula_units_Z   1
loop_
 _symmetry_equiv_pos_site_id
 _symmetry_equiv_pos_as_xyz
  1  'x, y, z'
loop_
 _atom_site_type_symbol
 _atom_site_label
 _atom_site_symmetry_multiplicity
 _atom_site_fract_x
 _atom_site_fract_y
 _atom_site_fract_z
 _atom_site_occupancy
  Li  Li0  1  0.427350  0.427343  0.427431  1
  Y  Y1  1  0.437949  0.437945  0.061771  1
  Ho  Ho2  1  0.651174  0.651177  0.045353  1
  Ho  Ho3  1  0.188262  0.813767  0.188436  1
  Ho  Ho4  1  0.059290  0.440228  0.059628  1
  Ho  Ho5  1  0.191877  0.808176  0.807786  1
  Ho  Ho6  1  0.059442  0.438939  0.439961  1
  Ho  Ho7  1  0.813765  0.188263  0.188435  1
  Ho  Ho8  1  0.650584  0.650588  0.650741  1
  Ho  Ho9  1  0.808177  0.191875  0.807790  1
  Ho  Ho10  1  0.188523  0.188522  0.813203  1
  Ho  Ho11  1  0.046108  0.651226  0.650754  1
  Ho  Ho12  1  0.440228  0.059290  0.059628  1
  Ho  Ho13  1  0.060138  0.060136  0.439829  1
  Ho  Ho14  1  0.651226  0.046107  0.650755  1
  Ho  Ho15  1  0.808034  0.808036  0.191953  1
  Ho  Ho16  1  0.438936  0.059443  0.439958  1
  In  In17  1  0.417226  0.417235  0.745939  1
  In  In18  1  0.417085  0.746062  0.417095  1
  In  In19  1  0.746060  0.417089  0.417094  1
  Ir  Ir20  1  0.423818  0.858919  0.857322  1
  Ir  Ir21  1  0.857914  0.857909  0.857818  1
  Ir  Ir22  1  0.858920  0.423817  0.857320  1
  Ir  Ir23  1  0.857916  0.857908  0.424002  1
