# generated using pymatgen
data_LiPr8Tm8Sc3Si16
_symmetry_space_group_name_H-M   'P 1'
_cell_length_a   7.33611416
_cell_length_b   7.73033523
_cell_length_c   14.64439900
_cell_angle_alpha   90.00000000
_cell_angle_beta   90.00000000
_cell_angle_gamma   90.01832151
_symmetry_Int_Tables_number   1
_chemical_formula_structural   LiPr8Tm8Sc3Si16
_chemical_formula_sum   'Li1 Pr8 Tm8 Sc3 Si16'
_cell_volume   830.49293001
_cell_formula_units_Z   1
loop_
 _symmetry_equiv_pos_site_id
 _symmetry_equiv_pos_as_xyz
  1  'x, y, z'
loop_
 _atom_site_type_symbol
 _atom_site_label
 _atom_site_symmetry_multiplicity
 _atom_site_fract_x
 _atom_site_fract_y
 _atom_site_fract_z
 _atom_site_occupancy
  Li  Li0  1  0.654487  0.992030  0.750000  1
  Pr  Pr1  1  0.016795  0.177309  0.401358  1
  Pr  Pr2  1  0.516612  0.323543  0.401198  1
  Pr  Pr3  1  0.483153  0.685434  0.898695  1
  Pr  Pr4  1  0.483153  0.685434  0.601305  1
  Pr  Pr5  1  0.975816  0.823153  0.600967  1
  Pr  Pr6  1  0.975816  0.823153  0.899033  1
  Pr  Pr7  1  0.516612  0.323543  0.098802  1
  Pr  Pr8  1  0.016795  0.177309  0.098642  1
  Tm  Tm9  1  0.330281  0.174832  0.625458  1
  Tm  Tm10  1  0.677188  0.820739  0.373836  1
  Tm  Tm11  1  0.176817  0.676805  0.375306  1
  Tm  Tm12  1  0.822060  0.316197  0.874607  1
  Tm  Tm13  1  0.822060  0.316197  0.625393  1
  Tm  Tm14  1  0.330281  0.174832  0.874542  1
  Tm  Tm15  1  0.176817  0.676805  0.124694  1
  Tm  Tm16  1  0.677188  0.820739  0.126164  1
  Sc  Sc17  1  0.845373  0.492938  0.250000  1
  Sc  Sc18  1  0.344624  0.007372  0.250000  1
  Sc  Sc19  1  0.153231  0.506075  0.750000  1
  Si  Si20  1  0.269441  0.877109  0.750000  1
  Si  Si21  1  0.476502  0.609900  0.250000  1
  Si  Si22  1  0.033578  0.111733  0.750000  1
  Si  Si23  1  0.522571  0.399946  0.750000  1
  Si  Si24  1  0.150012  0.468213  0.541299  1
  Si  Si25  1  0.976982  0.887552  0.250000  1
  Si  Si26  1  0.716037  0.125029  0.250000  1
  Si  Si27  1  0.852412  0.532678  0.037883  1
  Si  Si28  1  0.351765  0.966807  0.040360  1
  Si  Si29  1  0.150012  0.468213  0.958701  1
  Si  Si30  1  0.650600  0.037194  0.532203  1
  Si  Si31  1  0.351765  0.966807  0.459640  1
  Si  Si32  1  0.852412  0.532678  0.462117  1
  Si  Si33  1  0.783398  0.608623  0.750000  1
  Si  Si34  1  0.216755  0.375884  0.250000  1
  Si  Si35  1  0.650600  0.037194  0.967797  1
