# generated using pymatgen
data_Cs6Dy2HoLuBr18
_symmetry_space_group_name_H-M   'P 1'
_cell_length_a   10.46561980
_cell_length_b   10.46561870
_cell_length_c   10.46561983
_cell_angle_alpha   83.19593647
_cell_angle_beta   83.19592927
_cell_angle_gamma   83.19594126
_symmetry_Int_Tables_number   1
_chemical_formula_structural   Cs6Dy2HoLuBr18
_chemical_formula_sum   'Cs6 Dy2 Ho1 Lu1 Br18'
_cell_volume   1123.84290007
_cell_formula_units_Z   1
loop_
 _symmetry_equiv_pos_site_id
 _symmetry_equiv_pos_as_xyz
  1  'x, y, z'
loop_
 _atom_site_type_symbol
 _atom_site_label
 _atom_site_symmetry_multiplicity
 _atom_site_fract_x
 _atom_site_fract_y
 _atom_site_fract_z
 _atom_site_occupancy
  Cs  Cs0  1  0.588103  0.911840  0.249611  1
  Cs  Cs1  1  0.249611  0.588103  0.911840  1
  Cs  Cs2  1  0.911840  0.249611  0.588103  1
  Cs  Cs3  1  0.750592  0.411189  0.088561  1
  Cs  Cs4  1  0.088561  0.750592  0.411189  1
  Cs  Cs5  1  0.411189  0.088561  0.750592  1
  Dy  Dy6  1  0.847181  0.847181  0.847181  1
  Dy  Dy7  1  0.346597  0.346597  0.346597  1
  Ho  Ho8  1  0.653159  0.653159  0.653159  1
  Lu  Lu9  1  0.154256  0.154256  0.154256  1
  Br  Br10  1  0.094381  0.402417  0.248477  1
  Br  Br11  1  0.248477  0.094381  0.402417  1
  Br  Br12  1  0.402417  0.248477  0.094381  1
  Br  Br13  1  0.749464  0.904576  0.594409  1
  Br  Br14  1  0.594409  0.749464  0.904576  1
  Br  Br15  1  0.904576  0.594409  0.749464  1
  Br  Br16  1  0.234038  0.414765  0.580463  1
  Br  Br17  1  0.580463  0.234038  0.414765  1
  Br  Br18  1  0.414765  0.580463  0.234038  1
  Br  Br19  1  0.080802  0.915367  0.734276  1
  Br  Br20  1  0.734276  0.080802  0.915367  1
  Br  Br21  1  0.915367  0.734276  0.080802  1
  Br  Br22  1  0.764872  0.585267  0.420900  1
  Br  Br23  1  0.420900  0.764872  0.585267  1
  Br  Br24  1  0.585267  0.420900  0.764872  1
  Br  Br25  1  0.925186  0.086477  0.262774  1
  Br  Br26  1  0.262774  0.925186  0.086477  1
  Br  Br27  1  0.086477  0.262774  0.925186  1
