# generated using pymatgen
data_LiEu4ZnP4
_symmetry_space_group_name_H-M   'P 1'
_cell_length_a   8.10172096
_cell_length_b   8.10172223
_cell_length_c   7.27843419
_cell_angle_alpha   89.86674728
_cell_angle_beta   90.13325440
_cell_angle_gamma   150.16652709
_symmetry_Int_Tables_number   1
_chemical_formula_structural   LiEu4ZnP4
_chemical_formula_sum   'Li1 Eu4 Zn1 P4'
_cell_volume   237.66634510
_cell_formula_units_Z   1
loop_
 _symmetry_equiv_pos_site_id
 _symmetry_equiv_pos_as_xyz
  1  'x, y, z'
loop_
 _atom_site_type_symbol
 _atom_site_label
 _atom_site_symmetry_multiplicity
 _atom_site_fract_x
 _atom_site_fract_y
 _atom_site_fract_z
 _atom_site_occupancy
  Li  Li0  1  0.902491  0.097509  0.647884  1
  Eu  Eu1  1  0.709202  0.290798  0.461275  1
  Eu  Eu2  1  0.293320  0.706680  0.957064  1
  Eu  Eu3  1  0.530627  0.469373  0.798008  1
  Eu  Eu4  1  0.464785  0.535215  0.306431  1
  Zn  Zn5  1  0.093852  0.906148  0.153694  1
  P  P6  1  0.940686  0.059314  0.011418  1
  P  P7  1  0.066025  0.933975  0.502001  1
  P  P8  1  0.668421  0.331579  0.065735  1
  P  P9  1  0.330591  0.669409  0.569869  1
