# generated using pymatgen
data_Lu3Ga8SnRu3
_symmetry_space_group_name_H-M   'P 1'
_cell_length_a   6.41763100
_cell_length_b   6.41763100
_cell_length_c   6.41763100
_cell_angle_alpha   90.00000000
_cell_angle_beta   90.00000000
_cell_angle_gamma   90.00000000
_symmetry_Int_Tables_number   1
_chemical_formula_structural   Lu3Ga8SnRu3
_chemical_formula_sum   'Lu3 Ga8 Sn1 Ru3'
_cell_volume   264.31647112
_cell_formula_units_Z   1
loop_
 _symmetry_equiv_pos_site_id
 _symmetry_equiv_pos_as_xyz
  1  'x, y, z'
loop_
 _atom_site_type_symbol
 _atom_site_label
 _atom_site_symmetry_multiplicity
 _atom_site_fract_x
 _atom_site_fract_y
 _atom_site_fract_z
 _atom_site_occupancy
  Lu  Lu0  1  0.500000  0.500000  0.000000  1
  Lu  Lu1  1  0.500000  0.000000  0.500000  1
  Lu  Lu2  1  0.000000  0.500000  0.500000  1
  Ga  Ga3  1  0.210489  0.210489  0.789511  1
  Ga  Ga4  1  0.210489  0.789511  0.210489  1
  Ga  Ga5  1  0.789511  0.210489  0.210489  1
  Ga  Ga6  1  0.789511  0.789511  0.789511  1
  Ga  Ga7  1  0.789511  0.789511  0.210489  1
  Ga  Ga8  1  0.789511  0.210489  0.789511  1
  Ga  Ga9  1  0.210489  0.789511  0.789511  1
  Ga  Ga10  1  0.210489  0.210489  0.210489  1
  Sn  Sn11  1  0.500000  0.500000  0.500000  1
  Ru  Ru12  1  0.000000  0.000000  0.500000  1
  Ru  Ru13  1  0.000000  0.500000  0.000000  1
  Ru  Ru14  1  0.500000  0.000000  0.000000  1
