# generated using pymatgen
data_Dy3Er2(FeB3)2
_symmetry_space_group_name_H-M   'P 1'
_cell_length_a   5.40802099
_cell_length_b   5.40802076
_cell_length_c   8.24175107
_cell_angle_alpha   70.84730618
_cell_angle_beta   70.84730623
_cell_angle_gamma   59.99999067
_symmetry_Int_Tables_number   1
_chemical_formula_structural   Dy3Er2(FeB3)2
_chemical_formula_sum   'Dy3 Er2 Fe2 B6'
_cell_volume   193.19020155
_cell_formula_units_Z   1
loop_
 _symmetry_equiv_pos_site_id
 _symmetry_equiv_pos_as_xyz
  1  'x, y, z'
loop_
 _atom_site_type_symbol
 _atom_site_label
 _atom_site_symmetry_multiplicity
 _atom_site_fract_x
 _atom_site_fract_y
 _atom_site_fract_z
 _atom_site_occupancy
  Dy  Dy0  1  0.000000  0.000000  0.000000  1
  Dy  Dy1  1  0.748092  0.748092  0.755725  1
  Dy  Dy2  1  0.251908  0.251908  0.244275  1
  Er  Er3  1  0.582826  0.582826  0.251523  1
  Er  Er4  1  0.417174  0.417174  0.748477  1
  Fe  Fe5  1  0.882262  0.882262  0.353215  1
  Fe  Fe6  1  0.117738  0.117738  0.646785  1
  B  B7  1  0.500000  0.168059  0.500000  1
  B  B8  1  0.831941  0.500000  0.500000  1
  B  B9  1  0.168059  0.831941  0.500000  1
  B  B10  1  0.168059  0.500000  0.500000  1
  B  B11  1  0.831941  0.168059  0.500000  1
  B  B12  1  0.500000  0.831941  0.500000  1
