# generated using pymatgen
data_PrSm7(Si3Ir)4
_symmetry_space_group_name_H-M   'P 1'
_cell_length_a   8.20581300
_cell_length_b   8.20581367
_cell_length_c   8.46587900
_cell_angle_alpha   90.00000000
_cell_angle_beta   90.00000000
_cell_angle_gamma   120.00000134
_symmetry_Int_Tables_number   1
_chemical_formula_structural   PrSm7(Si3Ir)4
_chemical_formula_sum   'Pr1 Sm7 Si12 Ir4'
_cell_volume   493.68047315
_cell_formula_units_Z   1
loop_
 _symmetry_equiv_pos_site_id
 _symmetry_equiv_pos_as_xyz
  1  'x, y, z'
loop_
 _atom_site_type_symbol
 _atom_site_label
 _atom_site_symmetry_multiplicity
 _atom_site_fract_x
 _atom_site_fract_y
 _atom_site_fract_z
 _atom_site_occupancy
  Pr  Pr0  1  0.000000  0.000000  0.250000  1
  Sm  Sm1  1  0.499623  0.500377  0.750000  1
  Sm  Sm2  1  0.500380  0.499620  0.250000  1
  Sm  Sm3  1  0.000754  0.500377  0.750000  1
  Sm  Sm4  1  0.999238  0.499620  0.250000  1
  Sm  Sm5  1  0.499623  0.999246  0.750000  1
  Sm  Sm6  1  0.500380  0.000762  0.250000  1
  Sm  Sm7  1  0.000000  0.000000  0.750000  1
  Si  Si8  1  0.832812  0.167188  0.998389  1
  Si  Si9  1  0.167194  0.832806  0.998306  1
  Si  Si10  1  0.334377  0.167188  0.998389  1
  Si  Si11  1  0.167194  0.832806  0.501694  1
  Si  Si12  1  0.665612  0.832806  0.998306  1
  Si  Si13  1  0.832812  0.167188  0.501611  1
  Si  Si14  1  0.832812  0.665623  0.998389  1
  Si  Si15  1  0.665612  0.832806  0.501694  1
  Si  Si16  1  0.167194  0.334388  0.998306  1
  Si  Si17  1  0.334377  0.167188  0.501611  1
  Si  Si18  1  0.167194  0.334388  0.501694  1
  Si  Si19  1  0.832812  0.665623  0.501611  1
  Ir  Ir20  1  0.666667  0.333333  0.998801  1
  Ir  Ir21  1  0.333333  0.666667  0.000973  1
  Ir  Ir22  1  0.333333  0.666667  0.499027  1
  Ir  Ir23  1  0.666667  0.333333  0.501199  1
