# generated using pymatgen
data_Yb20(AgPd3)3
_symmetry_space_group_name_H-M   'P 1'
_cell_length_a   7.68116200
_cell_length_b   7.68116200
_cell_length_c   13.85496800
_cell_angle_alpha   90.00000000
_cell_angle_beta   90.00000000
_cell_angle_gamma   90.00000000
_symmetry_Int_Tables_number   1
_chemical_formula_structural   Yb20(AgPd3)3
_chemical_formula_sum   'Yb20 Ag3 Pd9'
_cell_volume   817.44657117
_cell_formula_units_Z   1
loop_
 _symmetry_equiv_pos_site_id
 _symmetry_equiv_pos_as_xyz
  1  'x, y, z'
loop_
 _atom_site_type_symbol
 _atom_site_label
 _atom_site_symmetry_multiplicity
 _atom_site_fract_x
 _atom_site_fract_y
 _atom_site_fract_z
 _atom_site_occupancy
  Yb  Yb0  1  0.000000  0.000000  0.754767  1
  Yb  Yb1  1  0.500000  0.500000  0.248329  1
  Yb  Yb2  1  0.000000  0.000000  0.245233  1
  Yb  Yb3  1  0.500000  0.500000  0.751671  1
  Yb  Yb4  1  0.171641  0.659109  0.109836  1
  Yb  Yb5  1  0.664680  0.164273  0.613515  1
  Yb  Yb6  1  0.828359  0.340891  0.109836  1
  Yb  Yb7  1  0.335320  0.835727  0.613515  1
  Yb  Yb8  1  0.340891  0.171641  0.109836  1
  Yb  Yb9  1  0.835727  0.664680  0.613515  1
  Yb  Yb10  1  0.659109  0.828359  0.109836  1
  Yb  Yb11  1  0.164273  0.335320  0.613515  1
  Yb  Yb12  1  0.340891  0.828359  0.890164  1
  Yb  Yb13  1  0.835727  0.335320  0.386485  1
  Yb  Yb14  1  0.659109  0.171641  0.890164  1
  Yb  Yb15  1  0.164273  0.664680  0.386485  1
  Yb  Yb16  1  0.171641  0.340891  0.890164  1
  Yb  Yb17  1  0.664680  0.835727  0.386485  1
  Yb  Yb18  1  0.828359  0.659109  0.890164  1
  Yb  Yb19  1  0.335320  0.164273  0.386485  1
  Ag  Ag20  1  0.000000  0.000000  0.500000  1
  Ag  Ag21  1  0.000000  0.000000  0.000000  1
  Ag  Ag22  1  0.500000  0.500000  0.500000  1
  Pd  Pd23  1  0.633282  0.131884  0.248853  1
  Pd  Pd24  1  0.131884  0.633282  0.751147  1
  Pd  Pd25  1  0.868116  0.366718  0.751147  1
  Pd  Pd26  1  0.366718  0.868116  0.248853  1
  Pd  Pd27  1  0.366718  0.131884  0.751147  1
  Pd  Pd28  1  0.868116  0.633282  0.248853  1
  Pd  Pd29  1  0.131884  0.366718  0.248853  1
  Pd  Pd30  1  0.633282  0.868116  0.751147  1
  Pd  Pd31  1  0.500000  0.500000  0.000000  1
