# generated using pymatgen
data_TbHo3(Ga2Ag)4
_symmetry_space_group_name_H-M   'P 1'
_cell_length_a   4.37194700
_cell_length_b   6.94670322
_cell_length_c   10.24352780
_cell_angle_alpha   90.06789718
_cell_angle_beta   90.00000000
_cell_angle_gamma   90.00000000
_symmetry_Int_Tables_number   1
_chemical_formula_structural   TbHo3(Ga2Ag)4
_chemical_formula_sum   'Tb1 Ho3 Ga8 Ag4'
_cell_volume   311.10205436
_cell_formula_units_Z   1
loop_
 _symmetry_equiv_pos_site_id
 _symmetry_equiv_pos_as_xyz
  1  'x, y, z'
loop_
 _atom_site_type_symbol
 _atom_site_label
 _atom_site_symmetry_multiplicity
 _atom_site_fract_x
 _atom_site_fract_y
 _atom_site_fract_z
 _atom_site_occupancy
  Tb  Tb0  1  0.250000  0.279329  0.675373  1
  Ho  Ho1  1  0.250000  0.779161  0.825145  1
  Ho  Ho2  1  0.750000  0.220601  0.175209  1
  Ho  Ho3  1  0.750000  0.720675  0.324770  1
  Ga  Ga4  1  0.250000  0.928930  0.154307  1
  Ga  Ga5  1  0.750000  0.070437  0.846048  1
  Ga  Ga6  1  0.750000  0.572121  0.654218  1
  Ga  Ga7  1  0.250000  0.429141  0.345606  1
  Ga  Ga8  1  0.250000  0.702421  0.536125  1
  Ga  Ga9  1  0.750000  0.298370  0.463341  1
  Ga  Ga10  1  0.750000  0.798525  0.036300  1
  Ga  Ga11  1  0.250000  0.200851  0.964498  1
  Ag  Ag12  1  0.250000  0.544883  0.095910  1
  Ag  Ag13  1  0.750000  0.455475  0.904309  1
  Ag  Ag14  1  0.750000  0.954790  0.595510  1
  Ag  Ag15  1  0.250000  0.044289  0.403332  1
