# generated using pymatgen
data_Zr3Ti2Si2GeN
_symmetry_space_group_name_H-M   'P 1'
_cell_length_a   7.81604500
_cell_length_b   7.80765574
_cell_length_c   5.41060000
_cell_angle_alpha   90.00000000
_cell_angle_beta   90.00000000
_cell_angle_gamma   120.03554602
_symmetry_Int_Tables_number   1
_chemical_formula_structural   Zr3Ti2Si2GeN
_chemical_formula_sum   'Zr6 Ti4 Si4 Ge2 N2'
_cell_volume   285.84335305
_cell_formula_units_Z   2
loop_
 _symmetry_equiv_pos_site_id
 _symmetry_equiv_pos_as_xyz
  1  'x, y, z'
loop_
 _atom_site_type_symbol
 _atom_site_label
 _atom_site_symmetry_multiplicity
 _atom_site_fract_x
 _atom_site_fract_y
 _atom_site_fract_z
 _atom_site_occupancy
  Zr  Zr0  1  0.234340  0.000000  0.750000  1
  Zr  Zr1  1  0.765660  0.000000  0.250000  1
  Zr  Zr2  1  0.002248  0.239238  0.750000  1
  Zr  Zr3  1  0.997752  0.760762  0.250000  1
  Zr  Zr4  1  0.763010  0.760762  0.750000  1
  Zr  Zr5  1  0.236990  0.239238  0.250000  1
  Ti  Ti6  1  0.331325  0.662652  0.500000  1
  Ti  Ti7  1  0.668675  0.337348  0.500000  1
  Ti  Ti8  1  0.668675  0.337348  0.000000  1
  Ti  Ti9  1  0.331325  0.662652  0.000000  1
  Si  Si10  1  0.000497  0.589741  0.750000  1
  Si  Si11  1  0.999503  0.410259  0.250000  1
  Si  Si12  1  0.410756  0.410259  0.750000  1
  Si  Si13  1  0.589244  0.589741  0.250000  1
  Ge  Ge14  1  0.590688  0.000000  0.750000  1
  Ge  Ge15  1  0.409312  0.000000  0.250000  1
  N  N16  1  0.000000  0.000000  0.500000  1
  N  N17  1  0.000000  0.000000  0.000000  1
