# generated using pymatgen
data_ErNbB6Ru
_symmetry_space_group_name_H-M   'P 1'
_cell_length_a   3.47482900
_cell_length_b   8.99777300
_cell_length_c   11.27177800
_cell_angle_alpha   90.00000000
_cell_angle_beta   90.00000000
_cell_angle_gamma   90.00000000
_symmetry_Int_Tables_number   1
_chemical_formula_structural   ErNbB6Ru
_chemical_formula_sum   'Er4 Nb4 B24 Ru4'
_cell_volume   352.42028366
_cell_formula_units_Z   4
loop_
 _symmetry_equiv_pos_site_id
 _symmetry_equiv_pos_as_xyz
  1  'x, y, z'
loop_
 _atom_site_type_symbol
 _atom_site_label
 _atom_site_symmetry_multiplicity
 _atom_site_fract_x
 _atom_site_fract_y
 _atom_site_fract_z
 _atom_site_occupancy
  Er  Er0  1  0.000000  0.323018  0.412843  1
  Er  Er1  1  0.000000  0.676982  0.587157  1
  Er  Er2  1  0.000000  0.823018  0.087157  1
  Er  Er3  1  0.000000  0.176982  0.912843  1
  Nb  Nb4  1  0.000000  0.945855  0.375128  1
  Nb  Nb5  1  0.000000  0.054145  0.624872  1
  Nb  Nb6  1  0.000000  0.445855  0.124872  1
  Nb  Nb7  1  0.000000  0.554145  0.875128  1
  B  B8  1  0.500000  0.554173  0.434653  1
  B  B9  1  0.500000  0.445827  0.565347  1
  B  B10  1  0.500000  0.054173  0.065347  1
  B  B11  1  0.500000  0.945827  0.934653  1
  B  B12  1  0.500000  0.753767  0.419269  1
  B  B13  1  0.500000  0.246233  0.580731  1
  B  B14  1  0.500000  0.253767  0.080731  1
  B  B15  1  0.500000  0.746233  0.919269  1
  B  B16  1  0.500000  0.797980  0.262869  1
  B  B17  1  0.500000  0.202020  0.737131  1
  B  B18  1  0.500000  0.297980  0.237131  1
  B  B19  1  0.500000  0.702020  0.762869  1
  B  B20  1  0.500000  0.629581  0.181526  1
  B  B21  1  0.500000  0.370419  0.818474  1
  B  B22  1  0.500000  0.129581  0.318474  1
  B  B23  1  0.500000  0.870419  0.681526  1
  B  B24  1  0.500000  0.980327  0.213437  1
  B  B25  1  0.500000  0.019673  0.786563  1
  B  B26  1  0.500000  0.480327  0.286563  1
  B  B27  1  0.500000  0.519673  0.713437  1
  B  B28  1  0.500000  0.600547  0.026821  1
  B  B29  1  0.500000  0.399453  0.973179  1
  B  B30  1  0.500000  0.100547  0.473179  1
  B  B31  1  0.500000  0.899453  0.526821  1
  Ru  Ru32  1  0.000000  0.643032  0.318071  1
  Ru  Ru33  1  0.000000  0.356968  0.681929  1
  Ru  Ru34  1  0.000000  0.143032  0.181929  1
  Ru  Ru35  1  0.000000  0.856968  0.818071  1
