# generated using pymatgen
data_YLu4ThRh18
_symmetry_space_group_name_H-M   'P 1'
_cell_length_a   5.25016800
_cell_length_b   5.25016849
_cell_length_c   17.50572500
_cell_angle_alpha   90.00000000
_cell_angle_beta   90.00000000
_cell_angle_gamma   119.99998434
_symmetry_Int_Tables_number   1
_chemical_formula_structural   YLu4ThRh18
_chemical_formula_sum   'Y1 Lu4 Th1 Rh18'
_cell_volume   417.88544356
_cell_formula_units_Z   1
loop_
 _symmetry_equiv_pos_site_id
 _symmetry_equiv_pos_as_xyz
  1  'x, y, z'
loop_
 _atom_site_type_symbol
 _atom_site_label
 _atom_site_symmetry_multiplicity
 _atom_site_fract_x
 _atom_site_fract_y
 _atom_site_fract_z
 _atom_site_occupancy
  Y  Y0  1  0.666667  0.333333  0.250000  1
  Lu  Lu1  1  0.333333  0.666667  0.961549  1
  Lu  Lu2  1  0.666667  0.333333  0.042126  1
  Lu  Lu3  1  0.666667  0.333333  0.457874  1
  Lu  Lu4  1  0.333333  0.666667  0.538451  1
  Th  Th5  1  0.333333  0.666667  0.750000  1
  Rh  Rh6  1  0.167252  0.832748  0.375362  1
  Rh  Rh7  1  0.167252  0.334505  0.375362  1
  Rh  Rh8  1  0.665495  0.832748  0.375362  1
  Rh  Rh9  1  0.831936  0.168064  0.623080  1
  Rh  Rh10  1  0.831936  0.663871  0.623080  1
  Rh  Rh11  1  0.336129  0.168064  0.623080  1
  Rh  Rh12  1  0.831936  0.168064  0.876920  1
  Rh  Rh13  1  0.831936  0.663871  0.876920  1
  Rh  Rh14  1  0.336129  0.168064  0.876920  1
  Rh  Rh15  1  0.167252  0.832748  0.124638  1
  Rh  Rh16  1  0.167252  0.334505  0.124638  1
  Rh  Rh17  1  0.665495  0.832748  0.124638  1
  Rh  Rh18  1  0.333333  0.666667  0.250000  1
  Rh  Rh19  1  0.666667  0.333333  0.750000  1
  Rh  Rh20  1  0.000000  0.000000  0.250000  1
  Rh  Rh21  1  0.000000  0.000000  0.750000  1
  Rh  Rh22  1  0.000000  0.000000  0.498767  1
  Rh  Rh23  1  0.000000  0.000000  0.001233  1
