# generated using pymatgen
data_Sc4Pa4V(ReB8)3
_symmetry_space_group_name_H-M   'P 1'
_cell_length_a   3.62625400
_cell_length_b   9.00388002
_cell_length_c   11.37909002
_cell_angle_alpha   89.99264121
_cell_angle_beta   90.00000000
_cell_angle_gamma   90.00000000
_symmetry_Int_Tables_number   1
_chemical_formula_structural   Sc4Pa4V(ReB8)3
_chemical_formula_sum   'Sc4 Pa4 V1 Re3 B24'
_cell_volume   371.53133639
_cell_formula_units_Z   1
loop_
 _symmetry_equiv_pos_site_id
 _symmetry_equiv_pos_as_xyz
  1  'x, y, z'
loop_
 _atom_site_type_symbol
 _atom_site_label
 _atom_site_symmetry_multiplicity
 _atom_site_fract_x
 _atom_site_fract_y
 _atom_site_fract_z
 _atom_site_occupancy
  Sc  Sc0  1  0.000000  0.943298  0.374118  1
  Sc  Sc1  1  0.000000  0.054327  0.625031  1
  Sc  Sc2  1  0.000000  0.447912  0.126769  1
  Sc  Sc3  1  0.000000  0.554573  0.874701  1
  Pa  Pa4  1  0.000000  0.321524  0.412742  1
  Pa  Pa5  1  0.000000  0.680371  0.584201  1
  Pa  Pa6  1  0.000000  0.818773  0.087849  1
  Pa  Pa7  1  0.000000  0.179648  0.914581  1
  V  V8  1  0.000000  0.640446  0.319324  1
  Re  Re9  1  0.000000  0.359143  0.681123  1
  Re  Re10  1  0.000000  0.140776  0.180231  1
  Re  Re11  1  0.000000  0.859604  0.819249  1
  B  B12  1  0.500000  0.554300  0.432287  1
  B  B13  1  0.500000  0.445509  0.567337  1
  B  B14  1  0.500000  0.054275  0.067262  1
  B  B15  1  0.500000  0.945501  0.933064  1
  B  B16  1  0.500000  0.752601  0.418941  1
  B  B17  1  0.500000  0.247014  0.580731  1
  B  B18  1  0.500000  0.253882  0.081098  1
  B  B19  1  0.500000  0.746502  0.919021  1
  B  B20  1  0.500000  0.794652  0.265066  1
  B  B21  1  0.500000  0.205045  0.735037  1
  B  B22  1  0.500000  0.294839  0.235221  1
  B  B23  1  0.500000  0.705304  0.764701  1
  B  B24  1  0.500000  0.630363  0.183095  1
  B  B25  1  0.500000  0.369800  0.817489  1
  B  B26  1  0.500000  0.129600  0.316993  1
  B  B27  1  0.500000  0.870130  0.682655  1
  B  B28  1  0.500000  0.981497  0.214829  1
  B  B29  1  0.500000  0.018177  0.785286  1
  B  B30  1  0.500000  0.482031  0.285349  1
  B  B31  1  0.500000  0.518112  0.714692  1
  B  B32  1  0.500000  0.600753  0.027218  1
  B  B33  1  0.500000  0.399618  0.972692  1
  B  B34  1  0.500000  0.100505  0.472179  1
  B  B35  1  0.500000  0.899597  0.527835  1
