# generated using pymatgen
data_Tm20TlCo4Bi7
_symmetry_space_group_name_H-M   'P 1'
_cell_length_a   7.84932056
_cell_length_b   8.83526143
_cell_length_c   12.22433300
_cell_angle_alpha   89.93960612
_cell_angle_beta   90.06817695
_cell_angle_gamma   89.98047451
_symmetry_Int_Tables_number   1
_chemical_formula_structural   Tm20TlCo4Bi7
_chemical_formula_sum   'Tm20 Tl1 Co4 Bi7'
_cell_volume   847.76614165
_cell_formula_units_Z   1
loop_
 _symmetry_equiv_pos_site_id
 _symmetry_equiv_pos_as_xyz
  1  'x, y, z'
loop_
 _atom_site_type_symbol
 _atom_site_label
 _atom_site_symmetry_multiplicity
 _atom_site_fract_x
 _atom_site_fract_y
 _atom_site_fract_z
 _atom_site_occupancy
  Tm  Tm0  1  0.351038  0.746645  0.701173  1
  Tm  Tm1  1  0.651672  0.249539  0.300164  1
  Tm  Tm2  1  0.844071  0.251960  0.798275  1
  Tm  Tm3  1  0.152734  0.749457  0.199713  1
  Tm  Tm4  1  0.881551  0.748029  0.812928  1
  Tm  Tm5  1  0.113303  0.250586  0.187908  1
  Tm  Tm6  1  0.391095  0.252885  0.688864  1
  Tm  Tm7  1  0.613659  0.750201  0.312918  1
  Tm  Tm8  1  0.673389  0.537631  0.567195  1
  Tm  Tm9  1  0.325892  0.462422  0.436158  1
  Tm  Tm10  1  0.177011  0.463201  0.935698  1
  Tm  Tm11  1  0.325602  0.038853  0.436863  1
  Tm  Tm12  1  0.825275  0.538228  0.063193  1
  Tm  Tm13  1  0.675413  0.960300  0.563573  1
  Tm  Tm14  1  0.824771  0.961776  0.063528  1
  Tm  Tm15  1  0.173550  0.038578  0.935698  1
  Tm  Tm16  1  0.056460  0.750481  0.497406  1
  Tm  Tm17  1  0.944808  0.249316  0.502422  1
  Tm  Tm18  1  0.555492  0.253415  0.000455  1
  Tm  Tm19  1  0.446711  0.746876  0.994772  1
  Tl  Tl20  1  0.570795  0.506855  0.827987  1
  Co  Co21  1  0.065443  0.751223  0.992686  1
  Co  Co22  1  0.932879  0.250562  0.007394  1
  Co  Co23  1  0.567474  0.249974  0.507265  1
  Co  Co24  1  0.431725  0.750386  0.492044  1
  Bi  Bi25  1  0.428749  0.490948  0.174190  1
  Bi  Bi26  1  0.071596  0.490829  0.672317  1
  Bi  Bi27  1  0.428312  0.008920  0.172011  1
  Bi  Bi28  1  0.929016  0.509044  0.327603  1
  Bi  Bi29  1  0.570513  0.991409  0.827424  1
  Bi  Bi30  1  0.929372  0.990957  0.326723  1
  Bi  Bi31  1  0.070630  0.008515  0.673453  1
