# generated using pymatgen
data_TbVCo4As3
_symmetry_space_group_name_H-M   'P 1'
_cell_length_a   3.79694600
_cell_length_b   10.74066000
_cell_length_c   12.28367000
_cell_angle_alpha   90.00000000
_cell_angle_beta   90.00000000
_cell_angle_gamma   90.00000000
_symmetry_Int_Tables_number   1
_chemical_formula_structural   TbVCo4As3
_chemical_formula_sum   'Tb4 V4 Co16 As12'
_cell_volume   500.94901884
_cell_formula_units_Z   4
loop_
 _symmetry_equiv_pos_site_id
 _symmetry_equiv_pos_as_xyz
  1  'x, y, z'
loop_
 _atom_site_type_symbol
 _atom_site_label
 _atom_site_symmetry_multiplicity
 _atom_site_fract_x
 _atom_site_fract_y
 _atom_site_fract_z
 _atom_site_occupancy
  Tb  Tb0  1  0.250000  0.580276  0.704392  1
  Tb  Tb1  1  0.250000  0.919724  0.204392  1
  Tb  Tb2  1  0.750000  0.419724  0.295608  1
  Tb  Tb3  1  0.750000  0.080276  0.795608  1
  V  V4  1  0.250000  0.701204  0.990607  1
  V  V5  1  0.250000  0.798796  0.490607  1
  V  V6  1  0.750000  0.298796  0.009393  1
  V  V7  1  0.750000  0.201204  0.509393  1
  Co  Co8  1  0.250000  0.404648  0.488929  1
  Co  Co9  1  0.250000  0.095352  0.988929  1
  Co  Co10  1  0.750000  0.595352  0.511071  1
  Co  Co11  1  0.750000  0.904648  0.011071  1
  Co  Co12  1  0.250000  0.216159  0.176341  1
  Co  Co13  1  0.250000  0.283841  0.676341  1
  Co  Co14  1  0.750000  0.783841  0.823659  1
  Co  Co15  1  0.750000  0.716159  0.323659  1
  Co  Co16  1  0.250000  0.884665  0.697026  1
  Co  Co17  1  0.250000  0.615335  0.197026  1
  Co  Co18  1  0.750000  0.115335  0.302974  1
  Co  Co19  1  0.750000  0.384665  0.802974  1
  Co  Co20  1  0.250000  0.467274  0.933873  1
  Co  Co21  1  0.250000  0.032726  0.433873  1
  Co  Co22  1  0.750000  0.532726  0.066127  1
  Co  Co23  1  0.750000  0.967274  0.566127  1
  As  As24  1  0.250000  0.416603  0.115959  1
  As  As25  1  0.250000  0.083397  0.615959  1
  As  As26  1  0.750000  0.583397  0.884041  1
  As  As27  1  0.750000  0.916603  0.384041  1
  As  As28  1  0.250000  0.267523  0.866398  1
  As  As29  1  0.250000  0.232477  0.366398  1
  As  As30  1  0.750000  0.732477  0.133602  1
  As  As31  1  0.750000  0.767523  0.633602  1
  As  As32  1  0.250000  0.597811  0.391584  1
  As  As33  1  0.250000  0.902189  0.891584  1
  As  As34  1  0.750000  0.402189  0.608416  1
  As  As35  1  0.750000  0.097811  0.108416  1
