# generated using pymatgen
data_La4Pr6Al4IrRu5
_symmetry_space_group_name_H-M   'P 1'
_cell_length_a   8.56255660
_cell_length_b   8.65102464
_cell_length_c   8.65422905
_cell_angle_alpha   109.53124873
_cell_angle_beta   109.56085096
_cell_angle_gamma   109.04289066
_symmetry_Int_Tables_number   1
_chemical_formula_structural   La4Pr6Al4IrRu5
_chemical_formula_sum   'La4 Pr6 Al4 Ir1 Ru5'
_cell_volume   495.16938166
_cell_formula_units_Z   1
loop_
 _symmetry_equiv_pos_site_id
 _symmetry_equiv_pos_as_xyz
  1  'x, y, z'
loop_
 _atom_site_type_symbol
 _atom_site_label
 _atom_site_symmetry_multiplicity
 _atom_site_fract_x
 _atom_site_fract_y
 _atom_site_fract_z
 _atom_site_occupancy
  La  La0  1  0.251534  0.689299  0.440182  1
  La  La1  1  0.751451  0.812323  0.059986  1
  La  La2  1  0.444322  0.251797  0.686225  1
  La  La3  1  0.689352  0.439816  0.250429  1
  Pr  Pr4  1  0.062372  0.747066  0.814552  1
  Pr  Pr5  1  0.817105  0.064569  0.751057  1
  Pr  Pr6  1  0.214782  0.217925  0.216261  1
  Pr  Pr7  1  0.499884  0.996277  0.284161  1
  Pr  Pr8  1  0.286082  0.502830  0.000714  1
  Pr  Pr9  1  0.999525  0.285992  0.501884  1
  Al  Al10  1  0.592168  0.591497  0.590265  1
  Al  Al11  1  0.498929  0.000565  0.910376  1
  Al  Al12  1  0.912492  0.498580  0.999808  1
  Al  Al13  1  0.000887  0.911604  0.501024  1
  Ir  Ir14  1  0.248520  0.118318  0.861844  1
  Ru  Ru15  1  0.740340  0.375602  0.632273  1
  Ru  Ru16  1  0.860952  0.254292  0.121443  1
  Ru  Ru17  1  0.113632  0.864276  0.247485  1
  Ru  Ru18  1  0.632284  0.740433  0.378793  1
  Ru  Ru19  1  0.383385  0.636938  0.751239  1
