# generated using pymatgen
data_Ho11Lu(Si3Rh)4
_symmetry_space_group_name_H-M   'P 1'
_cell_length_a   4.22206500
_cell_length_b   10.59443690
_cell_length_c   12.22816600
_cell_angle_alpha   89.91780766
_cell_angle_beta   90.00000000
_cell_angle_gamma   90.00000000
_symmetry_Int_Tables_number   1
_chemical_formula_structural   Ho11Lu(Si3Rh)4
_chemical_formula_sum   'Ho11 Lu1 Si12 Rh4'
_cell_volume   546.97020874
_cell_formula_units_Z   1
loop_
 _symmetry_equiv_pos_site_id
 _symmetry_equiv_pos_as_xyz
  1  'x, y, z'
loop_
 _atom_site_type_symbol
 _atom_site_label
 _atom_site_symmetry_multiplicity
 _atom_site_fract_x
 _atom_site_fract_y
 _atom_site_fract_z
 _atom_site_occupancy
  Ho  Ho0  1  0.250000  0.880555  0.020241  1
  Ho  Ho1  1  0.250000  0.619713  0.520399  1
  Ho  Ho2  1  0.750000  0.120226  0.978568  1
  Ho  Ho3  1  0.750000  0.378808  0.480205  1
  Ho  Ho4  1  0.250000  0.920062  0.603259  1
  Ho  Ho5  1  0.250000  0.580408  0.103092  1
  Ho  Ho6  1  0.750000  0.079951  0.397850  1
  Ho  Ho7  1  0.750000  0.419480  0.896583  1
  Ho  Ho8  1  0.250000  0.659756  0.801015  1
  Ho  Ho9  1  0.250000  0.840653  0.301021  1
  Ho  Ho10  1  0.750000  0.339488  0.199027  1
  Lu  Lu11  1  0.750000  0.160970  0.699867  1
  Si  Si12  1  0.250000  0.014381  0.820585  1
  Si  Si13  1  0.250000  0.486300  0.321789  1
  Si  Si14  1  0.750000  0.987508  0.178468  1
  Si  Si15  1  0.750000  0.513230  0.678128  1
  Si  Si16  1  0.250000  0.246615  0.840588  1
  Si  Si17  1  0.250000  0.252504  0.342297  1
  Si  Si18  1  0.750000  0.753321  0.158522  1
  Si  Si19  1  0.750000  0.746722  0.658327  1
  Si  Si20  1  0.250000  0.198364  0.544052  1
  Si  Si21  1  0.250000  0.300251  0.041428  1
  Si  Si22  1  0.750000  0.800010  0.458318  1
  Si  Si23  1  0.750000  0.700246  0.958016  1
  Rh  Rh24  1  0.250000  0.388982  0.681500  1
  Rh  Rh25  1  0.250000  0.109910  0.181698  1
  Rh  Rh26  1  0.750000  0.609701  0.318559  1
  Rh  Rh27  1  0.750000  0.891883  0.816597  1
