# generated using pymatgen
data_Dy4LuInAu4
_symmetry_space_group_name_H-M   'P 1'
_cell_length_a   8.07799700
_cell_length_b   8.07799700
_cell_length_c   3.75366800
_cell_angle_alpha   90.00000000
_cell_angle_beta   90.00000000
_cell_angle_gamma   90.00000000
_symmetry_Int_Tables_number   1
_chemical_formula_structural   Dy4LuInAu4
_chemical_formula_sum   'Dy4 Lu1 In1 Au4'
_cell_volume   244.94198505
_cell_formula_units_Z   1
loop_
 _symmetry_equiv_pos_site_id
 _symmetry_equiv_pos_as_xyz
  1  'x, y, z'
loop_
 _atom_site_type_symbol
 _atom_site_label
 _atom_site_symmetry_multiplicity
 _atom_site_fract_x
 _atom_site_fract_y
 _atom_site_fract_z
 _atom_site_occupancy
  Dy  Dy0  1  0.317121  0.854967  0.500000  1
  Dy  Dy1  1  0.854967  0.682879  0.500000  1
  Dy  Dy2  1  0.682879  0.145033  0.500000  1
  Dy  Dy3  1  0.145033  0.317121  0.500000  1
  Lu  Lu4  1  0.500000  0.500000  0.000000  1
  In  In5  1  0.000000  0.000000  0.000000  1
  Au  Au6  1  0.147563  0.618247  0.000000  1
  Au  Au7  1  0.618247  0.852437  0.000000  1
  Au  Au8  1  0.381753  0.147563  0.000000  1
  Au  Au9  1  0.852437  0.381753  0.000000  1
