# generated using pymatgen
data_Ac4(SiO4)3
_symmetry_space_group_name_H-M   'P 1'
_cell_length_a   9.24520640
_cell_length_b   9.24520619
_cell_length_c   9.24520600
_cell_angle_alpha   109.47122459
_cell_angle_beta   109.47122413
_cell_angle_gamma   109.47121759
_symmetry_Int_Tables_number   1
_chemical_formula_structural   Ac4(SiO4)3
_chemical_formula_sum   'Ac8 Si6 O24'
_cell_volume   608.31411135
_cell_formula_units_Z   2
loop_
 _symmetry_equiv_pos_site_id
 _symmetry_equiv_pos_as_xyz
  1  'x, y, z'
loop_
 _atom_site_type_symbol
 _atom_site_label
 _atom_site_symmetry_multiplicity
 _atom_site_fract_x
 _atom_site_fract_y
 _atom_site_fract_z
 _atom_site_occupancy
  Ac  Ac0  1  0.500000  0.000000  0.362094  1
  Ac  Ac1  1  0.362094  0.500000  0.000000  1
  Ac  Ac2  1  0.862094  0.500000  0.000000  1
  Ac  Ac3  1  0.637906  0.637906  0.637906  1
  Ac  Ac4  1  0.000000  0.862094  0.500000  1
  Ac  Ac5  1  0.000000  0.362094  0.500000  1
  Ac  Ac6  1  0.500000  0.000000  0.862094  1
  Ac  Ac7  1  0.137906  0.137906  0.137906  1
  Si  Si8  1  0.625000  0.375000  0.250000  1
  Si  Si9  1  0.375000  0.250000  0.625000  1
  Si  Si10  1  0.250000  0.625000  0.375000  1
  Si  Si11  1  0.875000  0.125000  0.750000  1
  Si  Si12  1  0.750000  0.875000  0.125000  1
  Si  Si13  1  0.125000  0.750000  0.875000  1
  O  O14  1  0.350534  0.189586  0.425308  1
  O  O15  1  0.925308  0.689586  0.850534  1
  O  O16  1  0.074692  0.264278  0.925225  1
  O  O17  1  0.850534  0.925308  0.689586  1
  O  O18  1  0.925225  0.074692  0.264278  1
  O  O19  1  0.689586  0.850534  0.925308  1
  O  O20  1  0.574692  0.425225  0.764278  1
  O  O21  1  0.810414  0.735722  0.160948  1
  O  O22  1  0.149466  0.574775  0.839052  1
  O  O23  1  0.339052  0.074775  0.649466  1
  O  O24  1  0.264278  0.925225  0.074692  1
  O  O25  1  0.310414  0.660948  0.235722  1
  O  O26  1  0.764278  0.574692  0.425225  1
  O  O27  1  0.160948  0.810414  0.735722  1
  O  O28  1  0.425225  0.764278  0.574692  1
  O  O29  1  0.649466  0.339052  0.074775  1
  O  O30  1  0.074775  0.649466  0.339052  1
  O  O31  1  0.574775  0.839052  0.149466  1
  O  O32  1  0.189586  0.425308  0.350534  1
  O  O33  1  0.735722  0.160948  0.810414  1
  O  O34  1  0.235722  0.310414  0.660948  1
  O  O35  1  0.660948  0.235722  0.310414  1
  O  O36  1  0.425308  0.350534  0.189586  1
  O  O37  1  0.839052  0.149466  0.574775  1
