# generated using pymatgen
data_Ti3Tc5Sb3Rh
_symmetry_space_group_name_H-M   'P 1'
_cell_length_a   4.45203500
_cell_length_b   6.41173500
_cell_length_c   13.37404900
_cell_angle_alpha   90.00000000
_cell_angle_beta   90.00020577
_cell_angle_gamma   90.00000000
_symmetry_Int_Tables_number   1
_chemical_formula_structural   Ti3Tc5Sb3Rh
_chemical_formula_sum   'Ti6 Tc10 Sb6 Rh2'
_cell_volume   381.76582138
_cell_formula_units_Z   2
loop_
 _symmetry_equiv_pos_site_id
 _symmetry_equiv_pos_as_xyz
  1  'x, y, z'
loop_
 _atom_site_type_symbol
 _atom_site_label
 _atom_site_symmetry_multiplicity
 _atom_site_fract_x
 _atom_site_fract_y
 _atom_site_fract_z
 _atom_site_occupancy
  Ti  Ti0  1  0.000000  0.000000  0.000000  1
  Ti  Ti1  1  0.499904  0.500000  0.170823  1
  Ti  Ti2  1  0.999907  0.000000  0.333675  1
  Ti  Ti3  1  0.500001  0.500000  0.500000  1
  Ti  Ti4  1  0.000092  0.000000  0.666325  1
  Ti  Ti5  1  0.500096  0.500000  0.829178  1
  Tc  Tc6  1  0.999911  0.249989  0.163428  1
  Tc  Tc7  1  0.999911  0.750012  0.163428  1
  Tc  Tc8  1  0.499910  0.250934  0.332051  1
  Tc  Tc9  1  0.499910  0.749066  0.332051  1
  Tc  Tc10  1  0.000000  0.249974  0.500000  1
  Tc  Tc11  1  0.000000  0.750026  0.500000  1
  Tc  Tc12  1  0.500092  0.250934  0.667950  1
  Tc  Tc13  1  0.500092  0.749066  0.667950  1
  Tc  Tc14  1  0.000088  0.249989  0.836572  1
  Tc  Tc15  1  0.000088  0.750012  0.836572  1
  Sb  Sb16  1  0.000000  0.500000  0.000000  1
  Sb  Sb17  1  0.499887  0.000000  0.168326  1
  Sb  Sb18  1  0.999902  0.500000  0.333158  1
  Sb  Sb19  1  0.500001  0.000000  0.500000  1
  Sb  Sb20  1  0.000097  0.500000  0.666842  1
  Sb  Sb21  1  0.500113  0.000000  0.831674  1
  Rh  Rh22  1  0.500001  0.246192  0.000000  1
  Rh  Rh23  1  0.500001  0.753807  0.000000  1
