# generated using pymatgen
data_Rb8Ho3Er3BeBr20
_symmetry_space_group_name_H-M   'P 1'
_cell_length_a   12.28930632
_cell_length_b   12.29125682
_cell_length_c   12.29339915
_cell_angle_alpha   59.98374587
_cell_angle_beta   59.99948440
_cell_angle_gamma   60.01677737
_symmetry_Int_Tables_number   1
_chemical_formula_structural   Rb8Ho3Er3BeBr20
_chemical_formula_sum   'Rb8 Ho3 Er3 Be1 Br20'
_cell_volume   1313.04799387
_cell_formula_units_Z   1
loop_
 _symmetry_equiv_pos_site_id
 _symmetry_equiv_pos_as_xyz
  1  'x, y, z'
loop_
 _atom_site_type_symbol
 _atom_site_label
 _atom_site_symmetry_multiplicity
 _atom_site_fract_x
 _atom_site_fract_y
 _atom_site_fract_z
 _atom_site_occupancy
  Rb  Rb0  1  0.358724  0.358738  0.358728  1
  Rb  Rb1  1  0.641267  0.641269  0.641275  1
  Rb  Rb2  1  0.358731  0.358733  0.923811  1
  Rb  Rb3  1  0.358728  0.923810  0.358724  1
  Rb  Rb4  1  0.641262  0.641276  0.076190  1
  Rb  Rb5  1  0.641275  0.076189  0.641267  1
  Rb  Rb6  1  0.923811  0.358725  0.358731  1
  Rb  Rb7  1  0.076190  0.641272  0.641262  1
  Ho  Ho8  1  0.845442  0.154558  0.154487  1
  Ho  Ho9  1  0.154487  0.845513  0.845442  1
  Ho  Ho10  1  0.154467  0.845533  0.154467  1
  Er  Er11  1  0.845523  0.154477  0.845523  1
  Er  Er12  1  0.154402  0.154463  0.845537  1
  Er  Er13  1  0.845537  0.845598  0.154402  1
  Be  Be14  1  0.999886  0.000114  0.999886  1
  Br  Br15  1  0.330194  0.000272  0.999728  1
  Br  Br16  1  0.670051  0.000004  0.999996  1
  Br  Br17  1  0.999996  0.329949  0.670051  1
  Br  Br18  1  0.999728  0.669806  0.330194  1
  Br  Br19  1  0.000266  0.330193  0.999727  1
  Br  Br20  1  0.669807  0.999734  0.330186  1
  Br  Br21  1  0.999727  0.669814  0.000266  1
  Br  Br22  1  0.330186  0.000273  0.669807  1
  Br  Br23  1  0.999994  0.000006  0.330401  1
  Br  Br24  1  0.999722  0.000278  0.669826  1
  Br  Br25  1  0.669826  0.330174  0.999722  1
  Br  Br26  1  0.330401  0.669599  0.999994  1
  Br  Br27  1  0.680282  0.319718  0.319719  1
  Br  Br28  1  0.319719  0.680281  0.680282  1
  Br  Br29  1  0.319726  0.680274  0.319726  1
  Br  Br30  1  0.680637  0.319363  0.680637  1
  Br  Br31  1  0.319373  0.319368  0.680632  1
  Br  Br32  1  0.680632  0.680627  0.319373  1
  Br  Br33  1  0.250001  0.249999  0.250001  1
  Br  Br34  1  0.750001  0.749999  0.750001  1
