# generated using pymatgen
data_Ho3LuCdRu
_symmetry_space_group_name_H-M   'P 1'
_cell_length_a   9.52875311
_cell_length_b   9.52875303
_cell_length_c   9.52875300
_cell_angle_alpha   59.99999665
_cell_angle_beta   59.99999690
_cell_angle_gamma   59.99999768
_symmetry_Int_Tables_number   1
_chemical_formula_structural   Ho3LuCdRu
_chemical_formula_sum   'Ho12 Lu4 Cd4 Ru4'
_cell_volume   611.77706042
_cell_formula_units_Z   4
loop_
 _symmetry_equiv_pos_site_id
 _symmetry_equiv_pos_as_xyz
  1  'x, y, z'
loop_
 _atom_site_type_symbol
 _atom_site_label
 _atom_site_symmetry_multiplicity
 _atom_site_fract_x
 _atom_site_fract_y
 _atom_site_fract_z
 _atom_site_occupancy
  Ho  Ho0  1  0.810818  0.189182  0.189182  1
  Ho  Ho1  1  0.189182  0.810818  0.810818  1
  Ho  Ho2  1  0.189182  0.810818  0.189182  1
  Ho  Ho3  1  0.810818  0.189182  0.810818  1
  Ho  Ho4  1  0.189182  0.189182  0.810818  1
  Ho  Ho5  1  0.810818  0.810818  0.189182  1
  Ho  Ho6  1  0.939088  0.560912  0.560912  1
  Ho  Ho7  1  0.560912  0.939088  0.939088  1
  Ho  Ho8  1  0.560912  0.939088  0.560912  1
  Ho  Ho9  1  0.939088  0.560912  0.939088  1
  Ho  Ho10  1  0.560912  0.560912  0.939088  1
  Ho  Ho11  1  0.939088  0.939088  0.560912  1
  Lu  Lu12  1  0.346279  0.346279  0.346279  1
  Lu  Lu13  1  0.346279  0.346279  0.961162  1
  Lu  Lu14  1  0.346279  0.961162  0.346279  1
  Lu  Lu15  1  0.961162  0.346279  0.346279  1
  Cd  Cd16  1  0.580227  0.580227  0.580227  1
  Cd  Cd17  1  0.580227  0.580227  0.259319  1
  Cd  Cd18  1  0.580227  0.259319  0.580227  1
  Cd  Cd19  1  0.259319  0.580227  0.580227  1
  Ru  Ru20  1  0.141186  0.141186  0.141186  1
  Ru  Ru21  1  0.141186  0.141186  0.576441  1
  Ru  Ru22  1  0.141186  0.576441  0.141186  1
  Ru  Ru23  1  0.576441  0.141186  0.141186  1
