# generated using pymatgen
data_Sc5GaPb3
_symmetry_space_group_name_H-M   'P 1'
_cell_length_a   8.84962500
_cell_length_b   8.84962606
_cell_length_c   6.15785500
_cell_angle_alpha   90.00000000
_cell_angle_beta   90.00000000
_cell_angle_gamma   119.99999977
_symmetry_Int_Tables_number   1
_chemical_formula_structural   Sc5GaPb3
_chemical_formula_sum   'Sc10 Ga2 Pb6'
_cell_volume   417.64749319
_cell_formula_units_Z   2
loop_
 _symmetry_equiv_pos_site_id
 _symmetry_equiv_pos_as_xyz
  1  'x, y, z'
loop_
 _atom_site_type_symbol
 _atom_site_label
 _atom_site_symmetry_multiplicity
 _atom_site_fract_x
 _atom_site_fract_y
 _atom_site_fract_z
 _atom_site_occupancy
  Sc  Sc0  1  0.740450  0.740450  0.750000  1
  Sc  Sc1  1  0.259550  0.000000  0.750000  1
  Sc  Sc2  1  0.000000  0.259550  0.750000  1
  Sc  Sc3  1  0.259550  0.259550  0.250000  1
  Sc  Sc4  1  0.740450  0.000000  0.250000  1
  Sc  Sc5  1  0.000000  0.740450  0.250000  1
  Sc  Sc6  1  0.666667  0.333333  0.000000  1
  Sc  Sc7  1  0.333333  0.666667  0.000000  1
  Sc  Sc8  1  0.333333  0.666667  0.500000  1
  Sc  Sc9  1  0.666667  0.333333  0.500000  1
  Ga  Ga10  1  0.000000  0.000000  0.000000  1
  Ga  Ga11  1  0.000000  0.000000  0.500000  1
  Pb  Pb12  1  0.385605  0.385605  0.750000  1
  Pb  Pb13  1  0.614395  0.000000  0.750000  1
  Pb  Pb14  1  0.000000  0.614395  0.750000  1
  Pb  Pb15  1  0.614395  0.614395  0.250000  1
  Pb  Pb16  1  0.385605  0.000000  0.250000  1
  Pb  Pb17  1  0.000000  0.385605  0.250000  1
