# generated using pymatgen
data_RbPH2
_symmetry_space_group_name_H-M   'P 1'
_cell_length_a   5.69434689
_cell_length_b   4.54294400
_cell_length_c   7.31720737
_cell_angle_alpha   90.00000000
_cell_angle_beta   95.00443397
_cell_angle_gamma   90.00000000
_symmetry_Int_Tables_number   1
_chemical_formula_structural   RbPH2
_chemical_formula_sum   'Rb2 P2 H4'
_cell_volume   188.56798086
_cell_formula_units_Z   2
loop_
 _symmetry_equiv_pos_site_id
 _symmetry_equiv_pos_as_xyz
  1  'x, y, z'
loop_
 _atom_site_type_symbol
 _atom_site_label
 _atom_site_symmetry_multiplicity
 _atom_site_fract_x
 _atom_site_fract_y
 _atom_site_fract_z
 _atom_site_occupancy
  Rb  Rb0  1  0.782137  0.750001  0.736402  1
  Rb  Rb1  1  0.217864  0.250002  0.263600  1
  P  P2  1  0.718378  0.750001  0.250862  1
  P  P3  1  0.281620  0.250002  0.749137  1
  H  H4  1  0.677076  0.522796  0.115590  1
  H  H5  1  0.322923  0.022794  0.884410  1
  H  H6  1  0.322923  0.477205  0.884410  1
  H  H7  1  0.677076  0.977207  0.115590  1
