# generated using pymatgen
data_Ho5Sc3Re11Si16W
_symmetry_space_group_name_H-M   'P 1'
_cell_length_a   6.72120567
_cell_length_b   6.73185811
_cell_length_c   12.67028161
_cell_angle_alpha   90.40212830
_cell_angle_beta   89.78282780
_cell_angle_gamma   89.96704798
_symmetry_Int_Tables_number   1
_chemical_formula_structural   Ho5Sc3Re11Si16W
_chemical_formula_sum   'Ho5 Sc3 Re11 Si16 W1'
_cell_volume   573.26379124
_cell_formula_units_Z   1
loop_
 _symmetry_equiv_pos_site_id
 _symmetry_equiv_pos_as_xyz
  1  'x, y, z'
loop_
 _atom_site_type_symbol
 _atom_site_label
 _atom_site_symmetry_multiplicity
 _atom_site_fract_x
 _atom_site_fract_y
 _atom_site_fract_z
 _atom_site_occupancy
  Ho  Ho0  1  0.007491  0.663958  0.031434  1
  Ho  Ho1  1  0.992811  0.334393  0.531705  1
  Ho  Ho2  1  0.336670  0.992356  0.468547  1
  Ho  Ho3  1  0.165045  0.494712  0.782358  1
  Ho  Ho4  1  0.837874  0.505415  0.278409  1
  Sc  Sc5  1  0.489821  0.156002  0.218771  1
  Sc  Sc6  1  0.511188  0.841656  0.719700  1
  Sc  Sc7  1  0.659663  0.012248  0.970030  1
  Re  Re8  1  0.167858  0.837208  0.248295  1
  Re  Re9  1  0.339615  0.330936  0.002416  1
  Re  Re10  1  0.015891  0.812434  0.633805  1
  Re  Re11  1  0.982870  0.183643  0.127733  1
  Re  Re12  1  0.807402  0.009565  0.368148  1
  Re  Re13  1  0.314176  0.480191  0.380353  1
  Re  Re14  1  0.681315  0.520953  0.881686  1
  Re  Re15  1  0.488147  0.316247  0.621452  1
  Re  Re16  1  0.524106  0.696878  0.111615  1
  Re  Re17  1  0.184455  0.983746  0.868593  1
  Re  Re18  1  0.828810  0.160883  0.752422  1
  Si  Si19  1  0.023195  0.721859  0.437951  1
  Si  Si20  1  0.615476  0.299859  0.430569  1
  Si  Si21  1  0.386379  0.704799  0.930721  1
  Si  Si22  1  0.200431  0.112800  0.684209  1
  Si  Si23  1  0.303955  0.618777  0.569305  1
  Si  Si24  1  0.691627  0.379590  0.067874  1
  Si  Si25  1  0.800873  0.890664  0.181116  1
  Si  Si26  1  0.114996  0.193647  0.314552  1
  Si  Si27  1  0.972639  0.275821  0.937566  1
  Si  Si28  1  0.721271  0.020351  0.565783  1
  Si  Si29  1  0.239525  0.478993  0.186921  1
  Si  Si30  1  0.775332  0.525557  0.691019  1
  Si  Si31  1  0.478167  0.217072  0.815303  1
  Si  Si32  1  0.518113  0.773635  0.307024  1
  Si  Si33  1  0.283917  0.981247  0.061605  1
  Si  Si34  1  0.876079  0.808869  0.819026  1
  W  W35  1  0.662818  0.663035  0.501983  1
