# generated using pymatgen
data_Y3Al2InGa2Ni
_symmetry_space_group_name_H-M   'P 1'
_cell_length_a   7.08845400
_cell_length_b   7.00348597
_cell_length_c   4.29395100
_cell_angle_alpha   90.00000000
_cell_angle_beta   90.00000000
_cell_angle_gamma   120.40214016
_symmetry_Int_Tables_number   1
_chemical_formula_structural   Y3Al2InGa2Ni
_chemical_formula_sum   'Y3 Al2 In1 Ga2 Ni1'
_cell_volume   183.85664943
_cell_formula_units_Z   1
loop_
 _symmetry_equiv_pos_site_id
 _symmetry_equiv_pos_as_xyz
  1  'x, y, z'
loop_
 _atom_site_type_symbol
 _atom_site_label
 _atom_site_symmetry_multiplicity
 _atom_site_fract_x
 _atom_site_fract_y
 _atom_site_fract_z
 _atom_site_occupancy
  Y  Y0  1  0.000470  0.589346  0.000000  1
  Y  Y1  1  0.411124  0.410654  0.000000  1
  Y  Y2  1  0.596382  0.000000  0.000000  1
  Al  Al3  1  0.763846  0.769118  0.500000  1
  Al  Al4  1  0.994729  0.230882  0.500000  1
  In  In5  1  0.238805  0.000000  0.500000  1
  Ga  Ga6  1  0.677672  0.343525  0.500000  1
  Ga  Ga7  1  0.334147  0.656475  0.500000  1
  Ni  Ni8  1  0.982826  0.000000  0.000000  1
