# generated using pymatgen
data_Pu2AsSe
_symmetry_space_group_name_H-M   'P 1'
_cell_length_a   7.21441294
_cell_length_b   7.21441304
_cell_length_c   7.21441285
_cell_angle_alpha   131.89107913
_cell_angle_beta   131.89108299
_cell_angle_gamma   70.40111023
_symmetry_Int_Tables_number   1
_chemical_formula_structural   Pu2AsSe
_chemical_formula_sum   'Pu4 As2 Se2'
_cell_volume   203.90957905
_cell_formula_units_Z   2
loop_
 _symmetry_equiv_pos_site_id
 _symmetry_equiv_pos_as_xyz
  1  'x, y, z'
loop_
 _atom_site_type_symbol
 _atom_site_label
 _atom_site_symmetry_multiplicity
 _atom_site_fract_x
 _atom_site_fract_y
 _atom_site_fract_z
 _atom_site_occupancy
  Pu  Pu0  1  0.748225  0.748225  0.000000  1
  Pu  Pu1  1  0.251775  0.251775  0.000000  1
  Pu  Pu2  1  0.001775  0.501775  0.500000  1
  Pu  Pu3  1  0.498225  0.998225  0.500000  1
  As  As4  1  0.500000  0.500000  0.000000  1
  As  As5  1  0.250000  0.750000  0.500000  1
  Se  Se6  1  0.000000  0.000000  0.000000  1
  Se  Se7  1  0.750000  0.250000  0.500000  1
