# generated using pymatgen
data_Sm4HoTm3(B6Ru)4
_symmetry_space_group_name_H-M   'P 1'
_cell_length_a   3.67748600
_cell_length_b   9.15811504
_cell_length_c   11.56605806
_cell_angle_alpha   90.01135149
_cell_angle_beta   90.00000000
_cell_angle_gamma   90.00000000
_symmetry_Int_Tables_number   1
_chemical_formula_structural   Sm4HoTm3(B6Ru)4
_chemical_formula_sum   'Sm4 Ho1 Tm3 B24 Ru4'
_cell_volume   389.53140951
_cell_formula_units_Z   1
loop_
 _symmetry_equiv_pos_site_id
 _symmetry_equiv_pos_as_xyz
  1  'x, y, z'
loop_
 _atom_site_type_symbol
 _atom_site_label
 _atom_site_symmetry_multiplicity
 _atom_site_fract_x
 _atom_site_fract_y
 _atom_site_fract_z
 _atom_site_occupancy
  Sm  Sm0  1  0.000000  0.322528  0.414392  1
  Sm  Sm1  1  0.000000  0.677504  0.585812  1
  Sm  Sm2  1  0.000000  0.822315  0.085527  1
  Sm  Sm3  1  0.000000  0.177681  0.914290  1
  Ho  Ho4  1  0.000000  0.944042  0.372115  1
  Tm  Tm5  1  0.000000  0.056073  0.628246  1
  Tm  Tm6  1  0.000000  0.444056  0.127839  1
  Tm  Tm7  1  0.000000  0.555943  0.872070  1
  B  B8  1  0.500000  0.555485  0.431402  1
  B  B9  1  0.500000  0.444298  0.568670  1
  B  B10  1  0.500000  0.055700  0.068510  1
  B  B11  1  0.500000  0.944338  0.931352  1
  B  B12  1  0.500000  0.749359  0.418062  1
  B  B13  1  0.500000  0.250062  0.582004  1
  B  B14  1  0.500000  0.250085  0.081916  1
  B  B15  1  0.500000  0.750002  0.918026  1
  B  B16  1  0.500000  0.790641  0.266140  1
  B  B17  1  0.500000  0.208798  0.733721  1
  B  B18  1  0.500000  0.291449  0.233621  1
  B  B19  1  0.500000  0.708756  0.766317  1
  B  B20  1  0.500000  0.630529  0.184493  1
  B  B21  1  0.500000  0.369365  0.815417  1
  B  B22  1  0.500000  0.131168  0.315156  1
  B  B23  1  0.500000  0.869315  0.684647  1
  B  B24  1  0.500000  0.984978  0.213474  1
  B  B25  1  0.500000  0.015357  0.786097  1
  B  B26  1  0.500000  0.484512  0.286034  1
  B  B27  1  0.500000  0.515384  0.713940  1
  B  B28  1  0.500000  0.602999  0.028101  1
  B  B29  1  0.500000  0.396980  0.971852  1
  B  B30  1  0.500000  0.103773  0.472258  1
  B  B31  1  0.500000  0.896708  0.528783  1
  Ru  Ru32  1  0.000000  0.638582  0.319520  1
  Ru  Ru33  1  0.000000  0.360823  0.680492  1
  Ru  Ru34  1  0.000000  0.139679  0.180045  1
  Ru  Ru35  1  0.000000  0.860734  0.819661  1
