# generated using pymatgen
data_NdDy2Er5(CdPt)2
_symmetry_space_group_name_H-M   'P 1'
_cell_length_a   9.67086264
_cell_length_b   9.67086256
_cell_length_c   9.65256400
_cell_angle_alpha   60.06257837
_cell_angle_beta   60.06257865
_cell_angle_gamma   59.87485250
_symmetry_Int_Tables_number   1
_chemical_formula_structural   NdDy2Er5(CdPt)2
_chemical_formula_sum   'Nd2 Dy4 Er10 Cd4 Pt4'
_cell_volume   638.34438846
_cell_formula_units_Z   2
loop_
 _symmetry_equiv_pos_site_id
 _symmetry_equiv_pos_as_xyz
  1  'x, y, z'
loop_
 _atom_site_type_symbol
 _atom_site_label
 _atom_site_symmetry_multiplicity
 _atom_site_fract_x
 _atom_site_fract_y
 _atom_site_fract_z
 _atom_site_occupancy
  Nd  Nd0  1  0.566826  0.566826  0.933174  1
  Nd  Nd1  1  0.933174  0.933174  0.566826  1
  Dy  Dy2  1  0.937926  0.562074  0.562074  1
  Dy  Dy3  1  0.562074  0.937926  0.937926  1
  Dy  Dy4  1  0.562074  0.937926  0.562074  1
  Dy  Dy5  1  0.937926  0.562074  0.937926  1
  Er  Er6  1  0.351141  0.351141  0.351254  1
  Er  Er7  1  0.351141  0.351141  0.946464  1
  Er  Er8  1  0.351254  0.946464  0.351141  1
  Er  Er9  1  0.946464  0.351254  0.351141  1
  Er  Er10  1  0.810488  0.189512  0.189512  1
  Er  Er11  1  0.189512  0.810488  0.810488  1
  Er  Er12  1  0.189512  0.810488  0.189512  1
  Er  Er13  1  0.810488  0.189512  0.810488  1
  Er  Er14  1  0.189541  0.189541  0.810459  1
  Er  Er15  1  0.810459  0.810459  0.189541  1
  Cd  Cd16  1  0.582200  0.582200  0.578558  1
  Cd  Cd17  1  0.582200  0.582200  0.257043  1
  Cd  Cd18  1  0.578558  0.257043  0.582200  1
  Cd  Cd19  1  0.257043  0.578558  0.582200  1
  Pt  Pt20  1  0.143826  0.143826  0.140879  1
  Pt  Pt21  1  0.143826  0.143826  0.571470  1
  Pt  Pt22  1  0.140879  0.571470  0.143826  1
  Pt  Pt23  1  0.571470  0.140879  0.143826  1
