# generated using pymatgen
data_NpIr(WF12)2
_symmetry_space_group_name_H-M   'P 1'
_cell_length_a   5.34838628
_cell_length_b   9.22216900
_cell_length_c   10.09537800
_cell_angle_alpha   90.00000000
_cell_angle_beta   89.96036292
_cell_angle_gamma   90.00000000
_symmetry_Int_Tables_number   1
_chemical_formula_structural   NpIr(WF12)2
_chemical_formula_sum   'Np1 Ir1 W2 F24'
_cell_volume   497.94150032
_cell_formula_units_Z   1
loop_
 _symmetry_equiv_pos_site_id
 _symmetry_equiv_pos_as_xyz
  1  'x, y, z'
loop_
 _atom_site_type_symbol
 _atom_site_label
 _atom_site_symmetry_multiplicity
 _atom_site_fract_x
 _atom_site_fract_y
 _atom_site_fract_z
 _atom_site_occupancy
  Np  Np0  1  0.582767  0.750000  0.129320  1
  Ir  Ir1  1  0.918367  0.750000  0.629747  1
  W  W2  1  0.081061  0.250000  0.370837  1
  W  W3  1  0.418042  0.250000  0.869934  1
  F  F4  1  0.201537  0.750000  0.519935  1
  F  F5  1  0.797506  0.250000  0.481153  1
  F  F6  1  0.701384  0.250000  0.979978  1
  F  F7  1  0.278249  0.750000  0.012723  1
  F  F8  1  0.634875  0.750000  0.739680  1
  F  F9  1  0.365583  0.250000  0.261059  1
  F  F10  1  0.133267  0.250000  0.760404  1
  F  F11  1  0.887480  0.750000  0.245868  1
  F  F12  1  0.771148  0.606289  0.523665  1
  F  F13  1  0.227973  0.393939  0.477182  1
  F  F14  1  0.270919  0.394196  0.976292  1
  F  F15  1  0.227973  0.106061  0.477182  1
  F  F16  1  0.739262  0.596096  0.015599  1
  F  F17  1  0.771148  0.893711  0.523665  1
  F  F18  1  0.739262  0.903904  0.015599  1
  F  F19  1  0.270919  0.105804  0.976292  1
  F  F20  1  0.064510  0.605999  0.735703  1
  F  F21  1  0.934714  0.394155  0.264444  1
  F  F22  1  0.563904  0.394042  0.763357  1
  F  F23  1  0.934714  0.105845  0.264444  1
  F  F24  1  0.427511  0.596177  0.243440  1
  F  F25  1  0.064510  0.894001  0.735703  1
  F  F26  1  0.427511  0.903823  0.243440  1
  F  F27  1  0.563904  0.105958  0.763357  1
