# generated using pymatgen
data_Cs2BiSb(PSe3)4
_symmetry_space_group_name_H-M   'P 1'
_cell_length_a   8.24876538
_cell_length_b   7.36347437
_cell_length_c   11.10723900
_cell_angle_alpha   86.68238724
_cell_angle_beta   89.63718807
_cell_angle_gamma   90.22089000
_symmetry_Int_Tables_number   1
_chemical_formula_structural   Cs2BiSb(PSe3)4
_chemical_formula_sum   'Cs2 Bi1 Sb1 P4 Se12'
_cell_volume   673.49876065
_cell_formula_units_Z   1
loop_
 _symmetry_equiv_pos_site_id
 _symmetry_equiv_pos_as_xyz
  1  'x, y, z'
loop_
 _atom_site_type_symbol
 _atom_site_label
 _atom_site_symmetry_multiplicity
 _atom_site_fract_x
 _atom_site_fract_y
 _atom_site_fract_z
 _atom_site_occupancy
  Cs  Cs0  1  0.486677  0.712773  0.490849  1
  Cs  Cs1  1  0.988611  0.285830  0.506388  1
  Bi  Bi2  1  0.748689  0.802284  0.010956  1
  Sb  Sb3  1  0.260339  0.192138  0.989198  1
  P  P4  1  0.674698  0.304442  0.838373  1
  P  P5  1  0.958650  0.777564  0.277077  1
  P  P6  1  0.174685  0.695815  0.159267  1
  P  P7  1  0.458585  0.224064  0.723077  1
  Se  Se8  1  0.763737  0.570477  0.768893  1
  Se  Se9  1  0.528227  0.204649  0.537510  1
  Se  Se10  1  0.773291  0.570198  0.243373  1
  Se  Se11  1  0.559510  0.327411  0.023898  1
  Se  Se12  1  0.380138  0.965211  0.825038  1
  Se  Se13  1  0.272114  0.425385  0.761215  1
  Se  Se14  1  0.064000  0.672681  0.975307  1
  Se  Se15  1  0.878931  0.036308  0.180682  1
  Se  Se16  1  0.030158  0.793815  0.462049  1
  Se  Se17  1  0.365796  0.914330  0.162136  1
  Se  Se18  1  0.863378  0.089812  0.833644  1
  Se  Se19  1  0.267570  0.434818  0.231071  1
