# generated using pymatgen
data_K4LiAgP2
_symmetry_space_group_name_H-M   'P 1'
_cell_length_a   6.36757892
_cell_length_b   6.36757944
_cell_length_c   5.87726677
_cell_angle_alpha   89.72331064
_cell_angle_beta   89.72330680
_cell_angle_gamma   103.27306208
_symmetry_Int_Tables_number   1
_chemical_formula_structural   K4LiAgP2
_chemical_formula_sum   'K4 Li1 Ag1 P2'
_cell_volume   231.92729041
_cell_formula_units_Z   1
loop_
 _symmetry_equiv_pos_site_id
 _symmetry_equiv_pos_as_xyz
  1  'x, y, z'
loop_
 _atom_site_type_symbol
 _atom_site_label
 _atom_site_symmetry_multiplicity
 _atom_site_fract_x
 _atom_site_fract_y
 _atom_site_fract_z
 _atom_site_occupancy
  K  K0  1  0.968807  0.308280  0.754031  1
  K  K1  1  0.308280  0.968807  0.754031  1
  K  K2  1  0.031193  0.691720  0.245969  1
  K  K3  1  0.691720  0.031193  0.245969  1
  Li  Li4  1  0.500000  0.500000  0.500000  1
  Ag  Ag5  1  0.500000  0.500000  0.000000  1
  P  P6  1  0.746857  0.746857  0.743969  1
  P  P7  1  0.253143  0.253143  0.256031  1
