# generated using pymatgen
data_Ce2Lu10Co5Bi
_symmetry_space_group_name_H-M   'P 1'
_cell_length_a   8.14369693
_cell_length_b   8.21732693
_cell_length_c   8.21732657
_cell_angle_alpha   111.17720289
_cell_angle_beta   109.75744678
_cell_angle_gamma   107.84736756
_symmetry_Int_Tables_number   1
_chemical_formula_structural   Ce2Lu10Co5Bi
_chemical_formula_sum   'Ce2 Lu10 Co5 Bi1'
_cell_volume   421.10902832
_cell_formula_units_Z   1
loop_
 _symmetry_equiv_pos_site_id
 _symmetry_equiv_pos_as_xyz
  1  'x, y, z'
loop_
 _atom_site_type_symbol
 _atom_site_label
 _atom_site_symmetry_multiplicity
 _atom_site_fract_x
 _atom_site_fract_y
 _atom_site_fract_z
 _atom_site_occupancy
  Ce  Ce0  1  0.007814  0.811284  0.196530  1
  Ce  Ce1  1  0.992186  0.188716  0.803470  1
  Lu  Lu2  1  0.816592  0.704498  0.524387  1
  Lu  Lu3  1  0.183408  0.295502  0.475613  1
  Lu  Lu4  1  0.183408  0.707795  0.887908  1
  Lu  Lu5  1  0.816592  0.292205  0.112092  1
  Lu  Lu6  1  0.675080  0.369995  0.681962  1
  Lu  Lu7  1  0.324920  0.630005  0.318038  1
  Lu  Lu8  1  0.675080  0.993118  0.305084  1
  Lu  Lu9  1  0.324920  0.006882  0.694916  1
  Lu  Lu10  1  0.591336  0.786725  0.804612  1
  Lu  Lu11  1  0.408664  0.213275  0.195388  1
  Co  Co12  1  0.653582  0.008215  0.645368  1
  Co  Co13  1  0.346418  0.991785  0.354632  1
  Co  Co14  1  0.120277  0.614858  0.505419  1
  Co  Co15  1  0.879723  0.385142  0.494581  1
  Co  Co16  1  0.000000  0.000000  0.000000  1
  Bi  Bi17  1  0.500000  0.500000  0.000000  1
