# generated using pymatgen
data_Yb4HfIrRh2
_symmetry_space_group_name_H-M   'P 1'
_cell_length_a   10.77786100
_cell_length_b   10.77786100
_cell_length_c   6.20254000
_cell_angle_alpha   90.00000000
_cell_angle_beta   90.00000000
_cell_angle_gamma   90.00000000
_symmetry_Int_Tables_number   1
_chemical_formula_structural   Yb4HfIrRh2
_chemical_formula_sum   'Yb16 Hf4 Ir4 Rh8'
_cell_volume   720.50123617
_cell_formula_units_Z   4
loop_
 _symmetry_equiv_pos_site_id
 _symmetry_equiv_pos_as_xyz
  1  'x, y, z'
loop_
 _atom_site_type_symbol
 _atom_site_label
 _atom_site_symmetry_multiplicity
 _atom_site_fract_x
 _atom_site_fract_y
 _atom_site_fract_z
 _atom_site_occupancy
  Yb  Yb0  1  0.291587  0.082890  0.355885  1
  Yb  Yb1  1  0.291587  0.917110  0.855885  1
  Yb  Yb2  1  0.708413  0.082890  0.855885  1
  Yb  Yb3  1  0.708413  0.917110  0.355885  1
  Yb  Yb4  1  0.581704  0.790415  0.857658  1
  Yb  Yb5  1  0.581704  0.209585  0.357658  1
  Yb  Yb6  1  0.418296  0.790415  0.357658  1
  Yb  Yb7  1  0.418296  0.209585  0.857658  1
  Yb  Yb8  1  0.209585  0.418296  0.642342  1
  Yb  Yb9  1  0.209585  0.581704  0.142342  1
  Yb  Yb10  1  0.790415  0.418296  0.142342  1
  Yb  Yb11  1  0.790415  0.581704  0.642342  1
  Yb  Yb12  1  0.917110  0.708413  0.144115  1
  Yb  Yb13  1  0.917110  0.291587  0.644115  1
  Yb  Yb14  1  0.082890  0.708413  0.644115  1
  Yb  Yb15  1  0.082890  0.291587  0.144115  1
  Hf  Hf16  1  0.000000  0.000000  0.500000  1
  Hf  Hf17  1  0.000000  0.000000  0.000000  1
  Hf  Hf18  1  0.500000  0.500000  0.000000  1
  Hf  Hf19  1  0.500000  0.500000  0.500000  1
  Ir  Ir20  1  0.639470  0.360530  0.750000  1
  Ir  Ir21  1  0.639470  0.639470  0.250000  1
  Ir  Ir22  1  0.360530  0.360530  0.250000  1
  Ir  Ir23  1  0.360530  0.639470  0.750000  1
  Rh  Rh24  1  0.862809  0.137191  0.250000  1
  Rh  Rh25  1  0.862809  0.862809  0.750000  1
  Rh  Rh26  1  0.137191  0.137191  0.750000  1
  Rh  Rh27  1  0.137191  0.862809  0.250000  1
  Rh  Rh28  1  0.500000  0.000000  0.110270  1
  Rh  Rh29  1  0.500000  0.000000  0.610270  1
  Rh  Rh30  1  0.000000  0.500000  0.889730  1
  Rh  Rh31  1  0.000000  0.500000  0.389730  1
