# generated using pymatgen
data_Lu5(In2Co)2
_symmetry_space_group_name_H-M   'P 1'
_cell_length_a   3.48647800
_cell_length_b   7.84583000
_cell_length_c   17.77004900
_cell_angle_alpha   90.00000000
_cell_angle_beta   90.00000000
_cell_angle_gamma   90.00000000
_symmetry_Int_Tables_number   1
_chemical_formula_structural   Lu5(In2Co)2
_chemical_formula_sum   'Lu10 In8 Co4'
_cell_volume   486.08749457
_cell_formula_units_Z   2
loop_
 _symmetry_equiv_pos_site_id
 _symmetry_equiv_pos_as_xyz
  1  'x, y, z'
loop_
 _atom_site_type_symbol
 _atom_site_label
 _atom_site_symmetry_multiplicity
 _atom_site_fract_x
 _atom_site_fract_y
 _atom_site_fract_z
 _atom_site_occupancy
  Lu  Lu0  1  0.000000  0.884252  0.090321  1
  Lu  Lu1  1  0.000000  0.753352  0.278454  1
  Lu  Lu2  1  0.000000  0.746648  0.778454  1
  Lu  Lu3  1  0.000000  0.384252  0.409679  1
  Lu  Lu4  1  0.000000  0.115748  0.909679  1
  Lu  Lu5  1  0.000000  0.246648  0.721546  1
  Lu  Lu6  1  0.000000  0.500000  0.000000  1
  Lu  Lu7  1  0.000000  0.253352  0.221546  1
  Lu  Lu8  1  0.000000  0.615748  0.590321  1
  Lu  Lu9  1  0.000000  0.000000  0.500000  1
  In  In10  1  0.500000  0.205576  0.068152  1
  In  In11  1  0.500000  0.428224  0.848001  1
  In  In12  1  0.500000  0.571776  0.151999  1
  In  In13  1  0.500000  0.071776  0.348001  1
  In  In14  1  0.500000  0.928224  0.651999  1
  In  In15  1  0.500000  0.794424  0.931848  1
  In  In16  1  0.500000  0.705576  0.431848  1
  In  In17  1  0.500000  0.294424  0.568152  1
  Co  Co18  1  0.500000  0.976117  0.196348  1
  Co  Co19  1  0.500000  0.023883  0.803652  1
  Co  Co20  1  0.500000  0.523883  0.696348  1
  Co  Co21  1  0.500000  0.476117  0.303652  1
