# generated using pymatgen
data_SmZn9Au2
_symmetry_space_group_name_H-M   'P 1'
_cell_length_a   8.39876854
_cell_length_b   8.39876890
_cell_length_c   8.39876929
_cell_angle_alpha   99.85385618
_cell_angle_beta   99.85384505
_cell_angle_gamma   131.12689273
_symmetry_Int_Tables_number   1
_chemical_formula_structural   SmZn9Au2
_chemical_formula_sum   'Sm2 Zn18 Au4'
_cell_volume   406.28475339
_cell_formula_units_Z   2
loop_
 _symmetry_equiv_pos_site_id
 _symmetry_equiv_pos_as_xyz
  1  'x, y, z'
loop_
 _atom_site_type_symbol
 _atom_site_label
 _atom_site_symmetry_multiplicity
 _atom_site_fract_x
 _atom_site_fract_y
 _atom_site_fract_z
 _atom_site_occupancy
  Sm  Sm0  1  0.000000  0.000000  0.000000  1
  Sm  Sm1  1  0.250000  0.750000  0.500000  1
  Zn  Zn2  1  0.754271  0.168077  0.827965  1
  Zn  Zn3  1  0.073694  0.245729  0.413806  1
  Zn  Zn4  1  0.340112  0.168077  0.413806  1
  Zn  Zn5  1  0.073694  0.659888  0.827965  1
  Zn  Zn6  1  0.909888  0.581923  0.086194  1
  Zn  Zn7  1  0.340112  0.926306  0.172035  1
  Zn  Zn8  1  0.750000  0.250000  0.500000  1
  Zn  Zn9  1  0.909888  0.823694  0.327965  1
  Zn  Zn10  1  0.500000  0.500000  0.000000  1
  Zn  Zn11  1  0.418077  0.090112  0.913806  1
  Zn  Zn12  1  0.495729  0.581923  0.672035  1
  Zn  Zn13  1  0.176306  0.090112  0.672035  1
  Zn  Zn14  1  0.754271  0.926306  0.586194  1
  Zn  Zn15  1  0.831923  0.659888  0.586194  1
  Zn  Zn16  1  0.418077  0.504271  0.327965  1
  Zn  Zn17  1  0.495729  0.823694  0.913806  1
  Zn  Zn18  1  0.176306  0.504271  0.086194  1
  Zn  Zn19  1  0.831923  0.245729  0.172035  1
  Au  Au20  1  0.625000  0.875000  0.250000  1
  Au  Au21  1  0.625000  0.375000  0.250000  1
  Au  Au22  1  0.125000  0.375000  0.750000  1
  Au  Au23  1  0.625000  0.375000  0.750000  1
