# generated using pymatgen
data_Ce10Zn4Os5Ru
_symmetry_space_group_name_H-M   'P 1'
_cell_length_a   8.40420158
_cell_length_b   8.40422578
_cell_length_c   8.39220300
_cell_angle_alpha   109.32616124
_cell_angle_beta   109.54569950
_cell_angle_gamma   109.59989727
_symmetry_Int_Tables_number   1
_chemical_formula_structural   Ce10Zn4Os5Ru
_chemical_formula_sum   'Ce10 Zn4 Os5 Ru1'
_cell_volume   455.96804252
_cell_formula_units_Z   1
loop_
 _symmetry_equiv_pos_site_id
 _symmetry_equiv_pos_as_xyz
  1  'x, y, z'
loop_
 _atom_site_type_symbol
 _atom_site_label
 _atom_site_symmetry_multiplicity
 _atom_site_fract_x
 _atom_site_fract_y
 _atom_site_fract_z
 _atom_site_occupancy
  Ce  Ce0  1  0.250188  0.688906  0.439026  1
  Ce  Ce1  1  0.750077  0.811100  0.060774  1
  Ce  Ce2  1  0.440067  0.247479  0.688271  1
  Ce  Ce3  1  0.689306  0.439256  0.250326  1
  Ce  Ce4  1  0.059015  0.751743  0.811391  1
  Ce  Ce5  1  0.811249  0.060991  0.750020  1
  Ce  Ce6  1  0.218721  0.218816  0.218465  1
  Ce  Ce7  1  0.499672  0.999628  0.280858  1
  Ce  Ce8  1  0.282861  0.501017  0.998316  1
  Ce  Ce9  1  0.002518  0.284808  0.501864  1
  Zn  Zn10  1  0.499312  0.999695  0.908114  1
  Zn  Zn11  1  0.591564  0.591239  0.591974  1
  Zn  Zn12  1  0.909212  0.500146  0.000325  1
  Zn  Zn13  1  0.999611  0.908402  0.499513  1
  Os  Os14  1  0.249367  0.132198  0.882849  1
  Os  Os15  1  0.750428  0.367480  0.617471  1
  Os  Os16  1  0.882557  0.250067  0.133510  1
  Os  Os17  1  0.132214  0.882326  0.249901  1
  Os  Os18  1  0.616282  0.748879  0.366520  1
  Ru  Ru19  1  0.365781  0.615828  0.750513  1
