# generated using pymatgen
data_RbIr(OF2)2
_symmetry_space_group_name_H-M   'P 1'
_cell_length_a   6.99679935
_cell_length_b   6.99679947
_cell_length_c   8.86142853
_cell_angle_alpha   61.33200728
_cell_angle_beta   61.33200525
_cell_angle_gamma   56.45297520
_symmetry_Int_Tables_number   1
_chemical_formula_structural   RbIr(OF2)2
_chemical_formula_sum   'Rb2 Ir2 O4 F8'
_cell_volume   303.26185340
_cell_formula_units_Z   2
loop_
 _symmetry_equiv_pos_site_id
 _symmetry_equiv_pos_as_xyz
  1  'x, y, z'
loop_
 _atom_site_type_symbol
 _atom_site_label
 _atom_site_symmetry_multiplicity
 _atom_site_fract_x
 _atom_site_fract_y
 _atom_site_fract_z
 _atom_site_occupancy
  Rb  Rb0  1  0.727384  0.272616  0.750000  1
  Rb  Rb1  1  0.272616  0.727384  0.250000  1
  Ir  Ir2  1  0.000000  0.500000  0.000000  1
  Ir  Ir3  1  0.500000  0.000000  0.500000  1
  O  O4  1  0.039241  0.670313  0.774624  1
  O  O5  1  0.329687  0.960759  0.725376  1
  O  O6  1  0.960759  0.329687  0.225376  1
  O  O7  1  0.670313  0.039241  0.274624  1
  F  F8  1  0.242454  0.553087  0.008152  1
  F  F9  1  0.446913  0.757546  0.491848  1
  F  F10  1  0.757546  0.446913  0.991848  1
  F  F11  1  0.553087  0.242454  0.508152  1
  F  F12  1  0.261931  0.209408  0.932108  1
  F  F13  1  0.790592  0.738069  0.567892  1
  F  F14  1  0.738069  0.790592  0.067892  1
  F  F15  1  0.209408  0.261931  0.432108  1
