# generated using pymatgen
data_Cs4Na2DyYSb4
_symmetry_space_group_name_H-M   'P 1'
_cell_length_a   11.65313480
_cell_length_b   11.65313405
_cell_length_c   7.59585300
_cell_angle_alpha   90.00000000
_cell_angle_beta   90.00000000
_cell_angle_gamma   99.60777828
_symmetry_Int_Tables_number   1
_chemical_formula_structural   Cs4Na2DyYSb4
_chemical_formula_sum   'Cs8 Na4 Dy2 Y2 Sb8'
_cell_volume   1017.01476359
_cell_formula_units_Z   2
loop_
 _symmetry_equiv_pos_site_id
 _symmetry_equiv_pos_as_xyz
  1  'x, y, z'
loop_
 _atom_site_type_symbol
 _atom_site_label
 _atom_site_symmetry_multiplicity
 _atom_site_fract_x
 _atom_site_fract_y
 _atom_site_fract_z
 _atom_site_occupancy
  Cs  Cs0  1  0.070682  0.429318  0.250000  1
  Cs  Cs1  1  0.429318  0.070682  0.750000  1
  Cs  Cs2  1  0.929368  0.570632  0.750000  1
  Cs  Cs3  1  0.570632  0.929368  0.250000  1
  Cs  Cs4  1  0.677018  0.322953  0.213080  1
  Cs  Cs5  1  0.822982  0.177047  0.713080  1
  Cs  Cs6  1  0.322953  0.677018  0.786920  1
  Cs  Cs7  1  0.177047  0.822982  0.286920  1
  Na  Na8  1  0.381963  0.381963  0.000000  1
  Na  Na9  1  0.118037  0.118037  0.500000  1
  Na  Na10  1  0.618013  0.618013  0.000000  1
  Na  Na11  1  0.881987  0.881987  0.500000  1
  Dy  Dy12  1  0.131336  0.131336  0.000000  1
  Dy  Dy13  1  0.368664  0.368664  0.500000  1
  Y  Y14  1  0.868645  0.868645  0.000000  1
  Y  Y15  1  0.631355  0.631355  0.500000  1
  Sb  Sb16  1  0.842287  0.657712  0.250000  1
  Sb  Sb17  1  0.657712  0.842287  0.750000  1
  Sb  Sb18  1  0.157790  0.342209  0.750000  1
  Sb  Sb19  1  0.342209  0.157790  0.250000  1
  Sb  Sb20  1  0.904660  0.095562  0.210934  1
  Sb  Sb21  1  0.595340  0.404438  0.710934  1
  Sb  Sb22  1  0.095562  0.904660  0.789066  1
  Sb  Sb23  1  0.404438  0.595340  0.289066  1
