# generated using pymatgen
data_LiCe6Mn2CrC12
_symmetry_space_group_name_H-M   'P 1'
_cell_length_a   8.24692500
_cell_length_b   8.24692390
_cell_length_c   5.12606100
_cell_angle_alpha   90.00000000
_cell_angle_beta   90.00000000
_cell_angle_gamma   120.00000840
_symmetry_Int_Tables_number   1
_chemical_formula_structural   LiCe6Mn2CrC12
_chemical_formula_sum   'Li1 Ce6 Mn2 Cr1 C12'
_cell_volume   301.92452879
_cell_formula_units_Z   1
loop_
 _symmetry_equiv_pos_site_id
 _symmetry_equiv_pos_as_xyz
  1  'x, y, z'
loop_
 _atom_site_type_symbol
 _atom_site_label
 _atom_site_symmetry_multiplicity
 _atom_site_fract_x
 _atom_site_fract_y
 _atom_site_fract_z
 _atom_site_occupancy
  Li  Li0  1  0.000000  0.000000  0.500000  1
  Ce  Ce1  1  0.625800  0.688703  0.745489  1
  Ce  Ce2  1  0.937097  0.625800  0.254511  1
  Ce  Ce3  1  0.688703  0.062903  0.254511  1
  Ce  Ce4  1  0.311297  0.937097  0.745489  1
  Ce  Ce5  1  0.062903  0.374200  0.745489  1
  Ce  Ce6  1  0.374200  0.311297  0.254511  1
  Mn  Mn7  1  0.666667  0.333333  0.749678  1
  Mn  Mn8  1  0.333333  0.666667  0.250322  1
  Cr  Cr9  1  0.000000  0.000000  0.000000  1
  C  C10  1  0.964272  0.764713  0.767316  1
  C  C11  1  0.199561  0.964272  0.232684  1
  C  C12  1  0.764713  0.800439  0.232684  1
  C  C13  1  0.235287  0.199561  0.767316  1
  C  C14  1  0.800439  0.035728  0.767316  1
  C  C15  1  0.035728  0.235287  0.232684  1
  C  C16  1  0.861215  0.572777  0.758639  1
  C  C17  1  0.288438  0.861215  0.241361  1
  C  C18  1  0.572777  0.711562  0.241361  1
  C  C19  1  0.427223  0.288438  0.758639  1
  C  C20  1  0.138785  0.427223  0.241361  1
  C  C21  1  0.711562  0.138785  0.758639  1
