# generated using pymatgen
data_Hf12Ti4Mn5Ir3
_symmetry_space_group_name_H-M   'P 1'
_cell_length_a   8.46516757
_cell_length_b   8.46516684
_cell_length_c   8.46516653
_cell_angle_alpha   59.72882959
_cell_angle_beta   59.72883363
_cell_angle_gamma   59.72883364
_symmetry_Int_Tables_number   1
_chemical_formula_structural   Hf12Ti4Mn5Ir3
_chemical_formula_sum   'Hf12 Ti4 Mn5 Ir3'
_cell_volume   426.29352773
_cell_formula_units_Z   1
loop_
 _symmetry_equiv_pos_site_id
 _symmetry_equiv_pos_as_xyz
  1  'x, y, z'
loop_
 _atom_site_type_symbol
 _atom_site_label
 _atom_site_symmetry_multiplicity
 _atom_site_fract_x
 _atom_site_fract_y
 _atom_site_fract_z
 _atom_site_occupancy
  Hf  Hf0  1  0.432249  0.817153  0.817153  1
  Hf  Hf1  1  0.817834  0.432954  0.432954  1
  Hf  Hf2  1  0.817153  0.432249  0.817153  1
  Hf  Hf3  1  0.432954  0.817834  0.432954  1
  Hf  Hf4  1  0.817153  0.817153  0.432249  1
  Hf  Hf5  1  0.432954  0.432954  0.817834  1
  Hf  Hf6  1  0.563389  0.181395  0.181395  1
  Hf  Hf7  1  0.181679  0.568417  0.568417  1
  Hf  Hf8  1  0.181395  0.563389  0.181395  1
  Hf  Hf9  1  0.568417  0.181679  0.568417  1
  Hf  Hf10  1  0.181395  0.181395  0.563389  1
  Hf  Hf11  1  0.568417  0.568417  0.181679  1
  Ti  Ti12  1  0.994839  0.994839  0.518228  1
  Ti  Ti13  1  0.994839  0.518228  0.994839  1
  Ti  Ti14  1  0.518228  0.994839  0.994839  1
  Ti  Ti15  1  0.994000  0.994000  0.994000  1
  Mn  Mn16  1  0.206327  0.206327  0.206327  1
  Mn  Mn17  1  0.789839  0.789839  0.133378  1
  Mn  Mn18  1  0.789839  0.133378  0.789839  1
  Mn  Mn19  1  0.133378  0.789839  0.789839  1
  Mn  Mn20  1  0.790098  0.790098  0.790098  1
  Ir  Ir21  1  0.210388  0.210388  0.872849  1
  Ir  Ir22  1  0.210388  0.872849  0.210388  1
  Ir  Ir23  1  0.872849  0.210388  0.210388  1
