# generated using pymatgen
data_Dy5Ta3(Ni4P3)4
_symmetry_space_group_name_H-M   'P 1'
_cell_length_a   12.22216400
_cell_length_b   12.22216319
_cell_length_c   3.72925300
_cell_angle_alpha   90.00000000
_cell_angle_beta   90.00000000
_cell_angle_gamma   120.00000761
_symmetry_Int_Tables_number   1
_chemical_formula_structural   Dy5Ta3(Ni4P3)4
_chemical_formula_sum   'Dy5 Ta3 Ni16 P12'
_cell_volume   482.44591244
_cell_formula_units_Z   1
loop_
 _symmetry_equiv_pos_site_id
 _symmetry_equiv_pos_as_xyz
  1  'x, y, z'
loop_
 _atom_site_type_symbol
 _atom_site_label
 _atom_site_symmetry_multiplicity
 _atom_site_fract_x
 _atom_site_fract_y
 _atom_site_fract_z
 _atom_site_occupancy
  Dy  Dy0  1  0.666667  0.333333  0.000000  1
  Dy  Dy1  1  0.333333  0.666667  0.000000  1
  Dy  Dy2  1  0.815577  0.815577  0.500000  1
  Dy  Dy3  1  0.184423  0.000000  0.500000  1
  Dy  Dy4  1  0.000000  0.184423  0.500000  1
  Ta  Ta5  1  0.440891  0.440891  0.000000  1
  Ta  Ta6  1  0.559109  0.000000  0.000000  1
  Ta  Ta7  1  0.000000  0.559109  0.000000  1
  Ni  Ni8  1  0.875278  0.358867  0.500000  1
  Ni  Ni9  1  0.641133  0.516411  0.500000  1
  Ni  Ni10  1  0.483589  0.124722  0.500000  1
  Ni  Ni11  1  0.358867  0.875278  0.500000  1
  Ni  Ni12  1  0.516411  0.641133  0.500000  1
  Ni  Ni13  1  0.124722  0.483589  0.500000  1
  Ni  Ni14  1  0.806736  0.182258  0.000000  1
  Ni  Ni15  1  0.817742  0.624477  0.000000  1
  Ni  Ni16  1  0.375523  0.193264  0.000000  1
  Ni  Ni17  1  0.182258  0.806736  0.000000  1
  Ni  Ni18  1  0.624477  0.817742  0.000000  1
  Ni  Ni19  1  0.193264  0.375523  0.000000  1
  Ni  Ni20  1  0.277799  0.277799  0.500000  1
  Ni  Ni21  1  0.722201  0.000000  0.500000  1
  Ni  Ni22  1  0.000000  0.722201  0.500000  1
  Ni  Ni23  1  0.000000  0.000000  0.000000  1
  P  P24  1  0.688356  0.167053  0.500000  1
  P  P25  1  0.832947  0.521302  0.500000  1
  P  P26  1  0.478698  0.311644  0.500000  1
  P  P27  1  0.167053  0.688356  0.500000  1
  P  P28  1  0.521302  0.832947  0.500000  1
  P  P29  1  0.311644  0.478698  0.500000  1
  P  P30  1  0.177739  0.177739  0.000000  1
  P  P31  1  0.822261  0.000000  0.000000  1
  P  P32  1  0.000000  0.822261  0.000000  1
  P  P33  1  0.639903  0.639903  0.000000  1
  P  P34  1  0.360097  0.000000  0.000000  1
  P  P35  1  0.000000  0.360097  0.000000  1
