# generated using pymatgen
data_Ti13V7Si15P
_symmetry_space_group_name_H-M   'P 1'
_cell_length_a   6.54456127
_cell_length_b   6.55339504
_cell_length_c   12.04766262
_cell_angle_alpha   89.85709567
_cell_angle_beta   89.91440084
_cell_angle_gamma   90.03702937
_symmetry_Int_Tables_number   1
_chemical_formula_structural   Ti13V7Si15P
_chemical_formula_sum   'Ti13 V7 Si15 P1'
_cell_volume   516.71105797
_cell_formula_units_Z   1
loop_
 _symmetry_equiv_pos_site_id
 _symmetry_equiv_pos_as_xyz
  1  'x, y, z'
loop_
 _atom_site_type_symbol
 _atom_site_label
 _atom_site_symmetry_multiplicity
 _atom_site_fract_x
 _atom_site_fract_y
 _atom_site_fract_z
 _atom_site_occupancy
  Ti  Ti0  1  0.847940  0.005943  0.877054  1
  Ti  Ti1  1  0.003766  0.341355  0.221271  1
  Ti  Ti2  1  0.159662  0.503643  0.470657  1
  Ti  Ti3  1  0.843032  0.495087  0.968984  1
  Ti  Ti4  1  0.502965  0.159196  0.528489  1
  Ti  Ti5  1  0.497543  0.840439  0.030585  1
  Ti  Ti6  1  0.997075  0.655394  0.721135  1
  Ti  Ti7  1  0.339196  0.006114  0.779225  1
  Ti  Ti8  1  0.659349  0.997314  0.279985  1
  Ti  Ti9  1  0.166181  0.169610  0.998757  1
  Ti  Ti10  1  0.334084  0.667154  0.250114  1
  Ti  Ti11  1  0.668334  0.332507  0.750069  1
  Ti  Ti12  1  0.832784  0.833392  0.499702  1
  V  V13  1  0.993832  0.157045  0.624616  1
  V  V14  1  0.339284  0.490005  0.870327  1
  V  V15  1  0.655589  0.505847  0.371888  1
  V  V16  1  0.493958  0.346240  0.129166  1
  V  V17  1  0.503872  0.654717  0.627485  1
  V  V18  1  0.006968  0.845404  0.121432  1
  V  V19  1  0.155412  0.994307  0.378465  1
  Si  Si20  1  0.202576  0.542254  0.063518  1
  Si  Si21  1  0.796644  0.458105  0.562094  1
  Si  Si22  1  0.540892  0.203781  0.938850  1
  Si  Si23  1  0.456810  0.797189  0.437471  1
  Si  Si24  1  0.957848  0.703059  0.312333  1
  Si  Si25  1  0.297399  0.043574  0.187285  1
  Si  Si26  1  0.698642  0.955857  0.685847  1
  Si  Si27  1  0.294104  0.365561  0.670656  1
  Si  Si28  1  0.140071  0.790118  0.923745  1
  Si  Si29  1  0.867388  0.208270  0.422968  1
  Si  Si30  1  0.791309  0.134601  0.079346  1
  Si  Si31  1  0.206438  0.867285  0.577664  1
  Si  Si32  1  0.709931  0.633421  0.172314  1
  Si  Si33  1  0.366623  0.291912  0.327644  1
  Si  Si34  1  0.628992  0.705035  0.826920  1
  P  P35  1  0.043506  0.299264  0.811939  1
