# generated using pymatgen
data_TbEr3CdIr
_symmetry_space_group_name_H-M   'P 1'
_cell_length_a   9.58304216
_cell_length_b   9.57781992
_cell_length_c   9.57782042
_cell_angle_alpha   60.03607140
_cell_angle_beta   59.98196172
_cell_angle_gamma   59.98196522
_symmetry_Int_Tables_number   1
_chemical_formula_structural   TbEr3CdIr
_chemical_formula_sum   'Tb4 Er12 Cd4 Ir4'
_cell_volume   621.61501237
_cell_formula_units_Z   4
loop_
 _symmetry_equiv_pos_site_id
 _symmetry_equiv_pos_as_xyz
  1  'x, y, z'
loop_
 _atom_site_type_symbol
 _atom_site_label
 _atom_site_symmetry_multiplicity
 _atom_site_fract_x
 _atom_site_fract_y
 _atom_site_fract_z
 _atom_site_occupancy
  Tb  Tb0  1  0.812102  0.187898  0.812102  1
  Tb  Tb1  1  0.187898  0.812102  0.187898  1
  Tb  Tb2  1  0.812102  0.812102  0.187898  1
  Tb  Tb3  1  0.187898  0.187898  0.812102  1
  Er  Er4  1  0.598967  0.599015  0.599015  1
  Er  Er5  1  0.599015  0.598967  0.203003  1
  Er  Er6  1  0.599015  0.203003  0.598967  1
  Er  Er7  1  0.203003  0.599015  0.599015  1
  Er  Er8  1  0.061072  0.438928  0.438928  1
  Er  Er9  1  0.438928  0.061072  0.061072  1
  Er  Er10  1  0.439132  0.060868  0.439132  1
  Er  Er11  1  0.060868  0.439132  0.060868  1
  Er  Er12  1  0.439132  0.439132  0.060868  1
  Er  Er13  1  0.060868  0.060868  0.439132  1
  Er  Er14  1  0.188611  0.811389  0.811389  1
  Er  Er15  1  0.811389  0.188611  0.188611  1
  Cd  Cd16  1  0.831118  0.830866  0.830866  1
  Cd  Cd17  1  0.830866  0.831118  0.507151  1
  Cd  Cd18  1  0.830866  0.507151  0.831118  1
  Cd  Cd19  1  0.507151  0.830866  0.830866  1
  Ir  Ir20  1  0.392244  0.391663  0.391663  1
  Ir  Ir21  1  0.391663  0.392244  0.824429  1
  Ir  Ir22  1  0.391663  0.824429  0.392244  1
  Ir  Ir23  1  0.824429  0.391663  0.391663  1
