# generated using pymatgen
data_Lu2Hf3Sc3(P3Ir4)4
_symmetry_space_group_name_H-M   'P 1'
_cell_length_a   12.81968300
_cell_length_b   12.81968262
_cell_length_c   3.91772000
_cell_angle_alpha   90.00000000
_cell_angle_beta   90.00000000
_cell_angle_gamma   119.99999839
_symmetry_Int_Tables_number   1
_chemical_formula_structural   Lu2Hf3Sc3(P3Ir4)4
_chemical_formula_sum   'Lu2 Hf3 Sc3 P12 Ir16'
_cell_volume   557.59464231
_cell_formula_units_Z   1
loop_
 _symmetry_equiv_pos_site_id
 _symmetry_equiv_pos_as_xyz
  1  'x, y, z'
loop_
 _atom_site_type_symbol
 _atom_site_label
 _atom_site_symmetry_multiplicity
 _atom_site_fract_x
 _atom_site_fract_y
 _atom_site_fract_z
 _atom_site_occupancy
  Lu  Lu0  1  0.333333  0.666667  0.000000  1
  Lu  Lu1  1  0.666667  0.333333  0.000000  1
  Hf  Hf2  1  0.450391  0.000000  0.000000  1
  Hf  Hf3  1  0.000000  0.450391  0.000000  1
  Hf  Hf4  1  0.549609  0.549609  0.000000  1
  Sc  Sc5  1  0.817052  0.000000  0.500000  1
  Sc  Sc6  1  0.000000  0.817052  0.500000  1
  Sc  Sc7  1  0.182948  0.182948  0.500000  1
  P  P8  1  0.173114  0.000000  0.000000  1
  P  P9  1  0.000000  0.173114  0.000000  1
  P  P10  1  0.826886  0.826886  0.000000  1
  P  P11  1  0.170114  0.482531  0.500000  1
  P  P12  1  0.517469  0.687582  0.500000  1
  P  P13  1  0.312418  0.829886  0.500000  1
  P  P14  1  0.687582  0.517469  0.500000  1
  P  P15  1  0.829886  0.312418  0.500000  1
  P  P16  1  0.482531  0.170114  0.500000  1
  P  P17  1  0.653760  0.000000  0.000000  1
  P  P18  1  0.000000  0.653760  0.000000  1
  P  P19  1  0.346240  0.346240  0.000000  1
  Ir  Ir20  1  0.358468  0.494656  0.500000  1
  Ir  Ir21  1  0.505344  0.863812  0.500000  1
  Ir  Ir22  1  0.136188  0.641532  0.500000  1
  Ir  Ir23  1  0.863812  0.505344  0.500000  1
  Ir  Ir24  1  0.641532  0.136188  0.500000  1
  Ir  Ir25  1  0.494656  0.358468  0.500000  1
  Ir  Ir26  1  0.177533  0.368187  0.000000  1
  Ir  Ir27  1  0.631813  0.809347  0.000000  1
  Ir  Ir28  1  0.190653  0.822467  0.000000  1
  Ir  Ir29  1  0.809347  0.631813  0.000000  1
  Ir  Ir30  1  0.822467  0.190653  0.000000  1
  Ir  Ir31  1  0.368187  0.177533  0.000000  1
  Ir  Ir32  1  0.279289  0.000000  0.500000  1
  Ir  Ir33  1  0.000000  0.279289  0.500000  1
  Ir  Ir34  1  0.720711  0.720711  0.500000  1
  Ir  Ir35  1  0.000000  0.000000  0.000000  1
