# generated using pymatgen
data_CaCrNi2(PO4)3
_symmetry_space_group_name_H-M   'P 1'
_cell_length_a   8.99852756
_cell_length_b   8.99852689
_cell_length_c   8.99852782
_cell_angle_alpha   137.48389925
_cell_angle_beta   109.35088882
_cell_angle_gamma   86.07561489
_symmetry_Int_Tables_number   1
_chemical_formula_structural   CaCrNi2(PO4)3
_chemical_formula_sum   'Ca2 Cr2 Ni4 P6 O24'
_cell_volume   446.58963147
_cell_formula_units_Z   2
loop_
 _symmetry_equiv_pos_site_id
 _symmetry_equiv_pos_as_xyz
  1  'x, y, z'
loop_
 _atom_site_type_symbol
 _atom_site_label
 _atom_site_symmetry_multiplicity
 _atom_site_fract_x
 _atom_site_fract_y
 _atom_site_fract_z
 _atom_site_occupancy
  Ca  Ca0  1  0.250000  0.340004  0.090004  1
  Ca  Ca1  1  0.750000  0.659996  0.909996  1
  Cr  Cr2  1  0.000000  0.500000  0.500000  1
  Cr  Cr3  1  0.500000  0.000000  0.500000  1
  Ni  Ni4  1  0.116325  0.116325  0.500000  1
  Ni  Ni5  1  0.383675  0.883675  0.000000  1
  Ni  Ni6  1  0.616325  0.116325  0.000000  1
  Ni  Ni7  1  0.883675  0.883675  0.500000  1
  P  P8  1  0.250000  0.834968  0.584968  1
  P  P9  1  0.750000  0.165032  0.415032  1
  P  P10  1  0.323908  0.323908  0.500000  1
  P  P11  1  0.176092  0.676092  0.000000  1
  P  P12  1  0.823908  0.323908  0.000000  1
  P  P13  1  0.676092  0.676092  0.500000  1
  O  O14  1  0.344208  0.788019  0.443812  1
  O  O15  1  0.655792  0.211981  0.556188  1
  O  O16  1  0.844208  0.400396  0.556188  1
  O  O17  1  0.155792  0.599604  0.443812  1
  O  O18  1  0.132933  0.984519  0.617451  1
  O  O19  1  0.632933  0.015481  0.148414  1
  O  O20  1  0.867067  0.015481  0.382549  1
  O  O21  1  0.367067  0.984519  0.851586  1
  O  O22  1  0.344616  0.205764  0.273132  1
  O  O23  1  0.067368  0.794236  0.138852  1
  O  O24  1  0.844616  0.571484  0.138852  1
  O  O25  1  0.567368  0.428516  0.273132  1
  O  O26  1  0.655384  0.794236  0.726868  1
  O  O27  1  0.932632  0.205764  0.861148  1
  O  O28  1  0.155384  0.428516  0.861148  1
  O  O29  1  0.432632  0.571484  0.726868  1
  O  O30  1  0.133117  0.289604  0.434345  1
  O  O31  1  0.144741  0.710396  0.843514  1
  O  O32  1  0.633117  0.198773  0.843514  1
  O  O33  1  0.644741  0.801227  0.434345  1
  O  O34  1  0.866883  0.710396  0.565655  1
  O  O35  1  0.855259  0.289604  0.156486  1
  O  O36  1  0.366883  0.801227  0.156486  1
  O  O37  1  0.355259  0.198773  0.565655  1
