# generated using pymatgen
data_DyY(Er4In3)2
_symmetry_space_group_name_H-M   'P 1'
_cell_length_a   9.09810101
_cell_length_b   9.09810050
_cell_length_c   9.10271941
_cell_angle_alpha   96.41743442
_cell_angle_beta   96.39021364
_cell_angle_gamma   140.97000451
_symmetry_Int_Tables_number   1
_chemical_formula_structural   DyY(Er4In3)2
_chemical_formula_sum   'Dy1 Y1 Er8 In6'
_cell_volume   447.25886761
_cell_formula_units_Z   1
loop_
 _symmetry_equiv_pos_site_id
 _symmetry_equiv_pos_as_xyz
  1  'x, y, z'
loop_
 _atom_site_type_symbol
 _atom_site_label
 _atom_site_symmetry_multiplicity
 _atom_site_fract_x
 _atom_site_fract_y
 _atom_site_fract_z
 _atom_site_occupancy
  Dy  Dy0  1  0.081749  0.782091  0.863840  1
  Y  Y1  1  0.717595  0.418368  0.135963  1
  Er  Er2  1  0.282779  0.581601  0.864380  1
  Er  Er3  1  0.581742  0.717458  0.299198  1
  Er  Er4  1  0.217135  0.082250  0.299384  1
  Er  Er5  1  0.918229  0.217177  0.135406  1
  Er  Er6  1  0.750188  0.249845  0.500038  1
  Er  Er7  1  0.250194  0.749851  0.500038  1
  Er  Er8  1  0.782600  0.918486  0.701086  1
  Er  Er9  1  0.417851  0.282905  0.700757  1
  In  In10  1  0.837997  0.661711  0.499708  1
  In  In11  1  0.338905  0.838355  0.177259  1
  In  In12  1  0.749848  0.750477  0.000098  1
  In  In13  1  0.661746  0.161104  0.822851  1
  In  In14  1  0.161823  0.338070  0.499894  1
  In  In15  1  0.249619  0.250250  0.000098  1
