# generated using pymatgen
data_Ho16Tl5InFePt
_symmetry_space_group_name_H-M   'P 1'
_cell_length_a   10.36206010
_cell_length_b   10.36201765
_cell_length_c   7.06701300
_cell_angle_alpha   89.99280892
_cell_angle_beta   90.00707232
_cell_angle_gamma   119.94548485
_symmetry_Int_Tables_number   1
_chemical_formula_structural   Ho16Tl5InFePt
_chemical_formula_sum   'Ho16 Tl5 In1 Fe1 Pt1'
_cell_volume   657.49924910
_cell_formula_units_Z   1
loop_
 _symmetry_equiv_pos_site_id
 _symmetry_equiv_pos_as_xyz
  1  'x, y, z'
loop_
 _atom_site_type_symbol
 _atom_site_label
 _atom_site_symmetry_multiplicity
 _atom_site_fract_x
 _atom_site_fract_y
 _atom_site_fract_z
 _atom_site_occupancy
  Ho  Ho0  1  0.530770  0.063645  0.508170  1
  Ho  Ho1  1  0.936354  0.469231  0.508173  1
  Ho  Ho2  1  0.532259  0.467744  0.509465  1
  Ho  Ho3  1  0.461329  0.922528  0.007311  1
  Ho  Ho4  1  0.077473  0.538670  0.007308  1
  Ho  Ho5  1  0.460938  0.539062  0.006562  1
  Ho  Ho6  1  0.177342  0.355442  0.712102  1
  Ho  Ho7  1  0.644558  0.822660  0.712108  1
  Ho  Ho8  1  0.177695  0.822307  0.714139  1
  Ho  Ho9  1  0.824239  0.649736  0.208357  1
  Ho  Ho10  1  0.350265  0.175762  0.208363  1
  Ho  Ho11  1  0.825292  0.174706  0.208951  1
  Ho  Ho12  1  0.666962  0.333036  0.883964  1
  Ho  Ho13  1  0.333085  0.666914  0.397567  1
  Ho  Ho14  1  0.001063  0.998933  0.489205  1
  Ho  Ho15  1  0.000865  0.999133  0.989865  1
  Tl  Tl16  1  0.836761  0.673797  0.753398  1
  Tl  Tl17  1  0.326205  0.163241  0.753406  1
  Tl  Tl18  1  0.837004  0.162999  0.753019  1
  Tl  Tl19  1  0.163289  0.326862  0.256995  1
  Tl  Tl20  1  0.673133  0.836709  0.257005  1
  In  In21  1  0.163013  0.836988  0.255789  1
  Fe  Fe22  1  0.333304  0.666701  0.778329  1
  Pt  Pt23  1  0.666807  0.333195  0.278486  1
