# generated using pymatgen
data_Er2TmGa5
_symmetry_space_group_name_H-M   'P 1'
_cell_length_a   6.04935400
_cell_length_b   9.55669600
_cell_length_c   11.45439200
_cell_angle_alpha   90.00000000
_cell_angle_beta   90.00000000
_cell_angle_gamma   90.00000000
_symmetry_Int_Tables_number   1
_chemical_formula_structural   Er2TmGa5
_chemical_formula_sum   'Er8 Tm4 Ga20'
_cell_volume   662.19944524
_cell_formula_units_Z   4
loop_
 _symmetry_equiv_pos_site_id
 _symmetry_equiv_pos_as_xyz
  1  'x, y, z'
loop_
 _atom_site_type_symbol
 _atom_site_label
 _atom_site_symmetry_multiplicity
 _atom_site_fract_x
 _atom_site_fract_y
 _atom_site_fract_z
 _atom_site_occupancy
  Er  Er0  1  0.890512  0.510141  0.352003  1
  Er  Er1  1  0.609488  0.989859  0.852003  1
  Er  Er2  1  0.109488  0.010141  0.647997  1
  Er  Er3  1  0.390512  0.489859  0.147997  1
  Er  Er4  1  0.109488  0.489859  0.647997  1
  Er  Er5  1  0.390512  0.010141  0.147997  1
  Er  Er6  1  0.890512  0.989859  0.352003  1
  Er  Er7  1  0.609488  0.510141  0.852003  1
  Tm  Tm8  1  0.848593  0.750000  0.073767  1
  Tm  Tm9  1  0.651407  0.750000  0.573767  1
  Tm  Tm10  1  0.151407  0.250000  0.926233  1
  Tm  Tm11  1  0.348593  0.250000  0.426233  1
  Ga  Ga12  1  0.874682  0.052014  0.090615  1
  Ga  Ga13  1  0.625318  0.447986  0.590615  1
  Ga  Ga14  1  0.125318  0.552014  0.909385  1
  Ga  Ga15  1  0.374682  0.947986  0.409385  1
  Ga  Ga16  1  0.125318  0.947986  0.909385  1
  Ga  Ga17  1  0.374682  0.552014  0.409385  1
  Ga  Ga18  1  0.874682  0.447986  0.090615  1
  Ga  Ga19  1  0.625318  0.052014  0.590615  1
  Ga  Ga20  1  0.172618  0.750000  0.251137  1
  Ga  Ga21  1  0.327382  0.750000  0.751137  1
  Ga  Ga22  1  0.827382  0.250000  0.748863  1
  Ga  Ga23  1  0.672618  0.250000  0.248863  1
  Ga  Ga24  1  0.373320  0.750000  0.005760  1
  Ga  Ga25  1  0.126680  0.750000  0.505760  1
  Ga  Ga26  1  0.626680  0.250000  0.994240  1
  Ga  Ga27  1  0.873320  0.250000  0.494240  1
  Ga  Ga28  1  0.604971  0.750000  0.298824  1
  Ga  Ga29  1  0.895029  0.750000  0.798824  1
  Ga  Ga30  1  0.395029  0.250000  0.701176  1
  Ga  Ga31  1  0.104971  0.250000  0.201176  1
