# generated using pymatgen
data_Li4LaCe7Si12
_symmetry_space_group_name_H-M   'P 1'
_cell_length_a   8.22967900
_cell_length_b   8.22968091
_cell_length_c   8.30854400
_cell_angle_alpha   90.00000000
_cell_angle_beta   90.00000000
_cell_angle_gamma   119.99999633
_symmetry_Int_Tables_number   1
_chemical_formula_structural   Li4LaCe7Si12
_chemical_formula_sum   'Li4 La1 Ce7 Si12'
_cell_volume   487.32811166
_cell_formula_units_Z   1
loop_
 _symmetry_equiv_pos_site_id
 _symmetry_equiv_pos_as_xyz
  1  'x, y, z'
loop_
 _atom_site_type_symbol
 _atom_site_label
 _atom_site_symmetry_multiplicity
 _atom_site_fract_x
 _atom_site_fract_y
 _atom_site_fract_z
 _atom_site_occupancy
  Li  Li0  1  0.666667  0.333333  0.002625  1
  Li  Li1  1  0.333333  0.666667  0.003991  1
  Li  Li2  1  0.333333  0.666667  0.496009  1
  Li  Li3  1  0.666667  0.333333  0.497375  1
  La  La4  1  0.000000  0.000000  0.250000  1
  Ce  Ce5  1  0.499900  0.500100  0.750000  1
  Ce  Ce6  1  0.500143  0.499857  0.250000  1
  Ce  Ce7  1  0.000201  0.500100  0.750000  1
  Ce  Ce8  1  0.999714  0.499857  0.250000  1
  Ce  Ce9  1  0.499900  0.999799  0.750000  1
  Ce  Ce10  1  0.500143  0.000286  0.250000  1
  Ce  Ce11  1  0.000000  0.000000  0.750000  1
  Si  Si12  1  0.833464  0.166536  0.997354  1
  Si  Si13  1  0.166552  0.833448  0.997254  1
  Si  Si14  1  0.333070  0.166536  0.997354  1
  Si  Si15  1  0.166552  0.833448  0.502746  1
  Si  Si16  1  0.666899  0.833448  0.997254  1
  Si  Si17  1  0.833464  0.166536  0.502646  1
  Si  Si18  1  0.833464  0.666930  0.997354  1
  Si  Si19  1  0.666899  0.833448  0.502746  1
  Si  Si20  1  0.166552  0.333101  0.997254  1
  Si  Si21  1  0.333070  0.166536  0.502646  1
  Si  Si22  1  0.166552  0.333101  0.502746  1
  Si  Si23  1  0.833464  0.666930  0.502646  1
