# generated using pymatgen
data_Y6CoSn6Ir5
_symmetry_space_group_name_H-M   'P 1'
_cell_length_a   7.48552100
_cell_length_b   7.48551908
_cell_length_c   7.88069300
_cell_angle_alpha   90.00000000
_cell_angle_beta   90.00000000
_cell_angle_gamma   119.99999521
_symmetry_Int_Tables_number   1
_chemical_formula_structural   Y6CoSn6Ir5
_chemical_formula_sum   'Y6 Co1 Sn6 Ir5'
_cell_volume   382.41860869
_cell_formula_units_Z   1
loop_
 _symmetry_equiv_pos_site_id
 _symmetry_equiv_pos_as_xyz
  1  'x, y, z'
loop_
 _atom_site_type_symbol
 _atom_site_label
 _atom_site_symmetry_multiplicity
 _atom_site_fract_x
 _atom_site_fract_y
 _atom_site_fract_z
 _atom_site_occupancy
  Y  Y0  1  0.000767  0.409333  0.750000  1
  Y  Y1  1  0.590667  0.591434  0.750000  1
  Y  Y2  1  0.408566  0.999233  0.750000  1
  Y  Y3  1  0.998991  0.404357  0.250000  1
  Y  Y4  1  0.595643  0.594634  0.250000  1
  Y  Y5  1  0.405366  0.001009  0.250000  1
  Co  Co6  1  0.000000  0.000000  0.250000  1
  Sn  Sn7  1  0.253451  0.253871  0.493635  1
  Sn  Sn8  1  0.000420  0.746549  0.493635  1
  Sn  Sn9  1  0.000420  0.746549  0.006365  1
  Sn  Sn10  1  0.746129  0.999580  0.493635  1
  Sn  Sn11  1  0.746129  0.999580  0.006365  1
  Sn  Sn12  1  0.253451  0.253871  0.006365  1
  Ir  Ir13  1  0.333333  0.666667  0.497439  1
  Ir  Ir14  1  0.666667  0.333333  0.499814  1
  Ir  Ir15  1  0.333333  0.666667  0.002561  1
  Ir  Ir16  1  0.000000  0.000000  0.750000  1
  Ir  Ir17  1  0.666667  0.333333  0.000186  1
