# generated using pymatgen
data_Cs2La3Sm3(CBr6)2
_symmetry_space_group_name_H-M   'P 1'
_cell_length_a   9.06472087
_cell_length_b   9.08329258
_cell_length_c   9.83242320
_cell_angle_alpha   68.92952363
_cell_angle_beta   86.29137931
_cell_angle_gamma   89.20420039
_symmetry_Int_Tables_number   1
_chemical_formula_structural   Cs2La3Sm3(CBr6)2
_chemical_formula_sum   'Cs2 La3 Sm3 C2 Br12'
_cell_volume   753.82792915
_cell_formula_units_Z   1
loop_
 _symmetry_equiv_pos_site_id
 _symmetry_equiv_pos_as_xyz
  1  'x, y, z'
loop_
 _atom_site_type_symbol
 _atom_site_label
 _atom_site_symmetry_multiplicity
 _atom_site_fract_x
 _atom_site_fract_y
 _atom_site_fract_z
 _atom_site_occupancy
  Cs  Cs0  1  0.476502  0.356864  0.327358  1
  Cs  Cs1  1  0.522102  0.638788  0.672696  1
  La  La2  1  0.268635  0.913142  0.997753  1
  La  La3  1  0.979192  0.871013  0.331288  1
  La  La4  1  0.016531  0.130452  0.668703  1
  Sm  Sm5  1  0.917276  0.742616  0.003834  1
  Sm  Sm6  1  0.084627  0.258099  0.996493  1
  Sm  Sm7  1  0.740507  0.087478  0.001861  1
  C  C8  1  0.003778  0.030430  0.922269  1
  C  C9  1  0.995495  0.970880  0.077681  1
  Br  Br10  1  0.086100  0.194664  0.319835  1
  Br  Br11  1  0.909850  0.806235  0.680457  1
  Br  Br12  1  0.202108  0.587388  0.000718  1
  Br  Br13  1  0.797390  0.406583  0.998522  1
  Br  Br14  1  0.406267  0.211702  0.005270  1
  Br  Br15  1  0.602113  0.798606  0.995830  1
  Br  Br16  1  0.667759  0.995054  0.320580  1
  Br  Br17  1  0.328913  0.005912  0.668113  1
  Br  Br18  1  0.293524  0.756764  0.326147  1
  Br  Br19  1  0.702243  0.238169  0.684338  1
  Br  Br20  1  0.850411  0.574178  0.319808  1
  Br  Br21  1  0.148674  0.424983  0.680444  1
