# generated using pymatgen
data_U3VO10
_symmetry_space_group_name_H-M   'P 1'
_cell_length_a   6.57317130
_cell_length_b   7.71237279
_cell_length_c   5.61486774
_cell_angle_alpha   110.18515657
_cell_angle_beta   126.72129002
_cell_angle_gamma   89.03399475
_symmetry_Int_Tables_number   1
_chemical_formula_structural   U3VO10
_chemical_formula_sum   'U3 V1 O10'
_cell_volume   207.24323469
_cell_formula_units_Z   1
loop_
 _symmetry_equiv_pos_site_id
 _symmetry_equiv_pos_as_xyz
  1  'x, y, z'
loop_
 _atom_site_type_symbol
 _atom_site_label
 _atom_site_symmetry_multiplicity
 _atom_site_fract_x
 _atom_site_fract_y
 _atom_site_fract_z
 _atom_site_occupancy
  U  U0  1  0.530002  0.728214  0.978489  1
  U  U1  1  0.000006  0.000008  0.999998  1
  U  U2  1  0.470026  0.271836  0.021525  1
  V  V3  1  0.999987  0.499989  0.999965  1
  O  O4  1  0.909494  0.748503  0.004190  1
  O  O5  1  0.704317  0.464082  0.015729  1
  O  O6  1  0.316415  0.964363  0.021316  1
  O  O7  1  0.709090  0.375905  0.483077  1
  O  O8  1  0.761096  0.850403  0.447102  1
  O  O9  1  0.238951  0.149606  0.552971  1
  O  O10  1  0.290919  0.624086  0.516904  1
  O  O11  1  0.683545  0.035655  0.978671  1
  O  O12  1  0.295638  0.535856  0.984255  1
  O  O13  1  0.090516  0.251494  0.995801  1
