# generated using pymatgen
data_RbAgP2O7
_symmetry_space_group_name_H-M   'P 1'
_cell_length_a   5.87282225
_cell_length_b   5.87067686
_cell_length_c   5.93068533
_cell_angle_alpha   90.02156993
_cell_angle_beta   89.87724690
_cell_angle_gamma   100.48974148
_symmetry_Int_Tables_number   1
_chemical_formula_structural   RbAgP2O7
_chemical_formula_sum   'Rb1 Ag1 P2 O7'
_cell_volume   201.05711432
_cell_formula_units_Z   1
loop_
 _symmetry_equiv_pos_site_id
 _symmetry_equiv_pos_as_xyz
  1  'x, y, z'
loop_
 _atom_site_type_symbol
 _atom_site_label
 _atom_site_symmetry_multiplicity
 _atom_site_fract_x
 _atom_site_fract_y
 _atom_site_fract_z
 _atom_site_occupancy
  Rb  Rb0  1  0.176395  0.824523  0.500296  1
  Ag  Ag1  1  0.535433  0.464582  0.000044  1
  P  P2  1  0.040273  0.328899  0.098933  1
  P  P3  1  0.671124  0.959483  0.900988  1
  O  O4  1  0.922696  0.077642  0.999480  1
  O  O5  1  0.547042  0.806443  0.097478  1
  O  O6  1  0.844633  0.464783  0.157956  1
  O  O7  1  0.179235  0.295625  0.304561  1
  O  O8  1  0.704328  0.819685  0.695410  1
  O  O9  1  0.535291  0.154977  0.842050  1
  O  O10  1  0.193896  0.453002  0.902802  1
