# generated using pymatgen
data_Rb8Er(ReBr8)3
_symmetry_space_group_name_H-M   'P 1'
_cell_length_a   13.34498065
_cell_length_b   13.34497968
_cell_length_c   13.34498100
_cell_angle_alpha   131.84289090
_cell_angle_beta   131.84288718
_cell_angle_gamma   70.47727854
_symmetry_Int_Tables_number   1
_chemical_formula_structural   Rb8Er(ReBr8)3
_chemical_formula_sum   'Rb8 Er1 Re3 Br24'
_cell_volume   1292.41673884
_cell_formula_units_Z   1
loop_
 _symmetry_equiv_pos_site_id
 _symmetry_equiv_pos_as_xyz
  1  'x, y, z'
loop_
 _atom_site_type_symbol
 _atom_site_label
 _atom_site_symmetry_multiplicity
 _atom_site_fract_x
 _atom_site_fract_y
 _atom_site_fract_z
 _atom_site_occupancy
  Rb  Rb0  1  0.117856  0.640358  0.998703  1
  Rb  Rb1  1  0.359642  0.882144  0.001297  1
  Rb  Rb2  1  0.641646  0.640328  0.522488  1
  Rb  Rb3  1  0.359672  0.358354  0.477512  1
  Rb  Rb4  1  0.880845  0.358347  0.998691  1
  Rb  Rb5  1  0.880856  0.882149  0.522507  1
  Rb  Rb6  1  0.117851  0.119144  0.477493  1
  Rb  Rb7  1  0.641653  0.119155  0.001309  1
  Er  Er8  1  0.000008  0.999992  0.000000  1
  Re  Re9  1  0.750003  0.249997  0.500000  1
  Re  Re10  1  0.499978  0.500022  0.000000  1
  Re  Re11  1  0.250003  0.749997  0.500000  1
  Br  Br12  1  0.255283  0.999712  0.255574  1
  Br  Br13  1  0.000288  0.744717  0.744426  1
  Br  Br14  1  0.251618  0.983839  0.732222  1
  Br  Br15  1  0.748791  0.481006  0.732225  1
  Br  Br16  1  0.480604  0.748383  0.732226  1
  Br  Br17  1  0.127971  0.127970  0.000003  1
  Br  Br18  1  0.499647  0.731746  0.232094  1
  Br  Br19  1  0.866051  0.366059  0.499991  1
  Br  Br20  1  0.000291  0.255859  0.255571  1
  Br  Br21  1  0.384043  0.384041  0.000006  1
  Br  Br22  1  0.615959  0.615957  0.999994  1
  Br  Br23  1  0.499649  0.267557  0.767907  1
  Br  Br24  1  0.268254  0.500353  0.767906  1
  Br  Br25  1  0.518994  0.251209  0.267775  1
  Br  Br26  1  0.365925  0.865927  0.500006  1
  Br  Br27  1  0.633941  0.133949  0.500009  1
  Br  Br28  1  0.251617  0.519396  0.267774  1
  Br  Br29  1  0.134073  0.634075  0.499994  1
  Br  Br30  1  0.016161  0.748382  0.267778  1
  Br  Br31  1  0.983437  0.251220  0.732229  1
  Br  Br32  1  0.744141  0.999709  0.744429  1
  Br  Br33  1  0.732443  0.500351  0.232093  1
  Br  Br34  1  0.748780  0.016563  0.267771  1
  Br  Br35  1  0.872030  0.872029  0.999997  1
