# generated using pymatgen
data_Er4MgCu2Bi
_symmetry_space_group_name_H-M   'P 1'
_cell_length_a   8.58912475
_cell_length_b   8.58912459
_cell_length_c   8.58912463
_cell_angle_alpha   127.37177152
_cell_angle_beta   127.37177203
_cell_angle_gamma   77.64497325
_symmetry_Int_Tables_number   1
_chemical_formula_structural   Er4MgCu2Bi
_chemical_formula_sum   'Er8 Mg2 Cu4 Bi2'
_cell_volume   388.03889911
_cell_formula_units_Z   2
loop_
 _symmetry_equiv_pos_site_id
 _symmetry_equiv_pos_as_xyz
  1  'x, y, z'
loop_
 _atom_site_type_symbol
 _atom_site_label
 _atom_site_symmetry_multiplicity
 _atom_site_fract_x
 _atom_site_fract_y
 _atom_site_fract_z
 _atom_site_occupancy
  Er  Er0  1  0.796453  0.296453  0.824799  1
  Er  Er1  1  0.203547  0.703547  0.175201  1
  Er  Er2  1  0.471653  0.971653  0.175201  1
  Er  Er3  1  0.296453  0.471653  0.500000  1
  Er  Er4  1  0.028347  0.203547  0.500000  1
  Er  Er5  1  0.528347  0.028347  0.824799  1
  Er  Er6  1  0.703547  0.528347  0.500000  1
  Er  Er7  1  0.971653  0.796453  0.500000  1
  Mg  Mg8  1  0.000000  0.000000  0.000000  1
  Mg  Mg9  1  0.500000  0.500000  0.000000  1
  Cu  Cu10  1  0.124898  0.624898  0.749797  1
  Cu  Cu11  1  0.875102  0.375102  0.250203  1
  Cu  Cu12  1  0.624898  0.875102  0.500000  1
  Cu  Cu13  1  0.375102  0.124898  0.500000  1
  Bi  Bi14  1  0.250000  0.250000  0.000000  1
  Bi  Bi15  1  0.750000  0.750000  0.000000  1
