# generated using pymatgen
data_Dy12ZnFe4Sn
_symmetry_space_group_name_H-M   'P 1'
_cell_length_a   8.36283923
_cell_length_b   8.36283865
_cell_length_c   8.36283900
_cell_angle_alpha   111.33927002
_cell_angle_beta   110.29781527
_cell_angle_gamma   106.81068406
_symmetry_Int_Tables_number   1
_chemical_formula_structural   Dy12ZnFe4Sn
_chemical_formula_sum   'Dy12 Zn1 Fe4 Sn1'
_cell_volume   449.47221204
_cell_formula_units_Z   1
loop_
 _symmetry_equiv_pos_site_id
 _symmetry_equiv_pos_as_xyz
  1  'x, y, z'
loop_
 _atom_site_type_symbol
 _atom_site_label
 _atom_site_symmetry_multiplicity
 _atom_site_fract_x
 _atom_site_fract_y
 _atom_site_fract_z
 _atom_site_occupancy
  Dy  Dy0  1  0.186999  0.288760  0.475759  1
  Dy  Dy1  1  0.813001  0.711240  0.524241  1
  Dy  Dy2  1  0.186999  0.711240  0.898239  1
  Dy  Dy3  1  0.813001  0.288760  0.101761  1
  Dy  Dy4  1  0.311814  0.611493  0.299681  1
  Dy  Dy5  1  0.688186  0.388507  0.700319  1
  Dy  Dy6  1  0.311814  0.012133  0.700319  1
  Dy  Dy7  1  0.688186  0.987867  0.299681  1
  Dy  Dy8  1  0.427426  0.220587  0.206841  1
  Dy  Dy9  1  0.572574  0.779413  0.793159  1
  Dy  Dy10  1  0.013746  0.220587  0.793159  1
  Dy  Dy11  1  0.986254  0.779413  0.206841  1
  Zn  Zn12  1  0.000000  0.000000  0.000000  1
  Fe  Fe13  1  0.108015  0.608015  0.500000  1
  Fe  Fe14  1  0.891985  0.391985  0.500000  1
  Fe  Fe15  1  0.385591  0.000000  0.385591  1
  Fe  Fe16  1  0.614409  0.000000  0.614409  1
  Sn  Sn17  1  0.500000  0.500000  0.000000  1
