# generated using pymatgen
data_LiAc3Ag11
_symmetry_space_group_name_H-M   'P 1'
_cell_length_a   9.79578300
_cell_length_b   9.79578418
_cell_length_c   8.31690100
_cell_angle_alpha   90.00000000
_cell_angle_beta   90.00000000
_cell_angle_gamma   119.99999940
_symmetry_Int_Tables_number   1
_chemical_formula_structural   LiAc3Ag11
_chemical_formula_sum   'Li2 Ac6 Ag22'
_cell_volume   691.14716395
_cell_formula_units_Z   2
loop_
 _symmetry_equiv_pos_site_id
 _symmetry_equiv_pos_as_xyz
  1  'x, y, z'
loop_
 _atom_site_type_symbol
 _atom_site_label
 _atom_site_symmetry_multiplicity
 _atom_site_fract_x
 _atom_site_fract_y
 _atom_site_fract_z
 _atom_site_occupancy
  Li  Li0  1  0.000000  0.000000  0.000000  1
  Li  Li1  1  0.000000  0.000000  0.500000  1
  Ac  Ac2  1  0.521226  0.042452  0.250000  1
  Ac  Ac3  1  0.478774  0.957548  0.750000  1
  Ac  Ac4  1  0.957548  0.478774  0.250000  1
  Ac  Ac5  1  0.042452  0.521226  0.750000  1
  Ac  Ac6  1  0.521226  0.478774  0.250000  1
  Ac  Ac7  1  0.478774  0.521226  0.750000  1
  Ag  Ag8  1  0.167418  0.334838  0.067148  1
  Ag  Ag9  1  0.832582  0.665162  0.932852  1
  Ag  Ag10  1  0.665162  0.832582  0.067148  1
  Ag  Ag11  1  0.832582  0.665162  0.567148  1
  Ag  Ag12  1  0.334838  0.167418  0.932852  1
  Ag  Ag13  1  0.167418  0.334838  0.432852  1
  Ag  Ag14  1  0.167418  0.832582  0.067148  1
  Ag  Ag15  1  0.334838  0.167418  0.567148  1
  Ag  Ag16  1  0.832582  0.167418  0.932852  1
  Ag  Ag17  1  0.665162  0.832582  0.432852  1
  Ag  Ag18  1  0.832582  0.167418  0.567148  1
  Ag  Ag19  1  0.167418  0.832582  0.432852  1
  Ag  Ag20  1  0.895825  0.791652  0.250000  1
  Ag  Ag21  1  0.104175  0.208348  0.750000  1
  Ag  Ag22  1  0.208348  0.104175  0.250000  1
  Ag  Ag23  1  0.791652  0.895825  0.750000  1
  Ag  Ag24  1  0.895825  0.104175  0.250000  1
  Ag  Ag25  1  0.104175  0.895825  0.750000  1
  Ag  Ag26  1  0.333333  0.666667  0.051758  1
  Ag  Ag27  1  0.666667  0.333333  0.948242  1
  Ag  Ag28  1  0.666667  0.333333  0.551758  1
  Ag  Ag29  1  0.333333  0.666667  0.448242  1
