# generated using pymatgen
data_YbZrSb2Pd
_symmetry_space_group_name_H-M   'P 1'
_cell_length_a   7.99915393
_cell_length_b   7.99915378
_cell_length_c   7.99915237
_cell_angle_alpha   32.27101717
_cell_angle_beta   32.27101583
_cell_angle_gamma   32.27101876
_symmetry_Int_Tables_number   1
_chemical_formula_structural   YbZrSb2Pd
_chemical_formula_sum   'Yb1 Zr1 Sb2 Pd1'
_cell_volume   129.69777992
_cell_formula_units_Z   1
loop_
 _symmetry_equiv_pos_site_id
 _symmetry_equiv_pos_as_xyz
  1  'x, y, z'
loop_
 _atom_site_type_symbol
 _atom_site_label
 _atom_site_symmetry_multiplicity
 _atom_site_fract_x
 _atom_site_fract_y
 _atom_site_fract_z
 _atom_site_occupancy
  Yb  Yb0  1  0.505456  0.505456  0.505456  1
  Zr  Zr1  1  0.991950  0.991950  0.991950  1
  Sb  Sb2  1  0.748956  0.748956  0.748956  1
  Sb  Sb3  1  0.254214  0.254214  0.254214  1
  Pd  Pd4  1  0.374425  0.374425  0.374425  1
