# generated using pymatgen
data_Tb4ScCr4(B8W)3
_symmetry_space_group_name_H-M   'P 1'
_cell_length_a   3.42155500
_cell_length_b   8.87535564
_cell_length_c   11.25127908
_cell_angle_alpha   89.93024266
_cell_angle_beta   90.00000000
_cell_angle_gamma   90.00000000
_symmetry_Int_Tables_number   1
_chemical_formula_structural   Tb4ScCr4(B8W)3
_chemical_formula_sum   'Tb4 Sc1 Cr4 B24 W3'
_cell_volume   341.67316107
_cell_formula_units_Z   1
loop_
 _symmetry_equiv_pos_site_id
 _symmetry_equiv_pos_as_xyz
  1  'x, y, z'
loop_
 _atom_site_type_symbol
 _atom_site_label
 _atom_site_symmetry_multiplicity
 _atom_site_fract_x
 _atom_site_fract_y
 _atom_site_fract_z
 _atom_site_occupancy
  Tb  Tb0  1  0.000000  0.822267  0.086146  1
  Tb  Tb1  1  0.000000  0.177940  0.915776  1
  Tb  Tb2  1  0.000000  0.323481  0.413671  1
  Tb  Tb3  1  0.000000  0.677863  0.584760  1
  Sc  Sc4  1  0.000000  0.054086  0.627859  1
  Cr  Cr5  1  0.000000  0.146142  0.183865  1
  Cr  Cr6  1  0.000000  0.850760  0.818574  1
  Cr  Cr7  1  0.000000  0.644451  0.313251  1
  Cr  Cr8  1  0.000000  0.361254  0.687039  1
  B  B9  1  0.500000  0.055213  0.068263  1
  B  B10  1  0.500000  0.943780  0.932465  1
  B  B11  1  0.500000  0.556770  0.431256  1
  B  B12  1  0.500000  0.446729  0.568303  1
  B  B13  1  0.500000  0.255513  0.083116  1
  B  B14  1  0.500000  0.743023  0.918288  1
  B  B15  1  0.500000  0.756523  0.415421  1
  B  B16  1  0.500000  0.247681  0.584222  1
  B  B17  1  0.500000  0.298024  0.235845  1
  B  B18  1  0.500000  0.701638  0.765253  1
  B  B19  1  0.500000  0.797673  0.262381  1
  B  B20  1  0.500000  0.203819  0.736344  1
  B  B21  1  0.500000  0.128990  0.317432  1
  B  B22  1  0.500000  0.868616  0.683609  1
  B  B23  1  0.500000  0.628607  0.180655  1
  B  B24  1  0.500000  0.371069  0.819557  1
  B  B25  1  0.500000  0.482138  0.285514  1
  B  B26  1  0.500000  0.518456  0.715213  1
  B  B27  1  0.500000  0.983079  0.213220  1
  B  B28  1  0.500000  0.015030  0.786932  1
  B  B29  1  0.500000  0.096625  0.471146  1
  B  B30  1  0.500000  0.901319  0.521848  1
  B  B31  1  0.500000  0.596446  0.026084  1
  B  B32  1  0.500000  0.402096  0.975281  1
  W  W33  1  0.000000  0.442053  0.128038  1
  W  W34  1  0.000000  0.554418  0.872221  1
  W  W35  1  0.000000  0.946426  0.371152  1
