# generated using pymatgen
data_Dy3Ho5Ti11Si16W
_symmetry_space_group_name_H-M   'P 1'
_cell_length_a   7.02683842
_cell_length_b   7.02782005
_cell_length_c   12.92171235
_cell_angle_alpha   90.00249863
_cell_angle_beta   89.98949704
_cell_angle_gamma   90.06144600
_symmetry_Int_Tables_number   1
_chemical_formula_structural   Dy3Ho5Ti11Si16W
_chemical_formula_sum   'Dy3 Ho5 Ti11 Si16 W1'
_cell_volume   638.11714202
_cell_formula_units_Z   1
loop_
 _symmetry_equiv_pos_site_id
 _symmetry_equiv_pos_as_xyz
  1  'x, y, z'
loop_
 _atom_site_type_symbol
 _atom_site_label
 _atom_site_symmetry_multiplicity
 _atom_site_fract_x
 _atom_site_fract_y
 _atom_site_fract_z
 _atom_site_occupancy
  Dy  Dy0  1  0.340095  0.003377  0.467165  1
  Dy  Dy1  1  0.497035  0.839677  0.717812  1
  Dy  Dy2  1  0.501024  0.159534  0.215396  1
  Ho  Ho3  1  0.840198  0.497565  0.282242  1
  Ho  Ho4  1  0.159033  0.500221  0.784699  1
  Ho  Ho5  1  0.658215  0.998927  0.967039  1
  Ho  Ho6  1  0.002732  0.340642  0.533121  1
  Ho  Ho7  1  0.998789  0.658093  0.032594  1
  Ti  Ti8  1  0.174058  0.827086  0.249157  1
  Ti  Ti9  1  0.827482  0.174526  0.750859  1
  Ti  Ti10  1  0.673421  0.672824  0.500018  1
  Ti  Ti11  1  0.153940  0.009543  0.876950  1
  Ti  Ti12  1  0.491509  0.651649  0.123941  1
  Ti  Ti13  1  0.507754  0.348661  0.626683  1
  Ti  Ti14  1  0.651775  0.491596  0.875985  1
  Ti  Ti15  1  0.348647  0.507289  0.373450  1
  Ti  Ti16  1  0.848075  0.991739  0.375730  1
  Ti  Ti17  1  0.009213  0.154176  0.122988  1
  Ti  Ti18  1  0.991954  0.847946  0.624383  1
  Si  Si19  1  0.201528  0.130914  0.684772  1
  Si  Si20  1  0.369631  0.700229  0.934341  1
  Si  Si21  1  0.631108  0.298037  0.434397  1
  Si  Si22  1  0.700815  0.370120  0.065490  1
  Si  Si23  1  0.297010  0.629707  0.565615  1
  Si  Si24  1  0.798328  0.869369  0.184087  1
  Si  Si25  1  0.129538  0.202548  0.315269  1
  Si  Si26  1  0.870328  0.797807  0.816026  1
  Si  Si27  1  0.290457  0.953896  0.064391  1
  Si  Si28  1  0.546880  0.791030  0.314620  1
  Si  Si29  1  0.452645  0.208852  0.815920  1
  Si  Si30  1  0.792194  0.546066  0.685380  1
  Si  Si31  1  0.207970  0.453087  0.184175  1
  Si  Si32  1  0.709600  0.047766  0.565109  1
  Si  Si33  1  0.954143  0.290803  0.935399  1
  Si  Si34  1  0.046873  0.708341  0.434886  1
  W  W35  1  0.326003  0.326358  0.999910  1
