# generated using pymatgen
data_LiNdHo4(P2Ru3)6
_symmetry_space_group_name_H-M   'P 1'
_cell_length_a   12.63933341
_cell_length_b   12.43311805
_cell_length_c   3.97677100
_cell_angle_alpha   90.00000000
_cell_angle_beta   90.00000000
_cell_angle_gamma   119.46174195
_symmetry_Int_Tables_number   1
_chemical_formula_structural   LiNdHo4(P2Ru3)6
_chemical_formula_sum   'Li1 Nd1 Ho4 P12 Ru18'
_cell_volume   544.12104991
_cell_formula_units_Z   1
loop_
 _symmetry_equiv_pos_site_id
 _symmetry_equiv_pos_as_xyz
  1  'x, y, z'
loop_
 _atom_site_type_symbol
 _atom_site_label
 _atom_site_symmetry_multiplicity
 _atom_site_fract_x
 _atom_site_fract_y
 _atom_site_fract_z
 _atom_site_occupancy
  Li  Li0  1  0.000000  0.562155  0.000000  1
  Nd  Nd1  1  0.000000  0.181843  0.500000  1
  Ho  Ho2  1  0.817001  0.816264  0.500000  1
  Ho  Ho3  1  0.182999  0.999261  0.500000  1
  Ho  Ho4  1  0.659760  0.329379  0.000000  1
  Ho  Ho5  1  0.340240  0.669621  0.000000  1
  P  P6  1  0.000000  0.807822  0.000000  1
  P  P7  1  0.184346  0.183274  0.000000  1
  P  P8  1  0.815654  0.998927  0.000000  1
  P  P9  1  0.692121  0.173491  0.500000  1
  P  P10  1  0.819531  0.519188  0.500000  1
  P  P11  1  0.474965  0.306795  0.500000  1
  P  P12  1  0.180469  0.699657  0.500000  1
  P  P13  1  0.525035  0.831830  0.500000  1
  P  P14  1  0.307879  0.481371  0.500000  1
  P  P15  1  0.000000  0.369640  0.000000  1
  P  P16  1  0.626368  0.625231  0.000000  1
  P  P17  1  0.373632  0.998862  0.000000  1
  Ru  Ru18  1  0.444879  0.444972  0.000000  1
  Ru  Ru19  1  0.555121  0.000093  0.000000  1
  Ru  Ru20  1  0.000000  0.712135  0.500000  1
  Ru  Ru21  1  0.282626  0.283774  0.500000  1
  Ru  Ru22  1  0.717374  0.001148  0.500000  1
  Ru  Ru23  1  0.803560  0.186158  0.000000  1
  Ru  Ru24  1  0.813056  0.619060  0.000000  1
  Ru  Ru25  1  0.373365  0.188558  0.000000  1
  Ru  Ru26  1  0.186944  0.806005  0.000000  1
  Ru  Ru27  1  0.626635  0.815192  0.000000  1
  Ru  Ru28  1  0.196440  0.382599  0.000000  1
  Ru  Ru29  1  0.876153  0.368122  0.500000  1
  Ru  Ru30  1  0.631166  0.509003  0.500000  1
  Ru  Ru31  1  0.492984  0.128683  0.500000  1
  Ru  Ru32  1  0.368834  0.877837  0.500000  1
  Ru  Ru33  1  0.507016  0.635699  0.500000  1
  Ru  Ru34  1  0.123847  0.491968  0.500000  1
  Ru  Ru35  1  0.000000  0.994382  0.000000  1
