# generated using pymatgen
data_TbPa2(Si3Pd10)2
_symmetry_space_group_name_H-M   'P 1'
_cell_length_a   8.74561992
_cell_length_b   8.74562013
_cell_length_c   8.74562000
_cell_angle_alpha   60.00000050
_cell_angle_beta   59.99999970
_cell_angle_gamma   60.00000060
_symmetry_Int_Tables_number   1
_chemical_formula_structural   TbPa2(Si3Pd10)2
_chemical_formula_sum   'Tb1 Pa2 Si6 Pd20'
_cell_volume   472.99529084
_cell_formula_units_Z   1
loop_
 _symmetry_equiv_pos_site_id
 _symmetry_equiv_pos_as_xyz
  1  'x, y, z'
loop_
 _atom_site_type_symbol
 _atom_site_label
 _atom_site_symmetry_multiplicity
 _atom_site_fract_x
 _atom_site_fract_y
 _atom_site_fract_z
 _atom_site_occupancy
  Tb  Tb0  1  0.000000  0.000000  0.000000  1
  Pa  Pa1  1  0.250000  0.250000  0.250000  1
  Pa  Pa2  1  0.750000  0.750000  0.750000  1
  Si  Si3  1  0.735076  0.264924  0.264924  1
  Si  Si4  1  0.264924  0.735076  0.735076  1
  Si  Si5  1  0.264924  0.735076  0.264924  1
  Si  Si6  1  0.735076  0.264924  0.735076  1
  Si  Si7  1  0.264924  0.264924  0.735076  1
  Si  Si8  1  0.735076  0.735076  0.264924  1
  Pd  Pd9  1  0.382194  0.382194  0.382194  1
  Pd  Pd10  1  0.617806  0.617806  0.617806  1
  Pd  Pd11  1  0.382194  0.382194  0.853418  1
  Pd  Pd12  1  0.382194  0.853418  0.382194  1
  Pd  Pd13  1  0.617806  0.617806  0.146582  1
  Pd  Pd14  1  0.617806  0.146582  0.617806  1
  Pd  Pd15  1  0.853418  0.382194  0.382194  1
  Pd  Pd16  1  0.146582  0.617806  0.617806  1
  Pd  Pd17  1  0.347069  0.000000  0.000000  1
  Pd  Pd18  1  0.652931  0.000000  0.000000  1
  Pd  Pd19  1  0.000000  0.347069  0.652931  1
  Pd  Pd20  1  0.000000  0.652931  0.347069  1
  Pd  Pd21  1  0.000000  0.347069  0.000000  1
  Pd  Pd22  1  0.652931  0.000000  0.347069  1
  Pd  Pd23  1  0.000000  0.652931  0.000000  1
  Pd  Pd24  1  0.347069  0.000000  0.652931  1
  Pd  Pd25  1  0.000000  0.000000  0.347069  1
  Pd  Pd26  1  0.000000  0.000000  0.652931  1
  Pd  Pd27  1  0.652931  0.347069  0.000000  1
  Pd  Pd28  1  0.347069  0.652931  0.000000  1
