# generated using pymatgen
data_TiNb(VGe)2
_symmetry_space_group_name_H-M   'P 1'
_cell_length_a   3.41256600
_cell_length_b   6.67737194
_cell_length_c   8.08231791
_cell_angle_alpha   90.24324924
_cell_angle_beta   90.00000000
_cell_angle_gamma   90.00000000
_symmetry_Int_Tables_number   1
_chemical_formula_structural   TiNb(VGe)2
_chemical_formula_sum   'Ti2 Nb2 V4 Ge4'
_cell_volume   184.16989589
_cell_formula_units_Z   2
loop_
 _symmetry_equiv_pos_site_id
 _symmetry_equiv_pos_as_xyz
  1  'x, y, z'
loop_
 _atom_site_type_symbol
 _atom_site_label
 _atom_site_symmetry_multiplicity
 _atom_site_fract_x
 _atom_site_fract_y
 _atom_site_fract_z
 _atom_site_occupancy
  Ti  Ti0  1  0.750000  0.947952  0.666493  1
  Ti  Ti1  1  0.250000  0.052048  0.333507  1
  Nb  Nb2  1  0.250000  0.552550  0.166322  1
  Nb  Nb3  1  0.750000  0.447450  0.833678  1
  V  V4  1  0.250000  0.623152  0.559746  1
  V  V5  1  0.750000  0.376848  0.440254  1
  V  V6  1  0.750000  0.871246  0.060194  1
  V  V7  1  0.250000  0.128754  0.939806  1
  Ge  Ge8  1  0.250000  0.753933  0.856520  1
  Ge  Ge9  1  0.750000  0.246067  0.143480  1
  Ge  Ge10  1  0.750000  0.756896  0.363095  1
  Ge  Ge11  1  0.250000  0.243104  0.636905  1
