# generated using pymatgen
data_YEr2Fe(Co4P3)2
_symmetry_space_group_name_H-M   'P 1'
_cell_length_a   3.68801600
_cell_length_b   10.49955600
_cell_length_c   12.15509300
_cell_angle_alpha   90.00000000
_cell_angle_beta   90.00000000
_cell_angle_gamma   90.00000000
_symmetry_Int_Tables_number   1
_chemical_formula_structural   YEr2Fe(Co4P3)2
_chemical_formula_sum   'Y2 Er4 Fe2 Co16 P12'
_cell_volume   470.67595968
_cell_formula_units_Z   2
loop_
 _symmetry_equiv_pos_site_id
 _symmetry_equiv_pos_as_xyz
  1  'x, y, z'
loop_
 _atom_site_type_symbol
 _atom_site_label
 _atom_site_symmetry_multiplicity
 _atom_site_fract_x
 _atom_site_fract_y
 _atom_site_fract_z
 _atom_site_occupancy
  Y  Y0  1  0.750000  0.250000  0.477780  1
  Y  Y1  1  0.250000  0.750000  0.522220  1
  Er  Er2  1  0.250000  0.932007  0.794865  1
  Er  Er3  1  0.250000  0.567993  0.794865  1
  Er  Er4  1  0.750000  0.067993  0.205135  1
  Er  Er5  1  0.750000  0.432007  0.205135  1
  Fe  Fe6  1  0.250000  0.250000  0.842786  1
  Fe  Fe7  1  0.750000  0.750000  0.157214  1
  Co  Co8  1  0.250000  0.250000  0.296686  1
  Co  Co9  1  0.750000  0.750000  0.703314  1
  Co  Co10  1  0.750000  0.250000  0.013817  1
  Co  Co11  1  0.250000  0.750000  0.986183  1
  Co  Co12  1  0.250000  0.417156  0.005452  1
  Co  Co13  1  0.250000  0.082844  0.005452  1
  Co  Co14  1  0.750000  0.582844  0.994548  1
  Co  Co15  1  0.750000  0.917156  0.994548  1
  Co  Co16  1  0.250000  0.453203  0.569541  1
  Co  Co17  1  0.250000  0.046797  0.569541  1
  Co  Co18  1  0.750000  0.546797  0.430459  1
  Co  Co19  1  0.750000  0.953203  0.430459  1
  Co  Co20  1  0.250000  0.871579  0.290192  1
  Co  Co21  1  0.250000  0.628421  0.290192  1
  Co  Co22  1  0.750000  0.128421  0.709808  1
  Co  Co23  1  0.750000  0.371579  0.709808  1
  P  P24  1  0.250000  0.250000  0.117579  1
  P  P25  1  0.750000  0.750000  0.882421  1
  P  P26  1  0.250000  0.250000  0.657457  1
  P  P27  1  0.750000  0.750000  0.342543  1
  P  P28  1  0.250000  0.439674  0.383162  1
  P  P29  1  0.250000  0.060326  0.383162  1
  P  P30  1  0.750000  0.560326  0.616838  1
  P  P31  1  0.750000  0.939674  0.616838  1
  P  P32  1  0.250000  0.903094  0.107400  1
  P  P33  1  0.250000  0.596906  0.107400  1
  P  P34  1  0.750000  0.096906  0.892600  1
  P  P35  1  0.750000  0.403094  0.892600  1
