# generated using pymatgen
data_Nd6ZrCo17(SiP5)2
_symmetry_space_group_name_H-M   'P 1'
_cell_length_a   3.77363100
_cell_length_b   10.72273800
_cell_length_c   12.53573100
_cell_angle_alpha   90.00000000
_cell_angle_beta   90.00000000
_cell_angle_gamma   90.00000000
_symmetry_Int_Tables_number   1
_chemical_formula_structural   Nd6ZrCo17(SiP5)2
_chemical_formula_sum   'Nd6 Zr1 Co17 Si2 P10'
_cell_volume   507.24151343
_cell_formula_units_Z   1
loop_
 _symmetry_equiv_pos_site_id
 _symmetry_equiv_pos_as_xyz
  1  'x, y, z'
loop_
 _atom_site_type_symbol
 _atom_site_label
 _atom_site_symmetry_multiplicity
 _atom_site_fract_x
 _atom_site_fract_y
 _atom_site_fract_z
 _atom_site_occupancy
  Nd  Nd0  1  0.000000  0.500000  0.528805  1
  Nd  Nd1  1  0.500000  0.000000  0.476843  1
  Nd  Nd2  1  0.500000  0.818901  0.209146  1
  Nd  Nd3  1  0.500000  0.181099  0.209146  1
  Nd  Nd4  1  0.000000  0.682394  0.794085  1
  Nd  Nd5  1  0.000000  0.317606  0.794085  1
  Zr  Zr6  1  0.500000  0.500000  0.152251  1
  Co  Co7  1  0.000000  0.000000  0.844903  1
  Co  Co8  1  0.500000  0.500000  0.704203  1
  Co  Co9  1  0.000000  0.000000  0.299737  1
  Co  Co10  1  0.000000  0.500000  0.983333  1
  Co  Co11  1  0.500000  0.000000  0.006559  1
  Co  Co12  1  0.500000  0.327800  0.988538  1
  Co  Co13  1  0.500000  0.672200  0.988538  1
  Co  Co14  1  0.000000  0.164747  0.998406  1
  Co  Co15  1  0.000000  0.835253  0.998406  1
  Co  Co16  1  0.500000  0.296172  0.434149  1
  Co  Co17  1  0.500000  0.703828  0.434149  1
  Co  Co18  1  0.000000  0.205182  0.569382  1
  Co  Co19  1  0.000000  0.794818  0.569382  1
  Co  Co20  1  0.500000  0.880622  0.710147  1
  Co  Co21  1  0.500000  0.119378  0.710147  1
  Co  Co22  1  0.000000  0.619513  0.300460  1
  Co  Co23  1  0.000000  0.380487  0.300460  1
  Si  Si24  1  0.000000  0.000000  0.112002  1
  Si  Si25  1  0.000000  0.000000  0.660240  1
  P  P26  1  0.500000  0.500000  0.884709  1
  P  P27  1  0.500000  0.500000  0.357206  1
  P  P28  1  0.500000  0.303493  0.616162  1
  P  P29  1  0.500000  0.696507  0.616162  1
  P  P30  1  0.000000  0.194389  0.389478  1
  P  P31  1  0.000000  0.805611  0.389478  1
  P  P32  1  0.500000  0.852033  0.890240  1
  P  P33  1  0.500000  0.147967  0.890240  1
  P  P34  1  0.000000  0.662918  0.094411  1
  P  P35  1  0.000000  0.337082  0.094411  1
