# generated using pymatgen
data_TbHo7(RuI4)2
_symmetry_space_group_name_H-M   'P 1'
_cell_length_a   11.08933240
_cell_length_b   11.10236392
_cell_length_c   6.18421000
_cell_angle_alpha   89.28235732
_cell_angle_beta   89.33700884
_cell_angle_gamma   88.51999958
_symmetry_Int_Tables_number   1
_chemical_formula_structural   TbHo7(RuI4)2
_chemical_formula_sum   'Tb1 Ho7 Ru2 I8'
_cell_volume   761.02447177
_cell_formula_units_Z   1
loop_
 _symmetry_equiv_pos_site_id
 _symmetry_equiv_pos_as_xyz
  1  'x, y, z'
loop_
 _atom_site_type_symbol
 _atom_site_label
 _atom_site_symmetry_multiplicity
 _atom_site_fract_x
 _atom_site_fract_y
 _atom_site_fract_z
 _atom_site_occupancy
  Tb  Tb0  1  0.205520  0.914421  0.997201  1
  Ho  Ho1  1  0.798243  0.084171  0.003074  1
  Ho  Ho2  1  0.083590  0.798446  0.503457  1
  Ho  Ho3  1  0.915554  0.201470  0.496737  1
  Ho  Ho4  1  0.800209  0.921363  0.507002  1
  Ho  Ho5  1  0.199236  0.079275  0.493123  1
  Ho  Ho6  1  0.079006  0.199494  0.993013  1
  Ho  Ho7  1  0.921161  0.800523  0.007124  1
  Ru  Ru8  1  0.000026  0.999970  0.250009  1
  Ru  Ru9  1  0.999981  0.000020  0.750087  1
  I  I10  1  0.362728  0.842237  0.502455  1
  I  I11  1  0.636844  0.157837  0.496713  1
  I  I12  1  0.156346  0.635302  0.996562  1
  I  I13  1  0.842075  0.362825  0.003286  1
  I  I14  1  0.358786  0.151550  0.002855  1
  I  I15  1  0.641253  0.850932  0.997302  1
  I  I16  1  0.850611  0.641914  0.497355  1
  I  I17  1  0.148833  0.358252  0.502648  1
