# generated using pymatgen
data_BaPt2(SO4)4
_symmetry_space_group_name_H-M   'P 1'
_cell_length_a   6.86990622
_cell_length_b   6.86990652
_cell_length_c   9.38423475
_cell_angle_alpha   72.47724034
_cell_angle_beta   72.47723920
_cell_angle_gamma   85.40320910
_symmetry_Int_Tables_number   1
_chemical_formula_structural   BaPt2(SO4)4
_chemical_formula_sum   'Ba1 Pt2 S4 O16'
_cell_volume   402.71854998
_cell_formula_units_Z   1
loop_
 _symmetry_equiv_pos_site_id
 _symmetry_equiv_pos_as_xyz
  1  'x, y, z'
loop_
 _atom_site_type_symbol
 _atom_site_label
 _atom_site_symmetry_multiplicity
 _atom_site_fract_x
 _atom_site_fract_y
 _atom_site_fract_z
 _atom_site_occupancy
  Ba  Ba0  1  0.000000  0.000000  0.000000  1
  Pt  Pt1  1  0.000000  0.000000  0.500000  1
  Pt  Pt2  1  0.500000  0.500000  0.500000  1
  S  S3  1  0.093399  0.596744  0.730967  1
  S  S4  1  0.596744  0.093399  0.730967  1
  S  S5  1  0.906601  0.403256  0.269033  1
  S  S6  1  0.403256  0.906601  0.269033  1
  O  O7  1  0.328142  0.629183  0.656871  1
  O  O8  1  0.629183  0.328142  0.656871  1
  O  O9  1  0.671858  0.370817  0.343129  1
  O  O10  1  0.370817  0.671858  0.343129  1
  O  O11  1  0.036176  0.703061  0.848776  1
  O  O12  1  0.703061  0.036176  0.848776  1
  O  O13  1  0.963824  0.296939  0.151224  1
  O  O14  1  0.296939  0.963824  0.151224  1
  O  O15  1  0.002498  0.700133  0.593211  1
  O  O16  1  0.700133  0.002498  0.593211  1
  O  O17  1  0.997502  0.299867  0.406789  1
  O  O18  1  0.299867  0.997502  0.406789  1
  O  O19  1  0.036960  0.383208  0.780555  1
  O  O20  1  0.383208  0.036960  0.780555  1
  O  O21  1  0.963040  0.616792  0.219445  1
  O  O22  1  0.616792  0.963040  0.219445  1
