# generated using pymatgen
data_Sr6NdLu(BO3)6
_symmetry_space_group_name_H-M   'P 1'
_cell_length_a   7.94415715
_cell_length_b   7.94415629
_cell_length_c   7.94415588
_cell_angle_alpha   105.05987618
_cell_angle_beta   105.05986984
_cell_angle_gamma   105.05989072
_symmetry_Int_Tables_number   1
_chemical_formula_structural   Sr6NdLu(BO3)6
_chemical_formula_sum   'Sr6 Nd1 Lu1 B6 O18'
_cell_volume   437.75447495
_cell_formula_units_Z   1
loop_
 _symmetry_equiv_pos_site_id
 _symmetry_equiv_pos_as_xyz
  1  'x, y, z'
loop_
 _atom_site_type_symbol
 _atom_site_label
 _atom_site_symmetry_multiplicity
 _atom_site_fract_x
 _atom_site_fract_y
 _atom_site_fract_z
 _atom_site_occupancy
  Sr  Sr0  1  0.362927  0.733883  0.859388  1
  Sr  Sr1  1  0.859388  0.362927  0.733883  1
  Sr  Sr2  1  0.733883  0.859388  0.362927  1
  Sr  Sr3  1  0.637073  0.266117  0.140612  1
  Sr  Sr4  1  0.140612  0.637073  0.266117  1
  Sr  Sr5  1  0.266117  0.140612  0.637073  1
  Nd  Nd6  1  0.000000  0.000000  0.000000  1
  Lu  Lu7  1  0.500000  0.500000  0.500000  1
  B  B8  1  0.704316  0.608513  0.957337  1
  B  B9  1  0.957337  0.704316  0.608513  1
  B  B10  1  0.608513  0.957337  0.704316  1
  B  B11  1  0.042663  0.295684  0.391487  1
  B  B12  1  0.391487  0.042663  0.295684  1
  B  B13  1  0.295684  0.391487  0.042663  1
  O  O14  1  0.043674  0.809934  0.522208  1
  O  O15  1  0.522208  0.043674  0.809934  1
  O  O16  1  0.441170  0.494048  0.213173  1
  O  O17  1  0.494048  0.213173  0.441170  1
  O  O18  1  0.213173  0.441170  0.494048  1
  O  O19  1  0.786827  0.558830  0.505952  1
  O  O20  1  0.558830  0.505952  0.786827  1
  O  O21  1  0.505952  0.786827  0.558830  1
  O  O22  1  0.262920  0.201603  0.966748  1
  O  O23  1  0.201603  0.966748  0.262920  1
  O  O24  1  0.966748  0.262920  0.201603  1
  O  O25  1  0.737080  0.798397  0.033252  1
  O  O26  1  0.798397  0.033252  0.737080  1
  O  O27  1  0.033252  0.737080  0.798397  1
  O  O28  1  0.190066  0.477792  0.956326  1
  O  O29  1  0.477792  0.956326  0.190066  1
  O  O30  1  0.956326  0.190066  0.477792  1
  O  O31  1  0.809934  0.522208  0.043674  1
