# generated using pymatgen
data_Yb3Ce(CuH6)2
_symmetry_space_group_name_H-M   'P 1'
_cell_length_a   6.85355329
_cell_length_b   6.85355229
_cell_length_c   5.09896926
_cell_angle_alpha   90.00155437
_cell_angle_beta   90.00155400
_cell_angle_gamma   136.30642340
_symmetry_Int_Tables_number   1
_chemical_formula_structural   Yb3Ce(CuH6)2
_chemical_formula_sum   'Yb3 Ce1 Cu2 H12'
_cell_volume   165.45012430
_cell_formula_units_Z   1
loop_
 _symmetry_equiv_pos_site_id
 _symmetry_equiv_pos_as_xyz
  1  'x, y, z'
loop_
 _atom_site_type_symbol
 _atom_site_label
 _atom_site_symmetry_multiplicity
 _atom_site_fract_x
 _atom_site_fract_y
 _atom_site_fract_z
 _atom_site_occupancy
  Yb  Yb0  1  0.646599  0.353401  0.000000  1
  Yb  Yb1  1  0.857339  0.142661  0.500000  1
  Yb  Yb2  1  0.358130  0.641870  0.000000  1
  Ce  Ce3  1  0.145744  0.854256  0.500000  1
  Cu  Cu4  1  0.496390  0.503610  0.500000  1
  Cu  Cu5  1  0.995652  0.004348  0.000000  1
  H  H6  1  0.002096  0.503295  0.748262  1
  H  H7  1  0.496705  0.997904  0.251738  1
  H  H8  1  0.002116  0.503325  0.251735  1
  H  H9  1  0.496675  0.997884  0.748265  1
  H  H10  1  0.364869  0.635131  0.500000  1
  H  H11  1  0.865561  0.134439  0.000000  1
  H  H12  1  0.629573  0.370427  0.500000  1
  H  H13  1  0.128645  0.871355  0.000000  1
  H  H14  1  0.246092  0.239126  0.742173  1
  H  H15  1  0.760874  0.753908  0.257827  1
  H  H16  1  0.246170  0.239228  0.258147  1
  H  H17  1  0.760772  0.753830  0.741853  1
