# generated using pymatgen
data_Rb16ZrBi9
_symmetry_space_group_name_H-M   'P 1'
_cell_length_a   12.34964006
_cell_length_b   12.34963038
_cell_length_c   12.32991300
_cell_angle_alpha   60.05266830
_cell_angle_beta   60.05282413
_cell_angle_gamma   60.05776950
_symmetry_Int_Tables_number   1
_chemical_formula_structural   Rb16ZrBi9
_chemical_formula_sum   'Rb16 Zr1 Bi9'
_cell_volume   1331.33887180
_cell_formula_units_Z   1
loop_
 _symmetry_equiv_pos_site_id
 _symmetry_equiv_pos_as_xyz
  1  'x, y, z'
loop_
 _atom_site_type_symbol
 _atom_site_label
 _atom_site_symmetry_multiplicity
 _atom_site_fract_x
 _atom_site_fract_y
 _atom_site_fract_z
 _atom_site_occupancy
  Rb  Rb0  1  0.623338  0.130239  0.623212  1
  Rb  Rb1  1  0.623305  0.623311  0.130221  1
  Rb  Rb2  1  0.130238  0.623342  0.623212  1
  Rb  Rb3  1  0.623306  0.623310  0.623164  1
  Rb  Rb4  1  0.022585  0.022597  0.477412  1
  Rb  Rb5  1  0.777807  0.222151  0.222086  1
  Rb  Rb6  1  0.222154  0.777805  0.777955  1
  Rb  Rb7  1  0.777862  0.777857  0.222148  1
  Rb  Rb8  1  0.777805  0.222160  0.777949  1
  Rb  Rb9  1  0.222154  0.777799  0.222095  1
  Rb  Rb10  1  0.477350  0.022650  0.477103  1
  Rb  Rb11  1  0.477349  0.022659  0.022894  1
  Rb  Rb12  1  0.022646  0.477357  0.477102  1
  Rb  Rb13  1  0.022641  0.477362  0.022901  1
  Rb  Rb14  1  0.222107  0.222114  0.777890  1
  Rb  Rb15  1  0.477147  0.477167  0.022843  1
  Zr  Zr16  1  0.750201  0.750134  0.749803  1
  Bi  Bi17  1  0.500139  0.500145  0.499861  1
  Bi  Bi18  1  0.395147  0.814012  0.395422  1
  Bi  Bi19  1  0.848470  0.848489  0.454455  1
  Bi  Bi20  1  0.454830  0.848427  0.848376  1
  Bi  Bi21  1  0.848459  0.848465  0.848583  1
  Bi  Bi22  1  0.814009  0.395150  0.395423  1
  Bi  Bi23  1  0.395252  0.395256  0.395401  1
  Bi  Bi24  1  0.395258  0.395257  0.814090  1
  Bi  Bi25  1  0.848438  0.454787  0.848400  1
