# generated using pymatgen
data_Y3Ho7(RuRh)2
_symmetry_space_group_name_H-M   'P 1'
_cell_length_a   6.37965240
_cell_length_b   7.27794594
_cell_length_c   8.50903885
_cell_angle_alpha   96.81498452
_cell_angle_beta   111.95511232
_cell_angle_gamma   89.92228790
_symmetry_Int_Tables_number   1
_chemical_formula_structural   Y3Ho7(RuRh)2
_chemical_formula_sum   'Y3 Ho7 Ru2 Rh2'
_cell_volume   363.44272400
_cell_formula_units_Z   1
loop_
 _symmetry_equiv_pos_site_id
 _symmetry_equiv_pos_as_xyz
  1  'x, y, z'
loop_
 _atom_site_type_symbol
 _atom_site_label
 _atom_site_symmetry_multiplicity
 _atom_site_fract_x
 _atom_site_fract_y
 _atom_site_fract_z
 _atom_site_occupancy
  Y  Y0  1  0.980458  0.918382  0.188758  1
  Y  Y1  1  0.791937  0.581726  0.811651  1
  Y  Y2  1  0.024121  0.084671  0.813678  1
  Ho  Ho3  1  0.209725  0.414477  0.186318  1
  Ho  Ho4  1  0.641161  0.815717  0.433846  1
  Ho  Ho5  1  0.207139  0.684118  0.565598  1
  Ho  Ho6  1  0.356329  0.187335  0.563415  1
  Ho  Ho7  1  0.792604  0.312900  0.436487  1
  Ho  Ho8  1  0.419847  0.749793  0.000127  1
  Ho  Ho9  1  0.577290  0.250117  0.000046  1
  Ru  Ru10  1  0.179335  0.425889  0.778772  1
  Ru  Ru11  1  0.399319  0.075785  0.220963  1
  Rh  Rh12  1  0.822230  0.574767  0.221910  1
  Rh  Rh13  1  0.598504  0.924322  0.778432  1
