# generated using pymatgen
data_TiNb(SiTc)2
_symmetry_space_group_name_H-M   'P 1'
_cell_length_a   3.28231200
_cell_length_b   6.87094848
_cell_length_c   11.77644323
_cell_angle_alpha   89.55260394
_cell_angle_beta   90.00000000
_cell_angle_gamma   90.00000000
_symmetry_Int_Tables_number   1
_chemical_formula_structural   TiNb(SiTc)2
_chemical_formula_sum   'Ti3 Nb3 Si6 Tc6'
_cell_volume   265.58127712
_cell_formula_units_Z   3
loop_
 _symmetry_equiv_pos_site_id
 _symmetry_equiv_pos_as_xyz
  1  'x, y, z'
loop_
 _atom_site_type_symbol
 _atom_site_label
 _atom_site_symmetry_multiplicity
 _atom_site_fract_x
 _atom_site_fract_y
 _atom_site_fract_z
 _atom_site_occupancy
  Ti  Ti0  1  0.500000  0.295719  0.299618  1
  Ti  Ti1  1  0.500000  0.297709  0.698346  1
  Ti  Ti2  1  0.500000  0.798233  0.201406  1
  Nb  Nb3  1  0.500000  0.407977  0.002464  1
  Nb  Nb4  1  0.500000  0.899424  0.500183  1
  Nb  Nb5  1  0.500000  0.795414  0.800130  1
  Si  Si6  1  0.000000  0.001488  0.667987  1
  Si  Si7  1  0.000000  0.501658  0.169306  1
  Si  Si8  1  0.000000  0.495783  0.831446  1
  Si  Si9  1  0.000000  0.000467  0.331987  1
  Si  Si10  1  0.500000  0.004189  0.001355  1
  Si  Si11  1  0.500000  0.497228  0.497434  1
  Tc  Tc12  1  0.000000  0.746600  0.001046  1
  Tc  Tc13  1  0.000000  0.242608  0.500017  1
  Tc  Tc14  1  0.000000  0.624896  0.627310  1
  Tc  Tc15  1  0.000000  0.130485  0.130135  1
  Tc  Tc16  1  0.000000  0.131125  0.870212  1
  Tc  Tc17  1  0.000000  0.629194  0.369619  1
