# generated using pymatgen
data_LaNd3Zn4PtRh3
_symmetry_space_group_name_H-M   'P 1'
_cell_length_a   4.05184700
_cell_length_b   7.39411801
_cell_length_c   16.63043102
_cell_angle_alpha   90.00616057
_cell_angle_beta   90.00000000
_cell_angle_gamma   90.00000000
_symmetry_Int_Tables_number   1
_chemical_formula_structural   LaNd3Zn4PtRh3
_chemical_formula_sum   'La2 Nd6 Zn8 Pt2 Rh6'
_cell_volume   498.24496457
_cell_formula_units_Z   2
loop_
 _symmetry_equiv_pos_site_id
 _symmetry_equiv_pos_as_xyz
  1  'x, y, z'
loop_
 _atom_site_type_symbol
 _atom_site_label
 _atom_site_symmetry_multiplicity
 _atom_site_fract_x
 _atom_site_fract_y
 _atom_site_fract_z
 _atom_site_occupancy
  La  La0  1  0.750000  0.453174  0.214178  1
  La  La1  1  0.750000  0.944157  0.283264  1
  Nd  Nd2  1  0.750000  0.331509  0.443784  1
  Nd  Nd3  1  0.250000  0.045619  0.714871  1
  Nd  Nd4  1  0.250000  0.554540  0.783769  1
  Nd  Nd5  1  0.250000  0.670401  0.560992  1
  Nd  Nd6  1  0.750000  0.829689  0.058451  1
  Nd  Nd7  1  0.250000  0.169482  0.941630  1
  Zn  Zn8  1  0.250000  0.120287  0.146826  1
  Zn  Zn9  1  0.250000  0.997384  0.442391  1
  Zn  Zn10  1  0.750000  0.873615  0.848985  1
  Zn  Zn11  1  0.750000  0.000665  0.560725  1
  Zn  Zn12  1  0.250000  0.500642  0.057612  1
  Zn  Zn13  1  0.750000  0.378159  0.649870  1
  Zn  Zn14  1  0.750000  0.503135  0.939716  1
  Zn  Zn15  1  0.250000  0.624458  0.352109  1
  Pt  Pt16  1  0.750000  0.254887  0.813241  1
  Pt  Pt17  1  0.250000  0.244078  0.314597  1
  Rh  Rh18  1  0.250000  0.746646  0.934084  1
  Rh  Rh19  1  0.250000  0.244071  0.566032  1
  Rh  Rh20  1  0.250000  0.745202  0.186502  1
  Rh  Rh21  1  0.750000  0.757043  0.434891  1
  Rh  Rh22  1  0.750000  0.258953  0.065714  1
  Rh  Rh23  1  0.750000  0.752204  0.685764  1
