# generated using pymatgen
data_Er12Co8Si7Os
_symmetry_space_group_name_H-M   'P 1'
_cell_length_a   5.47103383
_cell_length_b   7.54395941
_cell_length_c   12.58627800
_cell_angle_alpha   90.00000000
_cell_angle_beta   90.00000000
_cell_angle_gamma   90.46312666
_symmetry_Int_Tables_number   1
_chemical_formula_structural   Er12Co8Si7Os
_chemical_formula_sum   'Er12 Co8 Si7 Os1'
_cell_volume   519.45971800
_cell_formula_units_Z   1
loop_
 _symmetry_equiv_pos_site_id
 _symmetry_equiv_pos_as_xyz
  1  'x, y, z'
loop_
 _atom_site_type_symbol
 _atom_site_label
 _atom_site_symmetry_multiplicity
 _atom_site_fract_x
 _atom_site_fract_y
 _atom_site_fract_z
 _atom_site_occupancy
  Er  Er0  1  0.637951  0.246999  0.250000  1
  Er  Er1  1  0.376566  0.748828  0.750000  1
  Er  Er2  1  0.364199  0.749251  0.250000  1
  Er  Er3  1  0.633196  0.247585  0.750000  1
  Er  Er4  1  0.133109  0.388302  0.105044  1
  Er  Er5  1  0.865791  0.606551  0.899978  1
  Er  Er6  1  0.865791  0.606551  0.600022  1
  Er  Er7  1  0.854174  0.899878  0.397819  1
  Er  Er8  1  0.133109  0.388302  0.394956  1
  Er  Er9  1  0.141057  0.105140  0.601854  1
  Er  Er10  1  0.141057  0.105140  0.898146  1
  Er  Er11  1  0.854174  0.899878  0.102181  1
  Co  Co12  1  0.366822  0.027941  0.083788  1
  Co  Co13  1  0.641046  0.974261  0.909965  1
  Co  Co14  1  0.641046  0.974261  0.590035  1
  Co  Co15  1  0.625121  0.529294  0.413528  1
  Co  Co16  1  0.366822  0.027941  0.416212  1
  Co  Co17  1  0.366535  0.471257  0.586946  1
  Co  Co18  1  0.366535  0.471257  0.913054  1
  Co  Co19  1  0.625121  0.529294  0.086472  1
  Si  Si20  1  0.853398  0.897785  0.750000  1
  Si  Si21  1  0.838315  0.599977  0.250000  1
  Si  Si22  1  0.156073  0.401155  0.750000  1
  Si  Si23  1  0.609570  0.251685  0.997993  1
  Si  Si24  1  0.389520  0.752101  0.997245  1
  Si  Si25  1  0.389520  0.752101  0.502755  1
  Si  Si26  1  0.609570  0.251685  0.502007  1
  Os  Os27  1  0.154815  0.095601  0.250000  1
