# generated using pymatgen
data_Ca6Al24Os3Rh5
_symmetry_space_group_name_H-M   'P 1'
_cell_length_a   8.86614606
_cell_length_b   8.86471325
_cell_length_c   9.62218899
_cell_angle_alpha   90.00000038
_cell_angle_beta   89.86944109
_cell_angle_gamma   119.99464015
_symmetry_Int_Tables_number   1
_chemical_formula_structural   Ca6Al24Os3Rh5
_chemical_formula_sum   'Ca6 Al24 Os3 Rh5'
_cell_volume   654.97698182
_cell_formula_units_Z   1
loop_
 _symmetry_equiv_pos_site_id
 _symmetry_equiv_pos_as_xyz
  1  'x, y, z'
loop_
 _atom_site_type_symbol
 _atom_site_label
 _atom_site_symmetry_multiplicity
 _atom_site_fract_x
 _atom_site_fract_y
 _atom_site_fract_z
 _atom_site_occupancy
  Ca  Ca0  1  0.191769  0.387254  0.251124  1
  Ca  Ca1  1  0.808231  0.612746  0.748876  1
  Ca  Ca2  1  0.614702  0.807351  0.250250  1
  Ca  Ca3  1  0.385298  0.192649  0.749750  1
  Ca  Ca4  1  0.191769  0.804514  0.251124  1
  Ca  Ca5  1  0.808231  0.195486  0.748876  1
  Al  Al6  1  0.333386  0.666694  0.002276  1
  Al  Al7  1  0.666614  0.333306  0.997724  1
  Al  Al8  1  0.667646  0.333823  0.504149  1
  Al  Al9  1  0.332354  0.666177  0.495851  1
  Al  Al10  1  0.159963  0.324292  0.577000  1
  Al  Al11  1  0.840037  0.675708  0.423000  1
  Al  Al12  1  0.676723  0.838360  0.577802  1
  Al  Al13  1  0.838477  0.676474  0.078001  1
  Al  Al14  1  0.323277  0.161640  0.422198  1
  Al  Al15  1  0.161523  0.323526  0.921999  1
  Al  Al16  1  0.159963  0.835670  0.577000  1
  Al  Al17  1  0.322726  0.161364  0.078791  1
  Al  Al18  1  0.840037  0.164330  0.423000  1
  Al  Al19  1  0.677274  0.838636  0.921209  1
  Al  Al20  1  0.838477  0.162003  0.078001  1
  Al  Al21  1  0.161523  0.837997  0.921999  1
  Al  Al22  1  0.561786  0.123858  0.249897  1
  Al  Al23  1  0.438214  0.876142  0.750103  1
  Al  Al24  1  0.875443  0.437721  0.250518  1
  Al  Al25  1  0.124557  0.562279  0.749482  1
  Al  Al26  1  0.561786  0.437929  0.249897  1
  Al  Al27  1  0.438214  0.562071  0.750103  1
  Al  Al28  1  0.000455  0.000228  0.250127  1
  Al  Al29  1  0.999545  0.999772  0.749873  1
  Os  Os30  1  0.000000  0.500000  0.500000  1
  Os  Os31  1  0.000000  0.000000  0.000000  1
  Os  Os32  1  0.000000  0.000000  0.500000  1
  Rh  Rh33  1  0.500000  0.000000  0.000000  1
  Rh  Rh34  1  0.000000  0.500000  0.000000  1
  Rh  Rh35  1  0.500000  0.000000  0.500000  1
  Rh  Rh36  1  0.500000  0.500000  0.000000  1
  Rh  Rh37  1  0.500000  0.500000  0.500000  1
