# generated using pymatgen
data_BaYTh(Si3Pd10)2
_symmetry_space_group_name_H-M   'P 1'
_cell_length_a   8.77224250
_cell_length_b   8.77224339
_cell_length_c   8.77224300
_cell_angle_alpha   60.00000525
_cell_angle_beta   60.00000189
_cell_angle_gamma   60.00000026
_symmetry_Int_Tables_number   1
_chemical_formula_structural   BaYTh(Si3Pd10)2
_chemical_formula_sum   'Ba1 Y1 Th1 Si6 Pd20'
_cell_volume   477.32807816
_cell_formula_units_Z   1
loop_
 _symmetry_equiv_pos_site_id
 _symmetry_equiv_pos_as_xyz
  1  'x, y, z'
loop_
 _atom_site_type_symbol
 _atom_site_label
 _atom_site_symmetry_multiplicity
 _atom_site_fract_x
 _atom_site_fract_y
 _atom_site_fract_z
 _atom_site_occupancy
  Ba  Ba0  1  0.750000  0.750000  0.750000  1
  Y  Y1  1  0.000000  0.000000  0.000000  1
  Th  Th2  1  0.250000  0.250000  0.250000  1
  Si  Si3  1  0.734018  0.265982  0.265982  1
  Si  Si4  1  0.265982  0.734018  0.734018  1
  Si  Si5  1  0.265982  0.734018  0.265982  1
  Si  Si6  1  0.734018  0.265982  0.734018  1
  Si  Si7  1  0.265982  0.265982  0.734018  1
  Si  Si8  1  0.734018  0.734018  0.265982  1
  Pd  Pd9  1  0.383141  0.383141  0.383141  1
  Pd  Pd10  1  0.610503  0.610503  0.610503  1
  Pd  Pd11  1  0.383141  0.383141  0.850575  1
  Pd  Pd12  1  0.383141  0.850575  0.383141  1
  Pd  Pd13  1  0.610503  0.610503  0.168487  1
  Pd  Pd14  1  0.610503  0.168487  0.610503  1
  Pd  Pd15  1  0.850575  0.383141  0.383141  1
  Pd  Pd16  1  0.168487  0.610503  0.610503  1
  Pd  Pd17  1  0.340690  0.004966  0.004966  1
  Pd  Pd18  1  0.649379  0.004966  0.004966  1
  Pd  Pd19  1  0.004966  0.340690  0.649379  1
  Pd  Pd20  1  0.004966  0.649379  0.340690  1
  Pd  Pd21  1  0.004966  0.340690  0.004966  1
  Pd  Pd22  1  0.649379  0.004966  0.340690  1
  Pd  Pd23  1  0.004966  0.649379  0.004966  1
  Pd  Pd24  1  0.340690  0.004966  0.649379  1
  Pd  Pd25  1  0.004966  0.004966  0.340690  1
  Pd  Pd26  1  0.004966  0.004966  0.649379  1
  Pd  Pd27  1  0.649379  0.340690  0.004966  1
  Pd  Pd28  1  0.340690  0.649379  0.004966  1
