# generated using pymatgen
data_Er20Ru5Pt7
_symmetry_space_group_name_H-M   'P 1'
_cell_length_a   10.85795269
_cell_length_b   10.85795187
_cell_length_c   6.37049884
_cell_angle_alpha   89.93990171
_cell_angle_beta   89.93990326
_cell_angle_gamma   90.67955389
_symmetry_Int_Tables_number   1
_chemical_formula_structural   Er20Ru5Pt7
_chemical_formula_sum   'Er20 Ru5 Pt7'
_cell_volume   750.99711344
_cell_formula_units_Z   1
loop_
 _symmetry_equiv_pos_site_id
 _symmetry_equiv_pos_as_xyz
  1  'x, y, z'
loop_
 _atom_site_type_symbol
 _atom_site_label
 _atom_site_symmetry_multiplicity
 _atom_site_fract_x
 _atom_site_fract_y
 _atom_site_fract_z
 _atom_site_occupancy
  Er  Er0  1  0.296774  0.084274  0.373221  1
  Er  Er1  1  0.296082  0.908993  0.873010  1
  Er  Er2  1  0.702813  0.085170  0.871781  1
  Er  Er3  1  0.702664  0.914356  0.371148  1
  Er  Er4  1  0.581814  0.794318  0.870742  1
  Er  Er5  1  0.585674  0.203949  0.373805  1
  Er  Er6  1  0.411604  0.793393  0.376748  1
  Er  Er7  1  0.413528  0.201564  0.872242  1
  Er  Er8  1  0.205682  0.418186  0.629258  1
  Er  Er9  1  0.206607  0.588396  0.123252  1
  Er  Er10  1  0.796051  0.414326  0.126195  1
  Er  Er11  1  0.798436  0.586472  0.627758  1
  Er  Er12  1  0.915726  0.703226  0.126779  1
  Er  Er13  1  0.914830  0.297187  0.628219  1
  Er  Er14  1  0.091007  0.703918  0.626990  1
  Er  Er15  1  0.085644  0.297336  0.128852  1
  Er  Er16  1  0.999219  0.999810  0.500768  1
  Er  Er17  1  0.000190  0.000781  0.999232  1
  Er  Er18  1  0.496955  0.501476  0.998503  1
  Er  Er19  1  0.498524  0.503045  0.501497  1
  Ru  Ru20  1  0.348003  0.651997  0.750000  1
  Ru  Ru21  1  0.500213  0.000256  0.124064  1
  Ru  Ru22  1  0.499671  0.999688  0.622613  1
  Ru  Ru23  1  0.000312  0.500329  0.877387  1
  Ru  Ru24  1  0.999744  0.499787  0.375936  1
  Pt  Pt25  1  0.846601  0.153399  0.250000  1
  Pt  Pt26  1  0.845201  0.846644  0.750883  1
  Pt  Pt27  1  0.153356  0.154799  0.749117  1
  Pt  Pt28  1  0.152156  0.847844  0.250000  1
  Pt  Pt29  1  0.653179  0.346821  0.750000  1
  Pt  Pt30  1  0.655311  0.653571  0.249518  1
  Pt  Pt31  1  0.346429  0.344689  0.250482  1
