# generated using pymatgen
data_Nd3Tl2InHgRh2
_symmetry_space_group_name_H-M   'P 1'
_cell_length_a   8.06011916
_cell_length_b   8.02363873
_cell_length_c   3.91499600
_cell_angle_alpha   90.00000000
_cell_angle_beta   90.00000000
_cell_angle_gamma   119.65433137
_symmetry_Int_Tables_number   1
_chemical_formula_structural   Nd3Tl2InHgRh2
_chemical_formula_sum   'Nd3 Tl2 In1 Hg1 Rh2'
_cell_volume   220.02751682
_cell_formula_units_Z   1
loop_
 _symmetry_equiv_pos_site_id
 _symmetry_equiv_pos_as_xyz
  1  'x, y, z'
loop_
 _atom_site_type_symbol
 _atom_site_label
 _atom_site_symmetry_multiplicity
 _atom_site_fract_x
 _atom_site_fract_y
 _atom_site_fract_z
 _atom_site_occupancy
  Nd  Nd0  1  0.612150  0.026838  0.500000  1
  Nd  Nd1  1  0.416920  0.388130  0.500000  1
  Nd  Nd2  1  0.971634  0.582294  0.500000  1
  Tl  Tl3  1  0.255406  0.001945  0.000000  1
  Tl  Tl4  1  0.745684  0.744399  0.000000  1
  In  In5  1  0.998438  0.252655  0.000000  1
  Hg  Hg6  1  0.328505  0.661322  0.000000  1
  Rh  Rh7  1  0.999218  0.011009  0.500000  1
  Rh  Rh8  1  0.672044  0.331409  0.000000  1
