# generated using pymatgen
data_Tb4ReTc2Os5
_symmetry_space_group_name_H-M   'P 1'
_cell_length_a   5.31535380
_cell_length_b   5.22670370
_cell_length_c   8.96848100
_cell_angle_alpha   90.00000000
_cell_angle_beta   90.00000000
_cell_angle_gamma   117.53692330
_symmetry_Int_Tables_number   1
_chemical_formula_structural   Tb4ReTc2Os5
_chemical_formula_sum   'Tb4 Re1 Tc2 Os5'
_cell_volume   220.93375117
_cell_formula_units_Z   1
loop_
 _symmetry_equiv_pos_site_id
 _symmetry_equiv_pos_as_xyz
  1  'x, y, z'
loop_
 _atom_site_type_symbol
 _atom_site_label
 _atom_site_symmetry_multiplicity
 _atom_site_fract_x
 _atom_site_fract_y
 _atom_site_fract_z
 _atom_site_occupancy
  Tb  Tb0  1  0.329034  0.669046  0.435069  1
  Tb  Tb1  1  0.668438  0.335462  0.563054  1
  Tb  Tb2  1  0.668438  0.335462  0.936946  1
  Tb  Tb3  1  0.329034  0.669046  0.064931  1
  Re  Re4  1  0.832555  0.163036  0.250000  1
  Tc  Tc5  1  0.175016  0.821886  0.750000  1
  Tc  Tc6  1  0.171355  0.338354  0.750000  1
  Os  Os7  1  0.995026  0.008885  0.499593  1
  Os  Os8  1  0.995026  0.008885  0.000407  1
  Os  Os9  1  0.826853  0.647999  0.250000  1
  Os  Os10  1  0.347840  0.171998  0.250000  1
  Os  Os11  1  0.661389  0.829938  0.750000  1
