# generated using pymatgen
data_Y4Er7TmRu4
_symmetry_space_group_name_H-M   'P 1'
_cell_length_a   6.28831233
_cell_length_b   7.31199088
_cell_length_c   9.09313213
_cell_angle_alpha   89.99360644
_cell_angle_beta   89.97190544
_cell_angle_gamma   89.98636026
_symmetry_Int_Tables_number   1
_chemical_formula_structural   Y4Er7TmRu4
_chemical_formula_sum   'Y4 Er7 Tm1 Ru4'
_cell_volume   418.10289993
_cell_formula_units_Z   1
loop_
 _symmetry_equiv_pos_site_id
 _symmetry_equiv_pos_as_xyz
  1  'x, y, z'
loop_
 _atom_site_type_symbol
 _atom_site_label
 _atom_site_symmetry_multiplicity
 _atom_site_fract_x
 _atom_site_fract_y
 _atom_site_fract_z
 _atom_site_occupancy
  Y  Y0  1  0.867365  0.540539  0.249858  1
  Y  Y1  1  0.632500  0.040251  0.249909  1
  Y  Y2  1  0.132849  0.459726  0.750096  1
  Y  Y3  1  0.367225  0.959513  0.750071  1
  Er  Er4  1  0.168551  0.176007  0.435304  1
  Er  Er5  1  0.668419  0.323982  0.564539  1
  Er  Er6  1  0.831380  0.823928  0.935492  1
  Er  Er7  1  0.668356  0.324172  0.935473  1
  Er  Er8  1  0.831520  0.823955  0.564592  1
  Er  Er9  1  0.331590  0.676031  0.435097  1
  Er  Er10  1  0.168685  0.176008  0.064631  1
  Tm  Tm11  1  0.331560  0.675901  0.064833  1
  Ru  Ru12  1  0.043548  0.885047  0.249989  1
  Ru  Ru13  1  0.456540  0.385268  0.250037  1
  Ru  Ru14  1  0.956537  0.114785  0.750037  1
  Ru  Ru15  1  0.543377  0.614886  0.750043  1
