# generated using pymatgen
data_NdTh5(Co3P2)6
_symmetry_space_group_name_H-M   'P 1'
_cell_length_a   3.83068300
_cell_length_b   10.61980306
_cell_length_c   12.46578472
_cell_angle_alpha   90.10000969
_cell_angle_beta   90.00000000
_cell_angle_gamma   90.00000000
_symmetry_Int_Tables_number   1
_chemical_formula_structural   NdTh5(Co3P2)6
_chemical_formula_sum   'Nd1 Th5 Co18 P12'
_cell_volume   507.12105071
_cell_formula_units_Z   1
loop_
 _symmetry_equiv_pos_site_id
 _symmetry_equiv_pos_as_xyz
  1  'x, y, z'
loop_
 _atom_site_type_symbol
 _atom_site_label
 _atom_site_symmetry_multiplicity
 _atom_site_fract_x
 _atom_site_fract_y
 _atom_site_fract_z
 _atom_site_occupancy
  Nd  Nd0  1  0.000000  0.312491  0.794618  1
  Th  Th1  1  0.000000  0.499408  0.521651  1
  Th  Th2  1  0.500000  0.000366  0.479643  1
  Th  Th3  1  0.500000  0.814311  0.206468  1
  Th  Th4  1  0.500000  0.185999  0.207399  1
  Th  Th5  1  0.000000  0.683899  0.792585  1
  Co  Co6  1  0.500000  0.500739  0.157721  1
  Co  Co7  1  0.000000  0.000383  0.843284  1
  Co  Co8  1  0.500000  0.503904  0.701843  1
  Co  Co9  1  0.000000  0.000453  0.296012  1
  Co  Co10  1  0.000000  0.499470  0.983057  1
  Co  Co11  1  0.500000  0.000173  0.015962  1
  Co  Co12  1  0.500000  0.333738  0.996098  1
  Co  Co13  1  0.500000  0.664810  0.994926  1
  Co  Co14  1  0.000000  0.165544  0.005420  1
  Co  Co15  1  0.000000  0.833802  0.004125  1
  Co  Co16  1  0.500000  0.300580  0.429157  1
  Co  Co17  1  0.500000  0.699686  0.427583  1
  Co  Co18  1  0.000000  0.199922  0.571807  1
  Co  Co19  1  0.000000  0.801876  0.572035  1
  Co  Co20  1  0.500000  0.881180  0.714542  1
  Co  Co21  1  0.500000  0.116550  0.713211  1
  Co  Co22  1  0.000000  0.618662  0.285387  1
  Co  Co23  1  0.000000  0.381611  0.285878  1
  P  P24  1  0.500000  0.497903  0.883668  1
  P  P25  1  0.000000  0.000046  0.114277  1
  P  P26  1  0.500000  0.500298  0.338233  1
  P  P27  1  0.000000  0.000980  0.662798  1
  P  P28  1  0.500000  0.305634  0.615154  1
  P  P29  1  0.500000  0.695833  0.611497  1
  P  P30  1  0.000000  0.195269  0.388747  1
  P  P31  1  0.000000  0.805523  0.387790  1
  P  P32  1  0.500000  0.849437  0.898122  1
  P  P33  1  0.500000  0.150556  0.897175  1
  P  P34  1  0.000000  0.649208  0.101027  1
  P  P35  1  0.000000  0.349757  0.101104  1
