# generated using pymatgen
data_HfZr4Ta3As4
_symmetry_space_group_name_H-M   'P 1'
_cell_length_a   3.64407000
_cell_length_b   7.11275505
_cell_length_c   8.66979867
_cell_angle_alpha   89.77259807
_cell_angle_beta   90.00000000
_cell_angle_gamma   90.00000000
_symmetry_Int_Tables_number   1
_chemical_formula_structural   HfZr4Ta3As4
_chemical_formula_sum   'Hf1 Zr4 Ta3 As4'
_cell_volume   224.71401306
_cell_formula_units_Z   1
loop_
 _symmetry_equiv_pos_site_id
 _symmetry_equiv_pos_as_xyz
  1  'x, y, z'
loop_
 _atom_site_type_symbol
 _atom_site_label
 _atom_site_symmetry_multiplicity
 _atom_site_fract_x
 _atom_site_fract_y
 _atom_site_fract_z
 _atom_site_occupancy
  Hf  Hf0  1  0.250000  0.136572  0.060493  1
  Zr  Zr1  1  0.250000  0.539541  0.831298  1
  Zr  Zr2  1  0.750000  0.960026  0.335468  1
  Zr  Zr3  1  0.250000  0.037413  0.665303  1
  Zr  Zr4  1  0.750000  0.467635  0.172090  1
  Ta  Ta5  1  0.750000  0.857017  0.937816  1
  Ta  Ta6  1  0.250000  0.636426  0.441060  1
  Ta  Ta7  1  0.750000  0.366828  0.559423  1
  As  As8  1  0.750000  0.741841  0.643573  1
  As  As9  1  0.250000  0.758141  0.143357  1
  As  As10  1  0.750000  0.240015  0.851189  1
  As  As11  1  0.250000  0.258545  0.358933  1
