# generated using pymatgen
data_TbCo4As3Ru
_symmetry_space_group_name_H-M   'P 1'
_cell_length_a   3.83452400
_cell_length_b   10.78826400
_cell_length_c   12.26276000
_cell_angle_alpha   90.00000000
_cell_angle_beta   90.00000000
_cell_angle_gamma   90.00000000
_symmetry_Int_Tables_number   1
_chemical_formula_structural   TbCo4As3Ru
_chemical_formula_sum   'Tb4 Co16 As12 Ru4'
_cell_volume   507.28410488
_cell_formula_units_Z   4
loop_
 _symmetry_equiv_pos_site_id
 _symmetry_equiv_pos_as_xyz
  1  'x, y, z'
loop_
 _atom_site_type_symbol
 _atom_site_label
 _atom_site_symmetry_multiplicity
 _atom_site_fract_x
 _atom_site_fract_y
 _atom_site_fract_z
 _atom_site_occupancy
  Tb  Tb0  1  0.250000  0.583429  0.703499  1
  Tb  Tb1  1  0.250000  0.916571  0.203499  1
  Tb  Tb2  1  0.750000  0.416571  0.296501  1
  Tb  Tb3  1  0.750000  0.083429  0.796501  1
  Co  Co4  1  0.250000  0.407092  0.487859  1
  Co  Co5  1  0.250000  0.092908  0.987859  1
  Co  Co6  1  0.750000  0.592908  0.512141  1
  Co  Co7  1  0.750000  0.907092  0.012141  1
  Co  Co8  1  0.250000  0.216603  0.175833  1
  Co  Co9  1  0.250000  0.283397  0.675833  1
  Co  Co10  1  0.750000  0.783397  0.824167  1
  Co  Co11  1  0.750000  0.716603  0.324167  1
  Co  Co12  1  0.250000  0.884928  0.700025  1
  Co  Co13  1  0.250000  0.615072  0.200025  1
  Co  Co14  1  0.750000  0.115072  0.299975  1
  Co  Co15  1  0.750000  0.384928  0.799975  1
  Co  Co16  1  0.250000  0.465676  0.931290  1
  Co  Co17  1  0.250000  0.034324  0.431290  1
  Co  Co18  1  0.750000  0.534324  0.068710  1
  Co  Co19  1  0.750000  0.965676  0.568710  1
  As  As20  1  0.250000  0.417771  0.114031  1
  As  As21  1  0.250000  0.082229  0.614031  1
  As  As22  1  0.750000  0.582229  0.885969  1
  As  As23  1  0.750000  0.917771  0.385969  1
  As  As24  1  0.250000  0.268832  0.866781  1
  As  As25  1  0.250000  0.231168  0.366781  1
  As  As26  1  0.750000  0.731168  0.133219  1
  As  As27  1  0.750000  0.768832  0.633219  1
  As  As28  1  0.250000  0.596455  0.390375  1
  As  As29  1  0.250000  0.903545  0.890375  1
  As  As30  1  0.750000  0.403545  0.609625  1
  As  As31  1  0.750000  0.096455  0.109625  1
  Ru  Ru32  1  0.250000  0.709796  0.990129  1
  Ru  Ru33  1  0.250000  0.790204  0.490129  1
  Ru  Ru34  1  0.750000  0.290204  0.009871  1
  Ru  Ru35  1  0.750000  0.209796  0.509871  1
