# generated using pymatgen
data_LuSc11(Si3Os)4
_symmetry_space_group_name_H-M   'P 1'
_cell_length_a   4.01362100
_cell_length_b   10.35500961
_cell_length_c   11.73860470
_cell_angle_alpha   89.96057703
_cell_angle_beta   90.00000000
_cell_angle_gamma   90.00000000
_symmetry_Int_Tables_number   1
_chemical_formula_structural   LuSc11(Si3Os)4
_chemical_formula_sum   'Lu1 Sc11 Si12 Os4'
_cell_volume   487.86902071
_cell_formula_units_Z   1
loop_
 _symmetry_equiv_pos_site_id
 _symmetry_equiv_pos_as_xyz
  1  'x, y, z'
loop_
 _atom_site_type_symbol
 _atom_site_label
 _atom_site_symmetry_multiplicity
 _atom_site_fract_x
 _atom_site_fract_y
 _atom_site_fract_z
 _atom_site_occupancy
  Lu  Lu0  1  0.250000  0.877991  0.018262  1
  Sc  Sc1  1  0.250000  0.622461  0.518522  1
  Sc  Sc2  1  0.750000  0.124635  0.981473  1
  Sc  Sc3  1  0.750000  0.377165  0.481630  1
  Sc  Sc4  1  0.250000  0.920566  0.605012  1
  Sc  Sc5  1  0.250000  0.577544  0.106078  1
  Sc  Sc6  1  0.750000  0.079595  0.395103  1
  Sc  Sc7  1  0.750000  0.420576  0.894239  1
  Sc  Sc8  1  0.250000  0.657466  0.797226  1
  Sc  Sc9  1  0.250000  0.841371  0.299693  1
  Sc  Sc10  1  0.750000  0.341545  0.202081  1
  Sc  Sc11  1  0.750000  0.159242  0.701231  1
  Si  Si12  1  0.250000  0.017681  0.818470  1
  Si  Si13  1  0.250000  0.484343  0.322716  1
  Si  Si14  1  0.750000  0.986311  0.179593  1
  Si  Si15  1  0.750000  0.514971  0.677624  1
  Si  Si16  1  0.250000  0.251901  0.842183  1
  Si  Si17  1  0.250000  0.249269  0.343407  1
  Si  Si18  1  0.750000  0.746810  0.159180  1
  Si  Si19  1  0.750000  0.750627  0.656875  1
  Si  Si20  1  0.250000  0.194956  0.545835  1
  Si  Si21  1  0.250000  0.305463  0.045943  1
  Si  Si22  1  0.750000  0.805098  0.454371  1
  Si  Si23  1  0.750000  0.690684  0.953111  1
  Os  Os24  1  0.250000  0.390254  0.676672  1
  Os  Os25  1  0.250000  0.111402  0.177891  1
  Os  Os26  1  0.750000  0.609296  0.324471  1
  Os  Os27  1  0.750000  0.890776  0.821112  1
