# generated using pymatgen
data_La8Si13Ni3
_symmetry_space_group_name_H-M   'P 1'
_cell_length_a   8.26486900
_cell_length_b   8.26487004
_cell_length_c   8.61511000
_cell_angle_alpha   90.00000000
_cell_angle_beta   90.00000000
_cell_angle_gamma   119.99999184
_symmetry_Int_Tables_number   1
_chemical_formula_structural   La8Si13Ni3
_chemical_formula_sum   'La8 Si13 Ni3'
_cell_volume   509.63998884
_cell_formula_units_Z   1
loop_
 _symmetry_equiv_pos_site_id
 _symmetry_equiv_pos_as_xyz
  1  'x, y, z'
loop_
 _atom_site_type_symbol
 _atom_site_label
 _atom_site_symmetry_multiplicity
 _atom_site_fract_x
 _atom_site_fract_y
 _atom_site_fract_z
 _atom_site_occupancy
  La  La0  1  0.000000  0.000000  0.251760  1
  La  La1  1  0.000000  0.000000  0.748257  1
  La  La2  1  0.498671  0.501329  0.250408  1
  La  La3  1  0.498671  0.997342  0.250408  1
  La  La4  1  0.002658  0.501329  0.250408  1
  La  La5  1  0.498342  0.501658  0.749616  1
  La  La6  1  0.498342  0.996682  0.749616  1
  La  La7  1  0.003318  0.501658  0.749616  1
  Si  Si8  1  0.170901  0.829099  0.499897  1
  Si  Si9  1  0.170901  0.341804  0.499897  1
  Si  Si10  1  0.658196  0.829099  0.499897  1
  Si  Si11  1  0.829238  0.170762  0.500271  1
  Si  Si12  1  0.829238  0.658474  0.500271  1
  Si  Si13  1  0.341526  0.170762  0.500271  1
  Si  Si14  1  0.825909  0.174091  0.999891  1
  Si  Si15  1  0.825909  0.651817  0.999891  1
  Si  Si16  1  0.348183  0.174091  0.999891  1
  Si  Si17  1  0.162802  0.837198  0.000172  1
  Si  Si18  1  0.162802  0.325605  0.000172  1
  Si  Si19  1  0.674395  0.837198  0.000172  1
  Si  Si20  1  0.333333  0.666667  0.000372  1
  Ni  Ni21  1  0.333333  0.666667  0.498933  1
  Ni  Ni22  1  0.666667  0.333333  0.500954  1
  Ni  Ni23  1  0.666667  0.333333  0.998965  1
