# generated using pymatgen
data_Dy10Y6Cd3AgIr4
_symmetry_space_group_name_H-M   'P 1'
_cell_length_a   9.64941615
_cell_length_b   9.64941594
_cell_length_c   9.64941671
_cell_angle_alpha   59.82116242
_cell_angle_beta   59.82116639
_cell_angle_gamma   59.82116989
_symmetry_Int_Tables_number   1
_chemical_formula_structural   Dy10Y6Cd3AgIr4
_chemical_formula_sum   'Dy10 Y6 Cd3 Ag1 Ir4'
_cell_volume   632.73473390
_cell_formula_units_Z   1
loop_
 _symmetry_equiv_pos_site_id
 _symmetry_equiv_pos_as_xyz
  1  'x, y, z'
loop_
 _atom_site_type_symbol
 _atom_site_label
 _atom_site_symmetry_multiplicity
 _atom_site_fract_x
 _atom_site_fract_y
 _atom_site_fract_z
 _atom_site_occupancy
  Dy  Dy0  1  0.348690  0.348690  0.348690  1
  Dy  Dy1  1  0.349490  0.349490  0.953741  1
  Dy  Dy2  1  0.349490  0.953741  0.349490  1
  Dy  Dy3  1  0.953741  0.349490  0.349490  1
  Dy  Dy4  1  0.809871  0.189448  0.189448  1
  Dy  Dy5  1  0.187437  0.809539  0.809539  1
  Dy  Dy6  1  0.189448  0.809871  0.189448  1
  Dy  Dy7  1  0.809539  0.187437  0.809539  1
  Dy  Dy8  1  0.189448  0.189448  0.809871  1
  Dy  Dy9  1  0.809539  0.809539  0.187437  1
  Y  Y10  1  0.937790  0.560822  0.560822  1
  Y  Y11  1  0.561318  0.937055  0.937055  1
  Y  Y12  1  0.560822  0.937790  0.560822  1
  Y  Y13  1  0.937055  0.561318  0.937055  1
  Y  Y14  1  0.560822  0.560822  0.937790  1
  Y  Y15  1  0.937055  0.937055  0.561318  1
  Cd  Cd16  1  0.581629  0.581629  0.258132  1
  Cd  Cd17  1  0.581629  0.258132  0.581629  1
  Cd  Cd18  1  0.258132  0.581629  0.581629  1
  Ag  Ag19  1  0.582817  0.582817  0.582817  1
  Ir  Ir20  1  0.141546  0.141546  0.141546  1
  Ir  Ir21  1  0.143269  0.143269  0.576154  1
  Ir  Ir22  1  0.143269  0.576154  0.143269  1
  Ir  Ir23  1  0.576154  0.143269  0.143269  1
