# generated using pymatgen
data_Ca4DyY3Hg8
_symmetry_space_group_name_H-M   'P 1'
_cell_length_a   7.52946300
_cell_length_b   7.52086000
_cell_length_c   7.45297600
_cell_angle_alpha   90.00000000
_cell_angle_beta   90.00080314
_cell_angle_gamma   90.00000000
_symmetry_Int_Tables_number   1
_chemical_formula_structural   Ca4DyY3Hg8
_chemical_formula_sum   'Ca4 Dy1 Y3 Hg8'
_cell_volume   422.04740140
_cell_formula_units_Z   1
loop_
 _symmetry_equiv_pos_site_id
 _symmetry_equiv_pos_as_xyz
  1  'x, y, z'
loop_
 _atom_site_type_symbol
 _atom_site_label
 _atom_site_symmetry_multiplicity
 _atom_site_fract_x
 _atom_site_fract_y
 _atom_site_fract_z
 _atom_site_occupancy
  Ca  Ca0  1  0.749517  0.250000  0.000116  1
  Ca  Ca1  1  0.249527  0.750000  0.499891  1
  Ca  Ca2  1  0.750475  0.250000  0.500115  1
  Ca  Ca3  1  0.250480  0.750000  0.999889  1
  Dy  Dy4  1  0.250645  0.250000  0.000000  1
  Y  Y5  1  0.749311  0.750000  0.000005  1
  Y  Y6  1  0.750694  0.750000  0.499991  1
  Y  Y7  1  0.249308  0.250000  0.500014  1
  Hg  Hg8  1  0.000403  0.499905  0.248401  1
  Hg  Hg9  1  0.000403  0.000097  0.248401  1
  Hg  Hg10  1  0.499997  0.000332  0.251079  1
  Hg  Hg11  1  0.499997  0.499668  0.251079  1
  Hg  Hg12  1  0.499617  0.499917  0.748914  1
  Hg  Hg13  1  0.499617  0.000085  0.748914  1
  Hg  Hg14  1  0.000005  0.000333  0.751596  1
  Hg  Hg15  1  0.000005  0.499667  0.751596  1
