# generated using pymatgen
data_Y5CoSiTe2
_symmetry_space_group_name_H-M   'P 1'
_cell_length_a   7.81964614
_cell_length_b   7.81964637
_cell_length_c   14.96558100
_cell_angle_alpha   90.00000000
_cell_angle_beta   90.00000000
_cell_angle_gamma   149.59152543
_symmetry_Int_Tables_number   1
_chemical_formula_structural   Y5CoSiTe2
_chemical_formula_sum   'Y10 Co2 Si2 Te4'
_cell_volume   463.18742504
_cell_formula_units_Z   2
loop_
 _symmetry_equiv_pos_site_id
 _symmetry_equiv_pos_as_xyz
  1  'x, y, z'
loop_
 _atom_site_type_symbol
 _atom_site_label
 _atom_site_symmetry_multiplicity
 _atom_site_fract_x
 _atom_site_fract_y
 _atom_site_fract_z
 _atom_site_occupancy
  Y  Y0  1  0.963155  0.036845  0.121140  1
  Y  Y1  1  0.036845  0.963155  0.878860  1
  Y  Y2  1  0.036845  0.963155  0.621140  1
  Y  Y3  1  0.963155  0.036845  0.378860  1
  Y  Y4  1  0.741397  0.258603  0.632926  1
  Y  Y5  1  0.258603  0.741397  0.367074  1
  Y  Y6  1  0.258603  0.741397  0.132926  1
  Y  Y7  1  0.741397  0.258603  0.867074  1
  Y  Y8  1  0.611299  0.388701  0.250000  1
  Y  Y9  1  0.388701  0.611299  0.750000  1
  Co  Co10  1  0.817953  0.182047  0.250000  1
  Co  Co11  1  0.182047  0.817953  0.750000  1
  Si  Si12  1  0.413609  0.586391  0.250000  1
  Si  Si13  1  0.586391  0.413609  0.750000  1
  Te  Te14  1  0.615300  0.384700  0.038006  1
  Te  Te15  1  0.384700  0.615300  0.961994  1
  Te  Te16  1  0.384700  0.615300  0.538006  1
  Te  Te17  1  0.615300  0.384700  0.461994  1
