# generated using pymatgen
data_La3Ce(PrIr)3
_symmetry_space_group_name_H-M   'P 1'
_cell_length_a   10.24578000
_cell_length_b   10.24577984
_cell_length_c   6.46833800
_cell_angle_alpha   90.00000000
_cell_angle_beta   90.00000000
_cell_angle_gamma   120.00000697
_symmetry_Int_Tables_number   1
_chemical_formula_structural   La3Ce(PrIr)3
_chemical_formula_sum   'La6 Ce2 Pr6 Ir6'
_cell_volume   588.04877935
_cell_formula_units_Z   2
loop_
 _symmetry_equiv_pos_site_id
 _symmetry_equiv_pos_as_xyz
  1  'x, y, z'
loop_
 _atom_site_type_symbol
 _atom_site_label
 _atom_site_symmetry_multiplicity
 _atom_site_fract_x
 _atom_site_fract_y
 _atom_site_fract_z
 _atom_site_occupancy
  La  La0  1  0.127296  0.872704  0.252715  1
  La  La1  1  0.745409  0.872704  0.252715  1
  La  La2  1  0.127296  0.254591  0.252715  1
  La  La3  1  0.872704  0.127296  0.752715  1
  La  La4  1  0.254591  0.127296  0.752715  1
  La  La5  1  0.872704  0.745409  0.752715  1
  Ce  Ce6  1  0.333333  0.666667  0.486229  1
  Ce  Ce7  1  0.666667  0.333333  0.986229  1
  Pr  Pr8  1  0.539229  0.460771  0.442565  1
  Pr  Pr9  1  0.921541  0.460771  0.442565  1
  Pr  Pr10  1  0.539229  0.078459  0.442565  1
  Pr  Pr11  1  0.460771  0.539229  0.942565  1
  Pr  Pr12  1  0.078459  0.539229  0.942565  1
  Pr  Pr13  1  0.460771  0.921541  0.942565  1
  Ir  Ir14  1  0.808503  0.191497  0.176325  1
  Ir  Ir15  1  0.382994  0.191497  0.176325  1
  Ir  Ir16  1  0.808503  0.617006  0.176325  1
  Ir  Ir17  1  0.191497  0.808503  0.676325  1
  Ir  Ir18  1  0.617006  0.808503  0.676325  1
  Ir  Ir19  1  0.191497  0.382994  0.676325  1
