# generated using pymatgen
data_Pr3SmTh2(Co3P2)6
_symmetry_space_group_name_H-M   'P 1'
_cell_length_a   3.77986800
_cell_length_b   10.63213126
_cell_length_c   12.35371030
_cell_angle_alpha   89.97479401
_cell_angle_beta   90.00000000
_cell_angle_gamma   90.00000000
_symmetry_Int_Tables_number   1
_chemical_formula_structural   Pr3SmTh2(Co3P2)6
_chemical_formula_sum   'Pr3 Sm1 Th2 Co18 P12'
_cell_volume   496.47151262
_cell_formula_units_Z   1
loop_
 _symmetry_equiv_pos_site_id
 _symmetry_equiv_pos_as_xyz
  1  'x, y, z'
loop_
 _atom_site_type_symbol
 _atom_site_label
 _atom_site_symmetry_multiplicity
 _atom_site_fract_x
 _atom_site_fract_y
 _atom_site_fract_z
 _atom_site_occupancy
  Pr  Pr0  1  0.500000  0.183944  0.205324  1
  Pr  Pr1  1  0.000000  0.684789  0.794613  1
  Pr  Pr2  1  0.000000  0.315400  0.794985  1
  Sm  Sm3  1  0.500000  0.814727  0.205034  1
  Th  Th4  1  0.000000  0.500161  0.523296  1
  Th  Th5  1  0.500000  0.999458  0.476082  1
  Co  Co6  1  0.500000  0.500626  0.156532  1
  Co  Co7  1  0.000000  0.999724  0.843733  1
  Co  Co8  1  0.500000  0.500191  0.699648  1
  Co  Co9  1  0.000000  0.998192  0.299239  1
  Co  Co10  1  0.000000  0.501043  0.987140  1
  Co  Co11  1  0.500000  0.998945  0.014948  1
  Co  Co12  1  0.500000  0.334095  0.996240  1
  Co  Co13  1  0.500000  0.666851  0.996958  1
  Co  Co14  1  0.000000  0.164996  0.004604  1
  Co  Co15  1  0.000000  0.833815  0.005349  1
  Co  Co16  1  0.500000  0.299721  0.430189  1
  Co  Co17  1  0.500000  0.700721  0.428698  1
  Co  Co18  1  0.000000  0.200084  0.569614  1
  Co  Co19  1  0.000000  0.799900  0.568745  1
  Co  Co20  1  0.500000  0.882561  0.711197  1
  Co  Co21  1  0.500000  0.117402  0.711439  1
  Co  Co22  1  0.000000  0.618990  0.287392  1
  Co  Co23  1  0.000000  0.383114  0.288718  1
  P  P24  1  0.500000  0.500504  0.885710  1
  P  P25  1  0.000000  0.998051  0.116397  1
  P  P26  1  0.500000  0.500232  0.337994  1
  P  P27  1  0.000000  0.999994  0.661684  1
  P  P28  1  0.500000  0.304221  0.614110  1
  P  P29  1  0.500000  0.696121  0.613360  1
  P  P30  1  0.000000  0.195342  0.385713  1
  P  P31  1  0.000000  0.804809  0.383295  1
  P  P32  1  0.500000  0.849170  0.896976  1
  P  P33  1  0.500000  0.150386  0.897451  1
  P  P34  1  0.000000  0.652840  0.104409  1
  P  P35  1  0.000000  0.348882  0.103184  1
