# generated using pymatgen
data_Dy3Ho3CrCo17P12
_symmetry_space_group_name_H-M   'P 1'
_cell_length_a   3.68598400
_cell_length_b   10.51436200
_cell_length_c   12.18075100
_cell_angle_alpha   90.00123197
_cell_angle_beta   89.99997505
_cell_angle_gamma   90.00000000
_symmetry_Int_Tables_number   1
_chemical_formula_structural   Dy3Ho3CrCo17P12
_chemical_formula_sum   'Dy3 Ho3 Cr1 Co17 P12'
_cell_volume   472.07438537
_cell_formula_units_Z   1
loop_
 _symmetry_equiv_pos_site_id
 _symmetry_equiv_pos_as_xyz
  1  'x, y, z'
loop_
 _atom_site_type_symbol
 _atom_site_label
 _atom_site_symmetry_multiplicity
 _atom_site_fract_x
 _atom_site_fract_y
 _atom_site_fract_z
 _atom_site_occupancy
  Dy  Dy0  1  0.000000  0.499983  0.523032  1
  Dy  Dy1  1  0.499999  0.000016  0.477527  1
  Dy  Dy2  1  0.000000  0.682368  0.795232  1
  Ho  Ho3  1  0.500001  0.817451  0.206148  1
  Ho  Ho4  1  0.499998  0.182555  0.206143  1
  Ho  Ho5  1  0.000000  0.317544  0.795252  1
  Cr  Cr6  1  0.499996  0.499981  0.156235  1
  Co  Co7  1  0.999999  0.499911  0.987235  1
  Co  Co8  1  0.500000  0.000124  0.014487  1
  Co  Co9  1  0.500000  0.296695  0.430497  1
  Co  Co10  1  0.500000  0.703292  0.430420  1
  Co  Co11  1  0.000000  0.203111  0.568966  1
  Co  Co12  1  0.000000  0.796935  0.568839  1
  Co  Co13  1  0.500000  0.879182  0.708927  1
  Co  Co14  1  0.500000  0.121043  0.709033  1
  Co  Co15  1  0.000000  0.620607  0.290883  1
  Co  Co16  1  0.000000  0.379394  0.290899  1
  Co  Co17  1  0.500000  0.332816  0.993555  1
  Co  Co18  1  0.500000  0.667074  0.993659  1
  Co  Co19  1  0.000001  0.166940  0.006035  1
  Co  Co20  1  0.000000  0.833134  0.006132  1
  Co  Co21  1  0.000000  0.000028  0.840294  1
  Co  Co22  1  0.500001  0.499808  0.702813  1
  Co  Co23  1  0.000000  0.000012  0.296405  1
  P  P24  1  0.500000  0.310856  0.616438  1
  P  P25  1  0.500000  0.689116  0.616118  1
  P  P26  1  0.000000  0.188738  0.383898  1
  P  P27  1  0.000000  0.811288  0.383846  1
  P  P28  1  0.500000  0.499741  0.882023  1
  P  P29  1  0.000000  0.000040  0.117385  1
  P  P30  1  0.500000  0.848740  0.892449  1
  P  P31  1  0.500000  0.151520  0.892282  1
  P  P32  1  0.000000  0.653875  0.107085  1
  P  P33  1  0.000000  0.346091  0.107131  1
  P  P34  1  0.500000  0.500003  0.346674  1
  P  P35  1  0.000000  0.999987  0.656020  1
