# generated using pymatgen
data_NbSbPb6O13
_symmetry_space_group_name_H-M   'P 1'
_cell_length_a   7.74894271
_cell_length_b   7.77298704
_cell_length_c   7.74898654
_cell_angle_alpha   119.96770405
_cell_angle_beta   120.60740767
_cell_angle_gamma   89.41681773
_symmetry_Int_Tables_number   1
_chemical_formula_structural   NbSbPb6O13
_chemical_formula_sum   'Nb1 Sb1 Pb6 O13'
_cell_volume   328.82016946
_cell_formula_units_Z   1
loop_
 _symmetry_equiv_pos_site_id
 _symmetry_equiv_pos_as_xyz
  1  'x, y, z'
loop_
 _atom_site_type_symbol
 _atom_site_label
 _atom_site_symmetry_multiplicity
 _atom_site_fract_x
 _atom_site_fract_y
 _atom_site_fract_z
 _atom_site_occupancy
  Nb  Nb0  1  0.741354  0.995443  0.254072  1
  Sb  Sb1  1  0.750657  0.505692  0.755054  1
  Pb  Pb2  1  0.246342  0.494750  0.745668  1
  Pb  Pb3  1  0.749076  0.494763  0.248408  1
  Pb  Pb4  1  0.748719  0.997445  0.767873  1
  Pb  Pb5  1  0.229564  0.997446  0.248721  1
  Pb  Pb6  1  0.253792  0.507879  0.254059  1
  Pb  Pb7  1  0.255152  0.002629  0.747446  1
  O  O8  1  0.091608  0.589597  0.497986  1
  O  O9  1  0.711035  0.211269  0.500245  1
  O  O10  1  0.071886  0.152146  0.474538  1
  O  O11  1  0.678332  0.590654  0.524449  1
  O  O12  1  0.677633  0.152164  0.080295  1
  O  O13  1  0.066200  0.590645  0.912314  1
  O  O14  1  0.408170  0.411894  0.003720  1
  O  O15  1  0.808274  0.809503  0.001244  1
  O  O16  1  0.439962  0.832798  0.020844  1
  O  O17  1  0.816171  0.411070  0.973426  1
  O  O18  1  0.811977  0.832816  0.392875  1
  O  O19  1  0.437639  0.411062  0.594893  1
  O  O20  1  0.381457  0.883334  0.501869  1
