# generated using pymatgen
data_Tb2FeCo(SiPd)2
_symmetry_space_group_name_H-M   'P 1'
_cell_length_a   9.11328681
_cell_length_b   9.11328691
_cell_length_c   3.97253800
_cell_angle_alpha   90.00000000
_cell_angle_beta   90.00000000
_cell_angle_gamma   155.28539728
_symmetry_Int_Tables_number   1
_chemical_formula_structural   Tb2FeCo(SiPd)2
_chemical_formula_sum   'Tb2 Fe1 Co1 Si2 Pd2'
_cell_volume   137.94210941
_cell_formula_units_Z   1
loop_
 _symmetry_equiv_pos_site_id
 _symmetry_equiv_pos_as_xyz
  1  'x, y, z'
loop_
 _atom_site_type_symbol
 _atom_site_label
 _atom_site_symmetry_multiplicity
 _atom_site_fract_x
 _atom_site_fract_y
 _atom_site_fract_z
 _atom_site_occupancy
  Tb  Tb0  1  0.612737  0.387263  0.250000  1
  Tb  Tb1  1  0.387202  0.612798  0.750000  1
  Fe  Fe2  1  0.750395  0.249605  0.750000  1
  Co  Co3  1  0.249577  0.750423  0.250000  1
  Si  Si4  1  0.814028  0.185972  0.250000  1
  Si  Si5  1  0.185870  0.814130  0.750000  1
  Pd  Pd6  1  0.950452  0.049548  0.250000  1
  Pd  Pd7  1  0.049738  0.950262  0.750000  1
