# generated using pymatgen
data_BeNb2SiPt2
_symmetry_space_group_name_H-M   'P 1'
_cell_length_a   3.72510900
_cell_length_b   6.41659000
_cell_length_c   7.36631300
_cell_angle_alpha   90.00000000
_cell_angle_beta   90.00000000
_cell_angle_gamma   90.00000000
_symmetry_Int_Tables_number   1
_chemical_formula_structural   BeNb2SiPt2
_chemical_formula_sum   'Be2 Nb4 Si2 Pt4'
_cell_volume   176.07327555
_cell_formula_units_Z   2
loop_
 _symmetry_equiv_pos_site_id
 _symmetry_equiv_pos_as_xyz
  1  'x, y, z'
loop_
 _atom_site_type_symbol
 _atom_site_label
 _atom_site_symmetry_multiplicity
 _atom_site_fract_x
 _atom_site_fract_y
 _atom_site_fract_z
 _atom_site_occupancy
  Be  Be0  1  0.250000  0.268861  0.126934  1
  Be  Be1  1  0.250000  0.768861  0.373066  1
  Nb  Nb2  1  0.750000  0.477319  0.329085  1
  Nb  Nb3  1  0.250000  0.029873  0.831437  1
  Nb  Nb4  1  0.750000  0.977319  0.170915  1
  Nb  Nb5  1  0.250000  0.529873  0.668563  1
  Si  Si6  1  0.750000  0.731209  0.872981  1
  Si  Si7  1  0.750000  0.231209  0.627019  1
  Pt  Pt8  1  0.250000  0.645387  0.073999  1
  Pt  Pt9  1  0.250000  0.145387  0.426001  1
  Pt  Pt10  1  0.750000  0.847350  0.553453  1
  Pt  Pt11  1  0.750000  0.347350  0.946547  1
