# generated using pymatgen
data_Y7Ho4Er5(CdPt)4
_symmetry_space_group_name_H-M   'P 1'
_cell_length_a   9.65760315
_cell_length_b   9.65760301
_cell_length_c   9.65526200
_cell_angle_alpha   60.00802506
_cell_angle_beta   60.00802556
_cell_angle_gamma   60.12612131
_symmetry_Int_Tables_number   1
_chemical_formula_structural   Y7Ho4Er5(CdPt)4
_chemical_formula_sum   'Y7 Ho4 Er5 Cd4 Pt4'
_cell_volume   637.45977381
_cell_formula_units_Z   1
loop_
 _symmetry_equiv_pos_site_id
 _symmetry_equiv_pos_as_xyz
  1  'x, y, z'
loop_
 _atom_site_type_symbol
 _atom_site_label
 _atom_site_symmetry_multiplicity
 _atom_site_fract_x
 _atom_site_fract_y
 _atom_site_fract_z
 _atom_site_occupancy
  Y  Y0  1  0.811051  0.811051  0.188949  1
  Y  Y1  1  0.936388  0.563284  0.564495  1
  Y  Y2  1  0.563284  0.936388  0.935834  1
  Y  Y3  1  0.563284  0.936388  0.564495  1
  Y  Y4  1  0.936388  0.563284  0.935834  1
  Y  Y5  1  0.564201  0.564201  0.935799  1
  Y  Y6  1  0.936603  0.936603  0.563397  1
  Ho  Ho7  1  0.352271  0.352271  0.351276  1
  Ho  Ho8  1  0.352271  0.352271  0.944183  1
  Ho  Ho9  1  0.352939  0.942315  0.352374  1
  Ho  Ho10  1  0.942315  0.352939  0.352374  1
  Er  Er11  1  0.811138  0.189372  0.189182  1
  Er  Er12  1  0.189372  0.811138  0.810309  1
  Er  Er13  1  0.189372  0.811138  0.189182  1
  Er  Er14  1  0.811138  0.189372  0.810309  1
  Er  Er15  1  0.189541  0.189541  0.810459  1
  Cd  Cd16  1  0.581355  0.581355  0.582000  1
  Cd  Cd17  1  0.581355  0.581355  0.255292  1
  Cd  Cd18  1  0.581319  0.254727  0.581977  1
  Cd  Cd19  1  0.254727  0.581319  0.581977  1
  Pt  Pt20  1  0.142553  0.142553  0.144184  1
  Pt  Pt21  1  0.142553  0.142553  0.570711  1
  Pt  Pt22  1  0.144323  0.570263  0.142707  1
  Pt  Pt23  1  0.570263  0.144323  0.142707  1
