# generated using pymatgen
data_Ce12AlGa5Co6
_symmetry_space_group_name_H-M   'P 1'
_cell_length_a   7.39176600
_cell_length_b   7.39176452
_cell_length_c   9.64109800
_cell_angle_alpha   90.00000000
_cell_angle_beta   90.00000000
_cell_angle_gamma   119.99999769
_symmetry_Int_Tables_number   1
_chemical_formula_structural   Ce12AlGa5Co6
_chemical_formula_sum   'Ce12 Al1 Ga5 Co6'
_cell_volume   456.19810002
_cell_formula_units_Z   1
loop_
 _symmetry_equiv_pos_site_id
 _symmetry_equiv_pos_as_xyz
  1  'x, y, z'
loop_
 _atom_site_type_symbol
 _atom_site_label
 _atom_site_symmetry_multiplicity
 _atom_site_fract_x
 _atom_site_fract_y
 _atom_site_fract_z
 _atom_site_occupancy
  Ce  Ce0  1  0.000000  0.592468  0.505571  1
  Ce  Ce1  1  0.592468  0.000000  0.505571  1
  Ce  Ce2  1  0.407532  0.407532  0.505571  1
  Ce  Ce3  1  0.000000  0.410949  0.004787  1
  Ce  Ce4  1  0.410949  0.000000  0.004787  1
  Ce  Ce5  1  0.589051  0.589051  0.004787  1
  Ce  Ce6  1  0.000000  0.731112  0.169027  1
  Ce  Ce7  1  0.731112  0.000000  0.169027  1
  Ce  Ce8  1  0.268888  0.268888  0.169027  1
  Ce  Ce9  1  0.000000  0.268803  0.666436  1
  Ce  Ce10  1  0.268803  0.000000  0.666436  1
  Ce  Ce11  1  0.731197  0.731197  0.666436  1
  Al  Al12  1  0.000000  0.000000  0.911803  1
  Ga  Ga13  1  0.666667  0.333333  0.282284  1
  Ga  Ga14  1  0.333333  0.666667  0.282284  1
  Ga  Ga15  1  0.333333  0.666667  0.779823  1
  Ga  Ga16  1  0.666667  0.333333  0.779823  1
  Ga  Ga17  1  0.000000  0.000000  0.412325  1
  Co  Co18  1  0.000000  0.337566  0.340685  1
  Co  Co19  1  0.337566  0.000000  0.340685  1
  Co  Co20  1  0.662434  0.662434  0.340685  1
  Co  Co21  1  0.000000  0.663844  0.840464  1
  Co  Co22  1  0.663844  0.000000  0.840464  1
  Co  Co23  1  0.336156  0.336156  0.840464  1
