# generated using pymatgen
data_Cr8InCu3S16
_symmetry_space_group_name_H-M   'P 1'
_cell_length_a   12.22675005
_cell_length_b   12.22675006
_cell_length_c   12.22675021
_cell_angle_alpha   33.60428697
_cell_angle_beta   33.60428749
_cell_angle_gamma   33.60428734
_symmetry_Int_Tables_number   1
_chemical_formula_structural   Cr8InCu3S16
_chemical_formula_sum   'Cr8 In1 Cu3 S16'
_cell_volume   498.73801604
_cell_formula_units_Z   1
loop_
 _symmetry_equiv_pos_site_id
 _symmetry_equiv_pos_as_xyz
  1  'x, y, z'
loop_
 _atom_site_type_symbol
 _atom_site_label
 _atom_site_symmetry_multiplicity
 _atom_site_fract_x
 _atom_site_fract_y
 _atom_site_fract_z
 _atom_site_occupancy
  Cr  Cr0  1  0.252819  0.252819  0.252819  1
  Cr  Cr1  1  0.748511  0.748511  0.748511  1
  Cr  Cr2  1  0.993616  0.504134  0.993616  1
  Cr  Cr3  1  0.498679  0.009611  0.498679  1
  Cr  Cr4  1  0.498679  0.498679  0.009611  1
  Cr  Cr5  1  0.993616  0.993616  0.504134  1
  Cr  Cr6  1  0.504134  0.993616  0.993616  1
  Cr  Cr7  1  0.009611  0.498679  0.498679  1
  In  In8  1  0.563139  0.563139  0.563139  1
  Cu  Cu9  1  0.062363  0.062363  0.062363  1
  Cu  Cu10  1  0.937399  0.937399  0.937399  1
  Cu  Cu11  1  0.438156  0.438156  0.438156  1
  S  S12  1  0.634270  0.634270  0.634270  1
  S  S13  1  0.128277  0.128277  0.128277  1
  S  S14  1  0.350750  0.914066  0.350750  1
  S  S15  1  0.863912  0.393609  0.863912  1
  S  S16  1  0.350750  0.350750  0.914066  1
  S  S17  1  0.863912  0.863912  0.393609  1
  S  S18  1  0.914066  0.350750  0.350750  1
  S  S19  1  0.393609  0.863912  0.863912  1
  S  S20  1  0.869747  0.869747  0.869747  1
  S  S21  1  0.372384  0.372384  0.372384  1
  S  S22  1  0.138858  0.604080  0.138858  1
  S  S23  1  0.636549  0.102707  0.636549  1
  S  S24  1  0.138858  0.138858  0.604080  1
  S  S25  1  0.636549  0.636549  0.102707  1
  S  S26  1  0.604080  0.138858  0.138858  1
  S  S27  1  0.102707  0.636549  0.636549  1
