# generated using pymatgen
data_Er2Tm2As6Ru7
_symmetry_space_group_name_H-M   'P 1'
_cell_length_a   7.20040348
_cell_length_b   7.20046008
_cell_length_c   7.20040361
_cell_angle_alpha   109.44481955
_cell_angle_beta   109.52371868
_cell_angle_gamma   109.44481882
_symmetry_Int_Tables_number   1
_chemical_formula_structural   Er2Tm2As6Ru7
_chemical_formula_sum   'Er2 Tm2 As6 Ru7'
_cell_volume   287.37796081
_cell_formula_units_Z   1
loop_
 _symmetry_equiv_pos_site_id
 _symmetry_equiv_pos_as_xyz
  1  'x, y, z'
loop_
 _atom_site_type_symbol
 _atom_site_label
 _atom_site_symmetry_multiplicity
 _atom_site_fract_x
 _atom_site_fract_y
 _atom_site_fract_z
 _atom_site_occupancy
  Er  Er0  1  0.000000  0.000000  0.500000  1
  Er  Er1  1  0.500000  0.000000  0.000000  1
  Tm  Tm2  1  0.000000  0.500000  0.000000  1
  Tm  Tm3  1  0.500000  0.500000  0.500000  1
  As  As4  1  0.315039  0.000000  0.315039  1
  As  As5  1  0.000569  0.315758  0.315189  1
  As  As6  1  0.999431  0.684242  0.684811  1
  As  As7  1  0.315189  0.315758  0.000569  1
  As  As8  1  0.684811  0.684242  0.999431  1
  As  As9  1  0.684961  0.000000  0.684961  1
  Ru  Ru10  1  0.750000  0.500000  0.250000  1
  Ru  Ru11  1  0.498798  0.748710  0.249912  1
  Ru  Ru12  1  0.501202  0.251290  0.750088  1
  Ru  Ru13  1  0.750088  0.251290  0.501202  1
  Ru  Ru14  1  0.249912  0.748710  0.498798  1
  Ru  Ru15  1  0.250000  0.500000  0.750000  1
  Ru  Ru16  1  0.000000  0.000000  0.000000  1
