# generated using pymatgen
data_Tm12InFe2TcAu
_symmetry_space_group_name_H-M   'P 1'
_cell_length_a   8.20046019
_cell_length_b   8.20099588
_cell_length_c   8.20046156
_cell_angle_alpha   107.41114185
_cell_angle_beta   110.81179220
_cell_angle_gamma   110.20818594
_symmetry_Int_Tables_number   1
_chemical_formula_structural   Tm12InFe2TcAu
_chemical_formula_sum   'Tm12 In1 Fe2 Tc1 Au1'
_cell_volume   424.13424485
_cell_formula_units_Z   1
loop_
 _symmetry_equiv_pos_site_id
 _symmetry_equiv_pos_as_xyz
  1  'x, y, z'
loop_
 _atom_site_type_symbol
 _atom_site_label
 _atom_site_symmetry_multiplicity
 _atom_site_fract_x
 _atom_site_fract_y
 _atom_site_fract_z
 _atom_site_occupancy
  Tm  Tm0  1  0.191169  0.420190  0.229022  1
  Tm  Tm1  1  0.808831  0.579810  0.770978  1
  Tm  Tm2  1  0.191160  0.962140  0.770980  1
  Tm  Tm3  1  0.937929  0.194781  0.743160  1
  Tm  Tm4  1  0.808840  0.037860  0.229020  1
  Tm  Tm5  1  0.062071  0.805219  0.256840  1
  Tm  Tm6  1  0.451621  0.194781  0.256853  1
  Tm  Tm7  1  0.548379  0.805219  0.743147  1
  Tm  Tm8  1  0.308896  0.307652  0.616551  1
  Tm  Tm9  1  0.691104  0.692348  0.383449  1
  Tm  Tm10  1  0.691100  0.307652  0.998756  1
  Tm  Tm11  1  0.308900  0.692348  0.001244  1
  In  In12  1  0.000000  0.500000  0.500000  1
  Fe  Fe13  1  0.382605  0.382596  0.999991  1
  Fe  Fe14  1  0.617395  0.617404  0.000009  1
  Tc  Tc15  1  0.000000  0.000000  0.000000  1
  Au  Au16  1  0.500000  0.000000  0.500000  1
