# generated using pymatgen
data_Tm6Fe2Si5Au
_symmetry_space_group_name_H-M   'P 1'
_cell_length_a   4.13221819
_cell_length_b   5.57429945
_cell_length_c   12.90505180
_cell_angle_alpha   94.98689520
_cell_angle_beta   99.21273565
_cell_angle_gamma   68.24435563
_symmetry_Int_Tables_number   1
_chemical_formula_structural   Tm6Fe2Si5Au
_chemical_formula_sum   'Tm6 Fe2 Si5 Au1'
_cell_volume   272.40034411
_cell_formula_units_Z   1
loop_
 _symmetry_equiv_pos_site_id
 _symmetry_equiv_pos_as_xyz
  1  'x, y, z'
loop_
 _atom_site_type_symbol
 _atom_site_label
 _atom_site_symmetry_multiplicity
 _atom_site_fract_x
 _atom_site_fract_y
 _atom_site_fract_z
 _atom_site_occupancy
  Tm  Tm0  1  0.399681  0.279899  0.079261  1
  Tm  Tm1  1  0.748075  0.738887  0.235040  1
  Tm  Tm2  1  0.527341  0.330652  0.385332  1
  Tm  Tm3  1  0.474065  0.669706  0.617835  1
  Tm  Tm4  1  0.251663  0.262759  0.766086  1
  Tm  Tm5  1  0.600200  0.715306  0.915703  1
  Fe  Fe6  1  0.250500  0.918836  0.419835  1
  Fe  Fe7  1  0.752627  0.079540  0.584793  1
  Si  Si8  1  0.052939  0.144243  0.250121  1
  Si  Si9  1  0.855554  0.746049  0.457158  1
  Si  Si10  1  0.145747  0.253616  0.545108  1
  Si  Si11  1  0.941902  0.869520  0.753325  1
  Si  Si12  1  0.882528  0.149508  0.914562  1
  Au  Au13  1  0.117181  0.841480  0.075840  1
