# generated using pymatgen
data_YHo5(Si3Ru2)2
_symmetry_space_group_name_H-M   'P 1'
_cell_length_a   5.73363300
_cell_length_b   5.73363256
_cell_length_c   13.74588100
_cell_angle_alpha   90.00000000
_cell_angle_beta   90.00000000
_cell_angle_gamma   137.29258900
_symmetry_Int_Tables_number   1
_chemical_formula_structural   YHo5(Si3Ru2)2
_chemical_formula_sum   'Y1 Ho5 Si6 Ru4'
_cell_volume   306.49624298
_cell_formula_units_Z   1
loop_
 _symmetry_equiv_pos_site_id
 _symmetry_equiv_pos_as_xyz
  1  'x, y, z'
loop_
 _atom_site_type_symbol
 _atom_site_label
 _atom_site_symmetry_multiplicity
 _atom_site_fract_x
 _atom_site_fract_y
 _atom_site_fract_z
 _atom_site_occupancy
  Y  Y0  1  0.642457  0.357543  0.250000  1
  Ho  Ho1  1  0.923966  0.076034  0.385580  1
  Ho  Ho2  1  0.075949  0.924051  0.614759  1
  Ho  Ho3  1  0.923966  0.076034  0.114420  1
  Ho  Ho4  1  0.075949  0.924051  0.885241  1
  Ho  Ho5  1  0.356802  0.643198  0.750000  1
  Si  Si6  1  0.617288  0.382712  0.461918  1
  Si  Si7  1  0.382790  0.617210  0.538499  1
  Si  Si8  1  0.617288  0.382712  0.038082  1
  Si  Si9  1  0.382790  0.617210  0.961501  1
  Si  Si10  1  0.330964  0.669036  0.250000  1
  Si  Si11  1  0.669461  0.330539  0.750000  1
  Ru  Ru12  1  0.786759  0.213241  0.919050  1
  Ru  Ru13  1  0.213405  0.786595  0.080422  1
  Ru  Ru14  1  0.786759  0.213241  0.580950  1
  Ru  Ru15  1  0.213405  0.786595  0.419578  1
