# generated using pymatgen
data_Tm6MnSi24Ru7
_symmetry_space_group_name_H-M   'P 1'
_cell_length_a   10.09198769
_cell_length_b   10.09198875
_cell_length_c   8.07572003
_cell_angle_alpha   90.02758009
_cell_angle_beta   90.02757812
_cell_angle_gamma   132.77679367
_symmetry_Int_Tables_number   1
_chemical_formula_structural   Tm6MnSi24Ru7
_chemical_formula_sum   'Tm6 Mn1 Si24 Ru7'
_cell_volume   603.71702990
_cell_formula_units_Z   1
loop_
 _symmetry_equiv_pos_site_id
 _symmetry_equiv_pos_as_xyz
  1  'x, y, z'
loop_
 _atom_site_type_symbol
 _atom_site_label
 _atom_site_symmetry_multiplicity
 _atom_site_fract_x
 _atom_site_fract_y
 _atom_site_fract_z
 _atom_site_occupancy
  Tm  Tm0  1  0.498237  0.997586  0.248496  1
  Tm  Tm1  1  0.003205  0.501732  0.751065  1
  Tm  Tm2  1  0.501732  0.003205  0.751065  1
  Tm  Tm3  1  0.997586  0.498237  0.248496  1
  Tm  Tm4  1  0.501930  0.501930  0.500548  1
  Tm  Tm5  1  0.999477  0.999477  0.997721  1
  Mn  Mn6  1  0.625217  0.625217  0.874174  1
  Si  Si7  1  0.387189  0.154156  0.004672  1
  Si  Si8  1  0.654242  0.887529  0.494464  1
  Si  Si9  1  0.112717  0.345534  0.506204  1
  Si  Si10  1  0.842111  0.614640  0.989196  1
  Si  Si11  1  0.614640  0.842111  0.989196  1
  Si  Si12  1  0.345534  0.112717  0.506204  1
  Si  Si13  1  0.887529  0.654242  0.494464  1
  Si  Si14  1  0.154156  0.387189  0.004672  1
  Si  Si15  1  0.612398  0.378015  0.229270  1
  Si  Si16  1  0.876864  0.110436  0.270874  1
  Si  Si17  1  0.888807  0.122399  0.728938  1
  Si  Si18  1  0.624599  0.396387  0.772281  1
  Si  Si19  1  0.396387  0.624599  0.772281  1
  Si  Si20  1  0.122399  0.888807  0.728938  1
  Si  Si21  1  0.704084  0.294943  0.000322  1
  Si  Si22  1  0.795140  0.204872  0.499901  1
  Si  Si23  1  0.294943  0.704084  0.000322  1
  Si  Si24  1  0.204872  0.795140  0.499901  1
  Si  Si25  1  0.166717  0.166717  0.333877  1
  Si  Si26  1  0.668081  0.668081  0.160914  1
  Si  Si27  1  0.338237  0.338237  0.832801  1
  Si  Si28  1  0.825550  0.825550  0.673618  1
  Si  Si29  1  0.378015  0.612398  0.229270  1
  Si  Si30  1  0.110436  0.876864  0.270874  1
  Ru  Ru31  1  0.125421  0.125421  0.629289  1
  Ru  Ru32  1  0.871210  0.871210  0.373913  1
  Ru  Ru33  1  0.373569  0.373569  0.127529  1
  Ru  Ru34  1  0.329828  0.670149  0.502481  1
  Ru  Ru35  1  0.168366  0.828422  0.999642  1
  Ru  Ru36  1  0.670149  0.329828  0.502481  1
  Ru  Ru37  1  0.828422  0.168366  0.999642  1
