# generated using pymatgen
data_Dy4GaCo4
_symmetry_space_group_name_H-M   'P 1'
_cell_length_a   5.47165166
_cell_length_b   5.47165146
_cell_length_c   8.90505576
_cell_angle_alpha   70.89002954
_cell_angle_beta   70.89003255
_cell_angle_gamma   43.21409964
_symmetry_Int_Tables_number   1
_chemical_formula_structural   Dy4GaCo4
_chemical_formula_sum   'Dy4 Ga1 Co4'
_cell_volume   170.86162294
_cell_formula_units_Z   1
loop_
 _symmetry_equiv_pos_site_id
 _symmetry_equiv_pos_as_xyz
  1  'x, y, z'
loop_
 _atom_site_type_symbol
 _atom_site_label
 _atom_site_symmetry_multiplicity
 _atom_site_fract_x
 _atom_site_fract_y
 _atom_site_fract_z
 _atom_site_occupancy
  Dy  Dy0  1  0.745894  0.745894  0.662055  1
  Dy  Dy1  1  0.254106  0.254106  0.337945  1
  Dy  Dy2  1  0.391420  0.391420  0.885595  1
  Dy  Dy3  1  0.608580  0.608580  0.114405  1
  Ga  Ga4  1  0.500000  0.500000  0.500000  1
  Co  Co5  1  0.037623  0.037623  0.645330  1
  Co  Co6  1  0.962377  0.962377  0.354670  1
  Co  Co7  1  0.093822  0.093822  0.880341  1
  Co  Co8  1  0.906178  0.906178  0.119659  1
