# generated using pymatgen
data_Tb7HoHf3Si16W9
_symmetry_space_group_name_H-M   'P 1'
_cell_length_a   6.97505367
_cell_length_b   6.97597164
_cell_length_c   12.93956856
_cell_angle_alpha   90.00155549
_cell_angle_beta   90.04388215
_cell_angle_gamma   89.89411198
_symmetry_Int_Tables_number   1
_chemical_formula_structural   Tb7HoHf3Si16W9
_chemical_formula_sum   'Tb7 Ho1 Hf3 Si16 W9'
_cell_volume   629.60937598
_cell_formula_units_Z   1
loop_
 _symmetry_equiv_pos_site_id
 _symmetry_equiv_pos_as_xyz
  1  'x, y, z'
loop_
 _atom_site_type_symbol
 _atom_site_label
 _atom_site_symmetry_multiplicity
 _atom_site_fract_x
 _atom_site_fract_y
 _atom_site_fract_z
 _atom_site_occupancy
  Tb  Tb0  1  0.003636  0.662985  0.720386  1
  Tb  Tb1  1  0.162191  0.497955  0.468427  1
  Tb  Tb2  1  0.500188  0.839113  0.030868  1
  Tb  Tb3  1  0.839090  0.499934  0.969249  1
  Tb  Tb4  1  0.498193  0.162282  0.531418  1
  Tb  Tb5  1  0.336180  0.001026  0.783105  1
  Tb  Tb6  1  0.663070  0.003656  0.279547  1
  Ho  Ho7  1  0.001564  0.336469  0.216907  1
  Hf  Hf8  1  0.832687  0.832790  0.500001  1
  Hf  Hf9  1  0.330858  0.667183  0.247753  1
  Hf  Hf10  1  0.667367  0.330944  0.752211  1
  Si  Si11  1  0.372144  0.294894  0.317253  1
  Si  Si12  1  0.625274  0.707016  0.817527  1
  Si  Si13  1  0.205215  0.873807  0.568076  1
  Si  Si14  1  0.124313  0.801938  0.933669  1
  Si  Si15  1  0.802495  0.125045  0.066727  1
  Si  Si16  1  0.873864  0.205312  0.431663  1
  Si  Si17  1  0.294780  0.373224  0.682470  1
  Si  Si18  1  0.707504  0.624747  0.182456  1
  Si  Si19  1  0.288893  0.044226  0.184296  1
  Si  Si20  1  0.708212  0.959775  0.688585  1
  Si  Si21  1  0.458592  0.791030  0.437530  1
  Si  Si22  1  0.209851  0.531691  0.059625  1
  Si  Si23  1  0.532182  0.210365  0.940776  1
  Si  Si24  1  0.790979  0.458521  0.562428  1
  Si  Si25  1  0.043507  0.289249  0.815714  1
  Si  Si26  1  0.959756  0.707197  0.311226  1
  W  W27  1  0.166231  0.166507  0.000359  1
  W  W28  1  0.161806  0.995078  0.374759  1
  W  W29  1  0.833557  0.005738  0.876976  1
  W  W30  1  0.506159  0.661781  0.626658  1
  W  W31  1  0.340006  0.496956  0.873822  1
  W  W32  1  0.497063  0.340173  0.126387  1
  W  W33  1  0.662176  0.505632  0.372982  1
  W  W34  1  0.994850  0.162108  0.624945  1
  W  W35  1  0.005569  0.833656  0.123220  1
