# generated using pymatgen
data_YHo7SiPd24
_symmetry_space_group_name_H-M   'P 1'
_cell_length_a   8.32231600
_cell_length_b   8.32231600
_cell_length_c   8.32231600
_cell_angle_alpha   90.00207913
_cell_angle_beta   89.99792087
_cell_angle_gamma   89.99792087
_symmetry_Int_Tables_number   1
_chemical_formula_structural   YHo7SiPd24
_chemical_formula_sum   'Y1 Ho7 Si1 Pd24'
_cell_volume   576.41145856
_cell_formula_units_Z   1
loop_
 _symmetry_equiv_pos_site_id
 _symmetry_equiv_pos_as_xyz
  1  'x, y, z'
loop_
 _atom_site_type_symbol
 _atom_site_label
 _atom_site_symmetry_multiplicity
 _atom_site_fract_x
 _atom_site_fract_y
 _atom_site_fract_z
 _atom_site_occupancy
  Y  Y0  1  0.746517  0.253483  0.253483  1
  Ho  Ho1  1  0.253528  0.253539  0.253539  1
  Ho  Ho2  1  0.746453  0.746438  0.746438  1
  Ho  Ho3  1  0.746461  0.746472  0.253539  1
  Ho  Ho4  1  0.746461  0.253539  0.746472  1
  Ho  Ho5  1  0.253562  0.253547  0.746438  1
  Ho  Ho6  1  0.253562  0.746438  0.253547  1
  Ho  Ho7  1  0.253556  0.746444  0.746444  1
  Si  Si8  1  0.999961  0.000039  0.000039  1
  Pd  Pd9  1  0.257699  0.499998  0.999984  1
  Pd  Pd10  1  0.742313  0.500271  0.999714  1
  Pd  Pd11  1  0.000286  0.257687  0.500271  1
  Pd  Pd12  1  0.499729  0.257687  0.999714  1
  Pd  Pd13  1  0.000016  0.742301  0.499998  1
  Pd  Pd14  1  0.500002  0.742301  0.999984  1
  Pd  Pd15  1  0.499729  0.999714  0.257687  1
  Pd  Pd16  1  0.257699  0.999984  0.499998  1
  Pd  Pd17  1  0.500002  0.999984  0.742301  1
  Pd  Pd18  1  0.742313  0.999714  0.500271  1
  Pd  Pd19  1  0.000286  0.500271  0.257687  1
  Pd  Pd20  1  0.000016  0.499998  0.742301  1
  Pd  Pd21  1  0.252861  0.500012  0.500012  1
  Pd  Pd22  1  0.747145  0.500319  0.500319  1
  Pd  Pd23  1  0.499681  0.252855  0.500319  1
  Pd  Pd24  1  0.499988  0.747139  0.500012  1
  Pd  Pd25  1  0.499681  0.500319  0.252855  1
  Pd  Pd26  1  0.499988  0.500012  0.747139  1
  Pd  Pd27  1  0.280679  0.999992  0.999992  1
  Pd  Pd28  1  0.719292  0.999741  0.999741  1
  Pd  Pd29  1  0.000259  0.280708  0.999741  1
  Pd  Pd30  1  0.000008  0.719321  0.999992  1
  Pd  Pd31  1  0.000259  0.999741  0.280708  1
  Pd  Pd32  1  0.000008  0.999992  0.719321  1
