# generated using pymatgen
data_Gd7Er3(Pb3Cl)2
_symmetry_space_group_name_H-M   'P 1'
_cell_length_a   9.43344300
_cell_length_b   9.43344400
_cell_length_c   6.75434900
_cell_angle_alpha   90.00000000
_cell_angle_beta   90.00000000
_cell_angle_gamma   120.00001401
_symmetry_Int_Tables_number   1
_chemical_formula_structural   Gd7Er3(Pb3Cl)2
_chemical_formula_sum   'Gd7 Er3 Pb6 Cl2'
_cell_volume   520.54055763
_cell_formula_units_Z   1
loop_
 _symmetry_equiv_pos_site_id
 _symmetry_equiv_pos_as_xyz
  1  'x, y, z'
loop_
 _atom_site_type_symbol
 _atom_site_label
 _atom_site_symmetry_multiplicity
 _atom_site_fract_x
 _atom_site_fract_y
 _atom_site_fract_z
 _atom_site_occupancy
  Gd  Gd0  1  0.261565  0.000099  0.250674  1
  Gd  Gd1  1  0.738535  0.000099  0.749326  1
  Gd  Gd2  1  0.999901  0.261465  0.250674  1
  Gd  Gd3  1  0.999901  0.738435  0.749326  1
  Gd  Gd4  1  0.738535  0.738435  0.250674  1
  Gd  Gd5  1  0.261565  0.261465  0.749326  1
  Gd  Gd6  1  0.333333  0.666667  0.000000  1
  Er  Er7  1  0.666667  0.333333  0.000000  1
  Er  Er8  1  0.666667  0.333333  0.500000  1
  Er  Er9  1  0.333333  0.666667  0.500000  1
  Pb  Pb10  1  0.610218  0.001050  0.251214  1
  Pb  Pb11  1  0.390832  0.001050  0.748786  1
  Pb  Pb12  1  0.998950  0.609168  0.251214  1
  Pb  Pb13  1  0.998950  0.389782  0.748786  1
  Pb  Pb14  1  0.390832  0.389782  0.251214  1
  Pb  Pb15  1  0.610218  0.609168  0.748786  1
  Cl  Cl16  1  0.000000  0.000000  0.000000  1
  Cl  Cl17  1  0.000000  0.000000  0.500000  1
