# generated using pymatgen
data_Y10Cd3Fe
_symmetry_space_group_name_H-M   'P 1'
_cell_length_a   9.59182300
_cell_length_b   9.59182328
_cell_length_c   9.84343300
_cell_angle_alpha   90.00000000
_cell_angle_beta   90.00000000
_cell_angle_gamma   119.99999558
_symmetry_Int_Tables_number   1
_chemical_formula_structural   Y10Cd3Fe
_chemical_formula_sum   'Y20 Cd6 Fe2'
_cell_volume   784.29521507
_cell_formula_units_Z   2
loop_
 _symmetry_equiv_pos_site_id
 _symmetry_equiv_pos_as_xyz
  1  'x, y, z'
loop_
 _atom_site_type_symbol
 _atom_site_label
 _atom_site_symmetry_multiplicity
 _atom_site_fract_x
 _atom_site_fract_y
 _atom_site_fract_z
 _atom_site_occupancy
  Y  Y0  1  0.000000  0.000000  0.500000  1
  Y  Y1  1  0.000000  0.000000  0.000000  1
  Y  Y2  1  0.541767  0.458233  0.250000  1
  Y  Y3  1  0.541767  0.083534  0.250000  1
  Y  Y4  1  0.916466  0.458233  0.250000  1
  Y  Y5  1  0.458233  0.541767  0.750000  1
  Y  Y6  1  0.458233  0.916466  0.750000  1
  Y  Y7  1  0.083534  0.541767  0.750000  1
  Y  Y8  1  0.211796  0.788204  0.435682  1
  Y  Y9  1  0.211796  0.423593  0.435682  1
  Y  Y10  1  0.576407  0.788204  0.435682  1
  Y  Y11  1  0.788204  0.211796  0.564318  1
  Y  Y12  1  0.788204  0.576407  0.564318  1
  Y  Y13  1  0.423593  0.211796  0.564318  1
  Y  Y14  1  0.788204  0.211796  0.935682  1
  Y  Y15  1  0.788204  0.576407  0.935682  1
  Y  Y16  1  0.423593  0.211796  0.935682  1
  Y  Y17  1  0.211796  0.788204  0.064318  1
  Y  Y18  1  0.211796  0.423593  0.064318  1
  Y  Y19  1  0.576407  0.788204  0.064318  1
  Cd  Cd20  1  0.885177  0.114823  0.250000  1
  Cd  Cd21  1  0.885177  0.770354  0.250000  1
  Cd  Cd22  1  0.229646  0.114823  0.250000  1
  Cd  Cd23  1  0.114823  0.885177  0.750000  1
  Cd  Cd24  1  0.114823  0.229646  0.750000  1
  Cd  Cd25  1  0.770354  0.885177  0.750000  1
  Fe  Fe26  1  0.333333  0.666667  0.250000  1
  Fe  Fe27  1  0.666667  0.333333  0.750000  1
