# generated using pymatgen
data_Hf3Ta2Ti(SiRu)6
_symmetry_space_group_name_H-M   'P 1'
_cell_length_a   7.50387826
_cell_length_b   7.51079598
_cell_length_c   7.50387721
_cell_angle_alpha   127.84060381
_cell_angle_beta   121.71752139
_cell_angle_gamma   81.97324771
_symmetry_Int_Tables_number   1
_chemical_formula_structural   Hf3Ta2Ti(SiRu)6
_chemical_formula_sum   'Hf3 Ta2 Ti1 Si6 Ru6'
_cell_volume   273.37620171
_cell_formula_units_Z   1
loop_
 _symmetry_equiv_pos_site_id
 _symmetry_equiv_pos_as_xyz
  1  'x, y, z'
loop_
 _atom_site_type_symbol
 _atom_site_label
 _atom_site_symmetry_multiplicity
 _atom_site_fract_x
 _atom_site_fract_y
 _atom_site_fract_z
 _atom_site_occupancy
  Hf  Hf0  1  0.244640  0.915078  0.170438  1
  Hf  Hf1  1  0.972605  0.493414  0.020808  1
  Hf  Hf2  1  0.029423  0.047593  0.518170  1
  Ta  Ta3  1  0.444759  0.482572  0.537814  1
  Ta  Ta4  1  0.755453  0.921479  0.666026  1
  Ti  Ti5  1  0.550295  0.099995  0.049699  1
  Si  Si6  1  0.780760  0.552067  0.271308  1
  Si  Si7  1  0.175644  0.159974  0.001194  1
  Si  Si8  1  0.658781  0.159974  0.484328  1
  Si  Si9  1  0.349496  0.829620  0.515713  1
  Si  Si10  1  0.226664  0.465223  0.738559  1
  Si  Si11  1  0.813908  0.829620  0.980124  1
  Ru  Ru12  1  0.524695  0.250589  0.775870  1
  Ru  Ru13  1  0.974719  0.250589  0.225894  1
  Ru  Ru14  1  0.842920  0.495220  0.588330  1
  Ru  Ru15  1  0.588726  0.746993  0.087369  1
  Ru  Ru16  1  0.406889  0.495220  0.152300  1
  Ru  Ru17  1  0.159624  0.746993  0.658268  1
