# generated using pymatgen
data_Tb4Al11Ga6SiIr6
_symmetry_space_group_name_H-M   'P 1'
_cell_length_a   7.53950026
_cell_length_b   7.52380430
_cell_length_c   9.58301299
_cell_angle_alpha   90.08721811
_cell_angle_beta   89.77946854
_cell_angle_gamma   119.81473574
_symmetry_Int_Tables_number   1
_chemical_formula_structural   Tb4Al11Ga6SiIr6
_chemical_formula_sum   'Tb4 Al11 Ga6 Si1 Ir6'
_cell_volume   471.64717375
_cell_formula_units_Z   1
loop_
 _symmetry_equiv_pos_site_id
 _symmetry_equiv_pos_as_xyz
  1  'x, y, z'
loop_
 _atom_site_type_symbol
 _atom_site_label
 _atom_site_symmetry_multiplicity
 _atom_site_fract_x
 _atom_site_fract_y
 _atom_site_fract_z
 _atom_site_occupancy
  Tb  Tb0  1  0.997065  0.663223  0.247151  1
  Tb  Tb1  1  0.002574  0.330656  0.753835  1
  Tb  Tb2  1  0.675752  0.004052  0.247081  1
  Tb  Tb3  1  0.329962  0.003299  0.750060  1
  Al  Al4  1  0.996870  0.670184  0.925003  1
  Al  Al5  1  0.998358  0.665984  0.572455  1
  Al  Al6  1  0.334165  0.999929  0.427094  1
  Al  Al7  1  0.002682  0.334353  0.430909  1
  Al  Al8  1  0.665354  0.998280  0.572609  1
  Al  Al9  1  0.659749  0.992772  0.924746  1
  Al  Al10  1  0.333534  0.000717  0.073578  1
  Al  Al11  1  0.334712  0.333920  0.556294  1
  Al  Al12  1  0.667259  0.667335  0.443341  1
  Al  Al13  1  0.665627  0.666545  0.058248  1
  Al  Al14  1  0.337127  0.334588  0.943953  1
  Ga  Ga15  1  0.130562  0.126980  0.250713  1
  Ga  Ga16  1  0.872060  0.874067  0.749930  1
  Ga  Ga17  1  0.343991  0.549401  0.251308  1
  Ga  Ga18  1  0.661148  0.452106  0.750027  1
  Ga  Ga19  1  0.546019  0.339291  0.249864  1
  Ga  Ga20  1  0.450745  0.658571  0.749967  1
  Si  Si21  1  0.999140  0.334315  0.070318  1
  Ir  Ir22  1  0.678351  0.328546  0.000948  1
  Ir  Ir23  1  0.318239  0.662131  0.001214  1
  Ir  Ir24  1  0.328130  0.670712  0.500040  1
  Ir  Ir25  1  0.672072  0.328629  0.498957  1
  Ir  Ir26  1  0.998746  0.008827  0.000898  1
  Ir  Ir27  1  0.000010  0.000588  0.499459  1
