# generated using pymatgen
data_Ca2Eu3(GaSb3)2
_symmetry_space_group_name_H-M   'P 1'
_cell_length_a   4.56416100
_cell_length_b   12.26095374
_cell_length_c   14.19535434
_cell_angle_alpha   89.91043231
_cell_angle_beta   90.00000000
_cell_angle_gamma   90.00000000
_symmetry_Int_Tables_number   1
_chemical_formula_structural   Ca2Eu3(GaSb3)2
_chemical_formula_sum   'Ca4 Eu6 Ga4 Sb12'
_cell_volume   794.38478361
_cell_formula_units_Z   2
loop_
 _symmetry_equiv_pos_site_id
 _symmetry_equiv_pos_as_xyz
  1  'x, y, z'
loop_
 _atom_site_type_symbol
 _atom_site_label
 _atom_site_symmetry_multiplicity
 _atom_site_fract_x
 _atom_site_fract_y
 _atom_site_fract_z
 _atom_site_occupancy
  Ca  Ca0  1  0.500000  0.000000  0.500000  1
  Ca  Ca1  1  0.500000  0.500000  0.000000  1
  Ca  Ca2  1  0.500000  0.409309  0.247461  1
  Ca  Ca3  1  0.500000  0.590691  0.752539  1
  Eu  Eu4  1  0.500000  0.667491  0.478584  1
  Eu  Eu5  1  0.500000  0.332509  0.521416  1
  Eu  Eu6  1  0.500000  0.830071  0.976221  1
  Eu  Eu7  1  0.500000  0.169929  0.023779  1
  Eu  Eu8  1  0.500000  0.909333  0.252345  1
  Eu  Eu9  1  0.500000  0.090667  0.747655  1
  Ga  Ga10  1  0.000000  0.326427  0.713199  1
  Ga  Ga11  1  0.000000  0.673573  0.286801  1
  Ga  Ga12  1  0.000000  0.829451  0.786150  1
  Ga  Ga13  1  0.000000  0.170549  0.213850  1
  Sb  Sb14  1  0.000000  0.974892  0.100637  1
  Sb  Sb15  1  0.000000  0.025108  0.899363  1
  Sb  Sb16  1  0.000000  0.477818  0.398405  1
  Sb  Sb17  1  0.000000  0.522182  0.601595  1
  Sb  Sb18  1  0.500000  0.165167  0.322902  1
  Sb  Sb19  1  0.500000  0.834833  0.677098  1
  Sb  Sb20  1  0.500000  0.660770  0.178148  1
  Sb  Sb21  1  0.500000  0.339230  0.821852  1
  Sb  Sb22  1  0.000000  0.347600  0.093838  1
  Sb  Sb23  1  0.000000  0.652400  0.906162  1
  Sb  Sb24  1  0.000000  0.846675  0.410155  1
  Sb  Sb25  1  0.000000  0.153325  0.589845  1
