# generated using pymatgen
data_Ca2NdEu7Si6
_symmetry_space_group_name_H-M   'P 1'
_cell_length_a   9.23585423
_cell_length_b   9.23585487
_cell_length_c   9.23750346
_cell_angle_alpha   130.24837738
_cell_angle_beta   130.24837633
_cell_angle_gamma   73.00011134
_symmetry_Int_Tables_number   1
_chemical_formula_structural   Ca2NdEu7Si6
_chemical_formula_sum   'Ca2 Nd1 Eu7 Si6'
_cell_volume   448.32694493
_cell_formula_units_Z   1
loop_
 _symmetry_equiv_pos_site_id
 _symmetry_equiv_pos_as_xyz
  1  'x, y, z'
loop_
 _atom_site_type_symbol
 _atom_site_label
 _atom_site_symmetry_multiplicity
 _atom_site_fract_x
 _atom_site_fract_y
 _atom_site_fract_z
 _atom_site_occupancy
  Ca  Ca0  1  0.000852  0.998156  0.000088  1
  Ca  Ca1  1  0.498156  0.500852  0.000088  1
  Nd  Nd2  1  0.822647  0.322647  0.859990  1
  Eu  Eu3  1  0.179155  0.679155  0.146867  1
  Eu  Eu4  1  0.468018  0.968018  0.145084  1
  Eu  Eu5  1  0.322676  0.468308  0.500376  1
  Eu  Eu6  1  0.031062  0.177922  0.499854  1
  Eu  Eu7  1  0.531640  0.031640  0.853816  1
  Eu  Eu8  1  0.677922  0.531062  0.499854  1
  Eu  Eu9  1  0.968308  0.822676  0.500376  1
  Si  Si10  1  0.110247  0.610247  0.719868  1
  Si  Si11  1  0.887672  0.387672  0.272173  1
  Si  Si12  1  0.615108  0.892507  0.504023  1
  Si  Si13  1  0.392507  0.115108  0.504023  1
  Si  Si14  1  0.243201  0.250828  0.996761  1
  Si  Si15  1  0.750828  0.743201  0.996761  1
