# generated using pymatgen
data_NaZr3(Co5As3)4
_symmetry_space_group_name_H-M   'P 1'
_cell_length_a   3.72606700
_cell_length_b   12.11391019
_cell_length_c   10.59212835
_cell_angle_alpha   89.87482503
_cell_angle_beta   90.00000000
_cell_angle_gamma   90.00000000
_symmetry_Int_Tables_number   1
_chemical_formula_structural   NaZr3(Co5As3)4
_chemical_formula_sum   'Na1 Zr3 Co20 As12'
_cell_volume   478.09830916
_cell_formula_units_Z   1
loop_
 _symmetry_equiv_pos_site_id
 _symmetry_equiv_pos_as_xyz
  1  'x, y, z'
loop_
 _atom_site_type_symbol
 _atom_site_label
 _atom_site_symmetry_multiplicity
 _atom_site_fract_x
 _atom_site_fract_y
 _atom_site_fract_z
 _atom_site_occupancy
  Na  Na0  1  0.750000  0.703606  0.080982  1
  Zr  Zr1  1  0.250000  0.298108  0.920948  1
  Zr  Zr2  1  0.250000  0.798843  0.579383  1
  Zr  Zr3  1  0.750000  0.201962  0.420743  1
  Co  Co4  1  0.750000  0.698231  0.386797  1
  Co  Co5  1  0.250000  0.301869  0.614185  1
  Co  Co6  1  0.250000  0.803832  0.878366  1
  Co  Co7  1  0.750000  0.198456  0.114583  1
  Co  Co8  1  0.750000  0.991923  0.213578  1
  Co  Co9  1  0.250000  0.010551  0.786173  1
  Co  Co10  1  0.250000  0.508317  0.715588  1
  Co  Co11  1  0.750000  0.492351  0.288284  1
  Co  Co12  1  0.750000  0.676430  0.782371  1
  Co  Co13  1  0.250000  0.318363  0.218677  1
  Co  Co14  1  0.250000  0.823542  0.287563  1
  Co  Co15  1  0.750000  0.179107  0.716814  1
  Co  Co16  1  0.750000  0.933574  0.967264  1
  Co  Co17  1  0.250000  0.068709  0.031685  1
  Co  Co18  1  0.250000  0.569641  0.467356  1
  Co  Co19  1  0.750000  0.430800  0.530818  1
  Co  Co20  1  0.750000  0.986724  0.591584  1
  Co  Co21  1  0.250000  0.014383  0.410480  1
  Co  Co22  1  0.250000  0.507130  0.090634  1
  Co  Co23  1  0.750000  0.483865  0.905738  1
  As  As24  1  0.750000  0.615413  0.584666  1
  As  As25  1  0.250000  0.385053  0.414532  1
  As  As26  1  0.250000  0.882339  0.083737  1
  As  As27  1  0.750000  0.116261  0.915210  1
  As  As28  1  0.750000  0.889457  0.401034  1
  As  As29  1  0.250000  0.111341  0.599411  1
  As  As30  1  0.250000  0.611603  0.904371  1
  As  As31  1  0.750000  0.389552  0.100196  1
  As  As32  1  0.750000  0.869066  0.765915  1
  As  As33  1  0.250000  0.128403  0.234447  1
  As  As34  1  0.250000  0.631594  0.262519  1
  As  As35  1  0.750000  0.369600  0.733370  1
