# generated using pymatgen
data_PrAg3IrRh3O14
_symmetry_space_group_name_H-M   'P 1'
_cell_length_a   7.20847347
_cell_length_b   7.28523025
_cell_length_c   7.20847300
_cell_angle_alpha   60.34790705
_cell_angle_beta   59.99999759
_cell_angle_gamma   60.34790453
_symmetry_Int_Tables_number   1
_chemical_formula_structural   PrAg3IrRh3O14
_chemical_formula_sum   'Pr1 Ag3 Ir1 Rh3 O14'
_cell_volume   269.07833467
_cell_formula_units_Z   1
loop_
 _symmetry_equiv_pos_site_id
 _symmetry_equiv_pos_as_xyz
  1  'x, y, z'
loop_
 _atom_site_type_symbol
 _atom_site_label
 _atom_site_symmetry_multiplicity
 _atom_site_fract_x
 _atom_site_fract_y
 _atom_site_fract_z
 _atom_site_occupancy
  Pr  Pr0  1  0.125000  0.625000  0.125000  1
  Ag  Ag1  1  0.125000  0.125000  0.625000  1
  Ag  Ag2  1  0.125000  0.125000  0.125000  1
  Ag  Ag3  1  0.625000  0.125000  0.125000  1
  Ir  Ir4  1  0.625000  0.125000  0.625000  1
  Rh  Rh5  1  0.625000  0.625000  0.625000  1
  Rh  Rh6  1  0.125000  0.625000  0.625000  1
  Rh  Rh7  1  0.625000  0.625000  0.125000  1
  O  O8  1  0.956066  0.540893  0.546974  1
  O  O9  1  0.307727  0.302341  0.694965  1
  O  O10  1  0.956066  0.540893  0.956066  1
  O  O11  1  0.694965  0.302341  0.307727  1
  O  O12  1  0.546974  0.540893  0.956066  1
  O  O13  1  0.555035  0.947659  0.555035  1
  O  O14  1  0.555035  0.947659  0.942273  1
  O  O15  1  0.261362  0.215914  0.261362  1
  O  O16  1  0.293934  0.709107  0.703026  1
  O  O17  1  0.694965  0.302341  0.694965  1
  O  O18  1  0.988638  0.034086  0.988638  1
  O  O19  1  0.942273  0.947659  0.555035  1
  O  O20  1  0.293934  0.709107  0.293934  1
  O  O21  1  0.703026  0.709107  0.293934  1
