# generated using pymatgen
data_Ba20Bi13
_symmetry_space_group_name_H-M   'P 1'
_cell_length_a   9.41809911
_cell_length_b   9.41809847
_cell_length_c   47.17157900
_cell_angle_alpha   109.35914414
_cell_angle_beta   109.35914279
_cell_angle_gamma   109.62614616
_symmetry_Int_Tables_number   1
_chemical_formula_structural   Ba20Bi13
_chemical_formula_sum   'Ba40 Bi26'
_cell_volume   3223.68904171
_cell_formula_units_Z   2
loop_
 _symmetry_equiv_pos_site_id
 _symmetry_equiv_pos_as_xyz
  1  'x, y, z'
loop_
 _atom_site_type_symbol
 _atom_site_label
 _atom_site_symmetry_multiplicity
 _atom_site_fract_x
 _atom_site_fract_y
 _atom_site_fract_z
 _atom_site_occupancy
  Ba  Ba0  1  0.002503  0.876675  0.899127  1
  Ba  Ba1  1  0.006888  0.381079  0.900882  1
  Ba  Ba2  1  0.483410  0.008264  0.969286  1
  Ba  Ba3  1  0.989206  0.865545  0.696775  1
  Ba  Ba4  1  0.137009  0.161840  0.830714  1
  Ba  Ba5  1  0.989205  0.329775  0.694334  1
  Ba  Ba6  1  0.369769  0.484517  0.799803  1
  Ba  Ba7  1  0.987259  0.840804  0.498924  1
  Ba  Ba8  1  0.635078  0.625529  0.921986  1
  Ba  Ba9  1  0.525159  0.015596  0.878016  1
  Ba  Ba10  1  0.137240  0.126720  0.625233  1
  Ba  Ba11  1  0.985517  0.370757  0.500199  1
  Ba  Ba12  1  0.358087  0.517506  0.605663  1
  Ba  Ba13  1  0.514546  0.000140  0.769846  1
  Ba  Ba14  1  0.984517  0.869769  0.299803  1
  Ba  Ba15  1  0.612890  0.622528  0.724307  1
  Ba  Ba16  1  0.846177  0.492639  0.801077  1
  Ba  Ba17  1  0.500544  0.011043  0.674760  1
  Ba  Ba18  1  0.992639  0.346177  0.301077  1
  Ba  Ba19  1  0.125529  0.135078  0.421986  1
  Ba  Ba20  1  0.376675  0.502503  0.399127  1
  Ba  Ba21  1  0.500959  0.991321  0.575685  1
  Ba  Ba22  1  0.650948  0.665373  0.530164  1
  Ba  Ba23  1  0.881678  0.505333  0.603224  1
  Ba  Ba24  1  0.508264  0.983410  0.469286  1
  Ba  Ba25  1  0.122528  0.112890  0.224307  1
  Ba  Ba26  1  0.005333  0.381678  0.103224  1
  Ba  Ba27  1  0.365545  0.489206  0.196775  1
  Ba  Ba28  1  0.515596  0.025159  0.378016  1
  Ba  Ba29  1  0.661840  0.637009  0.330714  1
  Ba  Ba30  1  0.881079  0.506888  0.400882  1
  Ba  Ba31  1  0.500140  0.014546  0.269846  1
  Ba  Ba32  1  0.165373  0.150948  0.030164  1
  Ba  Ba33  1  0.340804  0.487259  0.998924  1
  Ba  Ba34  1  0.511043  0.000544  0.174760  1
  Ba  Ba35  1  0.626720  0.637240  0.125233  1
  Ba  Ba36  1  0.829775  0.489205  0.194334  1
  Ba  Ba37  1  0.491321  0.000959  0.075685  1
  Ba  Ba38  1  0.017506  0.858087  0.105663  1
  Ba  Ba39  1  0.870757  0.485517  0.000199  1
  Bi  Bi40  1  0.131529  0.752961  0.977102  1
  Bi  Bi41  1  0.247971  0.630753  0.872940  1
  Bi  Bi42  1  0.383259  0.265997  0.927064  1
  Bi  Bi43  1  0.248766  0.632120  0.677720  1
  Bi  Bi44  1  0.125205  0.748110  0.575658  1
  Bi  Bi45  1  0.610463  0.347707  0.846703  1
  Bi  Bi46  1  0.369777  0.246949  0.724338  1
  Bi  Bi47  1  0.745963  0.867394  0.822890  1
  Bi  Bi48  1  0.877038  0.114186  0.953302  1
  Bi  Bi49  1  0.252961  0.631529  0.477102  1
  Bi  Bi50  1  0.130753  0.747971  0.372940  1
  Bi  Bi51  1  0.743620  0.860212  0.622290  1
  Bi  Bi52  1  0.631135  0.381097  0.649992  1
  Bi  Bi53  1  0.884747  0.135804  0.751033  1
  Bi  Bi54  1  0.132120  0.748766  0.177720  1
  Bi  Bi55  1  0.765997  0.883259  0.427064  1
  Bi  Bi56  1  0.367394  0.245963  0.322890  1
  Bi  Bi57  1  0.614186  0.377038  0.453302  1
  Bi  Bi58  1  0.880621  0.129552  0.548962  1
  Bi  Bi59  1  0.248110  0.625205  0.075658  1
  Bi  Bi60  1  0.746949  0.869777  0.224338  1
  Bi  Bi61  1  0.360212  0.243620  0.122290  1
  Bi  Bi62  1  0.635804  0.384747  0.251033  1
  Bi  Bi63  1  0.847707  0.110463  0.346703  1
  Bi  Bi64  1  0.629552  0.380621  0.048962  1
  Bi  Bi65  1  0.881097  0.131135  0.149992  1
