# generated using pymatgen
data_Ho5AlBiSb
_symmetry_space_group_name_H-M   'P 1'
_cell_length_a   8.92357018
_cell_length_b   8.92441995
_cell_length_c   6.42173300
_cell_angle_alpha   90.00000000
_cell_angle_beta   90.00000000
_cell_angle_gamma   120.00314653
_symmetry_Int_Tables_number   1
_chemical_formula_structural   Ho5AlBiSb
_chemical_formula_sum   'Ho10 Al2 Bi2 Sb2'
_cell_volume   442.88171246
_cell_formula_units_Z   2
loop_
 _symmetry_equiv_pos_site_id
 _symmetry_equiv_pos_as_xyz
  1  'x, y, z'
loop_
 _atom_site_type_symbol
 _atom_site_label
 _atom_site_symmetry_multiplicity
 _atom_site_fract_x
 _atom_site_fract_y
 _atom_site_fract_z
 _atom_site_occupancy
  Ho  Ho0  1  0.341221  0.670611  0.000000  1
  Ho  Ho1  1  0.650405  0.325202  0.500000  1
  Ho  Ho2  1  0.650405  0.325202  0.000000  1
  Ho  Ho3  1  0.341221  0.670611  0.500000  1
  Ho  Ho4  1  0.753509  0.995255  0.750000  1
  Ho  Ho5  1  0.753509  0.758254  0.250000  1
  Ho  Ho6  1  0.008276  0.238765  0.250000  1
  Ho  Ho7  1  0.008276  0.769512  0.750000  1
  Ho  Ho8  1  0.244052  0.231381  0.750000  1
  Ho  Ho9  1  0.244052  0.012670  0.250000  1
  Al  Al10  1  0.397626  0.996530  0.750000  1
  Al  Al11  1  0.397626  0.401097  0.250000  1
  Bi  Bi12  1  0.998313  0.606348  0.250000  1
  Bi  Bi13  1  0.998313  0.391965  0.750000  1
  Sb  Sb14  1  0.606598  0.604858  0.750000  1
  Sb  Sb15  1  0.606598  0.001740  0.250000  1
