# generated using pymatgen
data_Nd3Cd2Pt3Au
_symmetry_space_group_name_H-M   'P 1'
_cell_length_a   7.75169100
_cell_length_b   7.68407539
_cell_length_c   4.03013000
_cell_angle_alpha   90.00000000
_cell_angle_beta   90.00000000
_cell_angle_gamma   120.29150843
_symmetry_Int_Tables_number   1
_chemical_formula_structural   Nd3Cd2Pt3Au
_chemical_formula_sum   'Nd3 Cd2 Pt3 Au1'
_cell_volume   207.27863349
_cell_formula_units_Z   1
loop_
 _symmetry_equiv_pos_site_id
 _symmetry_equiv_pos_as_xyz
  1  'x, y, z'
loop_
 _atom_site_type_symbol
 _atom_site_label
 _atom_site_symmetry_multiplicity
 _atom_site_fract_x
 _atom_site_fract_y
 _atom_site_fract_z
 _atom_site_occupancy
  Nd  Nd0  1  0.588241  0.000000  0.000000  1
  Nd  Nd1  1  0.009436  0.612428  0.000000  1
  Nd  Nd2  1  0.397008  0.387572  0.000000  1
  Cd  Cd3  1  0.996640  0.254444  0.500000  1
  Cd  Cd4  1  0.742196  0.745556  0.500000  1
  Pt  Pt5  1  0.336640  0.658485  0.500000  1
  Pt  Pt6  1  0.678155  0.341515  0.500000  1
  Pt  Pt7  1  0.991628  0.000000  0.000000  1
  Au  Au8  1  0.260056  0.000000  0.500000  1
