# generated using pymatgen
data_Ce6HfMgSb10
_symmetry_space_group_name_H-M   'P 1'
_cell_length_a   9.42426700
_cell_length_b   9.42426793
_cell_length_c   6.35651600
_cell_angle_alpha   90.00000000
_cell_angle_beta   90.00000000
_cell_angle_gamma   119.99999322
_symmetry_Int_Tables_number   1
_chemical_formula_structural   Ce6HfMgSb10
_chemical_formula_sum   'Ce6 Hf1 Mg1 Sb10'
_cell_volume   488.92811594
_cell_formula_units_Z   1
loop_
 _symmetry_equiv_pos_site_id
 _symmetry_equiv_pos_as_xyz
  1  'x, y, z'
loop_
 _atom_site_type_symbol
 _atom_site_label
 _atom_site_symmetry_multiplicity
 _atom_site_fract_x
 _atom_site_fract_y
 _atom_site_fract_z
 _atom_site_occupancy
  Ce  Ce0  1  0.617372  0.000000  0.247643  1
  Ce  Ce1  1  0.382628  0.000000  0.752357  1
  Ce  Ce2  1  0.000000  0.617372  0.247643  1
  Ce  Ce3  1  0.000000  0.382628  0.752357  1
  Ce  Ce4  1  0.382628  0.382628  0.247643  1
  Ce  Ce5  1  0.617372  0.617372  0.752357  1
  Hf  Hf6  1  0.000000  0.000000  0.500000  1
  Mg  Mg7  1  0.000000  0.000000  0.000000  1
  Sb  Sb8  1  0.264181  0.000000  0.252143  1
  Sb  Sb9  1  0.735819  0.000000  0.747857  1
  Sb  Sb10  1  0.000000  0.264181  0.252143  1
  Sb  Sb11  1  0.000000  0.735819  0.747857  1
  Sb  Sb12  1  0.735819  0.735819  0.252143  1
  Sb  Sb13  1  0.264181  0.264181  0.747857  1
  Sb  Sb14  1  0.333333  0.666667  0.000000  1
  Sb  Sb15  1  0.666667  0.333333  0.000000  1
  Sb  Sb16  1  0.666667  0.333333  0.500000  1
  Sb  Sb17  1  0.333333  0.666667  0.500000  1
