# generated using pymatgen
data_Tm3Nb2Sn(B2Ru5)2
_symmetry_space_group_name_H-M   'P 1'
_cell_length_a   9.60065262
_cell_length_b   9.64165279
_cell_length_c   3.10762500
_cell_angle_alpha   90.00000000
_cell_angle_beta   90.00000000
_cell_angle_gamma   90.51858962
_symmetry_Int_Tables_number   1
_chemical_formula_structural   Tm3Nb2Sn(B2Ru5)2
_chemical_formula_sum   'Tm3 Nb2 Sn1 B4 Ru10'
_cell_volume   287.64912716
_cell_formula_units_Z   1
loop_
 _symmetry_equiv_pos_site_id
 _symmetry_equiv_pos_as_xyz
  1  'x, y, z'
loop_
 _atom_site_type_symbol
 _atom_site_label
 _atom_site_symmetry_multiplicity
 _atom_site_fract_x
 _atom_site_fract_y
 _atom_site_fract_z
 _atom_site_occupancy
  Tm  Tm0  1  0.823861  0.674234  0.000000  1
  Tm  Tm1  1  0.175638  0.325628  0.000000  1
  Tm  Tm2  1  0.324419  0.825656  0.000000  1
  Nb  Nb3  1  0.678589  0.170638  0.000000  1
  Nb  Nb4  1  0.004147  0.998669  0.000000  1
  Sn  Sn5  1  0.498481  0.505208  0.000000  1
  B  B6  1  0.623628  0.882610  0.000000  1
  B  B7  1  0.380556  0.123547  0.000000  1
  B  B8  1  0.117024  0.619776  0.000000  1
  B  B9  1  0.877233  0.376850  0.000000  1
  Ru  Ru10  1  0.572918  0.727115  0.500000  1
  Ru  Ru11  1  0.442437  0.276623  0.500000  1
  Ru  Ru12  1  0.066944  0.779990  0.500000  1
  Ru  Ru13  1  0.918081  0.213872  0.500000  1
  Ru  Ru14  1  0.275217  0.573505  0.500000  1
  Ru  Ru15  1  0.714567  0.409745  0.500000  1
  Ru  Ru16  1  0.222190  0.071550  0.500000  1
  Ru  Ru17  1  0.780702  0.940598  0.500000  1
  Ru  Ru18  1  0.508219  0.007806  0.500000  1
  Ru  Ru19  1  0.995147  0.496378  0.500000  1
