# generated using pymatgen
data_Tb3Nd(AuCl6)4
_symmetry_space_group_name_H-M   'P 1'
_cell_length_a   7.84893070
_cell_length_b   9.99042587
_cell_length_c   14.19031279
_cell_angle_alpha   103.11169266
_cell_angle_beta   97.22249769
_cell_angle_gamma   112.63520140
_symmetry_Int_Tables_number   1
_chemical_formula_structural   Tb3Nd(AuCl6)4
_chemical_formula_sum   'Tb3 Nd1 Au4 Cl24'
_cell_volume   971.74481723
_cell_formula_units_Z   1
loop_
 _symmetry_equiv_pos_site_id
 _symmetry_equiv_pos_as_xyz
  1  'x, y, z'
loop_
 _atom_site_type_symbol
 _atom_site_label
 _atom_site_symmetry_multiplicity
 _atom_site_fract_x
 _atom_site_fract_y
 _atom_site_fract_z
 _atom_site_occupancy
  Tb  Tb0  1  0.576901  0.926403  0.620345  1
  Tb  Tb1  1  0.031157  0.686189  0.130499  1
  Tb  Tb2  1  0.421811  0.073271  0.377116  1
  Nd  Nd3  1  0.970797  0.314488  0.872086  1
  Au  Au4  1  0.292325  0.636862  0.761021  1
  Au  Au5  1  0.498119  0.498322  0.498975  1
  Au  Au6  1  0.710824  0.367242  0.237941  1
  Au  Au7  1  0.999332  0.997465  0.002819  1
  Cl  Cl8  1  0.781485  0.098236  0.976826  1
  Cl  Cl9  1  0.721211  0.150743  0.266799  1
  Cl  Cl10  1  0.280033  0.852105  0.731538  1
  Cl  Cl11  1  0.773656  0.787411  0.030682  1
  Cl  Cl12  1  0.613979  0.190976  0.740362  1
  Cl  Cl13  1  0.305903  0.418643  0.785913  1
  Cl  Cl14  1  0.703326  0.588414  0.215229  1
  Cl  Cl15  1  0.304653  0.625885  0.500096  1
  Cl  Cl16  1  0.226911  0.206385  0.974169  1
  Cl  Cl17  1  0.753244  0.731942  0.526834  1
  Cl  Cl18  1  0.215015  0.894833  0.028449  1
  Cl  Cl19  1  0.719237  0.048097  0.482982  1
  Cl  Cl20  1  0.604579  0.735641  0.746384  1
  Cl  Cl21  1  0.939269  0.055593  0.728150  1
  Cl  Cl22  1  0.242563  0.264339  0.470334  1
  Cl  Cl23  1  0.379972  0.807902  0.257765  1
  Cl  Cl24  1  0.978163  0.542133  0.773239  1
  Cl  Cl25  1  0.766704  0.438888  0.981568  1
  Cl  Cl26  1  0.236701  0.568918  0.025828  1
  Cl  Cl27  1  0.024333  0.462367  0.224307  1
  Cl  Cl28  1  0.398518  0.269139  0.253006  1
  Cl  Cl29  1  0.277255  0.948397  0.513105  1
  Cl  Cl30  1  0.692314  0.371269  0.498678  1
  Cl  Cl31  1  0.059713  0.941503  0.266956  1
