# generated using pymatgen
data_HoTm(Tc2P)4
_symmetry_space_group_name_H-M   'P 1'
_cell_length_a   3.94328200
_cell_length_b   7.38938804
_cell_length_c   7.38938804
_cell_angle_alpha   89.93921027
_cell_angle_beta   90.00000000
_cell_angle_gamma   90.00000000
_symmetry_Int_Tables_number   1
_chemical_formula_structural   HoTm(Tc2P)4
_chemical_formula_sum   'Ho1 Tm1 Tc8 P4'
_cell_volume   215.31512511
_cell_formula_units_Z   1
loop_
 _symmetry_equiv_pos_site_id
 _symmetry_equiv_pos_as_xyz
  1  'x, y, z'
loop_
 _atom_site_type_symbol
 _atom_site_label
 _atom_site_symmetry_multiplicity
 _atom_site_fract_x
 _atom_site_fract_y
 _atom_site_fract_z
 _atom_site_occupancy
  Ho  Ho0  1  0.000000  0.500000  0.500000  1
  Tm  Tm1  1  0.500000  0.000000  0.000000  1
  Tc  Tc2  1  0.500000  0.160778  0.582938  1
  Tc  Tc3  1  0.500000  0.839222  0.417062  1
  Tc  Tc4  1  0.000000  0.338474  0.082542  1
  Tc  Tc5  1  0.000000  0.661526  0.917458  1
  Tc  Tc6  1  0.500000  0.582938  0.160778  1
  Tc  Tc7  1  0.500000  0.417062  0.839222  1
  Tc  Tc8  1  0.000000  0.082542  0.338474  1
  Tc  Tc9  1  0.000000  0.917458  0.661526  1
  P  P10  1  0.500000  0.711985  0.711985  1
  P  P11  1  0.500000  0.288015  0.288015  1
  P  P12  1  0.000000  0.788671  0.211329  1
  P  P13  1  0.000000  0.211329  0.788671  1
