# generated using pymatgen
data_Ba4Fe3Co(RhN3)2
_symmetry_space_group_name_H-M   'P 1'
_cell_length_a   6.81632676
_cell_length_b   6.79063800
_cell_length_c   6.77107217
_cell_angle_alpha   89.05713454
_cell_angle_beta   89.26476526
_cell_angle_gamma   117.44572901
_symmetry_Int_Tables_number   1
_chemical_formula_structural   Ba4Fe3Co(RhN3)2
_chemical_formula_sum   'Ba4 Fe3 Co1 Rh2 N6'
_cell_volume   278.02730368
_cell_formula_units_Z   1
loop_
 _symmetry_equiv_pos_site_id
 _symmetry_equiv_pos_as_xyz
  1  'x, y, z'
loop_
 _atom_site_type_symbol
 _atom_site_label
 _atom_site_symmetry_multiplicity
 _atom_site_fract_x
 _atom_site_fract_y
 _atom_site_fract_z
 _atom_site_occupancy
  Ba  Ba0  1  0.834519  0.669591  0.901473  1
  Ba  Ba1  1  0.325135  0.160326  0.597723  1
  Ba  Ba2  1  0.164600  0.324948  0.098828  1
  Ba  Ba3  1  0.672426  0.837853  0.400516  1
  Fe  Fe4  1  0.444390  0.849505  0.900400  1
  Fe  Fe5  1  0.846431  0.444880  0.390951  1
  Fe  Fe6  1  0.152865  0.555710  0.605996  1
  Co  Co7  1  0.562330  0.156994  0.107301  1
  Rh  Rh8  1  0.805914  0.194612  0.749264  1
  Rh  Rh9  1  0.192012  0.803180  0.247032  1
  N  N10  1  0.386208  0.616639  0.751981  1
  N  N11  1  0.611445  0.390393  0.255975  1
  N  N12  1  0.015131  0.714254  0.503076  1
  N  N13  1  0.716805  0.011298  0.000239  1
  N  N14  1  0.984935  0.286129  0.494300  1
  N  N15  1  0.284854  0.983687  0.994946  1
