# generated using pymatgen
data_Tb4Ce(ReB3)2
_symmetry_space_group_name_H-M   'P 1'
_cell_length_a   5.52784711
_cell_length_b   5.52784630
_cell_length_c   8.53739742
_cell_angle_alpha   71.11055296
_cell_angle_beta   71.11055573
_cell_angle_gamma   59.99999055
_symmetry_Int_Tables_number   1
_chemical_formula_structural   Tb4Ce(ReB3)2
_chemical_formula_sum   'Tb4 Ce1 Re2 B6'
_cell_volume   209.54696958
_cell_formula_units_Z   1
loop_
 _symmetry_equiv_pos_site_id
 _symmetry_equiv_pos_as_xyz
  1  'x, y, z'
loop_
 _atom_site_type_symbol
 _atom_site_label
 _atom_site_symmetry_multiplicity
 _atom_site_fract_x
 _atom_site_fract_y
 _atom_site_fract_z
 _atom_site_occupancy
  Tb  Tb0  1  0.751164  0.751164  0.746506  1
  Tb  Tb1  1  0.248836  0.248836  0.253494  1
  Tb  Tb2  1  0.581994  0.581994  0.254015  1
  Tb  Tb3  1  0.418006  0.418006  0.745985  1
  Ce  Ce4  1  0.000000  0.000000  0.000000  1
  Re  Re5  1  0.890006  0.890006  0.329985  1
  Re  Re6  1  0.109994  0.109994  0.670016  1
  B  B7  1  0.500000  0.171015  0.500000  1
  B  B8  1  0.828985  0.500000  0.500000  1
  B  B9  1  0.171015  0.828985  0.500000  1
  B  B10  1  0.171015  0.500000  0.500000  1
  B  B11  1  0.828985  0.171015  0.500000  1
  B  B12  1  0.500000  0.828985  0.500000  1
