# generated using pymatgen
data_Be3Nb4V2S
_symmetry_space_group_name_H-M   'P 1'
_cell_length_a   6.32008728
_cell_length_b   6.32008839
_cell_length_c   3.38061400
_cell_angle_alpha   90.00000000
_cell_angle_beta   90.00000000
_cell_angle_gamma   89.64725320
_symmetry_Int_Tables_number   1
_chemical_formula_structural   Be3Nb4V2S
_chemical_formula_sum   'Be3 Nb4 V2 S1'
_cell_volume   135.03103087
_cell_formula_units_Z   1
loop_
 _symmetry_equiv_pos_site_id
 _symmetry_equiv_pos_as_xyz
  1  'x, y, z'
loop_
 _atom_site_type_symbol
 _atom_site_label
 _atom_site_symmetry_multiplicity
 _atom_site_fract_x
 _atom_site_fract_y
 _atom_site_fract_z
 _atom_site_occupancy
  Be  Be0  1  0.382067  0.116102  0.000000  1
  Be  Be1  1  0.616102  0.882067  0.000000  1
  Be  Be2  1  0.123345  0.623345  0.000000  1
  Nb  Nb3  1  0.674906  0.174906  0.500000  1
  Nb  Nb4  1  0.183361  0.321457  0.500000  1
  Nb  Nb5  1  0.821457  0.683361  0.500000  1
  Nb  Nb6  1  0.320860  0.820860  0.500000  1
  V  V7  1  0.001393  0.994905  0.000000  1
  V  V8  1  0.494905  0.501393  0.000000  1
  S  S9  1  0.881604  0.381604  0.000000  1
