# generated using pymatgen
data_Nd4Y2Ga3Si
_symmetry_space_group_name_H-M   'P 1'
_cell_length_a   7.73313455
_cell_length_b   7.73313455
_cell_length_c   4.51312400
_cell_angle_alpha   90.00000000
_cell_angle_beta   90.00000000
_cell_angle_gamma   89.43033948
_symmetry_Int_Tables_number   1
_chemical_formula_structural   Nd4Y2Ga3Si
_chemical_formula_sum   'Nd4 Y2 Ga3 Si1'
_cell_volume   269.87765879
_cell_formula_units_Z   1
loop_
 _symmetry_equiv_pos_site_id
 _symmetry_equiv_pos_as_xyz
  1  'x, y, z'
loop_
 _atom_site_type_symbol
 _atom_site_label
 _atom_site_symmetry_multiplicity
 _atom_site_fract_x
 _atom_site_fract_y
 _atom_site_fract_z
 _atom_site_occupancy
  Nd  Nd0  1  0.672749  0.175695  0.500000  1
  Nd  Nd1  1  0.324305  0.827251  0.500000  1
  Nd  Nd2  1  0.180744  0.319256  0.500000  1
  Nd  Nd3  1  0.823028  0.676972  0.500000  1
  Y  Y4  1  0.003467  0.999929  0.000000  1
  Y  Y5  1  0.500071  0.496533  0.000000  1
  Ga  Ga6  1  0.118468  0.618883  0.000000  1
  Ga  Ga7  1  0.881117  0.381532  0.000000  1
  Ga  Ga8  1  0.615589  0.884411  0.000000  1
  Si  Si9  1  0.380461  0.119539  0.000000  1
