# generated using pymatgen
data_Pr10IrPb6Br
_symmetry_space_group_name_H-M   'P 1'
_cell_length_a   9.59128301
_cell_length_b   9.59128421
_cell_length_c   7.09329500
_cell_angle_alpha   89.99946623
_cell_angle_beta   89.99923693
_cell_angle_gamma   119.99877872
_symmetry_Int_Tables_number   1
_chemical_formula_structural   Pr10IrPb6Br
_chemical_formula_sum   'Pr10 Ir1 Pb6 Br1'
_cell_volume   565.11581855
_cell_formula_units_Z   1
loop_
 _symmetry_equiv_pos_site_id
 _symmetry_equiv_pos_as_xyz
  1  'x, y, z'
loop_
 _atom_site_type_symbol
 _atom_site_label
 _atom_site_symmetry_multiplicity
 _atom_site_fract_x
 _atom_site_fract_y
 _atom_site_fract_z
 _atom_site_occupancy
  Pr  Pr0  1  0.666699  0.333299  0.000000  1
  Pr  Pr1  1  0.333300  0.666700  0.000001  1
  Pr  Pr2  1  0.751401  0.751401  0.233885  1
  Pr  Pr3  1  0.248620  0.000031  0.233816  1
  Pr  Pr4  1  0.000032  0.248620  0.233816  1
  Pr  Pr5  1  0.666688  0.333312  0.500000  1
  Pr  Pr6  1  0.333312  0.666689  0.500000  1
  Pr  Pr7  1  0.248598  0.248600  0.766110  1
  Pr  Pr8  1  0.751380  0.999968  0.766189  1
  Pr  Pr9  1  0.999969  0.751380  0.766187  1
  Ir  Ir10  1  0.000001  0.000000  0.000000  1
  Pb  Pb11  1  0.604471  0.999946  0.253285  1
  Pb  Pb12  1  0.999946  0.604471  0.253286  1
  Pb  Pb13  1  0.395564  0.395564  0.253308  1
  Pb  Pb14  1  0.395529  0.000053  0.746715  1
  Pb  Pb15  1  0.000053  0.395532  0.746714  1
  Pb  Pb16  1  0.604435  0.604435  0.746694  1
  Br  Br17  1  0.999999  0.999999  0.500000  1
