# generated using pymatgen
data_Sm4DyY3(B6Os)4
_symmetry_space_group_name_H-M   'P 1'
_cell_length_a   3.68652000
_cell_length_b   9.21482100
_cell_length_c   11.61630100
_cell_angle_alpha   90.00284439
_cell_angle_beta   90.00000000
_cell_angle_gamma   90.00000000
_symmetry_Int_Tables_number   1
_chemical_formula_structural   Sm4DyY3(B6Os)4
_chemical_formula_sum   'Sm4 Dy1 Y3 B24 Os4'
_cell_volume   394.61296905
_cell_formula_units_Z   1
loop_
 _symmetry_equiv_pos_site_id
 _symmetry_equiv_pos_as_xyz
  1  'x, y, z'
loop_
 _atom_site_type_symbol
 _atom_site_label
 _atom_site_symmetry_multiplicity
 _atom_site_fract_x
 _atom_site_fract_y
 _atom_site_fract_z
 _atom_site_occupancy
  Sm  Sm0  1  0.000000  0.322781  0.413895  1
  Sm  Sm1  1  0.000000  0.677210  0.586103  1
  Sm  Sm2  1  0.000000  0.822744  0.086072  1
  Sm  Sm3  1  0.000000  0.177249  0.913930  1
  Dy  Dy4  1  0.000000  0.555875  0.872499  1
  Y  Y5  1  0.000000  0.944219  0.372733  1
  Y  Y6  1  0.000000  0.055771  0.627266  1
  Y  Y7  1  0.000000  0.444247  0.127232  1
  B  B8  1  0.500000  0.555127  0.431619  1
  B  B9  1  0.500000  0.444863  0.568397  1
  B  B10  1  0.500000  0.055130  0.068381  1
  B  B11  1  0.500000  0.944878  0.931608  1
  B  B12  1  0.500000  0.748292  0.418622  1
  B  B13  1  0.500000  0.251717  0.581393  1
  B  B14  1  0.500000  0.248301  0.081366  1
  B  B15  1  0.500000  0.751607  0.918555  1
  B  B16  1  0.500000  0.790477  0.266946  1
  B  B17  1  0.500000  0.209531  0.733039  1
  B  B18  1  0.500000  0.290481  0.233044  1
  B  B19  1  0.500000  0.709483  0.767054  1
  B  B20  1  0.500000  0.631640  0.185645  1
  B  B21  1  0.500000  0.368478  0.814330  1
  B  B22  1  0.500000  0.131640  0.314326  1
  B  B23  1  0.500000  0.868343  0.685690  1
  B  B24  1  0.500000  0.985011  0.213497  1
  B  B25  1  0.500000  0.014964  0.786518  1
  B  B26  1  0.500000  0.485017  0.286501  1
  B  B27  1  0.500000  0.514950  0.713594  1
  B  B28  1  0.500000  0.606198  0.029249  1
  B  B29  1  0.500000  0.393829  0.970691  1
  B  B30  1  0.500000  0.106255  0.470710  1
  B  B31  1  0.500000  0.893749  0.529298  1
  Os  Os32  1  0.000000  0.638323  0.320663  1
  Os  Os33  1  0.000000  0.361782  0.679487  1
  Os  Os34  1  0.000000  0.138312  0.179379  1
  Os  Os35  1  0.000000  0.861525  0.820668  1
