# generated using pymatgen
data_CsKTcN2
_symmetry_space_group_name_H-M   'P 1'
_cell_length_a   6.66144400
_cell_length_b   5.92125100
_cell_length_c   12.95531900
_cell_angle_alpha   90.00000000
_cell_angle_beta   90.00000000
_cell_angle_gamma   90.00000000
_symmetry_Int_Tables_number   1
_chemical_formula_structural   CsKTcN2
_chemical_formula_sum   'Cs4 K4 Tc4 N8'
_cell_volume   511.01066428
_cell_formula_units_Z   4
loop_
 _symmetry_equiv_pos_site_id
 _symmetry_equiv_pos_as_xyz
  1  'x, y, z'
loop_
 _atom_site_type_symbol
 _atom_site_label
 _atom_site_symmetry_multiplicity
 _atom_site_fract_x
 _atom_site_fract_y
 _atom_site_fract_z
 _atom_site_occupancy
  Cs  Cs0  1  0.710909  0.250000  0.023086  1
  Cs  Cs1  1  0.210909  0.250000  0.476914  1
  Cs  Cs2  1  0.289091  0.750000  0.976914  1
  Cs  Cs3  1  0.789091  0.750000  0.523086  1
  K  K4  1  0.101141  0.250000  0.820237  1
  K  K5  1  0.601141  0.250000  0.679763  1
  K  K6  1  0.898859  0.750000  0.179763  1
  K  K7  1  0.398859  0.750000  0.320237  1
  Tc  Tc8  1  0.718116  0.250000  0.319137  1
  Tc  Tc9  1  0.218116  0.250000  0.180863  1
  Tc  Tc10  1  0.281884  0.750000  0.680863  1
  Tc  Tc11  1  0.781884  0.750000  0.819137  1
  N  N12  1  0.721392  0.250000  0.453237  1
  N  N13  1  0.221392  0.250000  0.046763  1
  N  N14  1  0.278608  0.750000  0.546763  1
  N  N15  1  0.778608  0.750000  0.953237  1
  N  N16  1  0.465825  0.250000  0.252749  1
  N  N17  1  0.965825  0.250000  0.247251  1
  N  N18  1  0.534175  0.750000  0.747251  1
  N  N19  1  0.034175  0.750000  0.752749  1
