# generated using pymatgen
data_TbYbTm5CoI12
_symmetry_space_group_name_H-M   'P 1'
_cell_length_a   9.61662874
_cell_length_b   9.68451865
_cell_length_c   9.69112564
_cell_angle_alpha   106.78118337
_cell_angle_beta   106.99642864
_cell_angle_gamma   106.70937537
_symmetry_Int_Tables_number   1
_chemical_formula_structural   TbYbTm5CoI12
_chemical_formula_sum   'Tb1 Yb1 Tm5 Co1 I12'
_cell_volume   755.13385108
_cell_formula_units_Z   1
loop_
 _symmetry_equiv_pos_site_id
 _symmetry_equiv_pos_as_xyz
  1  'x, y, z'
loop_
 _atom_site_type_symbol
 _atom_site_label
 _atom_site_symmetry_multiplicity
 _atom_site_fract_x
 _atom_site_fract_y
 _atom_site_fract_z
 _atom_site_occupancy
  Tb  Tb0  1  0.715492  0.976861  0.907932  1
  Yb  Yb1  1  0.500230  0.499997  0.500100  1
  Tm  Tm2  1  0.024076  0.094720  0.292377  1
  Tm  Tm3  1  0.095178  0.292299  0.024645  1
  Tm  Tm4  1  0.279786  0.023104  0.090778  1
  Tm  Tm5  1  0.976599  0.905314  0.707982  1
  Tm  Tm6  1  0.906580  0.707992  0.975934  1
  Co  Co7  1  0.998975  0.000183  0.999751  1
  I  I8  1  0.147690  0.456913  0.378179  1
  I  I9  1  0.456535  0.376429  0.148494  1
  I  I10  1  0.378384  0.147645  0.454711  1
  I  I11  1  0.852827  0.543294  0.621932  1
  I  I12  1  0.543317  0.619537  0.851163  1
  I  I13  1  0.621831  0.850272  0.540887  1
  I  I14  1  0.679335  0.072501  0.225319  1
  I  I15  1  0.072256  0.222888  0.678352  1
  I  I16  1  0.225123  0.680436  0.072794  1
  I  I17  1  0.320067  0.928662  0.778865  1
  I  I18  1  0.928183  0.777168  0.321743  1
  I  I19  1  0.777535  0.323785  0.928059  1
