# generated using pymatgen
data_CaYSi7Ir12
_symmetry_space_group_name_H-M   'P 1'
_cell_length_a   9.76516800
_cell_length_b   9.76516838
_cell_length_c   3.89463700
_cell_angle_alpha   90.00000000
_cell_angle_beta   90.00000000
_cell_angle_gamma   119.99999871
_symmetry_Int_Tables_number   1
_chemical_formula_structural   CaYSi7Ir12
_chemical_formula_sum   'Ca1 Y1 Si7 Ir12'
_cell_volume   321.63039071
_cell_formula_units_Z   1
loop_
 _symmetry_equiv_pos_site_id
 _symmetry_equiv_pos_as_xyz
  1  'x, y, z'
loop_
 _atom_site_type_symbol
 _atom_site_label
 _atom_site_symmetry_multiplicity
 _atom_site_fract_x
 _atom_site_fract_y
 _atom_site_fract_z
 _atom_site_occupancy
  Ca  Ca0  1  0.666667  0.333333  0.250850  1
  Y  Y1  1  0.333333  0.666667  0.749723  1
  Si  Si2  1  0.000000  0.000000  0.499780  1
  Si  Si3  1  0.289902  0.885368  0.248783  1
  Si  Si4  1  0.595466  0.710098  0.248783  1
  Si  Si5  1  0.114632  0.404534  0.248783  1
  Si  Si6  1  0.711243  0.117426  0.751058  1
  Si  Si7  1  0.406183  0.288757  0.751058  1
  Si  Si8  1  0.882574  0.593817  0.751058  1
  Ir  Ir9  1  0.260293  0.115891  0.253920  1
  Ir  Ir10  1  0.855598  0.739707  0.253920  1
  Ir  Ir11  1  0.884109  0.144402  0.253920  1
  Ir  Ir12  1  0.739555  0.885533  0.746264  1
  Ir  Ir13  1  0.145978  0.260445  0.746264  1
  Ir  Ir14  1  0.114467  0.854022  0.746264  1
  Ir  Ir15  1  0.062832  0.619455  0.248843  1
  Ir  Ir16  1  0.556623  0.937168  0.248843  1
  Ir  Ir17  1  0.380545  0.443377  0.248843  1
  Ir  Ir18  1  0.941249  0.383029  0.751014  1
  Ir  Ir19  1  0.441780  0.058751  0.751014  1
  Ir  Ir20  1  0.616971  0.558220  0.751014  1
