# generated using pymatgen
data_Dy7YLu8(ScSi4)4
_symmetry_space_group_name_H-M   'P 1'
_cell_length_a   7.19814306
_cell_length_b   7.54915205
_cell_length_c   14.26844801
_cell_angle_alpha   89.99834926
_cell_angle_beta   90.00457737
_cell_angle_gamma   90.01354383
_symmetry_Int_Tables_number   1
_chemical_formula_structural   Dy7YLu8(ScSi4)4
_chemical_formula_sum   'Dy7 Y1 Lu8 Sc4 Si16'
_cell_volume   775.34567745
_cell_formula_units_Z   1
loop_
 _symmetry_equiv_pos_site_id
 _symmetry_equiv_pos_as_xyz
  1  'x, y, z'
loop_
 _atom_site_type_symbol
 _atom_site_label
 _atom_site_symmetry_multiplicity
 _atom_site_fract_x
 _atom_site_fract_y
 _atom_site_fract_z
 _atom_site_occupancy
  Dy  Dy0  1  0.984688  0.820119  0.902402  1
  Dy  Dy1  1  0.484710  0.679575  0.902512  1
  Dy  Dy2  1  0.984676  0.820178  0.597543  1
  Dy  Dy3  1  0.515572  0.320233  0.097603  1
  Dy  Dy4  1  0.015473  0.179784  0.402497  1
  Dy  Dy5  1  0.515429  0.320280  0.402424  1
  Dy  Dy6  1  0.484648  0.679670  0.597532  1
  Y  Y7  1  0.014953  0.179686  0.097482  1
  Lu  Lu8  1  0.326116  0.177167  0.625353  1
  Lu  Lu9  1  0.673949  0.822694  0.374646  1
  Lu  Lu10  1  0.174041  0.677550  0.374628  1
  Lu  Lu11  1  0.673818  0.822585  0.125448  1
  Lu  Lu12  1  0.826131  0.322380  0.625376  1
  Lu  Lu13  1  0.325966  0.177200  0.874703  1
  Lu  Lu14  1  0.825933  0.322425  0.874538  1
  Lu  Lu15  1  0.174076  0.677396  0.125355  1
  Sc  Sc16  1  0.158126  0.510198  0.750189  1
  Sc  Sc17  1  0.841324  0.490449  0.249857  1
  Sc  Sc18  1  0.342115  0.011451  0.249713  1
  Sc  Sc19  1  0.657895  0.988728  0.750190  1
  Si  Si20  1  0.025149  0.102481  0.749997  1
  Si  Si21  1  0.974901  0.897347  0.250106  1
  Si  Si22  1  0.474733  0.602700  0.250046  1
  Si  Si23  1  0.525235  0.397202  0.749985  1
  Si  Si24  1  0.282697  0.866970  0.750022  1
  Si  Si25  1  0.717286  0.133048  0.250097  1
  Si  Si26  1  0.217361  0.367656  0.250166  1
  Si  Si27  1  0.782788  0.632590  0.749977  1
  Si  Si28  1  0.154771  0.468590  0.539679  1
  Si  Si29  1  0.845299  0.531369  0.460276  1
  Si  Si30  1  0.345376  0.968701  0.460251  1
  Si  Si31  1  0.845032  0.531800  0.039559  1
  Si  Si32  1  0.654711  0.031290  0.539706  1
  Si  Si33  1  0.154654  0.468842  0.960155  1
  Si  Si34  1  0.654734  0.031229  0.960286  1
  Si  Si35  1  0.345634  0.968440  0.039702  1
