# generated using pymatgen
data_YbSmZr2(B6Os)2
_symmetry_space_group_name_H-M   'P 1'
_cell_length_a   3.58312800
_cell_length_b   9.05726997
_cell_length_c   11.45345043
_cell_angle_alpha   89.98849959
_cell_angle_beta   90.00000000
_cell_angle_gamma   90.00000000
_symmetry_Int_Tables_number   1
_chemical_formula_structural   YbSmZr2(B6Os)2
_chemical_formula_sum   'Yb2 Sm2 Zr4 B24 Os4'
_cell_volume   371.70291561
_cell_formula_units_Z   2
loop_
 _symmetry_equiv_pos_site_id
 _symmetry_equiv_pos_as_xyz
  1  'x, y, z'
loop_
 _atom_site_type_symbol
 _atom_site_label
 _atom_site_symmetry_multiplicity
 _atom_site_fract_x
 _atom_site_fract_y
 _atom_site_fract_z
 _atom_site_occupancy
  Yb  Yb0  1  0.000000  0.322961  0.414064  1
  Yb  Yb1  1  0.000000  0.677039  0.585936  1
  Sm  Sm2  1  0.000000  0.821605  0.086824  1
  Sm  Sm3  1  0.000000  0.178395  0.913176  1
  Zr  Zr4  1  0.000000  0.944585  0.376085  1
  Zr  Zr5  1  0.000000  0.055415  0.623915  1
  Zr  Zr6  1  0.000000  0.445192  0.126656  1
  Zr  Zr7  1  0.000000  0.554808  0.873344  1
  B  B8  1  0.500000  0.553691  0.433596  1
  B  B9  1  0.500000  0.446309  0.566404  1
  B  B10  1  0.500000  0.055116  0.068882  1
  B  B11  1  0.500000  0.944884  0.931118  1
  B  B12  1  0.500000  0.751034  0.418987  1
  B  B13  1  0.500000  0.248966  0.581013  1
  B  B14  1  0.500000  0.252788  0.084198  1
  B  B15  1  0.500000  0.747212  0.915802  1
  B  B16  1  0.500000  0.793523  0.265987  1
  B  B17  1  0.500000  0.206477  0.734013  1
  B  B18  1  0.500000  0.294301  0.238261  1
  B  B19  1  0.500000  0.705699  0.761739  1
  B  B20  1  0.500000  0.629334  0.184781  1
  B  B21  1  0.500000  0.370666  0.815219  1
  B  B22  1  0.500000  0.131409  0.318360  1
  B  B23  1  0.500000  0.868591  0.681640  1
  B  B24  1  0.500000  0.983666  0.214878  1
  B  B25  1  0.500000  0.016334  0.785122  1
  B  B26  1  0.500000  0.481792  0.289104  1
  B  B27  1  0.500000  0.518208  0.710896  1
  B  B28  1  0.500000  0.599924  0.026879  1
  B  B29  1  0.500000  0.400076  0.973121  1
  B  B30  1  0.500000  0.101965  0.472797  1
  B  B31  1  0.500000  0.898035  0.527203  1
  Os  Os32  1  0.000000  0.640973  0.319269  1
  Os  Os33  1  0.000000  0.359027  0.680731  1
  Os  Os34  1  0.000000  0.141675  0.182204  1
  Os  Os35  1  0.000000  0.858325  0.817796  1
