# generated using pymatgen
data_Dy8Hf5Si16Mo7
_symmetry_space_group_name_H-M   'P 1'
_cell_length_a   7.03703419
_cell_length_b   7.04534947
_cell_length_c   13.01628117
_cell_angle_alpha   90.09546784
_cell_angle_beta   90.20348966
_cell_angle_gamma   89.95511650
_symmetry_Int_Tables_number   1
_chemical_formula_structural   Dy8Hf5Si16Mo7
_chemical_formula_sum   'Dy8 Hf5 Si16 Mo7'
_cell_volume   645.32077982
_cell_formula_units_Z   1
loop_
 _symmetry_equiv_pos_site_id
 _symmetry_equiv_pos_as_xyz
  1  'x, y, z'
loop_
 _atom_site_type_symbol
 _atom_site_label
 _atom_site_symmetry_multiplicity
 _atom_site_fract_x
 _atom_site_fract_y
 _atom_site_fract_z
 _atom_site_occupancy
  Dy  Dy0  1  0.997359  0.660021  0.034128  1
  Dy  Dy1  1  0.004901  0.339095  0.529610  1
  Dy  Dy2  1  0.659476  0.996420  0.968995  1
  Dy  Dy3  1  0.160056  0.502919  0.781499  1
  Dy  Dy4  1  0.838698  0.495729  0.281347  1
  Dy  Dy5  1  0.502643  0.158970  0.219522  1
  Dy  Dy6  1  0.495829  0.841297  0.715685  1
  Dy  Dy7  1  0.339564  0.002805  0.468686  1
  Hf  Hf8  1  0.669797  0.669040  0.499176  1
  Hf  Hf9  1  0.833841  0.168937  0.748098  1
  Hf  Hf10  1  0.168798  0.830183  0.250026  1
  Hf  Hf11  1  0.327800  0.327904  0.001871  1
  Hf  Hf12  1  0.657551  0.498045  0.876437  1
  Si  Si13  1  0.043235  0.710477  0.438603  1
  Si  Si14  1  0.958184  0.286691  0.940362  1
  Si  Si15  1  0.710947  0.042769  0.560306  1
  Si  Si16  1  0.210039  0.456674  0.189845  1
  Si  Si17  1  0.793503  0.546365  0.685775  1
  Si  Si18  1  0.452774  0.205585  0.810946  1
  Si  Si19  1  0.542882  0.789417  0.310876  1
  Si  Si20  1  0.289887  0.957077  0.061871  1
  Si  Si21  1  0.794664  0.872675  0.183057  1
  Si  Si22  1  0.295953  0.625998  0.567312  1
  Si  Si23  1  0.705454  0.371048  0.070599  1
  Si  Si24  1  0.627571  0.295246  0.432445  1
  Si  Si25  1  0.364021  0.709551  0.933785  1
  Si  Si26  1  0.128148  0.203083  0.317523  1
  Si  Si27  1  0.203671  0.130239  0.682089  1
  Si  Si28  1  0.874907  0.800889  0.815227  1
  Mo  Mo29  1  0.340279  0.506282  0.377041  1
  Mo  Mo30  1  0.840359  0.992565  0.373750  1
  Mo  Mo31  1  0.008751  0.158005  0.128685  1
  Mo  Mo32  1  0.996901  0.842178  0.624388  1
  Mo  Mo33  1  0.509966  0.338641  0.622924  1
  Mo  Mo34  1  0.160439  0.006626  0.872688  1
  Mo  Mo35  1  0.491151  0.660555  0.124821  1
