# generated using pymatgen
data_Tb2Ho3Os2
_symmetry_space_group_name_H-M   'P 1'
_cell_length_a   6.37309502
_cell_length_b   7.33525450
_cell_length_c   8.43115481
_cell_angle_alpha   96.89114961
_cell_angle_beta   112.20669994
_cell_angle_gamma   89.99999862
_symmetry_Int_Tables_number   1
_chemical_formula_structural   Tb2Ho3Os2
_chemical_formula_sum   'Tb4 Ho6 Os4'
_cell_volume   361.82969735
_cell_formula_units_Z   2
loop_
 _symmetry_equiv_pos_site_id
 _symmetry_equiv_pos_as_xyz
  1  'x, y, z'
loop_
 _atom_site_type_symbol
 _atom_site_label
 _atom_site_symmetry_multiplicity
 _atom_site_fract_x
 _atom_site_fract_y
 _atom_site_fract_z
 _atom_site_occupancy
  Tb  Tb0  1  0.976976  0.916655  0.184792  1
  Tb  Tb1  1  0.792183  0.583345  0.815208  1
  Tb  Tb2  1  0.023024  0.083345  0.815208  1
  Tb  Tb3  1  0.207817  0.416655  0.184792  1
  Ho  Ho4  1  0.638193  0.816857  0.434752  1
  Ho  Ho5  1  0.203441  0.683143  0.565248  1
  Ho  Ho6  1  0.361807  0.183143  0.565248  1
  Ho  Ho7  1  0.796559  0.316857  0.434752  1
  Ho  Ho8  1  0.422886  0.750000  0.000000  1
  Ho  Ho9  1  0.577114  0.250000  0.000000  1
  Os  Os10  1  0.820932  0.577362  0.220414  1
  Os  Os11  1  0.600518  0.922638  0.779586  1
  Os  Os12  1  0.179068  0.422638  0.779586  1
  Os  Os13  1  0.399482  0.077362  0.220414  1
