# generated using pymatgen
data_Th2Si2Os2C
_symmetry_space_group_name_H-M   'P 1'
_cell_length_a   4.14185581
_cell_length_b   5.99143264
_cell_length_c   5.96162864
_cell_angle_alpha   73.40648852
_cell_angle_beta   69.67308632
_cell_angle_gamma   69.77862683
_symmetry_Int_Tables_number   1
_chemical_formula_structural   Th2Si2Os2C
_chemical_formula_sum   'Th2 Si2 Os2 C1'
_cell_volume   127.85452241
_cell_formula_units_Z   1
loop_
 _symmetry_equiv_pos_site_id
 _symmetry_equiv_pos_as_xyz
  1  'x, y, z'
loop_
 _atom_site_type_symbol
 _atom_site_label
 _atom_site_symmetry_multiplicity
 _atom_site_fract_x
 _atom_site_fract_y
 _atom_site_fract_z
 _atom_site_occupancy
  Th  Th0  1  0.435107  0.825144  0.304641  1
  Th  Th1  1  0.564893  0.174856  0.695359  1
  Si  Si2  1  0.838103  0.619788  0.704007  1
  Si  Si3  1  0.161897  0.380212  0.295993  1
  Os  Os4  1  0.799351  0.314267  0.087031  1
  Os  Os5  1  0.200649  0.685733  0.912969  1
  C  C6  1  0.000000  0.000000  0.000000  1
