# generated using pymatgen
data_Y2Ho3ErTa2O14
_symmetry_space_group_name_H-M   'P 1'
_cell_length_a   6.35510559
_cell_length_b   6.48387744
_cell_length_c   7.57695743
_cell_angle_alpha   106.73941977
_cell_angle_beta   89.70172986
_cell_angle_gamma   97.52200517
_symmetry_Int_Tables_number   1
_chemical_formula_structural   Y2Ho3ErTa2O14
_chemical_formula_sum   'Y2 Ho3 Er1 Ta2 O14'
_cell_volume   296.23725791
_cell_formula_units_Z   1
loop_
 _symmetry_equiv_pos_site_id
 _symmetry_equiv_pos_as_xyz
  1  'x, y, z'
loop_
 _atom_site_type_symbol
 _atom_site_label
 _atom_site_symmetry_multiplicity
 _atom_site_fract_x
 _atom_site_fract_y
 _atom_site_fract_z
 _atom_site_occupancy
  Y  Y0  1  0.737068  0.463119  0.115292  1
  Y  Y1  1  0.734345  0.455947  0.608939  1
  Ho  Ho2  1  0.544949  0.992613  0.750897  1
  Ho  Ho3  1  0.454291  0.007978  0.249451  1
  Ho  Ho4  1  0.268218  0.548814  0.393770  1
  Er  Er5  1  0.263603  0.538352  0.885183  1
  Ta  Ta6  1  0.001225  0.000470  0.999472  1
  Ta  Ta7  1  0.000879  0.001199  0.500913  1
  O  O8  1  0.707988  0.066539  0.480977  1
  O  O9  1  0.923744  0.677042  0.949453  1
  O  O10  1  0.707640  0.070518  0.051612  1
  O  O11  1  0.928829  0.667719  0.392479  1
  O  O12  1  0.909075  0.952457  0.737289  1
  O  O13  1  0.552990  0.346511  0.834766  1
  O  O14  1  0.538086  0.361429  0.341141  1
  O  O15  1  0.457498  0.639663  0.660005  1
  O  O16  1  0.439845  0.653258  0.165222  1
  O  O17  1  0.089396  0.047047  0.262333  1
  O  O18  1  0.074577  0.330430  0.610576  1
  O  O19  1  0.293276  0.927298  0.948854  1
  O  O20  1  0.079730  0.319898  0.043382  1
  O  O21  1  0.292751  0.931698  0.517991  1
