# generated using pymatgen
data_NaPrDy(P3Pd10)2
_symmetry_space_group_name_H-M   'P 1'
_cell_length_a   8.68286057
_cell_length_b   8.68285994
_cell_length_c   8.68286000
_cell_angle_alpha   59.99999978
_cell_angle_beta   60.00000219
_cell_angle_gamma   59.99999245
_symmetry_Int_Tables_number   1
_chemical_formula_structural   NaPrDy(P3Pd10)2
_chemical_formula_sum   'Na1 Pr1 Dy1 P6 Pd20'
_cell_volume   462.88531767
_cell_formula_units_Z   1
loop_
 _symmetry_equiv_pos_site_id
 _symmetry_equiv_pos_as_xyz
  1  'x, y, z'
loop_
 _atom_site_type_symbol
 _atom_site_label
 _atom_site_symmetry_multiplicity
 _atom_site_fract_x
 _atom_site_fract_y
 _atom_site_fract_z
 _atom_site_occupancy
  Na  Na0  1  0.000000  0.000000  0.000000  1
  Pr  Pr1  1  0.750000  0.750000  0.750000  1
  Dy  Dy2  1  0.250000  0.250000  0.250000  1
  P  P3  1  0.739950  0.260050  0.260050  1
  P  P4  1  0.260050  0.739950  0.739950  1
  P  P5  1  0.260050  0.739950  0.260050  1
  P  P6  1  0.739950  0.260050  0.739950  1
  P  P7  1  0.260050  0.260050  0.739950  1
  P  P8  1  0.739950  0.739950  0.260050  1
  Pd  Pd9  1  0.383900  0.383900  0.383900  1
  Pd  Pd10  1  0.612180  0.612180  0.612180  1
  Pd  Pd11  1  0.383900  0.383900  0.848301  1
  Pd  Pd12  1  0.383900  0.848301  0.383900  1
  Pd  Pd13  1  0.612180  0.612180  0.163460  1
  Pd  Pd14  1  0.612180  0.163460  0.612180  1
  Pd  Pd15  1  0.848301  0.383900  0.383900  1
  Pd  Pd16  1  0.163460  0.612180  0.612180  1
  Pd  Pd17  1  0.345614  0.001450  0.001450  1
  Pd  Pd18  1  0.651484  0.001450  0.001450  1
  Pd  Pd19  1  0.001450  0.345614  0.651484  1
  Pd  Pd20  1  0.001450  0.651484  0.345614  1
  Pd  Pd21  1  0.001450  0.345614  0.001450  1
  Pd  Pd22  1  0.651484  0.001450  0.345614  1
  Pd  Pd23  1  0.001450  0.651484  0.001450  1
  Pd  Pd24  1  0.345614  0.001450  0.651484  1
  Pd  Pd25  1  0.001450  0.001450  0.345614  1
  Pd  Pd26  1  0.001450  0.001450  0.651484  1
  Pd  Pd27  1  0.651484  0.345614  0.001450  1
  Pd  Pd28  1  0.345614  0.651484  0.001450  1
