# generated using pymatgen
data_Hf5AlBiPb
_symmetry_space_group_name_H-M   'P 1'
_cell_length_a   5.59827699
_cell_length_b   8.39817699
_cell_length_c   8.40876017
_cell_angle_alpha   83.62985301
_cell_angle_beta   70.55609852
_cell_angle_gamma   70.53061737
_symmetry_Int_Tables_number   1
_chemical_formula_structural   Hf5AlBiPb
_chemical_formula_sum   'Hf10 Al2 Bi2 Pb2'
_cell_volume   351.47701701
_cell_formula_units_Z   2
loop_
 _symmetry_equiv_pos_site_id
 _symmetry_equiv_pos_as_xyz
  1  'x, y, z'
loop_
 _atom_site_type_symbol
 _atom_site_label
 _atom_site_symmetry_multiplicity
 _atom_site_fract_x
 _atom_site_fract_y
 _atom_site_fract_z
 _atom_site_occupancy
  Hf  Hf0  1  0.073432  0.137836  0.715300  1
  Hf  Hf1  1  0.926568  0.862164  0.284700  1
  Hf  Hf2  1  0.788949  0.285641  0.136461  1
  Hf  Hf3  1  0.425410  0.285641  0.863539  1
  Hf  Hf4  1  0.211051  0.714359  0.863539  1
  Hf  Hf5  1  0.574590  0.714359  0.136461  1
  Hf  Hf6  1  0.711268  0.862164  0.715300  1
  Hf  Hf7  1  0.288732  0.137836  0.284700  1
  Hf  Hf8  1  0.247620  0.500000  0.500000  1
  Hf  Hf9  1  0.752380  0.500000  0.500000  1
  Al  Al10  1  0.250000  0.000000  0.000000  1
  Al  Al11  1  0.750000  0.000000  0.000000  1
  Bi  Bi12  1  0.334929  0.830141  0.500000  1
  Bi  Bi13  1  0.665071  0.169859  0.500000  1
  Pb  Pb14  1  0.164992  0.500000  0.170016  1
  Pb  Pb15  1  0.835008  0.500000  0.829984  1
