# generated using pymatgen
data_Nd3IrI3
_symmetry_space_group_name_H-M   'P 1'
_cell_length_a   10.83853392
_cell_length_b   10.83853385
_cell_length_c   10.83853400
_cell_angle_alpha   109.47121718
_cell_angle_beta   109.47121705
_cell_angle_gamma   109.47122434
_symmetry_Int_Tables_number   1
_chemical_formula_structural   Nd3IrI3
_chemical_formula_sum   'Nd12 Ir4 I12'
_cell_volume   980.14369538
_cell_formula_units_Z   4
loop_
 _symmetry_equiv_pos_site_id
 _symmetry_equiv_pos_as_xyz
  1  'x, y, z'
loop_
 _atom_site_type_symbol
 _atom_site_label
 _atom_site_symmetry_multiplicity
 _atom_site_fract_x
 _atom_site_fract_y
 _atom_site_fract_z
 _atom_site_occupancy
  Nd  Nd0  1  0.456912  0.478455  0.228455  1
  Nd  Nd1  1  0.750000  0.228455  0.271545  1
  Nd  Nd2  1  0.750000  0.021545  0.478455  1
  Nd  Nd3  1  0.228455  0.456912  0.478455  1
  Nd  Nd4  1  0.271545  0.750000  0.228455  1
  Nd  Nd5  1  0.043088  0.271545  0.021545  1
  Nd  Nd6  1  0.021545  0.043088  0.271545  1
  Nd  Nd7  1  0.478455  0.750000  0.021545  1
  Nd  Nd8  1  0.478455  0.228455  0.456912  1
  Nd  Nd9  1  0.021545  0.478455  0.750000  1
  Nd  Nd10  1  0.271545  0.021545  0.043088  1
  Nd  Nd11  1  0.228455  0.271545  0.750000  1
  Ir  Ir12  1  0.250000  0.250000  0.250000  1
  Ir  Ir13  1  0.500000  0.000000  0.250000  1
  Ir  Ir14  1  0.000000  0.250000  0.500000  1
  Ir  Ir15  1  0.250000  0.500000  0.000000  1
  I  I16  1  0.250000  0.759498  0.740502  1
  I  I17  1  0.518994  0.509498  0.759498  1
  I  I18  1  0.981006  0.740502  0.990502  1
  I  I19  1  0.740502  0.250000  0.759498  1
  I  I20  1  0.990502  0.981006  0.740502  1
  I  I21  1  0.250000  0.990502  0.509498  1
  I  I22  1  0.759498  0.518994  0.509498  1
  I  I23  1  0.509498  0.250000  0.990502  1
  I  I24  1  0.759498  0.740502  0.250000  1
  I  I25  1  0.740502  0.990502  0.981006  1
  I  I26  1  0.990502  0.509498  0.250000  1
  I  I27  1  0.509498  0.759498  0.518994  1
