# generated using pymatgen
data_Dy4ThMnFeB6
_symmetry_space_group_name_H-M   'P 1'
_cell_length_a   5.42474385
_cell_length_b   5.42474390
_cell_length_c   8.18752599
_cell_angle_alpha   70.65345876
_cell_angle_beta   70.65345921
_cell_angle_gamma   59.99998814
_symmetry_Int_Tables_number   1
_chemical_formula_structural   Dy4ThMnFeB6
_chemical_formula_sum   'Dy4 Th1 Mn1 Fe1 B6'
_cell_volume   192.79106986
_cell_formula_units_Z   1
loop_
 _symmetry_equiv_pos_site_id
 _symmetry_equiv_pos_as_xyz
  1  'x, y, z'
loop_
 _atom_site_type_symbol
 _atom_site_label
 _atom_site_symmetry_multiplicity
 _atom_site_fract_x
 _atom_site_fract_y
 _atom_site_fract_z
 _atom_site_occupancy
  Dy  Dy0  1  0.251149  0.251149  0.246552  1
  Dy  Dy1  1  0.749101  0.749101  0.752698  1
  Dy  Dy2  1  0.416338  0.416338  0.750987  1
  Dy  Dy3  1  0.584086  0.584086  0.247742  1
  Th  Th4  1  0.001095  0.001095  0.996715  1
  Mn  Mn5  1  0.112032  0.112032  0.663905  1
  Fe  Fe6  1  0.886670  0.886670  0.339991  1
  B  B7  1  0.166749  0.833095  0.500235  1
  B  B8  1  0.833095  0.499921  0.500235  1
  B  B9  1  0.499921  0.166749  0.500235  1
  B  B10  1  0.166749  0.499921  0.500235  1
  B  B11  1  0.499921  0.833095  0.500235  1
  B  B12  1  0.833095  0.166749  0.500235  1
