# generated using pymatgen
data_PrNd3Zn2As5
_symmetry_space_group_name_H-M   'P 1'
_cell_length_a   4.27737400
_cell_length_b   4.27737489
_cell_length_c   17.39590800
_cell_angle_alpha   90.00000000
_cell_angle_beta   90.00000000
_cell_angle_gamma   120.00000856
_symmetry_Int_Tables_number   1
_chemical_formula_structural   PrNd3Zn2As5
_chemical_formula_sum   'Pr1 Nd3 Zn2 As5'
_cell_volume   275.63365096
_cell_formula_units_Z   1
loop_
 _symmetry_equiv_pos_site_id
 _symmetry_equiv_pos_as_xyz
  1  'x, y, z'
loop_
 _atom_site_type_symbol
 _atom_site_label
 _atom_site_symmetry_multiplicity
 _atom_site_fract_x
 _atom_site_fract_y
 _atom_site_fract_z
 _atom_site_occupancy
  Pr  Pr0  1  0.666667  0.333333  0.900041  1
  Nd  Nd1  1  0.333333  0.666667  0.100192  1
  Nd  Nd2  1  0.000000  0.000000  0.702100  1
  Nd  Nd3  1  0.000000  0.000000  0.297639  1
  Zn  Zn4  1  0.666667  0.333333  0.443644  1
  Zn  Zn5  1  0.333333  0.666667  0.556335  1
  As  As6  1  0.666667  0.333333  0.593028  1
  As  As7  1  0.333333  0.666667  0.406943  1
  As  As8  1  0.666667  0.333333  0.201785  1
  As  As9  1  0.333333  0.666667  0.797597  1
  As  As10  1  0.000000  0.000000  0.000695  1
