# generated using pymatgen
data_PaS23
_symmetry_space_group_name_H-M   'P 1'
_cell_length_a   5.59544714
_cell_length_b   9.59366147
_cell_length_c   16.29899500
_cell_angle_alpha   82.42591977
_cell_angle_beta   85.98404499
_cell_angle_gamma   91.36398319
_symmetry_Int_Tables_number   1
_chemical_formula_structural   PaS23
_chemical_formula_sum   'Pa1 S23'
_cell_volume   864.69732289
_cell_formula_units_Z   1
loop_
 _symmetry_equiv_pos_site_id
 _symmetry_equiv_pos_as_xyz
  1  'x, y, z'
loop_
 _atom_site_type_symbol
 _atom_site_label
 _atom_site_symmetry_multiplicity
 _atom_site_fract_x
 _atom_site_fract_y
 _atom_site_fract_z
 _atom_site_occupancy
  Pa  Pa0  1  0.595910  0.179551  0.421434  1
  S  S1  1  0.741659  0.921266  0.396980  1
  S  S2  1  0.022599  0.299423  0.098410  1
  S  S3  1  0.788388  0.231446  0.558523  1
  S  S4  1  0.471692  0.894559  0.489706  1
  S  S5  1  0.173359  0.279452  0.981502  1
  S  S6  1  0.817649  0.738024  0.024723  1
  S  S7  1  0.109095  0.185919  0.373501  1
  S  S8  1  0.587156  0.390167  0.293166  1
  S  S9  1  0.860975  0.108676  0.149382  1
  S  S10  1  0.271718  0.870222  0.115666  1
  S  S11  1  0.694267  0.653419  0.636763  1
  S  S12  1  0.309608  0.448497  0.565373  1
  S  S13  1  0.148924  0.902411  0.859957  1
  S  S14  1  0.732126  0.140684  0.885198  1
  S  S15  1  0.065718  0.690077  0.111309  1
  S  S16  1  0.605039  0.858130  0.611851  1
  S  S17  1  0.424131  0.234051  0.581605  1
  S  S18  1  0.970880  0.715266  0.908425  1
  S  S19  1  0.924030  0.323887  0.894850  1
  S  S20  1  0.276569  0.387740  0.368268  1
  S  S21  1  0.116657  0.982640  0.203864  1
  S  S22  1  0.380219  0.530976  0.670520  1
  S  S23  1  0.911628  0.033515  0.799025  1
