# generated using pymatgen
data_Dy3Ho5Re2(B12Ru)2
_symmetry_space_group_name_H-M   'P 1'
_cell_length_a   3.66616300
_cell_length_b   9.14470193
_cell_length_c   11.53196723
_cell_angle_alpha   90.20817332
_cell_angle_beta   90.00000000
_cell_angle_gamma   90.00000000
_symmetry_Int_Tables_number   1
_chemical_formula_structural   Dy3Ho5Re2(B12Ru)2
_chemical_formula_sum   'Dy3 Ho5 Re2 B24 Ru2'
_cell_volume   386.61781092
_cell_formula_units_Z   1
loop_
 _symmetry_equiv_pos_site_id
 _symmetry_equiv_pos_as_xyz
  1  'x, y, z'
loop_
 _atom_site_type_symbol
 _atom_site_label
 _atom_site_symmetry_multiplicity
 _atom_site_fract_x
 _atom_site_fract_y
 _atom_site_fract_z
 _atom_site_occupancy
  Dy  Dy0  1  0.000000  0.321134  0.412683  1
  Dy  Dy1  1  0.000000  0.678857  0.587353  1
  Dy  Dy2  1  0.000000  0.824609  0.084454  1
  Ho  Ho3  1  0.000000  0.175317  0.915590  1
  Ho  Ho4  1  0.000000  0.942814  0.370267  1
  Ho  Ho5  1  0.000000  0.057262  0.629735  1
  Ho  Ho6  1  0.000000  0.442760  0.129340  1
  Ho  Ho7  1  0.000000  0.557138  0.870581  1
  Re  Re8  1  0.000000  0.138749  0.179529  1
  Re  Re9  1  0.000000  0.861447  0.820351  1
  B  B10  1  0.500000  0.554121  0.432837  1
  B  B11  1  0.500000  0.445810  0.567236  1
  B  B12  1  0.500000  0.053400  0.066698  1
  B  B13  1  0.500000  0.946895  0.933124  1
  B  B14  1  0.500000  0.748926  0.418599  1
  B  B15  1  0.500000  0.251066  0.581490  1
  B  B16  1  0.500000  0.249138  0.080967  1
  B  B17  1  0.500000  0.750897  0.918746  1
  B  B18  1  0.500000  0.790670  0.265702  1
  B  B19  1  0.500000  0.209209  0.734497  1
  B  B20  1  0.500000  0.291747  0.234723  1
  B  B21  1  0.500000  0.708277  0.765191  1
  B  B22  1  0.500000  0.630790  0.185877  1
  B  B23  1  0.500000  0.368997  0.814286  1
  B  B24  1  0.500000  0.131152  0.314832  1
  B  B25  1  0.500000  0.868958  0.685164  1
  B  B26  1  0.500000  0.982777  0.212247  1
  B  B27  1  0.500000  0.017549  0.787801  1
  B  B28  1  0.500000  0.483388  0.288019  1
  B  B29  1  0.500000  0.516518  0.712025  1
  B  B30  1  0.500000  0.602421  0.028440  1
  B  B31  1  0.500000  0.397250  0.971450  1
  B  B32  1  0.500000  0.102795  0.471726  1
  B  B33  1  0.500000  0.897248  0.528298  1
  Ru  Ru34  1  0.000000  0.638059  0.321327  1
  Ru  Ru35  1  0.000000  0.361855  0.678814  1
