# generated using pymatgen
data_V2GaFe4Si
_symmetry_space_group_name_H-M   'P 1'
_cell_length_a   6.95148468
_cell_length_b   6.95148445
_cell_length_c   6.95148470
_cell_angle_alpha   33.51730525
_cell_angle_beta   33.51730486
_cell_angle_gamma   33.51730904
_symmetry_Int_Tables_number   1
_chemical_formula_structural   V2GaFe4Si
_chemical_formula_sum   'V2 Ga1 Fe4 Si1'
_cell_volume   91.22677481
_cell_formula_units_Z   1
loop_
 _symmetry_equiv_pos_site_id
 _symmetry_equiv_pos_as_xyz
  1  'x, y, z'
loop_
 _atom_site_type_symbol
 _atom_site_label
 _atom_site_symmetry_multiplicity
 _atom_site_fract_x
 _atom_site_fract_y
 _atom_site_fract_z
 _atom_site_occupancy
  V  V0  1  0.249906  0.249906  0.249906  1
  V  V1  1  0.750094  0.750094  0.750094  1
  Ga  Ga2  1  0.000000  0.000000  0.000000  1
  Fe  Fe3  1  0.872008  0.872008  0.872008  1
  Fe  Fe4  1  0.378242  0.378242  0.378242  1
  Fe  Fe5  1  0.127992  0.127992  0.127992  1
  Fe  Fe6  1  0.621758  0.621758  0.621758  1
  Si  Si7  1  0.500000  0.500000  0.500000  1
