# generated using pymatgen
data_SmHo5Co14(P3Ru)4
_symmetry_space_group_name_H-M   'P 1'
_cell_length_a   3.74398800
_cell_length_b   10.58072800
_cell_length_c   12.33079000
_cell_angle_alpha   90.00000000
_cell_angle_beta   90.00000000
_cell_angle_gamma   90.00000000
_symmetry_Int_Tables_number   1
_chemical_formula_structural   SmHo5Co14(P3Ru)4
_chemical_formula_sum   'Sm1 Ho5 Co14 P12 Ru4'
_cell_volume   488.47337827
_cell_formula_units_Z   1
loop_
 _symmetry_equiv_pos_site_id
 _symmetry_equiv_pos_as_xyz
  1  'x, y, z'
loop_
 _atom_site_type_symbol
 _atom_site_label
 _atom_site_symmetry_multiplicity
 _atom_site_fract_x
 _atom_site_fract_y
 _atom_site_fract_z
 _atom_site_occupancy
  Sm  Sm0  1  0.000000  0.500000  0.528991  1
  Ho  Ho1  1  0.500000  0.000000  0.478532  1
  Ho  Ho2  1  0.500000  0.818218  0.202614  1
  Ho  Ho3  1  0.500000  0.181782  0.202614  1
  Ho  Ho4  1  0.000000  0.683433  0.796369  1
  Ho  Ho5  1  0.000000  0.316567  0.796369  1
  Co  Co6  1  0.000000  0.500000  0.985774  1
  Co  Co7  1  0.500000  0.000000  0.013506  1
  Co  Co8  1  0.000000  0.198773  0.573908  1
  Co  Co9  1  0.000000  0.801227  0.573908  1
  Co  Co10  1  0.500000  0.880293  0.711334  1
  Co  Co11  1  0.500000  0.119707  0.711334  1
  Co  Co12  1  0.000000  0.621365  0.285915  1
  Co  Co13  1  0.000000  0.378635  0.285915  1
  Co  Co14  1  0.500000  0.332098  0.989960  1
  Co  Co15  1  0.500000  0.667902  0.989960  1
  Co  Co16  1  0.000000  0.166966  0.008747  1
  Co  Co17  1  0.000000  0.833034  0.008747  1
  Co  Co18  1  0.500000  0.500000  0.706712  1
  Co  Co19  1  0.000000  0.000000  0.294214  1
  P  P20  1  0.500000  0.307438  0.622031  1
  P  P21  1  0.500000  0.692562  0.622031  1
  P  P22  1  0.000000  0.183035  0.381603  1
  P  P23  1  0.000000  0.816965  0.381603  1
  P  P24  1  0.500000  0.500000  0.882782  1
  P  P25  1  0.000000  0.000000  0.116787  1
  P  P26  1  0.500000  0.846679  0.894039  1
  P  P27  1  0.500000  0.153321  0.894039  1
  P  P28  1  0.000000  0.654056  0.104430  1
  P  P29  1  0.000000  0.345944  0.104430  1
  P  P30  1  0.500000  0.500000  0.343345  1
  P  P31  1  0.000000  0.000000  0.651408  1
  Ru  Ru32  1  0.500000  0.294216  0.429787  1
  Ru  Ru33  1  0.500000  0.705784  0.429787  1
  Ru  Ru34  1  0.500000  0.500000  0.155438  1
  Ru  Ru35  1  0.000000  0.000000  0.841038  1
