# generated using pymatgen
data_YbDy3Ir8
_symmetry_space_group_name_H-M   'P 1'
_cell_length_a   5.35399000
_cell_length_b   5.35399006
_cell_length_c   8.71765400
_cell_angle_alpha   90.00000000
_cell_angle_beta   90.00000000
_cell_angle_gamma   119.99998726
_symmetry_Int_Tables_number   1
_chemical_formula_structural   YbDy3Ir8
_chemical_formula_sum   'Yb1 Dy3 Ir8'
_cell_volume   216.41403969
_cell_formula_units_Z   1
loop_
 _symmetry_equiv_pos_site_id
 _symmetry_equiv_pos_as_xyz
  1  'x, y, z'
loop_
 _atom_site_type_symbol
 _atom_site_label
 _atom_site_symmetry_multiplicity
 _atom_site_fract_x
 _atom_site_fract_y
 _atom_site_fract_z
 _atom_site_occupancy
  Yb  Yb0  1  0.333333  0.666667  0.435778  1
  Dy  Dy1  1  0.333333  0.666667  0.074964  1
  Dy  Dy2  1  0.666667  0.333333  0.562019  1
  Dy  Dy3  1  0.666667  0.333333  0.930791  1
  Ir  Ir4  1  0.000000  0.000000  0.999492  1
  Ir  Ir5  1  0.000000  0.000000  0.498976  1
  Ir  Ir6  1  0.830309  0.660618  0.248894  1
  Ir  Ir7  1  0.169792  0.830208  0.750433  1
  Ir  Ir8  1  0.660417  0.830208  0.750433  1
  Ir  Ir9  1  0.339382  0.169691  0.248894  1
  Ir  Ir10  1  0.830309  0.169691  0.248894  1
  Ir  Ir11  1  0.169792  0.339583  0.750433  1
