# generated using pymatgen
data_DyMg3P6N13
_symmetry_space_group_name_H-M   'P 1'
_cell_length_a   7.13870335
_cell_length_b   7.13870412
_cell_length_c   7.13870346
_cell_angle_alpha   109.30332604
_cell_angle_beta   109.30332758
_cell_angle_gamma   109.30332537
_symmetry_Int_Tables_number   1
_chemical_formula_structural   DyMg3P6N13
_chemical_formula_sum   'Dy1 Mg3 P6 N13'
_cell_volume   281.77776387
_cell_formula_units_Z   1
loop_
 _symmetry_equiv_pos_site_id
 _symmetry_equiv_pos_as_xyz
  1  'x, y, z'
loop_
 _atom_site_type_symbol
 _atom_site_label
 _atom_site_symmetry_multiplicity
 _atom_site_fract_x
 _atom_site_fract_y
 _atom_site_fract_z
 _atom_site_occupancy
  Dy  Dy0  1  0.288227  0.288227  0.288227  1
  Mg  Mg1  1  0.992130  0.696337  0.992130  1
  Mg  Mg2  1  0.696337  0.992130  0.992130  1
  Mg  Mg3  1  0.992130  0.992130  0.696337  1
  P  P4  1  0.504096  0.251768  0.756817  1
  P  P5  1  0.504096  0.756817  0.251768  1
  P  P6  1  0.756817  0.251768  0.504096  1
  P  P7  1  0.251768  0.504096  0.756817  1
  P  P8  1  0.756817  0.504096  0.251768  1
  P  P9  1  0.251768  0.756817  0.504096  1
  N  N10  1  0.983570  0.983570  0.983570  1
  N  N11  1  0.001385  0.733377  0.448577  1
  N  N12  1  0.271058  0.715415  0.271058  1
  N  N13  1  0.279402  0.559317  0.559317  1
  N  N14  1  0.559317  0.559317  0.279402  1
  N  N15  1  0.559317  0.279402  0.559317  1
  N  N16  1  0.733377  0.001385  0.448577  1
  N  N17  1  0.448577  0.001385  0.733377  1
  N  N18  1  0.733377  0.448577  0.001385  1
  N  N19  1  0.271058  0.271058  0.715415  1
  N  N20  1  0.715415  0.271058  0.271058  1
  N  N21  1  0.001385  0.448577  0.733377  1
  N  N22  1  0.448577  0.733377  0.001385  1
