# generated using pymatgen
data_La5PrPaO12
_symmetry_space_group_name_H-M   'P 1'
_cell_length_a   6.94331114
_cell_length_b   6.94549016
_cell_length_c   6.95082667
_cell_angle_alpha   98.98566389
_cell_angle_beta   99.06536151
_cell_angle_gamma   98.95619617
_symmetry_Int_Tables_number   1
_chemical_formula_structural   La5PrPaO12
_chemical_formula_sum   'La5 Pr1 Pa1 O12'
_cell_volume   321.31854763
_cell_formula_units_Z   1
loop_
 _symmetry_equiv_pos_site_id
 _symmetry_equiv_pos_as_xyz
  1  'x, y, z'
loop_
 _atom_site_type_symbol
 _atom_site_label
 _atom_site_symmetry_multiplicity
 _atom_site_fract_x
 _atom_site_fract_y
 _atom_site_fract_z
 _atom_site_occupancy
  La  La0  1  0.605255  0.139567  0.302314  1
  La  La1  1  0.394165  0.860235  0.697963  1
  La  La2  1  0.697976  0.394059  0.859699  1
  La  La3  1  0.860425  0.698376  0.393868  1
  La  La4  1  0.140592  0.302332  0.606236  1
  Pr  Pr5  1  0.301851  0.608167  0.139308  1
  Pa  Pa6  1  0.000357  0.000284  0.000284  1
  O  O7  1  0.436833  0.176281  0.589471  1
  O  O8  1  0.933428  0.694867  0.052721  1
  O  O9  1  0.176432  0.588734  0.436274  1
  O  O10  1  0.823373  0.411239  0.563072  1
  O  O11  1  0.562048  0.821905  0.409332  1
  O  O12  1  0.586644  0.436890  0.176052  1
  O  O13  1  0.410895  0.563773  0.823477  1
  O  O14  1  0.947330  0.067463  0.304757  1
  O  O15  1  0.052190  0.932343  0.695462  1
  O  O16  1  0.695469  0.052636  0.932259  1
  O  O17  1  0.069343  0.305763  0.949393  1
  O  O18  1  0.305393  0.945086  0.068058  1
