# generated using pymatgen
data_Pr3DyTm4(CdIr)2
_symmetry_space_group_name_H-M   'P 1'
_cell_length_a   9.71578463
_cell_length_b   9.71578422
_cell_length_c   9.72079800
_cell_angle_alpha   59.98292111
_cell_angle_beta   59.98292250
_cell_angle_gamma   59.94304725
_symmetry_Int_Tables_number   1
_chemical_formula_structural   Pr3DyTm4(CdIr)2
_chemical_formula_sum   'Pr6 Dy2 Tm8 Cd4 Ir4'
_cell_volume   648.40047448
_cell_formula_units_Z   2
loop_
 _symmetry_equiv_pos_site_id
 _symmetry_equiv_pos_as_xyz
  1  'x, y, z'
loop_
 _atom_site_type_symbol
 _atom_site_label
 _atom_site_symmetry_multiplicity
 _atom_site_fract_x
 _atom_site_fract_y
 _atom_site_fract_z
 _atom_site_occupancy
  Pr  Pr0  1  0.941407  0.558248  0.558246  1
  Pr  Pr1  1  0.558248  0.941407  0.942099  1
  Pr  Pr2  1  0.558248  0.941407  0.558246  1
  Pr  Pr3  1  0.941407  0.558248  0.942099  1
  Pr  Pr4  1  0.558933  0.558933  0.941067  1
  Pr  Pr5  1  0.942460  0.942460  0.557540  1
  Dy  Dy6  1  0.347456  0.347456  0.346689  1
  Dy  Dy7  1  0.347456  0.347456  0.958398  1
  Tm  Tm8  1  0.347060  0.960391  0.346275  1
  Tm  Tm9  1  0.960391  0.347060  0.346275  1
  Tm  Tm10  1  0.813641  0.185417  0.186766  1
  Tm  Tm11  1  0.185417  0.813641  0.814176  1
  Tm  Tm12  1  0.185417  0.813641  0.186766  1
  Tm  Tm13  1  0.813641  0.185417  0.814176  1
  Tm  Tm14  1  0.185686  0.185686  0.814314  1
  Tm  Tm15  1  0.813633  0.813633  0.186367  1
  Cd  Cd16  1  0.579166  0.579166  0.578667  1
  Cd  Cd17  1  0.579166  0.579166  0.262999  1
  Cd  Cd18  1  0.579435  0.262628  0.578967  1
  Cd  Cd19  1  0.262628  0.579435  0.578967  1
  Ir  Ir20  1  0.140532  0.140532  0.141920  1
  Ir  Ir21  1  0.140532  0.140532  0.577014  1
  Ir  Ir22  1  0.139887  0.578149  0.140982  1
  Ir  Ir23  1  0.578149  0.139887  0.140982  1
