# generated using pymatgen
data_Ho3Er2Bi2As
_symmetry_space_group_name_H-M   'P 1'
_cell_length_a   8.00804600
_cell_length_b   9.10392600
_cell_length_c   12.01323400
_cell_angle_alpha   90.00000000
_cell_angle_beta   90.00000000
_cell_angle_gamma   90.00000000
_symmetry_Int_Tables_number   1
_chemical_formula_structural   Ho3Er2Bi2As
_chemical_formula_sum   'Ho12 Er8 Bi8 As4'
_cell_volume   875.82071851
_cell_formula_units_Z   4
loop_
 _symmetry_equiv_pos_site_id
 _symmetry_equiv_pos_as_xyz
  1  'x, y, z'
loop_
 _atom_site_type_symbol
 _atom_site_label
 _atom_site_symmetry_multiplicity
 _atom_site_fract_x
 _atom_site_fract_y
 _atom_site_fract_z
 _atom_site_occupancy
  Ho  Ho0  1  0.156317  0.750000  0.210856  1
  Ho  Ho1  1  0.343683  0.750000  0.710856  1
  Ho  Ho2  1  0.843683  0.250000  0.789144  1
  Ho  Ho3  1  0.656317  0.250000  0.289144  1
  Ho  Ho4  1  0.463745  0.750000  0.999937  1
  Ho  Ho5  1  0.036255  0.750000  0.499937  1
  Ho  Ho6  1  0.536255  0.250000  0.000063  1
  Ho  Ho7  1  0.963745  0.250000  0.500063  1
  Ho  Ho8  1  0.634386  0.750000  0.292717  1
  Ho  Ho9  1  0.865614  0.750000  0.792717  1
  Ho  Ho10  1  0.365614  0.250000  0.707283  1
  Ho  Ho11  1  0.134386  0.250000  0.207283  1
  Er  Er12  1  0.817153  0.556520  0.062923  1
  Er  Er13  1  0.682847  0.943480  0.562923  1
  Er  Er14  1  0.182847  0.056520  0.937077  1
  Er  Er15  1  0.317153  0.443480  0.437077  1
  Er  Er16  1  0.182847  0.443480  0.937077  1
  Er  Er17  1  0.317153  0.056520  0.437077  1
  Er  Er18  1  0.817153  0.943480  0.062923  1
  Er  Er19  1  0.682847  0.556520  0.562923  1
  Bi  Bi20  1  0.925544  0.509992  0.326814  1
  Bi  Bi21  1  0.574456  0.990008  0.826814  1
  Bi  Bi22  1  0.074456  0.009992  0.673186  1
  Bi  Bi23  1  0.425544  0.490008  0.173186  1
  Bi  Bi24  1  0.074456  0.490008  0.673186  1
  Bi  Bi25  1  0.425544  0.009992  0.173186  1
  Bi  Bi26  1  0.925544  0.990008  0.326814  1
  Bi  Bi27  1  0.574456  0.509992  0.826814  1
  As  As28  1  0.412804  0.750000  0.478498  1
  As  As29  1  0.087196  0.750000  0.978498  1
  As  As30  1  0.587196  0.250000  0.521502  1
  As  As31  1  0.912804  0.250000  0.021502  1
