# generated using pymatgen
data_DyY14Ho5(Cd3Ru)2
_symmetry_space_group_name_H-M   'P 1'
_cell_length_a   9.62750208
_cell_length_b   9.62990134
_cell_length_c   9.85698601
_cell_angle_alpha   90.00046959
_cell_angle_beta   89.99829794
_cell_angle_gamma   120.00491269
_symmetry_Int_Tables_number   1
_chemical_formula_structural   DyY14Ho5(Cd3Ru)2
_chemical_formula_sum   'Dy1 Y14 Ho5 Cd6 Ru2'
_cell_volume   791.38666715
_cell_formula_units_Z   1
loop_
 _symmetry_equiv_pos_site_id
 _symmetry_equiv_pos_as_xyz
  1  'x, y, z'
loop_
 _atom_site_type_symbol
 _atom_site_label
 _atom_site_symmetry_multiplicity
 _atom_site_fract_x
 _atom_site_fract_y
 _atom_site_fract_z
 _atom_site_occupancy
  Dy  Dy0  1  0.420518  0.210255  0.560030  1
  Y  Y1  1  0.999851  0.999927  0.499948  1
  Y  Y2  1  0.000003  0.000004  0.000007  1
  Y  Y3  1  0.790198  0.209911  0.939828  1
  Y  Y4  1  0.790205  0.580298  0.939819  1
  Y  Y5  1  0.419688  0.209842  0.939935  1
  Y  Y6  1  0.209849  0.790112  0.060215  1
  Y  Y7  1  0.209836  0.419718  0.060221  1
  Y  Y8  1  0.580206  0.790106  0.060261  1
  Y  Y9  1  0.541150  0.458974  0.251018  1
  Y  Y10  1  0.541162  0.082174  0.251016  1
  Y  Y11  1  0.917748  0.458862  0.251119  1
  Y  Y12  1  0.458904  0.541275  0.748970  1
  Y  Y13  1  0.458895  0.917633  0.748972  1
  Y  Y14  1  0.082207  0.541115  0.748883  1
  Ho  Ho15  1  0.210278  0.789637  0.439841  1
  Ho  Ho16  1  0.210262  0.420620  0.439826  1
  Ho  Ho17  1  0.579315  0.789663  0.439900  1
  Ho  Ho18  1  0.789864  0.210221  0.560028  1
  Ho  Ho19  1  0.789881  0.579664  0.560044  1
  Cd  Cd20  1  0.885219  0.114863  0.249910  1
  Cd  Cd21  1  0.885199  0.770345  0.249912  1
  Cd  Cd22  1  0.229531  0.114781  0.249845  1
  Cd  Cd23  1  0.114744  0.885093  0.750122  1
  Cd  Cd24  1  0.114764  0.229661  0.750122  1
  Cd  Cd25  1  0.770395  0.885183  0.750078  1
  Ru  Ru26  1  0.333469  0.666758  0.252609  1
  Ru  Ru27  1  0.666655  0.333306  0.747519  1
