# generated using pymatgen
data_Zr2BeFe3
_symmetry_space_group_name_H-M   'P 1'
_cell_length_a   4.92782200
_cell_length_b   4.92782110
_cell_length_c   7.91708400
_cell_angle_alpha   90.00000000
_cell_angle_beta   90.00000000
_cell_angle_gamma   120.00000603
_symmetry_Int_Tables_number   1
_chemical_formula_structural   Zr2BeFe3
_chemical_formula_sum   'Zr4 Be2 Fe6'
_cell_volume   166.49676633
_cell_formula_units_Z   2
loop_
 _symmetry_equiv_pos_site_id
 _symmetry_equiv_pos_as_xyz
  1  'x, y, z'
loop_
 _atom_site_type_symbol
 _atom_site_label
 _atom_site_symmetry_multiplicity
 _atom_site_fract_x
 _atom_site_fract_y
 _atom_site_fract_z
 _atom_site_occupancy
  Zr  Zr0  1  0.333333  0.666667  0.937895  1
  Zr  Zr1  1  0.666667  0.333333  0.062105  1
  Zr  Zr2  1  0.666667  0.333333  0.437895  1
  Zr  Zr3  1  0.333333  0.666667  0.562105  1
  Be  Be4  1  0.000000  0.000000  0.000000  1
  Be  Be5  1  0.000000  0.000000  0.500000  1
  Fe  Fe6  1  0.833852  0.166148  0.750000  1
  Fe  Fe7  1  0.833852  0.667703  0.750000  1
  Fe  Fe8  1  0.332297  0.166148  0.750000  1
  Fe  Fe9  1  0.166148  0.833852  0.250000  1
  Fe  Fe10  1  0.166148  0.332297  0.250000  1
  Fe  Fe11  1  0.667703  0.833852  0.250000  1
