# generated using pymatgen
data_TbHo7Re2(B12Os)2
_symmetry_space_group_name_H-M   'P 1'
_cell_length_a   3.66121800
_cell_length_b   9.14906161
_cell_length_c   11.53549207
_cell_angle_alpha   90.13200283
_cell_angle_beta   90.00000000
_cell_angle_gamma   90.00000000
_symmetry_Int_Tables_number   1
_chemical_formula_structural   TbHo7Re2(B12Os)2
_chemical_formula_sum   'Tb1 Ho7 Re2 B24 Os2'
_cell_volume   386.39999592
_cell_formula_units_Z   1
loop_
 _symmetry_equiv_pos_site_id
 _symmetry_equiv_pos_as_xyz
  1  'x, y, z'
loop_
 _atom_site_type_symbol
 _atom_site_label
 _atom_site_symmetry_multiplicity
 _atom_site_fract_x
 _atom_site_fract_y
 _atom_site_fract_z
 _atom_site_occupancy
  Tb  Tb0  1  0.000000  0.320743  0.412427  1
  Ho  Ho1  1  0.000000  0.679395  0.587753  1
  Ho  Ho2  1  0.000000  0.824377  0.084682  1
  Ho  Ho3  1  0.000000  0.175444  0.915192  1
  Ho  Ho4  1  0.000000  0.942931  0.370680  1
  Ho  Ho5  1  0.000000  0.056867  0.629364  1
  Ho  Ho6  1  0.000000  0.442310  0.128569  1
  Ho  Ho7  1  0.000000  0.557878  0.871387  1
  Re  Re8  1  0.000000  0.137705  0.179197  1
  Re  Re9  1  0.000000  0.862043  0.820438  1
  B  B10  1  0.500000  0.553888  0.433053  1
  B  B11  1  0.500000  0.446764  0.567371  1
  B  B12  1  0.500000  0.052657  0.066617  1
  B  B13  1  0.500000  0.947127  0.933142  1
  B  B14  1  0.500000  0.748586  0.418894  1
  B  B15  1  0.500000  0.251561  0.581735  1
  B  B16  1  0.500000  0.248381  0.080628  1
  B  B17  1  0.500000  0.751584  0.919116  1
  B  B18  1  0.500000  0.790502  0.265863  1
  B  B19  1  0.500000  0.209580  0.734344  1
  B  B20  1  0.500000  0.291070  0.234055  1
  B  B21  1  0.500000  0.708634  0.765497  1
  B  B22  1  0.500000  0.630760  0.185911  1
  B  B23  1  0.500000  0.369500  0.814148  1
  B  B24  1  0.500000  0.130608  0.314458  1
  B  B25  1  0.500000  0.868943  0.685187  1
  B  B26  1  0.500000  0.981974  0.212269  1
  B  B27  1  0.500000  0.017749  0.787594  1
  B  B28  1  0.500000  0.483058  0.287689  1
  B  B29  1  0.500000  0.517582  0.712265  1
  B  B30  1  0.500000  0.603477  0.028958  1
  B  B31  1  0.500000  0.396624  0.971024  1
  B  B32  1  0.500000  0.102862  0.471600  1
  B  B33  1  0.500000  0.896438  0.528621  1
  Os  Os34  1  0.000000  0.637493  0.321710  1
  Os  Os35  1  0.000000  0.362902  0.678563  1
