# generated using pymatgen
data_NdGd(Si7Ir3)2
_symmetry_space_group_name_H-M   'P 1'
_cell_length_a   8.09147919
_cell_length_b   8.09147908
_cell_length_c   8.09147867
_cell_angle_alpha   56.54366056
_cell_angle_beta   56.54367273
_cell_angle_gamma   56.54366788
_symmetry_Int_Tables_number   1
_chemical_formula_structural   NdGd(Si7Ir3)2
_chemical_formula_sum   'Nd1 Gd1 Si14 Ir6'
_cell_volume   344.68084309
_cell_formula_units_Z   1
loop_
 _symmetry_equiv_pos_site_id
 _symmetry_equiv_pos_as_xyz
  1  'x, y, z'
loop_
 _atom_site_type_symbol
 _atom_site_label
 _atom_site_symmetry_multiplicity
 _atom_site_fract_x
 _atom_site_fract_y
 _atom_site_fract_z
 _atom_site_occupancy
  Nd  Nd0  1  0.500000  0.500000  0.500000  1
  Gd  Gd1  1  0.000000  0.000000  0.000000  1
  Si  Si2  1  0.851445  0.062894  0.673290  1
  Si  Si3  1  0.673290  0.851445  0.062894  1
  Si  Si4  1  0.062894  0.673290  0.851445  1
  Si  Si5  1  0.650363  0.827652  0.435347  1
  Si  Si6  1  0.250319  0.250319  0.250319  1
  Si  Si7  1  0.749681  0.749681  0.749681  1
  Si  Si8  1  0.172348  0.564653  0.349637  1
  Si  Si9  1  0.564653  0.349637  0.172348  1
  Si  Si10  1  0.349637  0.172348  0.564653  1
  Si  Si11  1  0.937106  0.326710  0.148555  1
  Si  Si12  1  0.326710  0.148555  0.937106  1
  Si  Si13  1  0.148555  0.937106  0.326710  1
  Si  Si14  1  0.827652  0.435347  0.650363  1
  Si  Si15  1  0.435347  0.650363  0.827652  1
  Ir  Ir16  1  0.751111  0.067823  0.430339  1
  Ir  Ir17  1  0.430339  0.751111  0.067823  1
  Ir  Ir18  1  0.067823  0.430339  0.751111  1
  Ir  Ir19  1  0.248889  0.932177  0.569661  1
  Ir  Ir20  1  0.569661  0.248889  0.932177  1
  Ir  Ir21  1  0.932177  0.569661  0.248889  1
