# generated using pymatgen
data_Hf4Nb2Si3Ge
_symmetry_space_group_name_H-M   'P 1'
_cell_length_a   6.86460615
_cell_length_b   6.86460615
_cell_length_c   3.74380700
_cell_angle_alpha   90.00000000
_cell_angle_beta   90.00000000
_cell_angle_gamma   90.02363743
_symmetry_Int_Tables_number   1
_chemical_formula_structural   Hf4Nb2Si3Ge
_chemical_formula_sum   'Hf4 Nb2 Si3 Ge1'
_cell_volume   176.41871915
_cell_formula_units_Z   1
loop_
 _symmetry_equiv_pos_site_id
 _symmetry_equiv_pos_as_xyz
  1  'x, y, z'
loop_
 _atom_site_type_symbol
 _atom_site_label
 _atom_site_symmetry_multiplicity
 _atom_site_fract_x
 _atom_site_fract_y
 _atom_site_fract_z
 _atom_site_occupancy
  Hf  Hf0  1  0.820724  0.674874  0.500000  1
  Hf  Hf1  1  0.327872  0.827872  0.500000  1
  Hf  Hf2  1  0.174874  0.320724  0.500000  1
  Hf  Hf3  1  0.675217  0.175217  0.500000  1
  Nb  Nb4  1  0.502962  0.499220  0.000000  1
  Nb  Nb5  1  0.999220  0.002962  0.000000  1
  Si  Si6  1  0.625148  0.875177  0.000000  1
  Si  Si7  1  0.375177  0.125148  0.000000  1
  Si  Si8  1  0.872368  0.372368  0.000000  1
  Ge  Ge9  1  0.126439  0.626439  0.000000  1
