# generated using pymatgen
data_Tm3Hf5(Si4Ru3)4
_symmetry_space_group_name_H-M   'P 1'
_cell_length_a   9.99333608
_cell_length_b   9.99461548
_cell_length_c   13.46593904
_cell_angle_alpha   53.64863089
_cell_angle_beta   53.57354434
_cell_angle_gamma   31.17619185
_symmetry_Int_Tables_number   1
_chemical_formula_structural   Tm3Hf5(Si4Ru3)4
_chemical_formula_sum   'Tm3 Hf5 Si16 Ru12'
_cell_volume   548.51443004
_cell_formula_units_Z   1
loop_
 _symmetry_equiv_pos_site_id
 _symmetry_equiv_pos_as_xyz
  1  'x, y, z'
loop_
 _atom_site_type_symbol
 _atom_site_label
 _atom_site_symmetry_multiplicity
 _atom_site_fract_x
 _atom_site_fract_y
 _atom_site_fract_z
 _atom_site_occupancy
  Tm  Tm0  1  0.295014  0.560797  0.645077  1
  Tm  Tm1  1  0.440882  0.701299  0.857000  1
  Tm  Tm2  1  0.704507  0.439803  0.353667  1
  Hf  Hf3  1  0.557491  0.288850  0.151956  1
  Hf  Hf4  1  0.039964  0.294881  0.634913  1
  Hf  Hf5  1  0.703820  0.961753  0.865068  1
  Hf  Hf6  1  0.962463  0.704714  0.363335  1
  Hf  Hf7  1  0.295254  0.039267  0.135645  1
  Si  Si8  1  0.875024  0.123010  0.248942  1
  Si  Si9  1  0.119701  0.880621  0.750729  1
  Si  Si10  1  0.379348  0.617990  0.248319  1
  Si  Si11  1  0.623487  0.377425  0.749499  1
  Si  Si12  1  0.976365  0.254147  0.891504  1
  Si  Si13  1  0.748173  0.022397  0.608426  1
  Si  Si14  1  0.026552  0.746676  0.107878  1
  Si  Si15  1  0.251890  0.978187  0.390054  1
  Si  Si16  1  0.572830  0.084209  0.065660  1
  Si  Si17  1  0.915775  0.428815  0.434820  1
  Si  Si18  1  0.427447  0.918449  0.933999  1
  Si  Si19  1  0.083966  0.571171  0.565022  1
  Si  Si20  1  0.387321  0.142444  0.397409  1
  Si  Si21  1  0.857962  0.613737  0.102219  1
  Si  Si22  1  0.614420  0.856349  0.602402  1
  Si  Si23  1  0.142730  0.386977  0.897410  1
  Ru  Ru24  1  0.648606  0.832555  0.281075  1
  Ru  Ru25  1  0.171654  0.353281  0.217341  1
  Ru  Ru26  1  0.758530  0.484058  0.069810  1
  Ru  Ru27  1  0.832264  0.648948  0.782048  1
  Ru  Ru28  1  0.901800  0.140512  0.585581  1
  Ru  Ru29  1  0.853904  0.104030  0.916512  1
  Ru  Ru30  1  0.100069  0.857647  0.412051  1
  Ru  Ru31  1  0.139394  0.902265  0.084843  1
  Ru  Ru32  1  0.239595  0.516205  0.930192  1
  Ru  Ru33  1  0.483911  0.760108  0.570928  1
  Ru  Ru34  1  0.515953  0.238882  0.430885  1
  Ru  Ru35  1  0.351935  0.167539  0.717781  1
