# generated using pymatgen
data_LiPa3(Al3Ir)6
_symmetry_space_group_name_H-M   'P 1'
_cell_length_a   7.57945100
_cell_length_b   7.62500289
_cell_length_c   9.28060300
_cell_angle_alpha   90.00000000
_cell_angle_beta   90.00000000
_cell_angle_gamma   119.50481701
_symmetry_Int_Tables_number   1
_chemical_formula_structural   LiPa3(Al3Ir)6
_chemical_formula_sum   'Li1 Pa3 Al18 Ir6'
_cell_volume   466.79916801
_cell_formula_units_Z   1
loop_
 _symmetry_equiv_pos_site_id
 _symmetry_equiv_pos_as_xyz
  1  'x, y, z'
loop_
 _atom_site_type_symbol
 _atom_site_label
 _atom_site_symmetry_multiplicity
 _atom_site_fract_x
 _atom_site_fract_y
 _atom_site_fract_z
 _atom_site_occupancy
  Li  Li0  1  0.318163  0.018856  0.250000  1
  Pa  Pa1  1  0.999285  0.673914  0.750000  1
  Pa  Pa2  1  0.996750  0.325571  0.250000  1
  Pa  Pa3  1  0.670960  0.990841  0.750000  1
  Al  Al4  1  0.138969  0.130555  0.750000  1
  Al  Al5  1  0.871827  0.876359  0.250000  1
  Al  Al6  1  0.005995  0.335554  0.579146  1
  Al  Al7  1  0.011235  0.676662  0.413649  1
  Al  Al8  1  0.011235  0.676662  0.086351  1
  Al  Al9  1  0.336576  0.004369  0.936851  1
  Al  Al10  1  0.005995  0.335554  0.920854  1
  Al  Al11  1  0.649907  0.995538  0.086081  1
  Al  Al12  1  0.649907  0.995538  0.413919  1
  Al  Al13  1  0.336576  0.004369  0.563149  1
  Al  Al14  1  0.332759  0.326779  0.062740  1
  Al  Al15  1  0.664792  0.662116  0.956254  1
  Al  Al16  1  0.664792  0.662116  0.543746  1
  Al  Al17  1  0.332759  0.326779  0.437260  1
  Al  Al18  1  0.348120  0.544356  0.750000  1
  Al  Al19  1  0.659532  0.446367  0.250000  1
  Al  Al20  1  0.549509  0.338428  0.750000  1
  Al  Al21  1  0.441430  0.652833  0.250000  1
  Ir  Ir22  1  0.681001  0.330979  0.501483  1
  Ir  Ir23  1  0.326725  0.669688  0.504891  1
  Ir  Ir24  1  0.326725  0.669688  0.995109  1
  Ir  Ir25  1  0.681001  0.330979  0.998517  1
  Ir  Ir26  1  0.993735  0.999276  0.503515  1
  Ir  Ir27  1  0.993735  0.999276  0.996485  1
