# generated using pymatgen
data_SrLu(NiAs)2
_symmetry_space_group_name_H-M   'P 1'
_cell_length_a   4.05387800
_cell_length_b   4.05387858
_cell_length_c   16.68817300
_cell_angle_alpha   90.00000000
_cell_angle_beta   90.00000000
_cell_angle_gamma   119.99999528
_symmetry_Int_Tables_number   1
_chemical_formula_structural   SrLu(NiAs)2
_chemical_formula_sum   'Sr2 Lu2 Ni4 As4'
_cell_volume   237.50942971
_cell_formula_units_Z   2
loop_
 _symmetry_equiv_pos_site_id
 _symmetry_equiv_pos_as_xyz
  1  'x, y, z'
loop_
 _atom_site_type_symbol
 _atom_site_label
 _atom_site_symmetry_multiplicity
 _atom_site_fract_x
 _atom_site_fract_y
 _atom_site_fract_z
 _atom_site_occupancy
  Sr  Sr0  1  0.000000  0.000000  0.000000  1
  Sr  Sr1  1  0.000000  0.000000  0.500000  1
  Lu  Lu2  1  0.000000  0.000000  0.250000  1
  Lu  Lu3  1  0.000000  0.000000  0.750000  1
  Ni  Ni4  1  0.333333  0.666667  0.143848  1
  Ni  Ni5  1  0.666667  0.333333  0.856152  1
  Ni  Ni6  1  0.666667  0.333333  0.643848  1
  Ni  Ni7  1  0.333333  0.666667  0.356152  1
  As  As8  1  0.333333  0.666667  0.632533  1
  As  As9  1  0.666667  0.333333  0.367467  1
  As  As10  1  0.666667  0.333333  0.132533  1
  As  As11  1  0.333333  0.666667  0.867467  1
