# generated using pymatgen
data_Hf5In(IrRh4)2
_symmetry_space_group_name_H-M   'P 1'
_cell_length_a   4.18281600
_cell_length_b   5.64339310
_cell_length_c   11.11207923
_cell_angle_alpha   89.57170892
_cell_angle_beta   90.00000000
_cell_angle_gamma   90.00000000
_symmetry_Int_Tables_number   1
_chemical_formula_structural   Hf5In(IrRh4)2
_chemical_formula_sum   'Hf5 In1 Ir2 Rh8'
_cell_volume   262.29635732
_cell_formula_units_Z   1
loop_
 _symmetry_equiv_pos_site_id
 _symmetry_equiv_pos_as_xyz
  1  'x, y, z'
loop_
 _atom_site_type_symbol
 _atom_site_label
 _atom_site_symmetry_multiplicity
 _atom_site_fract_x
 _atom_site_fract_y
 _atom_site_fract_z
 _atom_site_occupancy
  Hf  Hf0  1  0.500000  0.182402  0.639837  1
  Hf  Hf1  1  0.500000  0.817556  0.359506  1
  Hf  Hf2  1  0.500000  0.676020  0.854681  1
  Hf  Hf3  1  0.500000  0.327458  0.144392  1
  Hf  Hf4  1  0.000000  0.995882  0.002056  1
  In  In5  1  0.000000  0.499575  0.499431  1
  Ir  Ir6  1  0.500000  0.197103  0.889536  1
  Ir  Ir7  1  0.000000  0.498187  0.999446  1
  Rh  Rh8  1  0.500000  0.800649  0.110850  1
  Rh  Rh9  1  0.500000  0.708312  0.616303  1
  Rh  Rh10  1  0.500000  0.291917  0.383902  1
  Rh  Rh11  1  0.000000  0.435827  0.748782  1
  Rh  Rh12  1  0.000000  0.566252  0.251235  1
  Rh  Rh13  1  0.000000  0.999478  0.499826  1
  Rh  Rh14  1  0.000000  0.068635  0.245808  1
  Rh  Rh15  1  0.000000  0.934748  0.754409  1
