# generated using pymatgen
data_Sr8ThPt6
_symmetry_space_group_name_H-M   'P 1'
_cell_length_a   8.12581080
_cell_length_b   8.12581138
_cell_length_c   8.12581164
_cell_angle_alpha   69.39409743
_cell_angle_beta   69.39409661
_cell_angle_gamma   69.39409711
_symmetry_Int_Tables_number   1
_chemical_formula_structural   Sr8ThPt6
_chemical_formula_sum   'Sr8 Th1 Pt6'
_cell_volume   453.87442152
_cell_formula_units_Z   1
loop_
 _symmetry_equiv_pos_site_id
 _symmetry_equiv_pos_as_xyz
  1  'x, y, z'
loop_
 _atom_site_type_symbol
 _atom_site_label
 _atom_site_symmetry_multiplicity
 _atom_site_fract_x
 _atom_site_fract_y
 _atom_site_fract_z
 _atom_site_occupancy
  Sr  Sr0  1  0.005185  0.005185  0.005185  1
  Sr  Sr1  1  0.200069  0.200069  0.200069  1
  Sr  Sr2  1  0.332981  0.607032  0.844709  1
  Sr  Sr3  1  0.844709  0.332981  0.607032  1
  Sr  Sr4  1  0.607032  0.844709  0.332981  1
  Sr  Sr5  1  0.667723  0.393107  0.154217  1
  Sr  Sr6  1  0.154217  0.667723  0.393107  1
  Sr  Sr7  1  0.393107  0.154217  0.667723  1
  Th  Th8  1  0.808520  0.808520  0.808520  1
  Pt  Pt9  1  0.135897  0.949316  0.602617  1
  Pt  Pt10  1  0.602617  0.135897  0.949316  1
  Pt  Pt11  1  0.949316  0.602617  0.135897  1
  Pt  Pt12  1  0.829687  0.029792  0.439148  1
  Pt  Pt13  1  0.439148  0.829687  0.029792  1
  Pt  Pt14  1  0.029792  0.439148  0.829687  1
