# generated using pymatgen
data_Y3TmLu4(CdPt)2
_symmetry_space_group_name_H-M   'P 1'
_cell_length_a   9.57962825
_cell_length_b   9.57962859
_cell_length_c   9.57953600
_cell_angle_alpha   60.00031972
_cell_angle_beta   60.00031854
_cell_angle_gamma   60.01028700
_symmetry_Int_Tables_number   1
_chemical_formula_structural   Y3TmLu4(CdPt)2
_chemical_formula_sum   'Y6 Tm2 Lu8 Cd4 Pt4'
_cell_volume   621.67392327
_cell_formula_units_Z   2
loop_
 _symmetry_equiv_pos_site_id
 _symmetry_equiv_pos_as_xyz
  1  'x, y, z'
loop_
 _atom_site_type_symbol
 _atom_site_label
 _atom_site_symmetry_multiplicity
 _atom_site_fract_x
 _atom_site_fract_y
 _atom_site_fract_z
 _atom_site_occupancy
  Y  Y0  1  0.937392  0.562577  0.562606  1
  Y  Y1  1  0.562577  0.937392  0.937425  1
  Y  Y2  1  0.562577  0.937392  0.562606  1
  Y  Y3  1  0.937392  0.562577  0.937425  1
  Y  Y4  1  0.562860  0.562860  0.937140  1
  Y  Y5  1  0.937717  0.937717  0.562283  1
  Tm  Tm6  1  0.351810  0.351810  0.351476  1
  Tm  Tm7  1  0.351810  0.351810  0.944905  1
  Lu  Lu8  1  0.351923  0.944955  0.351562  1
  Lu  Lu9  1  0.944955  0.351923  0.351562  1
  Lu  Lu10  1  0.812140  0.187957  0.188081  1
  Lu  Lu11  1  0.187957  0.812140  0.811821  1
  Lu  Lu12  1  0.187957  0.812140  0.188081  1
  Lu  Lu13  1  0.812140  0.187957  0.811821  1
  Lu  Lu14  1  0.187992  0.187992  0.812008  1
  Lu  Lu15  1  0.811969  0.811969  0.188031  1
  Cd  Cd16  1  0.581265  0.581265  0.580889  1
  Cd  Cd17  1  0.581265  0.581265  0.256583  1
  Cd  Cd18  1  0.581451  0.256362  0.581094  1
  Cd  Cd19  1  0.256362  0.581451  0.581094  1
  Pt  Pt20  1  0.142092  0.142092  0.143859  1
  Pt  Pt21  1  0.142092  0.142092  0.571956  1
  Pt  Pt22  1  0.141297  0.573010  0.142847  1
  Pt  Pt23  1  0.573010  0.141297  0.142847  1
