# generated using pymatgen
data_ErZr2Sc(Al3Rh)6
_symmetry_space_group_name_H-M   'P 1'
_cell_length_a   7.48609609
_cell_length_b   7.47680428
_cell_length_c   9.31321000
_cell_angle_alpha   90.00000000
_cell_angle_beta   90.00000000
_cell_angle_gamma   119.65494113
_symmetry_Int_Tables_number   1
_chemical_formula_structural   ErZr2Sc(Al3Rh)6
_chemical_formula_sum   'Er1 Zr2 Sc1 Al18 Rh6'
_cell_volume   453.00294027
_cell_formula_units_Z   1
loop_
 _symmetry_equiv_pos_site_id
 _symmetry_equiv_pos_as_xyz
  1  'x, y, z'
loop_
 _atom_site_type_symbol
 _atom_site_label
 _atom_site_symmetry_multiplicity
 _atom_site_fract_x
 _atom_site_fract_y
 _atom_site_fract_z
 _atom_site_occupancy
  Er  Er0  1  0.329435  0.006598  0.250000  1
  Zr  Zr1  1  0.994764  0.671548  0.750000  1
  Zr  Zr2  1  0.004905  0.327920  0.250000  1
  Sc  Sc3  1  0.671547  0.994016  0.750000  1
  Al  Al4  1  0.121591  0.121601  0.750000  1
  Al  Al5  1  0.873752  0.876252  0.250000  1
  Al  Al6  1  0.996422  0.334570  0.578377  1
  Al  Al7  1  0.000778  0.662945  0.425314  1
  Al  Al8  1  0.000778  0.662945  0.074686  1
  Al  Al9  1  0.335307  0.997772  0.918438  1
  Al  Al10  1  0.996422  0.334570  0.921623  1
  Al  Al11  1  0.667367  0.001951  0.075310  1
  Al  Al12  1  0.667367  0.001951  0.424690  1
  Al  Al13  1  0.335307  0.997772  0.581562  1
  Al  Al14  1  0.331078  0.333286  0.054105  1
  Al  Al15  1  0.669139  0.669090  0.941423  1
  Al  Al16  1  0.669139  0.669090  0.558577  1
  Al  Al17  1  0.331078  0.333286  0.445895  1
  Al  Al18  1  0.337166  0.553495  0.750000  1
  Al  Al19  1  0.665174  0.450829  0.250000  1
  Al  Al20  1  0.557442  0.342502  0.750000  1
  Al  Al21  1  0.444507  0.656484  0.250000  1
  Rh  Rh22  1  0.672047  0.327316  0.499336  1
  Rh  Rh23  1  0.327062  0.672765  0.500743  1
  Rh  Rh24  1  0.327062  0.672765  0.999257  1
  Rh  Rh25  1  0.672047  0.327316  0.000664  1
  Rh  Rh26  1  0.000659  0.999682  0.500016  1
  Rh  Rh27  1  0.000659  0.999682  0.999984  1
