# generated using pymatgen
data_Zr6Ti2Al15Os5Ru2
_symmetry_space_group_name_H-M   'P 1'
_cell_length_a   8.84091230
_cell_length_b   8.84091141
_cell_length_c   8.84091110
_cell_angle_alpha   120.06193887
_cell_angle_beta   119.79030695
_cell_angle_gamma   90.12816754
_symmetry_Int_Tables_number   1
_chemical_formula_structural   Zr6Ti2Al15Os5Ru2
_chemical_formula_sum   'Zr6 Ti2 Al15 Os5 Ru2'
_cell_volume   489.16639259
_cell_formula_units_Z   1
loop_
 _symmetry_equiv_pos_site_id
 _symmetry_equiv_pos_as_xyz
  1  'x, y, z'
loop_
 _atom_site_type_symbol
 _atom_site_label
 _atom_site_symmetry_multiplicity
 _atom_site_fract_x
 _atom_site_fract_y
 _atom_site_fract_z
 _atom_site_occupancy
  Zr  Zr0  1  0.788153  0.286075  0.067861  1
  Zr  Zr1  1  0.218214  0.286075  0.497924  1
  Zr  Zr2  1  0.212979  0.712979  0.500000  1
  Zr  Zr3  1  0.218214  0.720290  0.932139  1
  Zr  Zr4  1  0.788153  0.720290  0.502076  1
  Zr  Zr5  1  0.779149  0.279149  0.500000  1
  Ti  Ti6  1  0.378532  0.120734  0.742203  1
  Ti  Ti7  1  0.378532  0.636328  0.257797  1
  Al  Al8  1  0.995226  0.495226  0.500000  1
  Al  Al9  1  0.162591  0.336991  0.174398  1
  Al  Al10  1  0.162591  0.988192  0.825602  1
  Al  Al11  1  0.160082  0.339423  0.820661  1
  Al  Al12  1  0.518760  0.339423  0.179339  1
  Al  Al13  1  0.840734  0.661182  0.820449  1
  Al  Al14  1  0.840734  0.020286  0.179551  1
  Al  Al15  1  0.836991  0.661720  0.175270  1
  Al  Al16  1  0.486450  0.661720  0.824730  1
  Al  Al17  1  0.378901  0.120868  0.258034  1
  Al  Al18  1  0.862836  0.120868  0.741966  1
  Al  Al19  1  0.619342  0.875386  0.256045  1
  Al  Al20  1  0.619342  0.363297  0.743955  1
  Al  Al21  1  0.619385  0.878482  0.740903  1
  Al  Al22  1  0.137577  0.878482  0.259097  1
  Os  Os23  1  0.000335  0.999387  0.500752  1
  Os  Os24  1  0.498635  0.999387  0.999053  1
  Os  Os25  1  0.498827  0.498827  0.000000  1
  Os  Os26  1  0.498635  0.499582  0.499248  1
  Os  Os27  1  0.000335  0.499582  0.000947  1
  Ru  Ru28  1  0.001355  0.001355  0.000000  1
  Ru  Ru29  1  0.498405  0.998405  0.500000  1
