# generated using pymatgen
data_TiCu14WSe16
_symmetry_space_group_name_H-M   'P 1'
_cell_length_a   7.85051600
_cell_length_b   7.85051465
_cell_length_c   12.89553600
_cell_angle_alpha   89.99998501
_cell_angle_beta   90.00000000
_cell_angle_gamma   120.00006745
_symmetry_Int_Tables_number   1
_chemical_formula_structural   TiCu14WSe16
_chemical_formula_sum   'Ti1 Cu14 W1 Se16'
_cell_volume   688.28145202
_cell_formula_units_Z   1
loop_
 _symmetry_equiv_pos_site_id
 _symmetry_equiv_pos_as_xyz
  1  'x, y, z'
loop_
 _atom_site_type_symbol
 _atom_site_label
 _atom_site_symmetry_multiplicity
 _atom_site_fract_x
 _atom_site_fract_y
 _atom_site_fract_z
 _atom_site_occupancy
  Ti  Ti0  1  0.333333  0.666667  0.479723  1
  Cu  Cu1  1  0.837180  0.674360  0.105839  1
  Cu  Cu2  1  0.503271  0.496729  0.352724  1
  Cu  Cu3  1  0.006675  0.503338  0.852534  1
  Cu  Cu4  1  0.837180  0.162820  0.105839  1
  Cu  Cu5  1  0.496662  0.503338  0.852534  1
  Cu  Cu6  1  0.162351  0.324701  0.605617  1
  Cu  Cu7  1  0.503272  0.006542  0.352724  1
  Cu  Cu8  1  0.993459  0.496729  0.352724  1
  Cu  Cu9  1  0.162351  0.837649  0.605617  1
  Cu  Cu10  1  0.496662  0.993325  0.852534  1
  Cu  Cu11  1  0.675299  0.837649  0.605617  1
  Cu  Cu12  1  0.325640  0.162820  0.105839  1
  Cu  Cu13  1  0.000000  0.000000  0.854232  1
  Cu  Cu14  1  0.000000  0.000000  0.353661  1
  W  W15  1  0.666667  0.333333  0.979529  1
  Se  Se16  1  0.000000  0.000000  0.038484  1
  Se  Se17  1  0.332422  0.166211  0.290867  1
  Se  Se18  1  0.833789  0.166211  0.290867  1
  Se  Se19  1  0.996001  0.498001  0.541877  1
  Se  Se20  1  0.833789  0.667579  0.290867  1
  Se  Se21  1  0.666667  0.333333  0.793043  1
  Se  Se22  1  0.165284  0.330567  0.790505  1
  Se  Se23  1  0.501999  0.498001  0.541877  1
  Se  Se24  1  0.000000  0.000000  0.538792  1
  Se  Se25  1  0.333333  0.666667  0.290988  1
  Se  Se26  1  0.001258  0.500628  0.041220  1
  Se  Se27  1  0.501999  0.003999  0.541877  1
  Se  Se28  1  0.165284  0.834716  0.790505  1
  Se  Se29  1  0.669433  0.834716  0.790505  1
  Se  Se30  1  0.499372  0.998742  0.041220  1
  Se  Se31  1  0.499372  0.500628  0.041220  1
