# generated using pymatgen
data_Zr8Fe9Si16Os3
_symmetry_space_group_name_H-M   'P 1'
_cell_length_a   9.70630855
_cell_length_b   9.69798493
_cell_length_c   12.99742810
_cell_angle_alpha   53.49811067
_cell_angle_beta   53.53232640
_cell_angle_gamma   31.32296775
_symmetry_Int_Tables_number   1
_chemical_formula_structural   Zr8Fe9Si16Os3
_chemical_formula_sum   'Zr8 Fe9 Si16 Os3'
_cell_volume   500.26790130
_cell_formula_units_Z   1
loop_
 _symmetry_equiv_pos_site_id
 _symmetry_equiv_pos_as_xyz
  1  'x, y, z'
loop_
 _atom_site_type_symbol
 _atom_site_label
 _atom_site_symmetry_multiplicity
 _atom_site_fract_x
 _atom_site_fract_y
 _atom_site_fract_z
 _atom_site_occupancy
  Zr  Zr0  1  0.041522  0.289237  0.639837  1
  Zr  Zr1  1  0.707548  0.958872  0.860561  1
  Zr  Zr2  1  0.957861  0.707365  0.361113  1
  Zr  Zr3  1  0.292774  0.043042  0.138766  1
  Zr  Zr4  1  0.299475  0.558918  0.644340  1
  Zr  Zr5  1  0.440693  0.698227  0.857675  1
  Zr  Zr6  1  0.702386  0.441973  0.354178  1
  Zr  Zr7  1  0.560175  0.297488  0.144970  1
  Fe  Fe8  1  0.910416  0.134570  0.585712  1
  Fe  Fe9  1  0.875991  0.081956  0.916314  1
  Fe  Fe10  1  0.089783  0.865343  0.415548  1
  Fe  Fe11  1  0.136069  0.908570  0.083876  1
  Fe  Fe12  1  0.826973  0.648116  0.777743  1
  Fe  Fe13  1  0.352171  0.172983  0.722766  1
  Fe  Fe14  1  0.174567  0.351664  0.221302  1
  Fe  Fe15  1  0.648959  0.828240  0.274662  1
  Fe  Fe16  1  0.227657  0.523082  0.936422  1
  Si  Si17  1  0.969632  0.253682  0.894799  1
  Si  Si18  1  0.747444  0.030939  0.604968  1
  Si  Si19  1  0.031250  0.744357  0.103646  1
  Si  Si20  1  0.254714  0.966782  0.395710  1
  Si  Si21  1  0.140867  0.393003  0.891245  1
  Si  Si22  1  0.610668  0.857876  0.610996  1
  Si  Si23  1  0.865650  0.613317  0.105468  1
  Si  Si24  1  0.389752  0.138080  0.390718  1
  Si  Si25  1  0.080750  0.577645  0.569458  1
  Si  Si26  1  0.420258  0.920783  0.930463  1
  Si  Si27  1  0.918376  0.422101  0.430422  1
  Si  Si28  1  0.568518  0.098820  0.061913  1
  Si  Si29  1  0.621562  0.369161  0.757722  1
  Si  Si30  1  0.370221  0.629783  0.250110  1
  Si  Si31  1  0.119526  0.873748  0.754533  1
  Si  Si32  1  0.884647  0.116004  0.249566  1
  Os  Os33  1  0.486227  0.758168  0.563041  1
  Os  Os34  1  0.759878  0.487823  0.061568  1
  Os  Os35  1  0.515040  0.238283  0.437866  1
