# generated using pymatgen
data_TbTc4Sb3F28
_symmetry_space_group_name_H-M   'P 1'
_cell_length_a   5.60808920
_cell_length_b   8.93662800
_cell_length_c   12.08287900
_cell_angle_alpha   62.62485557
_cell_angle_beta   90.01534538
_cell_angle_gamma   89.99600929
_symmetry_Int_Tables_number   1
_chemical_formula_structural   TbTc4Sb3F28
_chemical_formula_sum   'Tb1 Tc4 Sb3 F28'
_cell_volume   537.74857295
_cell_formula_units_Z   1
loop_
 _symmetry_equiv_pos_site_id
 _symmetry_equiv_pos_as_xyz
  1  'x, y, z'
loop_
 _atom_site_type_symbol
 _atom_site_label
 _atom_site_symmetry_multiplicity
 _atom_site_fract_x
 _atom_site_fract_y
 _atom_site_fract_z
 _atom_site_occupancy
  Tb  Tb0  1  0.240263  0.807918  0.763750  1
  Tc  Tc1  1  0.757229  0.727039  0.040638  1
  Tc  Tc2  1  0.240975  0.273689  0.958359  1
  Tc  Tc3  1  0.262955  0.270561  0.458408  1
  Tc  Tc4  1  0.739329  0.728517  0.541809  1
  Sb  Sb5  1  0.264011  0.822691  0.259163  1
  Sb  Sb6  1  0.732671  0.171289  0.744717  1
  Sb  Sb7  1  0.759825  0.181712  0.245430  1
  F  F8  1  0.932392  0.704962  0.417457  1
  F  F9  1  0.072943  0.297350  0.580682  1
  F  F10  1  0.432845  0.298507  0.083227  1
  F  F11  1  0.556088  0.706561  0.914879  1
  F  F12  1  0.470533  0.732241  0.130260  1
  F  F13  1  0.530926  0.270114  0.868134  1
  F  F14  1  0.972788  0.271061  0.363460  1
  F  F15  1  0.022481  0.731346  0.637759  1
  F  F16  1  0.945975  0.753243  0.168011  1
  F  F17  1  0.057397  0.246569  0.829536  1
  F  F18  1  0.451856  0.243791  0.326501  1
  F  F19  1  0.548324  0.753214  0.670892  1
  F  F20  1  0.774319  0.485552  0.140932  1
  F  F21  1  0.225147  0.519757  0.856057  1
  F  F22  1  0.285260  0.512269  0.356758  1
  F  F23  1  0.718697  0.489499  0.640473  1
  F  F24  1  0.945459  0.277882  0.042818  1
  F  F25  1  0.051196  0.723318  0.951131  1
  F  F26  1  0.440957  0.728558  0.455075  1
  F  F27  1  0.561250  0.270357  0.543493  1
  F  F28  1  0.746128  0.981026  0.441526  1
  F  F29  1  0.253579  0.022947  0.558535  1
  F  F30  1  0.245092  0.024225  0.057996  1
  F  F31  1  0.755986  0.978133  0.942877  1
  F  F32  1  0.585386  0.971391  0.231472  1
  F  F33  1  0.418744  0.027508  0.772319  1
  F  F34  1  0.096246  0.024285  0.272947  1
  F  F35  1  0.904746  0.970921  0.732520  1
