# generated using pymatgen
data_Nd6Sb7AsPd16
_symmetry_space_group_name_H-M   'P 1'
_cell_length_a   9.46611469
_cell_length_b   9.46611431
_cell_length_c   9.46611400
_cell_angle_alpha   60.00000108
_cell_angle_beta   60.00000242
_cell_angle_gamma   60.00000027
_symmetry_Int_Tables_number   1
_chemical_formula_structural   Nd6Sb7AsPd16
_chemical_formula_sum   'Nd6 Sb7 As1 Pd16'
_cell_volume   599.79142378
_cell_formula_units_Z   1
loop_
 _symmetry_equiv_pos_site_id
 _symmetry_equiv_pos_as_xyz
  1  'x, y, z'
loop_
 _atom_site_type_symbol
 _atom_site_label
 _atom_site_symmetry_multiplicity
 _atom_site_fract_x
 _atom_site_fract_y
 _atom_site_fract_z
 _atom_site_occupancy
  Nd  Nd0  1  0.718604  0.281396  0.281396  1
  Nd  Nd1  1  0.281396  0.718604  0.718604  1
  Nd  Nd2  1  0.281396  0.718604  0.281396  1
  Nd  Nd3  1  0.718604  0.281396  0.718604  1
  Nd  Nd4  1  0.281396  0.281396  0.718604  1
  Nd  Nd5  1  0.718604  0.718604  0.281396  1
  Sb  Sb6  1  0.000000  0.000000  0.000000  1
  Sb  Sb7  1  0.500000  0.000000  0.000000  1
  Sb  Sb8  1  0.000000  0.500000  0.500000  1
  Sb  Sb9  1  0.000000  0.500000  0.000000  1
  Sb  Sb10  1  0.500000  0.000000  0.500000  1
  Sb  Sb11  1  0.000000  0.000000  0.500000  1
  Sb  Sb12  1  0.500000  0.500000  0.000000  1
  As  As13  1  0.500000  0.500000  0.500000  1
  Pd  Pd14  1  0.118959  0.118959  0.118959  1
  Pd  Pd15  1  0.881041  0.881041  0.881041  1
  Pd  Pd16  1  0.118959  0.118959  0.643121  1
  Pd  Pd17  1  0.118959  0.643121  0.118959  1
  Pd  Pd18  1  0.881041  0.881041  0.356879  1
  Pd  Pd19  1  0.881041  0.356879  0.881041  1
  Pd  Pd20  1  0.643121  0.118959  0.118959  1
  Pd  Pd21  1  0.356879  0.881041  0.881041  1
  Pd  Pd22  1  0.330836  0.330836  0.330836  1
  Pd  Pd23  1  0.669164  0.669164  0.669164  1
  Pd  Pd24  1  0.330836  0.330836  0.007493  1
  Pd  Pd25  1  0.330836  0.007493  0.330836  1
  Pd  Pd26  1  0.669164  0.669164  0.992507  1
  Pd  Pd27  1  0.669164  0.992507  0.669164  1
  Pd  Pd28  1  0.007493  0.330836  0.330836  1
  Pd  Pd29  1  0.992507  0.669164  0.669164  1
