# generated using pymatgen
data_Ta3MnB3Ru2
_symmetry_space_group_name_H-M   'P 1'
_cell_length_a   3.13979700
_cell_length_b   6.31655200
_cell_length_c   10.79393600
_cell_angle_alpha   90.00000000
_cell_angle_beta   90.00000000
_cell_angle_gamma   90.00000000
_symmetry_Int_Tables_number   1
_chemical_formula_structural   Ta3MnB3Ru2
_chemical_formula_sum   'Ta6 Mn2 B6 Ru4'
_cell_volume   214.07279758
_cell_formula_units_Z   2
loop_
 _symmetry_equiv_pos_site_id
 _symmetry_equiv_pos_as_xyz
  1  'x, y, z'
loop_
 _atom_site_type_symbol
 _atom_site_label
 _atom_site_symmetry_multiplicity
 _atom_site_fract_x
 _atom_site_fract_y
 _atom_site_fract_z
 _atom_site_occupancy
  Ta  Ta0  1  0.000000  0.223829  0.951199  1
  Ta  Ta1  1  0.000000  0.776171  0.048801  1
  Ta  Ta2  1  0.000000  0.223829  0.548801  1
  Ta  Ta3  1  0.000000  0.776171  0.451199  1
  Ta  Ta4  1  0.000000  0.137158  0.250000  1
  Ta  Ta5  1  0.000000  0.862842  0.750000  1
  Mn  Mn6  1  0.500000  0.799537  0.250000  1
  Mn  Mn7  1  0.500000  0.200463  0.750000  1
  B  B8  1  0.500000  0.048020  0.085648  1
  B  B9  1  0.500000  0.951980  0.914352  1
  B  B10  1  0.500000  0.048020  0.414352  1
  B  B11  1  0.500000  0.951980  0.585648  1
  B  B12  1  0.000000  0.562509  0.250000  1
  B  B13  1  0.000000  0.437491  0.750000  1
  Ru  Ru14  1  0.500000  0.426613  0.124344  1
  Ru  Ru15  1  0.500000  0.573387  0.875656  1
  Ru  Ru16  1  0.500000  0.426613  0.375656  1
  Ru  Ru17  1  0.500000  0.573387  0.624344  1
