# generated using pymatgen
data_Nb2Fe3P7Ru9
_symmetry_space_group_name_H-M   'P 1'
_cell_length_a   9.20106800
_cell_length_b   9.20106832
_cell_length_c   3.78430400
_cell_angle_alpha   90.00000000
_cell_angle_beta   90.00000000
_cell_angle_gamma   119.99999885
_symmetry_Int_Tables_number   1
_chemical_formula_structural   Nb2Fe3P7Ru9
_chemical_formula_sum   'Nb2 Fe3 P7 Ru9'
_cell_volume   277.45537931
_cell_formula_units_Z   1
loop_
 _symmetry_equiv_pos_site_id
 _symmetry_equiv_pos_as_xyz
  1  'x, y, z'
loop_
 _atom_site_type_symbol
 _atom_site_label
 _atom_site_symmetry_multiplicity
 _atom_site_fract_x
 _atom_site_fract_y
 _atom_site_fract_z
 _atom_site_occupancy
  Nb  Nb0  1  0.000000  0.000000  0.000000  1
  Nb  Nb1  1  0.333333  0.666667  0.500000  1
  Fe  Fe2  1  0.825205  0.608355  0.000000  1
  Fe  Fe3  1  0.783150  0.174795  0.000000  1
  Fe  Fe4  1  0.391645  0.216850  0.000000  1
  P  P5  1  0.078123  0.635318  0.000000  1
  P  P6  1  0.557194  0.921877  0.000000  1
  P  P7  1  0.364682  0.442806  0.000000  1
  P  P8  1  0.787264  0.734194  0.500000  1
  P  P9  1  0.946930  0.212736  0.500000  1
  P  P10  1  0.265806  0.053070  0.500000  1
  P  P11  1  0.666667  0.333333  0.000000  1
  Ru  Ru12  1  0.099679  0.404749  0.000000  1
  Ru  Ru13  1  0.305070  0.900321  0.000000  1
  Ru  Ru14  1  0.595251  0.694930  0.000000  1
  Ru  Ru15  1  0.053991  0.779961  0.500000  1
  Ru  Ru16  1  0.725971  0.946009  0.500000  1
  Ru  Ru17  1  0.220039  0.274029  0.500000  1
  Ru  Ru18  1  0.878870  0.423754  0.500000  1
  Ru  Ru19  1  0.544885  0.121130  0.500000  1
  Ru  Ru20  1  0.576246  0.455115  0.500000  1
