# generated using pymatgen
data_La6Nd4PdRu3
_symmetry_space_group_name_H-M   'P 1'
_cell_length_a   9.18318035
_cell_length_b   9.23225444
_cell_length_c   7.37099180
_cell_angle_alpha   84.65555218
_cell_angle_beta   84.51046587
_cell_angle_gamma   42.37719268
_symmetry_Int_Tables_number   1
_chemical_formula_structural   La6Nd4PdRu3
_chemical_formula_sum   'La6 Nd4 Pd1 Ru3'
_cell_volume   419.03656864
_cell_formula_units_Z   1
loop_
 _symmetry_equiv_pos_site_id
 _symmetry_equiv_pos_as_xyz
  1  'x, y, z'
loop_
 _atom_site_type_symbol
 _atom_site_label
 _atom_site_symmetry_multiplicity
 _atom_site_fract_x
 _atom_site_fract_y
 _atom_site_fract_z
 _atom_site_occupancy
  La  La0  1  0.005353  0.810375  0.927964  1
  La  La1  1  0.197579  0.990415  0.591074  1
  La  La2  1  0.989245  0.197206  0.092322  1
  La  La3  1  0.784587  0.029729  0.404787  1
  La  La4  1  0.370436  0.199447  0.821074  1
  La  La5  1  0.782195  0.636967  0.682574  1
  Nd  Nd6  1  0.644329  0.785413  0.188508  1
  Nd  Nd7  1  0.210043  0.352999  0.309207  1
  Nd  Nd8  1  0.571930  0.429184  0.751013  1
  Nd  Nd9  1  0.427669  0.579650  0.242124  1
  Pd  Pd10  1  0.185416  0.594377  0.572069  1
  Ru  Ru11  1  0.399216  0.827941  0.913647  1
  Ru  Ru12  1  0.829555  0.395334  0.424930  1
  Ru  Ru13  1  0.602450  0.170964  0.078707  1
