# generated using pymatgen
data_YTmCo9P6Os
_symmetry_space_group_name_H-M   'P 1'
_cell_length_a   3.68160300
_cell_length_b   10.33664300
_cell_length_c   11.74206700
_cell_angle_alpha   90.00000000
_cell_angle_beta   90.00000000
_cell_angle_gamma   90.00000000
_symmetry_Int_Tables_number   1
_chemical_formula_structural   YTmCo9P6Os
_chemical_formula_sum   'Y2 Tm2 Co18 P12 Os2'
_cell_volume   446.84924296
_cell_formula_units_Z   2
loop_
 _symmetry_equiv_pos_site_id
 _symmetry_equiv_pos_as_xyz
  1  'x, y, z'
loop_
 _atom_site_type_symbol
 _atom_site_label
 _atom_site_symmetry_multiplicity
 _atom_site_fract_x
 _atom_site_fract_y
 _atom_site_fract_z
 _atom_site_occupancy
  Y  Y0  1  0.250000  0.582449  0.702145  1
  Y  Y1  1  0.250000  0.917551  0.202145  1
  Tm  Tm2  1  0.750000  0.413697  0.295331  1
  Tm  Tm3  1  0.750000  0.086303  0.795331  1
  Co  Co4  1  0.750000  0.282878  0.008616  1
  Co  Co5  1  0.750000  0.217122  0.508616  1
  Co  Co6  1  0.250000  0.406288  0.487053  1
  Co  Co7  1  0.250000  0.093712  0.987053  1
  Co  Co8  1  0.750000  0.591416  0.509596  1
  Co  Co9  1  0.750000  0.908584  0.009596  1
  Co  Co10  1  0.250000  0.220983  0.177079  1
  Co  Co11  1  0.250000  0.279017  0.677079  1
  Co  Co12  1  0.750000  0.777786  0.822881  1
  Co  Co13  1  0.750000  0.722214  0.322881  1
  Co  Co14  1  0.250000  0.888112  0.702108  1
  Co  Co15  1  0.250000  0.611888  0.202108  1
  Co  Co16  1  0.750000  0.116735  0.301250  1
  Co  Co17  1  0.750000  0.383265  0.801250  1
  Co  Co18  1  0.250000  0.464600  0.933063  1
  Co  Co19  1  0.250000  0.035400  0.433063  1
  Co  Co20  1  0.750000  0.533208  0.069209  1
  Co  Co21  1  0.750000  0.966792  0.569209  1
  P  P22  1  0.250000  0.416411  0.112962  1
  P  P23  1  0.250000  0.083589  0.612962  1
  P  P24  1  0.750000  0.578289  0.886980  1
  P  P25  1  0.750000  0.921711  0.386980  1
  P  P26  1  0.250000  0.269542  0.869201  1
  P  P27  1  0.250000  0.230458  0.369201  1
  P  P28  1  0.750000  0.729057  0.132271  1
  P  P29  1  0.750000  0.770943  0.632271  1
  P  P30  1  0.250000  0.593199  0.389846  1
  P  P31  1  0.250000  0.906801  0.889846  1
  P  P32  1  0.750000  0.397130  0.608644  1
  P  P33  1  0.750000  0.102870  0.108644  1
  Os  Os34  1  0.250000  0.715608  0.991764  1
  Os  Os35  1  0.250000  0.784392  0.491764  1
