# generated using pymatgen
data_Ho4Si10(OsPt)3
_symmetry_space_group_name_H-M   'P 1'
_cell_length_a   8.14827358
_cell_length_b   8.14795827
_cell_length_c   8.14795788
_cell_angle_alpha   137.52222484
_cell_angle_beta   104.88187337
_cell_angle_gamma   90.32220377
_symmetry_Int_Tables_number   1
_chemical_formula_structural   Ho4Si10(OsPt)3
_chemical_formula_sum   'Ho4 Si10 Os3 Pt3'
_cell_volume   336.92299725
_cell_formula_units_Z   1
loop_
 _symmetry_equiv_pos_site_id
 _symmetry_equiv_pos_as_xyz
  1  'x, y, z'
loop_
 _atom_site_type_symbol
 _atom_site_label
 _atom_site_symmetry_multiplicity
 _atom_site_fract_x
 _atom_site_fract_y
 _atom_site_fract_z
 _atom_site_occupancy
  Ho  Ho0  1  0.865017  0.629499  0.235518  1
  Ho  Ho1  1  0.139167  0.370628  0.768539  1
  Ho  Ho2  1  0.397179  0.131056  0.266123  1
  Ho  Ho3  1  0.602408  0.870575  0.731834  1
  Si  Si4  1  0.495202  0.753339  0.253585  1
  Si  Si5  1  0.495202  0.241617  0.741863  1
  Si  Si6  1  0.220287  0.973185  0.744942  1
  Si  Si7  1  0.776727  0.523993  0.746541  1
  Si  Si8  1  0.776727  0.030186  0.252733  1
  Si  Si9  1  0.220287  0.475345  0.247102  1
  Si  Si10  1  0.054377  0.898271  0.156106  1
  Si  Si11  1  0.954613  0.104189  0.850424  1
  Si  Si12  1  0.745113  0.395027  0.350086  1
  Si  Si13  1  0.254731  0.603893  0.650839  1
  Os  Os14  1  0.999293  0.750154  0.750752  1
  Os  Os15  1  0.999293  0.248541  0.249139  1
  Os  Os16  1  0.245375  0.859734  0.385642  1
  Pt  Pt17  1  0.754532  0.139523  0.615007  1
  Pt  Pt18  1  0.475587  0.359959  0.115627  1
  Pt  Pt19  1  0.528886  0.641286  0.887601  1
