# generated using pymatgen
data_Tb4Y4Tc3OsC8
_symmetry_space_group_name_H-M   'P 1'
_cell_length_a   5.12985200
_cell_length_b   6.56719098
_cell_length_c   9.87569003
_cell_angle_alpha   89.82532809
_cell_angle_beta   90.00000000
_cell_angle_gamma   90.00000000
_symmetry_Int_Tables_number   1
_chemical_formula_structural   Tb4Y4Tc3OsC8
_chemical_formula_sum   'Tb4 Y4 Tc3 Os1 C8'
_cell_volume   332.69778831
_cell_formula_units_Z   1
loop_
 _symmetry_equiv_pos_site_id
 _symmetry_equiv_pos_as_xyz
  1  'x, y, z'
loop_
 _atom_site_type_symbol
 _atom_site_label
 _atom_site_symmetry_multiplicity
 _atom_site_fract_x
 _atom_site_fract_y
 _atom_site_fract_z
 _atom_site_occupancy
  Tb  Tb0  1  0.750000  0.320608  0.444034  1
  Tb  Tb1  1  0.750000  0.821386  0.056249  1
  Tb  Tb2  1  0.750000  0.467500  0.785287  1
  Tb  Tb3  1  0.750000  0.969562  0.712803  1
  Y  Y4  1  0.250000  0.677716  0.556280  1
  Y  Y5  1  0.250000  0.177700  0.943688  1
  Y  Y6  1  0.250000  0.531147  0.215648  1
  Y  Y7  1  0.250000  0.030992  0.285093  1
  Tc  Tc8  1  0.250000  0.721468  0.864371  1
  Tc  Tc9  1  0.750000  0.279250  0.134633  1
  Tc  Tc10  1  0.750000  0.778359  0.365425  1
  Os  Os11  1  0.250000  0.221617  0.635730  1
  C  C12  1  0.250000  0.454085  0.758293  1
  C  C13  1  0.750000  0.546029  0.241444  1
  C  C14  1  0.750000  0.046114  0.259147  1
  C  C15  1  0.250000  0.955741  0.741121  1
  C  C16  1  0.250000  0.821076  0.047502  1
  C  C17  1  0.750000  0.179209  0.951525  1
  C  C18  1  0.750000  0.678775  0.549240  1
  C  C19  1  0.250000  0.321667  0.452487  1
