# generated using pymatgen
data_K5Fe3F14
_symmetry_space_group_name_H-M   'P 1'
_cell_length_a   7.78491800
_cell_length_b   7.78491800
_cell_length_c   11.93086500
_cell_angle_alpha   90.00000000
_cell_angle_beta   90.00000000
_cell_angle_gamma   90.00000000
_symmetry_Int_Tables_number   1
_chemical_formula_structural   K5Fe3F14
_chemical_formula_sum   'K10 Fe6 F28'
_cell_volume   723.06945610
_cell_formula_units_Z   2
loop_
 _symmetry_equiv_pos_site_id
 _symmetry_equiv_pos_as_xyz
  1  'x, y, z'
loop_
 _atom_site_type_symbol
 _atom_site_label
 _atom_site_symmetry_multiplicity
 _atom_site_fract_x
 _atom_site_fract_y
 _atom_site_fract_z
 _atom_site_occupancy
  K  K0  1  0.218673  0.281327  0.750000  1
  K  K1  1  0.718673  0.218673  0.750000  1
  K  K2  1  0.281327  0.781327  0.750000  1
  K  K3  1  0.781327  0.718673  0.750000  1
  K  K4  1  0.781327  0.718673  0.250000  1
  K  K5  1  0.281327  0.781327  0.250000  1
  K  K6  1  0.718673  0.218673  0.250000  1
  K  K7  1  0.218673  0.281327  0.250000  1
  K  K8  1  0.000000  0.000000  0.000000  1
  K  K9  1  0.500000  0.500000  0.500000  1
  Fe  Fe10  1  0.500000  0.500000  0.000000  1
  Fe  Fe11  1  0.000000  0.000000  0.500000  1
  Fe  Fe12  1  0.500000  0.000000  0.000000  1
  Fe  Fe13  1  0.000000  0.500000  0.000000  1
  Fe  Fe14  1  0.000000  0.500000  0.500000  1
  Fe  Fe15  1  0.500000  0.000000  0.500000  1
  F  F16  1  0.500000  0.500000  0.836926  1
  F  F17  1  0.000000  0.000000  0.663074  1
  F  F18  1  0.500000  0.500000  0.163074  1
  F  F19  1  0.000000  0.000000  0.336926  1
  F  F20  1  0.435513  0.747467  0.000000  1
  F  F21  1  0.564487  0.252533  0.000000  1
  F  F22  1  0.247467  0.935513  0.500000  1
  F  F23  1  0.747467  0.564487  0.000000  1
  F  F24  1  0.252533  0.435513  0.000000  1
  F  F25  1  0.064487  0.247467  0.500000  1
  F  F26  1  0.935513  0.752533  0.500000  1
  F  F27  1  0.752533  0.064487  0.500000  1
  F  F28  1  0.674141  0.960254  0.886330  1
  F  F29  1  0.325859  0.039746  0.886330  1
  F  F30  1  0.460254  0.174141  0.613670  1
  F  F31  1  0.960254  0.325859  0.886330  1
  F  F32  1  0.460254  0.174141  0.386330  1
  F  F33  1  0.825859  0.460254  0.386330  1
  F  F34  1  0.174141  0.539746  0.386330  1
  F  F35  1  0.960254  0.325859  0.113670  1
  F  F36  1  0.039746  0.674141  0.113670  1
  F  F37  1  0.539746  0.825859  0.386330  1
  F  F38  1  0.674141  0.960254  0.113670  1
  F  F39  1  0.325859  0.039746  0.113670  1
  F  F40  1  0.539746  0.825859  0.613670  1
  F  F41  1  0.174141  0.539746  0.613670  1
  F  F42  1  0.825859  0.460254  0.613670  1
  F  F43  1  0.039746  0.674141  0.886330  1
