# generated using pymatgen
data_K8SiGeAu16
_symmetry_space_group_name_H-M   'P 1'
_cell_length_a   10.86971396
_cell_length_b   10.86971475
_cell_length_c   10.33910202
_cell_angle_alpha   77.05591222
_cell_angle_beta   77.05590997
_cell_angle_gamma   35.92192136
_symmetry_Int_Tables_number   1
_chemical_formula_structural   K8SiGeAu16
_chemical_formula_sum   'K8 Si1 Ge1 Au16'
_cell_volume   696.52191286
_cell_formula_units_Z   1
loop_
 _symmetry_equiv_pos_site_id
 _symmetry_equiv_pos_as_xyz
  1  'x, y, z'
loop_
 _atom_site_type_symbol
 _atom_site_label
 _atom_site_symmetry_multiplicity
 _atom_site_fract_x
 _atom_site_fract_y
 _atom_site_fract_z
 _atom_site_occupancy
  K  K0  1  0.479878  0.479878  0.841159  1
  K  K1  1  0.520084  0.520084  0.158898  1
  K  K2  1  0.283577  0.283577  0.916725  1
  K  K3  1  0.716559  0.716559  0.083299  1
  K  K4  1  0.221204  0.221204  0.600905  1
  K  K5  1  0.778910  0.778910  0.399083  1
  K  K6  1  0.040562  0.040562  0.646411  1
  K  K7  1  0.959263  0.959263  0.353657  1
  Si  Si8  1  0.335839  0.335839  0.226936  1
  Ge  Ge9  1  0.664642  0.664642  0.771651  1
  Au  Au10  1  0.786783  0.786783  0.732851  1
  Au  Au11  1  0.217462  0.217462  0.265753  1
  Au  Au12  1  0.621037  0.621037  0.571232  1
  Au  Au13  1  0.378042  0.378042  0.421532  1
  Au  Au14  1  0.499671  0.499671  0.498002  1
  Au  Au15  1  0.998629  0.998629  0.001413  1
  Au  Au16  1  0.109593  0.109593  0.144273  1
  Au  Au17  1  0.891063  0.891063  0.858984  1
  Au  Au18  1  0.845812  0.373453  0.356593  1
  Au  Au19  1  0.622393  0.159192  0.641641  1
  Au  Au20  1  0.159192  0.622393  0.641641  1
  Au  Au21  1  0.373453  0.845812  0.356593  1
  Au  Au22  1  0.092347  0.665593  0.099009  1
  Au  Au23  1  0.327776  0.910636  0.906375  1
  Au  Au24  1  0.910636  0.327776  0.906375  1
  Au  Au25  1  0.665593  0.092347  0.099009  1
