# generated using pymatgen
data_DyY(SiAu2)4
_symmetry_space_group_name_H-M   'P 1'
_cell_length_a   4.41082500
_cell_length_b   4.41199500
_cell_length_c   27.16950900
_cell_angle_alpha   90.00000000
_cell_angle_beta   90.00000000
_cell_angle_gamma   90.00000000
_symmetry_Int_Tables_number   1
_chemical_formula_structural   DyY(SiAu2)4
_chemical_formula_sum   'Dy2 Y2 Si8 Au16'
_cell_volume   528.73325815
_cell_formula_units_Z   2
loop_
 _symmetry_equiv_pos_site_id
 _symmetry_equiv_pos_as_xyz
  1  'x, y, z'
loop_
 _atom_site_type_symbol
 _atom_site_label
 _atom_site_symmetry_multiplicity
 _atom_site_fract_x
 _atom_site_fract_y
 _atom_site_fract_z
 _atom_site_occupancy
  Dy  Dy0  1  0.000000  0.500000  0.749571  1
  Dy  Dy1  1  0.500000  0.500000  0.000104  1
  Y  Y2  1  0.500000  0.000000  0.250420  1
  Y  Y3  1  0.500000  0.500000  0.499913  1
  Si  Si4  1  0.000000  0.000000  0.957028  1
  Si  Si5  1  0.000000  0.000000  0.456911  1
  Si  Si6  1  0.500000  0.000000  0.792653  1
  Si  Si7  1  0.500000  0.000000  0.706292  1
  Si  Si8  1  0.000000  0.500000  0.207390  1
  Si  Si9  1  0.000000  0.500000  0.293664  1
  Si  Si10  1  0.000000  0.000000  0.043231  1
  Si  Si11  1  0.000000  0.000000  0.542809  1
  Au  Au12  1  0.500000  0.000000  0.086463  1
  Au  Au13  1  0.500000  0.500000  0.662904  1
  Au  Au14  1  0.500000  0.500000  0.836122  1
  Au  Au15  1  0.000000  0.500000  0.085659  1
  Au  Au16  1  0.500000  0.000000  0.914640  1
  Au  Au17  1  0.000000  0.000000  0.664047  1
  Au  Au18  1  0.000000  0.500000  0.415036  1
  Au  Au19  1  0.500000  0.500000  0.336736  1
  Au  Au20  1  0.500000  0.000000  0.414348  1
  Au  Au21  1  0.000000  0.000000  0.335579  1
  Au  Au22  1  0.000000  0.000000  0.165474  1
  Au  Au23  1  0.500000  0.000000  0.584696  1
  Au  Au24  1  0.000000  0.000000  0.834880  1
  Au  Au25  1  0.500000  0.500000  0.164188  1
  Au  Au26  1  0.000000  0.500000  0.585358  1
  Au  Au27  1  0.000000  0.500000  0.913880  1
