# generated using pymatgen
data_Mn5Cu2Pd9
_symmetry_space_group_name_H-M   'P 1'
_cell_length_a   6.77779940
_cell_length_b   6.77780099
_cell_length_c   6.77779974
_cell_angle_alpha   106.00668418
_cell_angle_beta   106.00669738
_cell_angle_gamma   116.64752976
_symmetry_Int_Tables_number   1
_chemical_formula_structural   Mn5Cu2Pd9
_chemical_formula_sum   'Mn5 Cu2 Pd9'
_cell_volume   236.83314650
_cell_formula_units_Z   1
loop_
 _symmetry_equiv_pos_site_id
 _symmetry_equiv_pos_as_xyz
  1  'x, y, z'
loop_
 _atom_site_type_symbol
 _atom_site_label
 _atom_site_symmetry_multiplicity
 _atom_site_fract_x
 _atom_site_fract_y
 _atom_site_fract_z
 _atom_site_occupancy
  Mn  Mn0  1  0.500000  0.500000  0.000000  1
  Mn  Mn1  1  0.237407  0.237407  0.474816  1
  Mn  Mn2  1  0.762593  0.762593  0.525184  1
  Mn  Mn3  1  0.237407  0.762593  0.000000  1
  Mn  Mn4  1  0.762593  0.237407  0.000000  1
  Cu  Cu5  1  0.500000  0.000000  0.500000  1
  Cu  Cu6  1  0.000000  0.500000  0.500000  1
  Pd  Pd7  1  0.518377  0.264186  0.254190  1
  Pd  Pd8  1  0.481623  0.735814  0.745810  1
  Pd  Pd9  1  0.009996  0.264186  0.745810  1
  Pd  Pd10  1  0.264186  0.009996  0.745810  1
  Pd  Pd11  1  0.990004  0.735814  0.254190  1
  Pd  Pd12  1  0.735814  0.990004  0.254190  1
  Pd  Pd13  1  0.264186  0.518377  0.254190  1
  Pd  Pd14  1  0.735814  0.481623  0.745810  1
  Pd  Pd15  1  0.000000  0.000000  0.000000  1
