# generated using pymatgen
data_Cd2IrAuO7
_symmetry_space_group_name_H-M   'P 1'
_cell_length_a   7.32118387
_cell_length_b   7.25901788
_cell_length_c   7.32118391
_cell_angle_alpha   60.28048250
_cell_angle_beta   60.30761717
_cell_angle_gamma   60.28048840
_symmetry_Int_Tables_number   1
_chemical_formula_structural   Cd2IrAuO7
_chemical_formula_sum   'Cd4 Ir2 Au2 O14'
_cell_volume   276.92474555
_cell_formula_units_Z   2
loop_
 _symmetry_equiv_pos_site_id
 _symmetry_equiv_pos_as_xyz
  1  'x, y, z'
loop_
 _atom_site_type_symbol
 _atom_site_label
 _atom_site_symmetry_multiplicity
 _atom_site_fract_x
 _atom_site_fract_y
 _atom_site_fract_z
 _atom_site_occupancy
  Cd  Cd0  1  0.125000  0.625000  0.125000  1
  Cd  Cd1  1  0.125000  0.125000  0.625000  1
  Cd  Cd2  1  0.625000  0.125000  0.125000  1
  Cd  Cd3  1  0.125000  0.125000  0.125000  1
  Ir  Ir4  1  0.625000  0.625000  0.125000  1
  Ir  Ir5  1  0.125000  0.625000  0.625000  1
  Au  Au6  1  0.625000  0.125000  0.625000  1
  Au  Au7  1  0.625000  0.625000  0.625000  1
  O  O8  1  0.711815  0.699213  0.286627  1
  O  O9  1  0.963373  0.550787  0.538185  1
  O  O10  1  0.538185  0.947655  0.963373  1
  O  O11  1  0.963373  0.947655  0.538185  1
  O  O12  1  0.941771  0.558229  0.941771  1
  O  O13  1  0.534065  0.965935  0.534065  1
  O  O14  1  0.308229  0.691771  0.308229  1
  O  O15  1  0.286627  0.699213  0.711815  1
  O  O16  1  0.711815  0.302345  0.286627  1
  O  O17  1  0.715935  0.284065  0.715935  1
  O  O18  1  0.538185  0.550787  0.963373  1
  O  O19  1  0.286627  0.302345  0.711815  1
  O  O20  1  0.246383  0.253617  0.246383  1
  O  O21  1  0.003617  0.996383  0.003617  1
