# generated using pymatgen
data_Zr2Be2NbRu5
_symmetry_space_group_name_H-M   'P 1'
_cell_length_a   9.48871800
_cell_length_b   9.48871800
_cell_length_c   3.24363300
_cell_angle_alpha   90.00000000
_cell_angle_beta   90.00000000
_cell_angle_gamma   90.00000000
_symmetry_Int_Tables_number   1
_chemical_formula_structural   Zr2Be2NbRu5
_chemical_formula_sum   'Zr4 Be4 Nb2 Ru10'
_cell_volume   292.04299243
_cell_formula_units_Z   2
loop_
 _symmetry_equiv_pos_site_id
 _symmetry_equiv_pos_as_xyz
  1  'x, y, z'
loop_
 _atom_site_type_symbol
 _atom_site_label
 _atom_site_symmetry_multiplicity
 _atom_site_fract_x
 _atom_site_fract_y
 _atom_site_fract_z
 _atom_site_occupancy
  Zr  Zr0  1  0.827616  0.672384  0.000000  1
  Zr  Zr1  1  0.172384  0.327616  0.000000  1
  Zr  Zr2  1  0.327616  0.827616  0.000000  1
  Zr  Zr3  1  0.672384  0.172384  0.000000  1
  Be  Be4  1  0.622045  0.877955  0.000000  1
  Be  Be5  1  0.377955  0.122045  0.000000  1
  Be  Be6  1  0.122045  0.622045  0.000000  1
  Be  Be7  1  0.877955  0.377955  0.000000  1
  Nb  Nb8  1  0.500000  0.500000  0.000000  1
  Nb  Nb9  1  0.000000  0.000000  0.000000  1
  Ru  Ru10  1  0.572448  0.710400  0.500000  1
  Ru  Ru11  1  0.427552  0.289600  0.500000  1
  Ru  Ru12  1  0.072448  0.789600  0.500000  1
  Ru  Ru13  1  0.927552  0.210400  0.500000  1
  Ru  Ru14  1  0.289600  0.572448  0.500000  1
  Ru  Ru15  1  0.710400  0.427552  0.500000  1
  Ru  Ru16  1  0.210400  0.072448  0.500000  1
  Ru  Ru17  1  0.789600  0.927552  0.500000  1
  Ru  Ru18  1  0.500000  0.000000  0.500000  1
  Ru  Ru19  1  0.000000  0.500000  0.500000  1
