# generated using pymatgen
data_Er9Tm3Co4SnPt
_symmetry_space_group_name_H-M   'P 1'
_cell_length_a   8.22307645
_cell_length_b   8.22169199
_cell_length_c   8.22307706
_cell_angle_alpha   111.15929133
_cell_angle_beta   110.61393696
_cell_angle_gamma   106.68308963
_symmetry_Int_Tables_number   1
_chemical_formula_structural   Er9Tm3Co4SnPt
_chemical_formula_sum   'Er9 Tm3 Co4 Sn1 Pt1'
_cell_volume   427.16291192
_cell_formula_units_Z   1
loop_
 _symmetry_equiv_pos_site_id
 _symmetry_equiv_pos_as_xyz
  1  'x, y, z'
loop_
 _atom_site_type_symbol
 _atom_site_label
 _atom_site_symmetry_multiplicity
 _atom_site_fract_x
 _atom_site_fract_y
 _atom_site_fract_z
 _atom_site_occupancy
  Er  Er0  1  0.685385  0.989553  0.304168  1
  Er  Er1  1  0.417534  0.217289  0.200578  1
  Er  Er2  1  0.582157  0.782816  0.799154  1
  Er  Er3  1  0.016711  0.217289  0.799754  1
  Er  Er4  1  0.983662  0.782816  0.200660  1
  Er  Er5  1  0.185321  0.288648  0.473587  1
  Er  Er6  1  0.814994  0.711419  0.526601  1
  Er  Er7  1  0.184818  0.711419  0.896425  1
  Er  Er8  1  0.815061  0.288648  0.103328  1
  Tm  Tm9  1  0.314622  0.619235  0.304612  1
  Tm  Tm10  1  0.685191  0.380748  0.695557  1
  Tm  Tm11  1  0.314770  0.010177  0.695407  1
  Co  Co12  1  0.113073  0.613040  0.499967  1
  Co  Co13  1  0.887160  0.387248  0.500088  1
  Co  Co14  1  0.377346  0.999950  0.377641  1
  Co  Co15  1  0.622309  0.999950  0.622604  1
  Sn  Sn16  1  0.499907  0.499750  0.999843  1
  Pt  Pt17  1  0.999981  0.000007  0.000026  1
