# generated using pymatgen
data_CaPrAl20FeRh3
_symmetry_space_group_name_H-M   'P 1'
_cell_length_a   6.87595574
_cell_length_b   6.87763417
_cell_length_c   9.15537102
_cell_angle_alpha   89.94479705
_cell_angle_beta   90.13069712
_cell_angle_gamma   97.23262120
_symmetry_Int_Tables_number   1
_chemical_formula_structural   CaPrAl20FeRh3
_chemical_formula_sum   'Ca1 Pr1 Al20 Fe1 Rh3'
_cell_volume   429.51411368
_cell_formula_units_Z   1
loop_
 _symmetry_equiv_pos_site_id
 _symmetry_equiv_pos_as_xyz
  1  'x, y, z'
loop_
 _atom_site_type_symbol
 _atom_site_label
 _atom_site_symmetry_multiplicity
 _atom_site_fract_x
 _atom_site_fract_y
 _atom_site_fract_z
 _atom_site_occupancy
  Ca  Ca0  1  0.874280  0.127078  0.751166  1
  Pr  Pr1  1  0.123045  0.875307  0.248786  1
  Al  Al2  1  0.622149  0.379000  0.552271  1
  Al  Al3  1  0.379255  0.619549  0.448018  1
  Al  Al4  1  0.374155  0.617758  0.048801  1
  Al  Al5  1  0.627435  0.380763  0.950665  1
  Al  Al6  1  0.224915  0.227328  0.500251  1
  Al  Al7  1  0.773923  0.773889  0.502458  1
  Al  Al8  1  0.777712  0.770128  0.001024  1
  Al  Al9  1  0.220087  0.230294  0.996330  1
  Al  Al10  1  0.845382  0.163456  0.098803  1
  Al  Al11  1  0.155857  0.835701  0.898627  1
  Al  Al12  1  0.159340  0.840672  0.604965  1
  Al  Al13  1  0.841332  0.158714  0.397461  1
  Al  Al14  1  0.860240  0.584423  0.754863  1
  Al  Al15  1  0.138030  0.411472  0.245158  1
  Al  Al16  1  0.412074  0.143065  0.751093  1
  Al  Al17  1  0.591643  0.858889  0.249041  1
  Al  Al18  1  0.221089  0.479674  0.755963  1
  Al  Al19  1  0.776722  0.517767  0.243809  1
  Al  Al20  1  0.521426  0.775254  0.751166  1
  Al  Al21  1  0.480977  0.226763  0.248862  1
  Fe  Fe22  1  0.000629  0.501937  0.000247  1
  Rh  Rh23  1  0.000012  0.500966  0.500296  1
  Rh  Rh24  1  0.499349  0.000127  0.999818  1
  Rh  Rh25  1  0.498943  0.000025  0.500059  1
