# generated using pymatgen
data_Ti3Co8Si14Mo5
_symmetry_space_group_name_H-M   'P 1'
_cell_length_a   9.12450516
_cell_length_b   9.12428016
_cell_length_c   9.12450599
_cell_angle_alpha   94.25206108
_cell_angle_beta   94.11380146
_cell_angle_gamma   148.66493388
_symmetry_Int_Tables_number   1
_chemical_formula_structural   Ti3Co8Si14Mo5
_chemical_formula_sum   'Ti3 Co8 Si14 Mo5'
_cell_volume   380.37005875
_cell_formula_units_Z   1
loop_
 _symmetry_equiv_pos_site_id
 _symmetry_equiv_pos_as_xyz
  1  'x, y, z'
loop_
 _atom_site_type_symbol
 _atom_site_label
 _atom_site_symmetry_multiplicity
 _atom_site_fract_x
 _atom_site_fract_y
 _atom_site_fract_z
 _atom_site_occupancy
  Ti  Ti0  1  0.499994  0.313018  0.813024  1
  Ti  Ti1  1  0.309817  0.498910  0.808741  1
  Ti  Ti2  1  0.690168  0.498910  0.189093  1
  Co  Co3  1  0.400156  0.899170  0.799514  1
  Co  Co4  1  0.101640  0.600900  0.201197  1
  Co  Co5  1  0.099656  0.899170  0.499013  1
  Co  Co6  1  0.399704  0.600900  0.499260  1
  Co  Co7  1  0.599833  0.399370  0.499004  1
  Co  Co8  1  0.898351  0.099562  0.499273  1
  Co  Co9  1  0.900367  0.399370  0.799537  1
  Co  Co10  1  0.600289  0.099562  0.201211  1
  Si  Si11  1  0.294056  0.294076  0.588289  1
  Si  Si12  1  0.705269  0.705943  0.411032  1
  Si  Si13  1  0.705788  0.294076  0.000019  1
  Si  Si14  1  0.294910  0.705943  0.000674  1
  Si  Si15  1  0.999891  0.291457  0.291566  1
  Si  Si16  1  0.999983  0.707134  0.707151  1
  Si  Si17  1  0.708488  0.999716  0.708092  1
  Si  Si18  1  0.291625  0.999716  0.291228  1
  Si  Si19  1  0.500096  0.905978  0.405882  1
  Si  Si20  1  0.500044  0.095140  0.595097  1
  Si  Si21  1  0.094301  0.499910  0.594342  1
  Si  Si22  1  0.905568  0.499910  0.405609  1
  Si  Si23  1  0.751172  0.752039  0.000867  1
  Si  Si24  1  0.248820  0.249699  0.000880  1
  Mo  Mo25  1  0.133445  0.132160  0.265652  1
  Mo  Mo26  1  0.867855  0.867168  0.734933  1
  Mo  Mo27  1  0.866508  0.132160  0.998715  1
  Mo  Mo28  1  0.132236  0.867168  0.999313  1
  Mo  Mo29  1  0.499971  0.691763  0.191792  1
