# generated using pymatgen
data_Nd20Pt3Rh13
_symmetry_space_group_name_H-M   'P 1'
_cell_length_a   7.58978746
_cell_length_b   7.72703133
_cell_length_c   15.08281706
_cell_angle_alpha   89.78097607
_cell_angle_beta   89.77787067
_cell_angle_gamma   89.93375817
_symmetry_Int_Tables_number   1
_chemical_formula_structural   Nd20Pt3Rh13
_chemical_formula_sum   'Nd20 Pt3 Rh13'
_cell_volume   884.54112941
_cell_formula_units_Z   1
loop_
 _symmetry_equiv_pos_site_id
 _symmetry_equiv_pos_as_xyz
  1  'x, y, z'
loop_
 _atom_site_type_symbol
 _atom_site_label
 _atom_site_symmetry_multiplicity
 _atom_site_fract_x
 _atom_site_fract_y
 _atom_site_fract_z
 _atom_site_occupancy
  Nd  Nd0  1  0.661159  0.171645  0.624553  1
  Nd  Nd1  1  0.158378  0.332585  0.873845  1
  Nd  Nd2  1  0.341860  0.833024  0.125839  1
  Nd  Nd3  1  0.840665  0.662936  0.376927  1
  Nd  Nd4  1  0.333647  0.831104  0.377667  1
  Nd  Nd5  1  0.835207  0.669633  0.122990  1
  Nd  Nd6  1  0.664961  0.169735  0.877446  1
  Nd  Nd7  1  0.161240  0.332038  0.621253  1
  Nd  Nd8  1  0.513087  0.681414  0.593633  1
  Nd  Nd9  1  0.009696  0.817221  0.904172  1
  Nd  Nd10  1  0.491069  0.317084  0.095330  1
  Nd  Nd11  1  0.988969  0.183449  0.406335  1
  Nd  Nd12  1  0.485035  0.319114  0.407834  1
  Nd  Nd13  1  0.985643  0.180936  0.093289  1
  Nd  Nd14  1  0.514654  0.680693  0.905952  1
  Nd  Nd15  1  0.013877  0.816956  0.592809  1
  Nd  Nd16  1  0.823343  0.513293  0.748645  1
  Nd  Nd17  1  0.324395  0.987978  0.748784  1
  Nd  Nd18  1  0.176860  0.487204  0.249716  1
  Nd  Nd19  1  0.677561  0.011524  0.251245  1
  Pt  Pt20  1  0.675009  0.968341  0.459470  1
  Pt  Pt21  1  0.174946  0.530389  0.040793  1
  Pt  Pt22  1  0.324434  0.030547  0.959125  1
  Rh  Rh23  1  0.822858  0.470323  0.541461  1
  Rh  Rh24  1  0.323140  0.028937  0.541329  1
  Rh  Rh25  1  0.823886  0.471620  0.958634  1
  Rh  Rh26  1  0.676038  0.971971  0.041951  1
  Rh  Rh27  1  0.176295  0.528203  0.457886  1
  Rh  Rh28  1  0.456486  0.397951  0.750600  1
  Rh  Rh29  1  0.957150  0.101394  0.749575  1
  Rh  Rh30  1  0.543258  0.601900  0.250912  1
  Rh  Rh31  1  0.043466  0.898020  0.249660  1
  Rh  Rh32  1  0.698266  0.856586  0.750374  1
  Rh  Rh33  1  0.198911  0.644417  0.749688  1
  Rh  Rh34  1  0.302579  0.144447  0.250389  1
  Rh  Rh35  1  0.801971  0.355386  0.249889  1
