# generated using pymatgen
data_DyTh2Cu(Ni6B)2
_symmetry_space_group_name_H-M   'P 1'
_cell_length_a   4.96011154
_cell_length_b   4.96011281
_cell_length_c   11.04470000
_cell_angle_alpha   90.00000000
_cell_angle_beta   90.00000000
_cell_angle_gamma   119.71309373
_symmetry_Int_Tables_number   1
_chemical_formula_structural   DyTh2Cu(Ni6B)2
_chemical_formula_sum   'Dy1 Th2 Cu1 Ni12 B2'
_cell_volume   236.00210534
_cell_formula_units_Z   1
loop_
 _symmetry_equiv_pos_site_id
 _symmetry_equiv_pos_as_xyz
  1  'x, y, z'
loop_
 _atom_site_type_symbol
 _atom_site_label
 _atom_site_symmetry_multiplicity
 _atom_site_fract_x
 _atom_site_fract_y
 _atom_site_fract_z
 _atom_site_occupancy
  Dy  Dy0  1  0.000000  0.000000  0.000000  1
  Th  Th1  1  0.000000  0.000000  0.324319  1
  Th  Th2  1  0.000000  0.000000  0.675681  1
  Cu  Cu3  1  0.500000  0.500000  0.500000  1
  Ni  Ni4  1  0.500000  0.000000  0.500000  1
  Ni  Ni5  1  0.000000  0.500000  0.500000  1
  Ni  Ni6  1  0.331879  0.668121  0.316427  1
  Ni  Ni7  1  0.668121  0.331879  0.316427  1
  Ni  Ni8  1  0.668121  0.331879  0.683573  1
  Ni  Ni9  1  0.331879  0.668121  0.683573  1
  Ni  Ni10  1  0.500000  0.000000  0.130742  1
  Ni  Ni11  1  0.500000  0.500000  0.130517  1
  Ni  Ni12  1  0.000000  0.500000  0.130742  1
  Ni  Ni13  1  0.500000  0.000000  0.869258  1
  Ni  Ni14  1  0.500000  0.500000  0.869483  1
  Ni  Ni15  1  0.000000  0.500000  0.869258  1
  B  B16  1  0.332837  0.667163  0.000000  1
  B  B17  1  0.667163  0.332837  0.000000  1
