# generated using pymatgen
data_TiNb4Ga2GeB
_symmetry_space_group_name_H-M   'P 1'
_cell_length_a   7.79183768
_cell_length_b   7.79183755
_cell_length_c   5.31366901
_cell_angle_alpha   90.03189600
_cell_angle_beta   90.03188308
_cell_angle_gamma   119.96261963
_symmetry_Int_Tables_number   1
_chemical_formula_structural   TiNb4Ga2GeB
_chemical_formula_sum   'Ti2 Nb8 Ga4 Ge2 B2'
_cell_volume   279.49118143
_cell_formula_units_Z   2
loop_
 _symmetry_equiv_pos_site_id
 _symmetry_equiv_pos_as_xyz
  1  'x, y, z'
loop_
 _atom_site_type_symbol
 _atom_site_label
 _atom_site_symmetry_multiplicity
 _atom_site_fract_x
 _atom_site_fract_y
 _atom_site_fract_z
 _atom_site_occupancy
  Ti  Ti0  1  0.667060  0.331668  0.499158  1
  Ti  Ti1  1  0.331668  0.667060  0.499158  1
  Nb  Nb2  1  0.331819  0.667002  0.000014  1
  Nb  Nb3  1  0.667002  0.331819  0.000014  1
  Nb  Nb4  1  0.757192  0.757192  0.248026  1
  Nb  Nb5  1  0.243206  0.999447  0.249392  1
  Nb  Nb6  1  0.999447  0.243206  0.249392  1
  Nb  Nb7  1  0.241063  0.241063  0.751688  1
  Nb  Nb8  1  0.758812  0.001897  0.751464  1
  Nb  Nb9  1  0.001897  0.758812  0.751464  1
  Ga  Ga10  1  0.402277  0.402277  0.256101  1
  Ga  Ga11  1  0.598827  0.998415  0.256738  1
  Ga  Ga12  1  0.998415  0.598827  0.256738  1
  Ga  Ga13  1  0.598937  0.598937  0.743073  1
  Ge  Ge14  1  0.403646  0.000247  0.743408  1
  Ge  Ge15  1  0.000247  0.403646  0.743408  1
  B  B16  1  0.999250  0.999250  0.498850  1
  B  B17  1  0.999229  0.999229  0.001910  1
