# generated using pymatgen
data_HfZr2MnFe8
_symmetry_space_group_name_H-M   'P 1'
_cell_length_a   8.53425085
_cell_length_b   8.53425110
_cell_length_c   8.53425184
_cell_angle_alpha   33.52111428
_cell_angle_beta   33.52111330
_cell_angle_gamma   33.52111375
_symmetry_Int_Tables_number   1
_chemical_formula_structural   HfZr2MnFe8
_chemical_formula_sum   'Hf1 Zr2 Mn1 Fe8'
_cell_volume   168.84016043
_cell_formula_units_Z   1
loop_
 _symmetry_equiv_pos_site_id
 _symmetry_equiv_pos_as_xyz
  1  'x, y, z'
loop_
 _atom_site_type_symbol
 _atom_site_label
 _atom_site_symmetry_multiplicity
 _atom_site_fract_x
 _atom_site_fract_y
 _atom_site_fract_z
 _atom_site_occupancy
  Hf  Hf0  1  0.624587  0.624587  0.624587  1
  Zr  Zr1  1  0.004498  0.004498  0.004498  1
  Zr  Zr2  1  0.496259  0.496259  0.496259  1
  Mn  Mn3  1  0.126026  0.126026  0.126026  1
  Fe  Fe4  1  0.563714  0.060929  0.563714  1
  Fe  Fe5  1  0.062658  0.560513  0.062658  1
  Fe  Fe6  1  0.060929  0.563714  0.563714  1
  Fe  Fe7  1  0.560513  0.062658  0.062658  1
  Fe  Fe8  1  0.812192  0.812192  0.812192  1
  Fe  Fe9  1  0.312253  0.312253  0.312253  1
  Fe  Fe10  1  0.563714  0.563714  0.060929  1
  Fe  Fe11  1  0.062658  0.062658  0.560513  1
