# generated using pymatgen
data_Lu3Sc2GaSb2
_symmetry_space_group_name_H-M   'P 1'
_cell_length_a   8.53859263
_cell_length_b   8.53859209
_cell_length_c   6.08145000
_cell_angle_alpha   90.00000000
_cell_angle_beta   90.00000000
_cell_angle_gamma   119.82131795
_symmetry_Int_Tables_number   1
_chemical_formula_structural   Lu3Sc2GaSb2
_chemical_formula_sum   'Lu6 Sc4 Ga2 Sb4'
_cell_volume   384.67102602
_cell_formula_units_Z   2
loop_
 _symmetry_equiv_pos_site_id
 _symmetry_equiv_pos_as_xyz
  1  'x, y, z'
loop_
 _atom_site_type_symbol
 _atom_site_label
 _atom_site_symmetry_multiplicity
 _atom_site_fract_x
 _atom_site_fract_y
 _atom_site_fract_z
 _atom_site_occupancy
  Lu  Lu0  1  0.760461  0.760461  0.750000  1
  Lu  Lu1  1  0.238730  0.998253  0.750000  1
  Lu  Lu2  1  0.998253  0.238730  0.750000  1
  Lu  Lu3  1  0.236644  0.236644  0.250000  1
  Lu  Lu4  1  0.764211  0.014187  0.250000  1
  Lu  Lu5  1  0.014187  0.764211  0.250000  1
  Sc  Sc6  1  0.667803  0.325595  0.004530  1
  Sc  Sc7  1  0.325595  0.667803  0.004530  1
  Sc  Sc8  1  0.325595  0.667803  0.495470  1
  Sc  Sc9  1  0.667803  0.325595  0.495470  1
  Ga  Ga10  1  0.397962  0.001819  0.250000  1
  Ga  Ga11  1  0.001819  0.397962  0.250000  1
  Sb  Sb12  1  0.396941  0.396941  0.750000  1
  Sb  Sb13  1  0.598481  0.995689  0.750000  1
  Sb  Sb14  1  0.995689  0.598481  0.750000  1
  Sb  Sb15  1  0.609825  0.609825  0.250000  1
