# generated using pymatgen
data_La2Sm2YPb4
_symmetry_space_group_name_H-M   'P 1'
_cell_length_a   8.35667500
_cell_length_b   8.46662400
_cell_length_c   16.05480100
_cell_angle_alpha   90.00000000
_cell_angle_beta   90.00000000
_cell_angle_gamma   90.00000000
_symmetry_Int_Tables_number   1
_chemical_formula_structural   La2Sm2YPb4
_chemical_formula_sum   'La8 Sm8 Y4 Pb16'
_cell_volume   1135.92252741
_cell_formula_units_Z   4
loop_
 _symmetry_equiv_pos_site_id
 _symmetry_equiv_pos_as_xyz
  1  'x, y, z'
loop_
 _atom_site_type_symbol
 _atom_site_label
 _atom_site_symmetry_multiplicity
 _atom_site_fract_x
 _atom_site_fract_y
 _atom_site_fract_z
 _atom_site_occupancy
  La  La0  1  0.476883  0.677942  0.597631  1
  La  La1  1  0.976883  0.822058  0.902369  1
  La  La2  1  0.523117  0.322058  0.097631  1
  La  La3  1  0.023117  0.177942  0.402369  1
  La  La4  1  0.523117  0.322058  0.402369  1
  La  La5  1  0.023117  0.177942  0.097631  1
  La  La6  1  0.476883  0.677942  0.902369  1
  La  La7  1  0.976883  0.822058  0.597631  1
  Sm  Sm8  1  0.633076  0.158160  0.621629  1
  Sm  Sm9  1  0.133076  0.341840  0.878371  1
  Sm  Sm10  1  0.366924  0.841840  0.121629  1
  Sm  Sm11  1  0.866924  0.658160  0.378371  1
  Sm  Sm12  1  0.366924  0.841840  0.378371  1
  Sm  Sm13  1  0.866924  0.658160  0.121629  1
  Sm  Sm14  1  0.633076  0.158160  0.878371  1
  Sm  Sm15  1  0.133076  0.341840  0.621629  1
  Y  Y16  1  0.799042  0.495925  0.750000  1
  Y  Y17  1  0.299042  0.004075  0.750000  1
  Y  Y18  1  0.200958  0.504075  0.250000  1
  Y  Y19  1  0.700958  0.995925  0.250000  1
  Pb  Pb20  1  0.706432  0.960808  0.455803  1
  Pb  Pb21  1  0.206432  0.539192  0.044197  1
  Pb  Pb22  1  0.293568  0.039192  0.955803  1
  Pb  Pb23  1  0.793568  0.460808  0.544197  1
  Pb  Pb24  1  0.293568  0.039192  0.544197  1
  Pb  Pb25  1  0.793568  0.460808  0.955803  1
  Pb  Pb26  1  0.706432  0.960808  0.044197  1
  Pb  Pb27  1  0.206432  0.539192  0.455803  1
  Pb  Pb28  1  0.437664  0.373277  0.750000  1
  Pb  Pb29  1  0.937664  0.126723  0.750000  1
  Pb  Pb30  1  0.562336  0.626723  0.250000  1
  Pb  Pb31  1  0.062336  0.873277  0.250000  1
  Pb  Pb32  1  0.665702  0.849964  0.750000  1
  Pb  Pb33  1  0.165702  0.650036  0.750000  1
  Pb  Pb34  1  0.334298  0.150036  0.250000  1
  Pb  Pb35  1  0.834298  0.349964  0.250000  1
