# generated using pymatgen
data_La2Pr14CdHg3Pt4
_symmetry_space_group_name_H-M   'P 1'
_cell_length_a   10.09081553
_cell_length_b   10.12623823
_cell_length_c   10.11670800
_cell_angle_alpha   60.03112131
_cell_angle_beta   59.91507631
_cell_angle_gamma   59.89980746
_symmetry_Int_Tables_number   1
_chemical_formula_structural   La2Pr14CdHg3Pt4
_chemical_formula_sum   'La2 Pr14 Cd1 Hg3 Pt4'
_cell_volume   730.11514940
_cell_formula_units_Z   1
loop_
 _symmetry_equiv_pos_site_id
 _symmetry_equiv_pos_as_xyz
  1  'x, y, z'
loop_
 _atom_site_type_symbol
 _atom_site_label
 _atom_site_symmetry_multiplicity
 _atom_site_fract_x
 _atom_site_fract_y
 _atom_site_fract_z
 _atom_site_occupancy
  La  La0  1  0.349945  0.349629  0.350326  1
  La  La1  1  0.349945  0.349629  0.950100  1
  Pr  Pr2  1  0.351437  0.944745  0.351909  1
  Pr  Pr3  1  0.942184  0.352201  0.352807  1
  Pr  Pr4  1  0.809015  0.192463  0.191295  1
  Pr  Pr5  1  0.191160  0.809809  0.808043  1
  Pr  Pr6  1  0.191160  0.809809  0.190989  1
  Pr  Pr7  1  0.809015  0.192463  0.807227  1
  Pr  Pr8  1  0.190363  0.191684  0.808976  1
  Pr  Pr9  1  0.807848  0.807667  0.192243  1
  Pr  Pr10  1  0.935808  0.564810  0.565015  1
  Pr  Pr11  1  0.563416  0.936708  0.935259  1
  Pr  Pr12  1  0.563416  0.936708  0.564616  1
  Pr  Pr13  1  0.935808  0.564810  0.934366  1
  Pr  Pr14  1  0.563103  0.563973  0.936462  1
  Pr  Pr15  1  0.934915  0.935017  0.565034  1
  Cd  Cd16  1  0.261281  0.580229  0.579244  1
  Hg  Hg17  1  0.583598  0.585762  0.584988  1
  Hg  Hg18  1  0.583598  0.585762  0.245651  1
  Hg  Hg19  1  0.583746  0.245660  0.585296  1
  Pt  Pt20  1  0.142689  0.143464  0.143952  1
  Pt  Pt21  1  0.142689  0.143464  0.569895  1
  Pt  Pt22  1  0.142921  0.570447  0.143316  1
  Pt  Pt23  1  0.570942  0.143082  0.142988  1
