# generated using pymatgen
data_TbDy2In3Cu2Pt
_symmetry_space_group_name_H-M   'P 1'
_cell_length_a   7.57284356
_cell_length_b   7.56943502
_cell_length_c   3.91073000
_cell_angle_alpha   90.00000000
_cell_angle_beta   90.00000000
_cell_angle_gamma   119.97010271
_symmetry_Int_Tables_number   1
_chemical_formula_structural   TbDy2In3Cu2Pt
_chemical_formula_sum   'Tb1 Dy2 In3 Cu2 Pt1'
_cell_volume   194.19662314
_cell_formula_units_Z   1
loop_
 _symmetry_equiv_pos_site_id
 _symmetry_equiv_pos_as_xyz
  1  'x, y, z'
loop_
 _atom_site_type_symbol
 _atom_site_label
 _atom_site_symmetry_multiplicity
 _atom_site_fract_x
 _atom_site_fract_y
 _atom_site_fract_z
 _atom_site_occupancy
  Tb  Tb0  1  0.584744  0.992710  0.500000  1
  Dy  Dy1  1  0.007876  0.592431  0.500000  1
  Dy  Dy2  1  0.407561  0.415299  0.500000  1
  In  In3  1  0.753038  0.744572  0.000000  1
  In  In4  1  0.991619  0.247251  0.000000  1
  In  In5  1  0.255283  0.008334  0.000000  1
  Cu  Cu6  1  0.999860  0.999881  0.500000  1
  Cu  Cu7  1  0.667379  0.334062  0.000000  1
  Pt  Pt8  1  0.332639  0.665461  0.000000  1
