# generated using pymatgen
data_Dy8Re2TcB24Rh
_symmetry_space_group_name_H-M   'P 1'
_cell_length_a   3.68618000
_cell_length_b   9.17161103
_cell_length_c   11.55307508
_cell_angle_alpha   90.21231800
_cell_angle_beta   90.00000000
_cell_angle_gamma   90.00000000
_symmetry_Int_Tables_number   1
_chemical_formula_structural   Dy8Re2TcB24Rh
_chemical_formula_sum   'Dy8 Re2 Tc1 B24 Rh1'
_cell_volume   390.58609688
_cell_formula_units_Z   1
loop_
 _symmetry_equiv_pos_site_id
 _symmetry_equiv_pos_as_xyz
  1  'x, y, z'
loop_
 _atom_site_type_symbol
 _atom_site_label
 _atom_site_symmetry_multiplicity
 _atom_site_fract_x
 _atom_site_fract_y
 _atom_site_fract_z
 _atom_site_occupancy
  Dy  Dy0  1  0.000000  0.322090  0.409041  1
  Dy  Dy1  1  0.000000  0.681244  0.584289  1
  Dy  Dy2  1  0.000000  0.823075  0.087039  1
  Dy  Dy3  1  0.000000  0.173150  0.918725  1
  Dy  Dy4  1  0.000000  0.942971  0.370801  1
  Dy  Dy5  1  0.000000  0.056888  0.629938  1
  Dy  Dy6  1  0.000000  0.443609  0.129049  1
  Dy  Dy7  1  0.000000  0.558854  0.870880  1
  Re  Re8  1  0.000000  0.138232  0.179176  1
  Re  Re9  1  0.000000  0.862021  0.819908  1
  Tc  Tc10  1  0.000000  0.637264  0.322382  1
  B  B11  1  0.500000  0.553362  0.433192  1
  B  B12  1  0.500000  0.446012  0.566344  1
  B  B13  1  0.500000  0.053028  0.067314  1
  B  B14  1  0.500000  0.946760  0.933271  1
  B  B15  1  0.500000  0.748592  0.418748  1
  B  B16  1  0.500000  0.251269  0.579800  1
  B  B17  1  0.500000  0.248088  0.081390  1
  B  B18  1  0.500000  0.751301  0.918523  1
  B  B19  1  0.500000  0.790801  0.265841  1
  B  B20  1  0.500000  0.209425  0.734865  1
  B  B21  1  0.500000  0.291400  0.234386  1
  B  B22  1  0.500000  0.708719  0.764809  1
  B  B23  1  0.500000  0.630584  0.186190  1
  B  B24  1  0.500000  0.368254  0.815801  1
  B  B25  1  0.500000  0.131277  0.314406  1
  B  B26  1  0.500000  0.869135  0.685127  1
  B  B27  1  0.500000  0.982659  0.212672  1
  B  B28  1  0.500000  0.016961  0.788146  1
  B  B29  1  0.500000  0.482208  0.287878  1
  B  B30  1  0.500000  0.516634  0.711903  1
  B  B31  1  0.500000  0.603216  0.028110  1
  B  B32  1  0.500000  0.395972  0.970645  1
  B  B33  1  0.500000  0.105250  0.471515  1
  B  B34  1  0.500000  0.897382  0.529090  1
  Rh  Rh35  1  0.000000  0.362314  0.678808  1
