# generated using pymatgen
data_Hf10ZnSn4GeSb2
_symmetry_space_group_name_H-M   'P 1'
_cell_length_a   8.63247001
_cell_length_b   8.61885378
_cell_length_c   5.81526803
_cell_angle_alpha   89.98791893
_cell_angle_beta   90.00603474
_cell_angle_gamma   119.94782863
_symmetry_Int_Tables_number   1
_chemical_formula_structural   Hf10ZnSn4GeSb2
_chemical_formula_sum   'Hf10 Zn1 Sn4 Ge1 Sb2'
_cell_volume   374.89791466
_cell_formula_units_Z   1
loop_
 _symmetry_equiv_pos_site_id
 _symmetry_equiv_pos_as_xyz
  1  'x, y, z'
loop_
 _atom_site_type_symbol
 _atom_site_label
 _atom_site_symmetry_multiplicity
 _atom_site_fract_x
 _atom_site_fract_y
 _atom_site_fract_z
 _atom_site_occupancy
  Hf  Hf0  1  0.732604  0.733429  0.251129  1
  Hf  Hf1  1  0.732604  0.999175  0.748871  1
  Hf  Hf2  1  0.999520  0.265662  0.250049  1
  Hf  Hf3  1  0.999520  0.733857  0.749951  1
  Hf  Hf4  1  0.267228  0.266821  0.749592  1
  Hf  Hf5  1  0.267228  0.000407  0.250408  1
  Hf  Hf6  1  0.334769  0.667385  0.500000  1
  Hf  Hf7  1  0.666797  0.333398  0.000000  1
  Hf  Hf8  1  0.666503  0.333251  0.500000  1
  Hf  Hf9  1  0.334474  0.667238  0.000000  1
  Zn  Zn10  1  0.001207  0.000604  0.500000  1
  Sn  Sn11  1  0.388098  0.000020  0.748538  1
  Sn  Sn12  1  0.388098  0.388077  0.251462  1
  Sn  Sn13  1  0.000722  0.610975  0.252318  1
  Sn  Sn14  1  0.000722  0.389747  0.747682  1
  Ge  Ge15  1  0.000301  0.000150  0.000000  1
  Sb  Sb16  1  0.609806  0.608971  0.747261  1
  Sb  Sb17  1  0.609806  0.000834  0.252739  1
