# generated using pymatgen
data_Lu3Ta6CuB20
_symmetry_space_group_name_H-M   'P 1'
_cell_length_a   6.22653927
_cell_length_b   7.10132803
_cell_length_c   7.54536600
_cell_angle_alpha   94.52815074
_cell_angle_beta   101.95501447
_cell_angle_gamma   115.94816133
_symmetry_Int_Tables_number   1
_chemical_formula_structural   Lu3Ta6CuB20
_chemical_formula_sum   'Lu3 Ta6 Cu1 B20'
_cell_volume   287.98580714
_cell_formula_units_Z   1
loop_
 _symmetry_equiv_pos_site_id
 _symmetry_equiv_pos_as_xyz
  1  'x, y, z'
loop_
 _atom_site_type_symbol
 _atom_site_label
 _atom_site_symmetry_multiplicity
 _atom_site_fract_x
 _atom_site_fract_y
 _atom_site_fract_z
 _atom_site_occupancy
  Lu  Lu0  1  0.501859  0.799116  0.398583  1
  Lu  Lu1  1  0.001925  0.401115  0.198653  1
  Lu  Lu2  1  0.499575  0.195869  0.600053  1
  Ta  Ta3  1  0.495097  0.000385  0.997647  1
  Ta  Ta4  1  0.998049  0.797302  0.401152  1
  Ta  Ta5  1  0.504082  0.600060  0.800481  1
  Ta  Ta6  1  0.501165  0.398532  0.196944  1
  Ta  Ta7  1  0.003804  0.199324  0.598682  1
  Ta  Ta8  1  0.001006  0.602877  0.800982  1
  Cu  Cu9  1  0.960693  0.019062  0.017146  1
  B  B10  1  0.333268  0.231699  0.869622  1
  B  B11  1  0.336675  0.634512  0.061800  1
  B  B12  1  0.169288  0.364301  0.931243  1
  B  B13  1  0.332352  0.034345  0.259668  1
  B  B14  1  0.166084  0.770552  0.124955  1
  B  B15  1  0.839421  0.234340  0.864814  1
  B  B16  1  0.165583  0.162534  0.329792  1
  B  B17  1  0.834935  0.637824  0.060810  1
  B  B18  1  0.334477  0.431064  0.469228  1
  B  B19  1  0.667448  0.368112  0.931061  1
  B  B20  1  0.837240  0.032107  0.266413  1
  B  B21  1  0.669650  0.766553  0.128592  1
  B  B22  1  0.333826  0.830345  0.669493  1
  B  B23  1  0.166708  0.564181  0.536248  1
  B  B24  1  0.665382  0.165222  0.330887  1
  B  B25  1  0.835562  0.433617  0.468017  1
  B  B26  1  0.163997  0.963088  0.738641  1
  B  B27  1  0.838993  0.832153  0.674111  1
  B  B28  1  0.671163  0.566341  0.535997  1
  B  B29  1  0.670695  0.963463  0.738283  1
