# generated using pymatgen
data_Lu5ZrTcTe2
_symmetry_space_group_name_H-M   'P 1'
_cell_length_a   8.10795092
_cell_length_b   8.23067678
_cell_length_c   3.94337100
_cell_angle_alpha   90.00000000
_cell_angle_beta   90.00000000
_cell_angle_gamma   120.50199234
_symmetry_Int_Tables_number   1
_chemical_formula_structural   Lu5ZrTcTe2
_chemical_formula_sum   'Lu5 Zr1 Tc1 Te2'
_cell_volume   226.73877164
_cell_formula_units_Z   1
loop_
 _symmetry_equiv_pos_site_id
 _symmetry_equiv_pos_as_xyz
  1  'x, y, z'
loop_
 _atom_site_type_symbol
 _atom_site_label
 _atom_site_symmetry_multiplicity
 _atom_site_fract_x
 _atom_site_fract_y
 _atom_site_fract_z
 _atom_site_occupancy
  Lu  Lu0  1  0.765464  0.759960  0.500000  1
  Lu  Lu1  1  0.000000  0.595546  0.000000  1
  Lu  Lu2  1  0.234536  0.994496  0.500000  1
  Lu  Lu3  1  0.618561  0.002926  0.000000  1
  Lu  Lu4  1  0.381439  0.384364  0.000000  1
  Zr  Zr5  1  0.000000  0.241247  0.500000  1
  Tc  Tc6  1  0.000000  0.026215  0.000000  1
  Te  Te7  1  0.667874  0.331561  0.500000  1
  Te  Te8  1  0.332126  0.663688  0.500000  1
