# generated using pymatgen
data_Y9Ho3Zn(InFe)2
_symmetry_space_group_name_H-M   'P 1'
_cell_length_a   8.43969106
_cell_length_b   8.43969304
_cell_length_c   8.45594888
_cell_angle_alpha   109.71600293
_cell_angle_beta   109.71593616
_cell_angle_gamma   108.90382970
_symmetry_Int_Tables_number   1
_chemical_formula_structural   Y9Ho3Zn(InFe)2
_chemical_formula_sum   'Y9 Ho3 Zn1 In2 Fe2'
_cell_volume   464.07553476
_cell_formula_units_Z   1
loop_
 _symmetry_equiv_pos_site_id
 _symmetry_equiv_pos_as_xyz
  1  'x, y, z'
loop_
 _atom_site_type_symbol
 _atom_site_label
 _atom_site_symmetry_multiplicity
 _atom_site_fract_x
 _atom_site_fract_y
 _atom_site_fract_z
 _atom_site_occupancy
  Y  Y0  1  0.444736  0.200099  0.243286  1
  Y  Y1  1  0.556170  0.800593  0.756289  1
  Y  Y2  1  0.955728  0.200130  0.756306  1
  Y  Y3  1  0.200129  0.955728  0.756307  1
  Y  Y4  1  0.043214  0.798559  0.243307  1
  Y  Y5  1  0.798558  0.043213  0.243305  1
  Y  Y6  1  0.200098  0.444735  0.243286  1
  Y  Y7  1  0.800593  0.556170  0.756289  1
  Y  Y8  1  0.306171  0.306170  0.612340  1
  Ho  Ho9  1  0.692010  0.692008  0.384044  1
  Ho  Ho10  1  0.308390  0.691828  0.000243  1
  Ho  Ho11  1  0.691827  0.308389  0.000243  1
  Zn  Zn12  1  0.000339  0.000339  0.000684  1
  In  In13  1  0.499824  0.000060  0.499866  1
  In  In14  1  0.000059  0.499824  0.499864  1
  Fe  Fe15  1  0.388977  0.388976  0.002174  1
  Fe  Fe16  1  0.613177  0.613177  0.002167  1
