# generated using pymatgen
data_Tb3Dy2(FeB3)2
_symmetry_space_group_name_H-M   'P 1'
_cell_length_a   5.41739250
_cell_length_b   5.41739290
_cell_length_c   8.32373039
_cell_angle_alpha   71.00906982
_cell_angle_beta   71.00906710
_cell_angle_gamma   59.99999597
_symmetry_Int_Tables_number   1
_chemical_formula_structural   Tb3Dy2(FeB3)2
_chemical_formula_sum   'Tb3 Dy2 Fe2 B6'
_cell_volume   196.05423078
_cell_formula_units_Z   1
loop_
 _symmetry_equiv_pos_site_id
 _symmetry_equiv_pos_as_xyz
  1  'x, y, z'
loop_
 _atom_site_type_symbol
 _atom_site_label
 _atom_site_symmetry_multiplicity
 _atom_site_fract_x
 _atom_site_fract_y
 _atom_site_fract_z
 _atom_site_occupancy
  Tb  Tb0  1  0.000000  0.000000  0.000000  1
  Tb  Tb1  1  0.251631  0.251631  0.245109  1
  Tb  Tb2  1  0.748369  0.748369  0.754891  1
  Dy  Dy3  1  0.416980  0.416980  0.749060  1
  Dy  Dy4  1  0.583020  0.583020  0.250940  1
  Fe  Fe5  1  0.118476  0.118476  0.644573  1
  Fe  Fe6  1  0.881524  0.881524  0.355427  1
  B  B7  1  0.167533  0.832467  0.500000  1
  B  B8  1  0.832467  0.500000  0.500000  1
  B  B9  1  0.500000  0.167533  0.500000  1
  B  B10  1  0.167533  0.500000  0.500000  1
  B  B11  1  0.500000  0.832467  0.500000  1
  B  B12  1  0.832467  0.167533  0.500000  1
