# generated using pymatgen
data_SrHg2F8
_symmetry_space_group_name_H-M   'P 1'
_cell_length_a   7.14392156
_cell_length_b   7.14392179
_cell_length_c   7.14392194
_cell_angle_alpha   131.69656818
_cell_angle_beta   131.69656723
_cell_angle_gamma   70.70868541
_symmetry_Int_Tables_number   1
_chemical_formula_structural   SrHg2F8
_chemical_formula_sum   'Sr1 Hg2 F8'
_cell_volume   199.12032743
_cell_formula_units_Z   1
loop_
 _symmetry_equiv_pos_site_id
 _symmetry_equiv_pos_as_xyz
  1  'x, y, z'
loop_
 _atom_site_type_symbol
 _atom_site_label
 _atom_site_symmetry_multiplicity
 _atom_site_fract_x
 _atom_site_fract_y
 _atom_site_fract_z
 _atom_site_occupancy
  Sr  Sr0  1  0.000000  0.000000  0.000000  1
  Hg  Hg1  1  0.750000  0.250000  0.500000  1
  Hg  Hg2  1  0.250000  0.750000  0.500000  1
  F  F3  1  0.692971  0.168880  0.122477  1
  F  F4  1  0.429506  0.953598  0.122477  1
  F  F5  1  0.831121  0.307029  0.877523  1
  F  F6  1  0.307029  0.429506  0.475908  1
  F  F7  1  0.046402  0.570494  0.877523  1
  F  F8  1  0.570494  0.692971  0.524092  1
  F  F9  1  0.168880  0.046402  0.475908  1
  F  F10  1  0.953598  0.831121  0.524092  1
