# generated using pymatgen
data_K6Rb4NdSn12
_symmetry_space_group_name_H-M   'P 1'
_cell_length_a   10.64007407
_cell_length_b   10.64004781
_cell_length_c   10.64007495
_cell_angle_alpha   109.33315800
_cell_angle_beta   109.74759340
_cell_angle_gamma   109.33315429
_symmetry_Int_Tables_number   1
_chemical_formula_structural   K6Rb4NdSn12
_chemical_formula_sum   'K6 Rb4 Nd1 Sn12'
_cell_volume   927.26535364
_cell_formula_units_Z   1
loop_
 _symmetry_equiv_pos_site_id
 _symmetry_equiv_pos_as_xyz
  1  'x, y, z'
loop_
 _atom_site_type_symbol
 _atom_site_label
 _atom_site_symmetry_multiplicity
 _atom_site_fract_x
 _atom_site_fract_y
 _atom_site_fract_z
 _atom_site_occupancy
  K  K0  1  0.601645  0.000001  0.000194  1
  K  K1  1  0.398356  0.398543  0.398356  1
  K  K2  1  0.999808  0.601452  0.999808  1
  K  K3  1  0.000194  0.000001  0.601645  1
  K  K4  1  0.749999  0.500001  0.249997  1
  K  K5  1  0.249997  0.500001  0.749999  1
  Rb  Rb6  1  0.499999  0.250733  0.750736  1
  Rb  Rb7  1  0.750736  0.250733  0.499999  1
  Rb  Rb8  1  0.249265  0.749267  0.500001  1
  Rb  Rb9  1  0.500001  0.749267  0.249265  1
  Nd  Nd10  1  0.999997  0.999997  0.999997  1
  Sn  Sn11  1  0.001682  0.175605  0.345266  1
  Sn  Sn12  1  0.827122  0.169488  0.827122  1
  Sn  Sn13  1  0.654733  0.656416  0.830339  1
  Sn  Sn14  1  0.345266  0.175605  0.001682  1
  Sn  Sn15  1  0.173923  0.343584  0.998317  1
  Sn  Sn16  1  0.342368  0.000000  0.172878  1
  Sn  Sn17  1  0.657635  0.830512  0.657635  1
  Sn  Sn18  1  0.830339  0.656416  0.654733  1
  Sn  Sn19  1  0.998317  0.343584  0.173923  1
  Sn  Sn20  1  0.826079  0.824397  0.169661  1
  Sn  Sn21  1  0.169661  0.824397  0.826079  1
  Sn  Sn22  1  0.172878  0.000000  0.342368  1
