# generated using pymatgen
data_ThSc2FeCo8
_symmetry_space_group_name_H-M   'P 1'
_cell_length_a   8.46073050
_cell_length_b   8.46073072
_cell_length_c   8.46073201
_cell_angle_alpha   33.90164842
_cell_angle_beta   33.90164762
_cell_angle_gamma   33.90164349
_symmetry_Int_Tables_number   1
_chemical_formula_structural   ThSc2FeCo8
_chemical_formula_sum   'Th1 Sc2 Fe1 Co8'
_cell_volume   167.92770977
_cell_formula_units_Z   1
loop_
 _symmetry_equiv_pos_site_id
 _symmetry_equiv_pos_as_xyz
  1  'x, y, z'
loop_
 _atom_site_type_symbol
 _atom_site_label
 _atom_site_symmetry_multiplicity
 _atom_site_fract_x
 _atom_site_fract_y
 _atom_site_fract_z
 _atom_site_occupancy
  Th  Th0  1  0.000000  0.000000  0.000000  1
  Sc  Sc1  1  0.857878  0.857878  0.857878  1
  Sc  Sc2  1  0.142122  0.142122  0.142122  1
  Fe  Fe3  1  0.500000  0.500000  0.500000  1
  Co  Co4  1  0.412240  0.919924  0.412240  1
  Co  Co5  1  0.412240  0.412240  0.919924  1
  Co  Co6  1  0.919924  0.412240  0.412240  1
  Co  Co7  1  0.587760  0.080076  0.587760  1
  Co  Co8  1  0.587760  0.587760  0.080076  1
  Co  Co9  1  0.080076  0.587760  0.587760  1
  Co  Co10  1  0.665529  0.665529  0.665529  1
  Co  Co11  1  0.334471  0.334471  0.334471  1
