# generated using pymatgen
data_DyTh2As4Pd7
_symmetry_space_group_name_H-M   'P 1'
_cell_length_a   8.21988176
_cell_length_b   8.21988067
_cell_length_c   9.72642900
_cell_angle_alpha   55.39311366
_cell_angle_beta   55.39311889
_cell_angle_gamma   29.59539517
_symmetry_Int_Tables_number   1
_chemical_formula_structural   DyTh2As4Pd7
_chemical_formula_sum   'Dy1 Th2 As4 Pd7'
_cell_volume   262.66173264
_cell_formula_units_Z   1
loop_
 _symmetry_equiv_pos_site_id
 _symmetry_equiv_pos_as_xyz
  1  'x, y, z'
loop_
 _atom_site_type_symbol
 _atom_site_label
 _atom_site_symmetry_multiplicity
 _atom_site_fract_x
 _atom_site_fract_y
 _atom_site_fract_z
 _atom_site_occupancy
  Dy  Dy0  1  0.320936  0.320936  0.673267  1
  Th  Th1  1  0.676736  0.676736  0.331299  1
  Th  Th2  1  0.002114  0.002114  0.995678  1
  As  As3  1  0.343402  0.343402  0.249303  1
  As  As4  1  0.661984  0.661984  0.745848  1
  As  As5  1  0.890811  0.890811  0.822282  1
  As  As6  1  0.106069  0.106069  0.174582  1
  Pd  Pd7  1  0.308715  0.308715  0.021715  1
  Pd  Pd8  1  0.690643  0.690643  0.979152  1
  Pd  Pd9  1  0.512330  0.512330  0.705036  1
  Pd  Pd10  1  0.834862  0.834862  0.431532  1
  Pd  Pd11  1  0.487569  0.487569  0.297313  1
  Pd  Pd12  1  0.165268  0.165268  0.570922  1
  Pd  Pd13  1  0.998560  0.998560  0.502072  1
