# generated using pymatgen
data_Pr16Cd4IrRuPt2
_symmetry_space_group_name_H-M   'P 1'
_cell_length_a   10.04124931
_cell_length_b   10.04124968
_cell_length_c   10.08128531
_cell_angle_alpha   60.06070951
_cell_angle_beta   60.06070987
_cell_angle_gamma   60.05574408
_symmetry_Int_Tables_number   1
_chemical_formula_structural   Pr16Cd4IrRuPt2
_chemical_formula_sum   'Pr16 Cd4 Ir1 Ru1 Pt2'
_cell_volume   719.70960552
_cell_formula_units_Z   1
loop_
 _symmetry_equiv_pos_site_id
 _symmetry_equiv_pos_as_xyz
  1  'x, y, z'
loop_
 _atom_site_type_symbol
 _atom_site_label
 _atom_site_symmetry_multiplicity
 _atom_site_fract_x
 _atom_site_fract_y
 _atom_site_fract_z
 _atom_site_occupancy
  Pr  Pr0  1  0.346430  0.346430  0.354268  1
  Pr  Pr1  1  0.349814  0.349814  0.948087  1
  Pr  Pr2  1  0.344885  0.955289  0.351142  1
  Pr  Pr3  1  0.955289  0.344885  0.351142  1
  Pr  Pr4  1  0.813200  0.190295  0.190410  1
  Pr  Pr5  1  0.187713  0.815075  0.804039  1
  Pr  Pr6  1  0.190295  0.813200  0.190410  1
  Pr  Pr7  1  0.815075  0.187713  0.804039  1
  Pr  Pr8  1  0.189554  0.189554  0.808550  1
  Pr  Pr9  1  0.806921  0.806921  0.191190  1
  Pr  Pr10  1  0.937929  0.560587  0.565196  1
  Pr  Pr11  1  0.558922  0.937632  0.939604  1
  Pr  Pr12  1  0.560587  0.937929  0.565196  1
  Pr  Pr13  1  0.937632  0.558922  0.939604  1
  Pr  Pr14  1  0.562084  0.562084  0.939249  1
  Pr  Pr15  1  0.937652  0.937652  0.561788  1
  Cd  Cd16  1  0.579791  0.579791  0.579665  1
  Cd  Cd17  1  0.579870  0.579870  0.260409  1
  Cd  Cd18  1  0.580997  0.258986  0.579653  1
  Cd  Cd19  1  0.258986  0.580997  0.579653  1
  Ir  Ir20  1  0.144036  0.144036  0.139011  1
  Ru  Ru21  1  0.143631  0.143631  0.575903  1
  Pt  Pt22  1  0.145404  0.573302  0.140893  1
  Pt  Pt23  1  0.573302  0.145404  0.140893  1
