# generated using pymatgen
data_Mn6Fe2Mo3W
_symmetry_space_group_name_H-M   'P 1'
_cell_length_a   4.67755900
_cell_length_b   4.67755882
_cell_length_c   7.80607400
_cell_angle_alpha   90.00000000
_cell_angle_beta   90.00000000
_cell_angle_gamma   119.99999422
_symmetry_Int_Tables_number   1
_chemical_formula_structural   Mn6Fe2Mo3W
_chemical_formula_sum   'Mn6 Fe2 Mo3 W1'
_cell_volume   147.91146969
_cell_formula_units_Z   1
loop_
 _symmetry_equiv_pos_site_id
 _symmetry_equiv_pos_as_xyz
  1  'x, y, z'
loop_
 _atom_site_type_symbol
 _atom_site_label
 _atom_site_symmetry_multiplicity
 _atom_site_fract_x
 _atom_site_fract_y
 _atom_site_fract_z
 _atom_site_occupancy
  Mn  Mn0  1  0.172540  0.827460  0.249973  1
  Mn  Mn1  1  0.344687  0.172344  0.750107  1
  Mn  Mn2  1  0.827656  0.655313  0.750107  1
  Mn  Mn3  1  0.172540  0.345078  0.249973  1
  Mn  Mn4  1  0.654922  0.827460  0.249973  1
  Mn  Mn5  1  0.827656  0.172344  0.750107  1
  Fe  Fe6  1  0.000000  0.000000  0.000326  1
  Fe  Fe7  1  0.000000  0.000000  0.500685  1
  Mo  Mo8  1  0.333333  0.666667  0.932895  1
  Mo  Mo9  1  0.666667  0.333333  0.433357  1
  Mo  Mo10  1  0.666667  0.333333  0.066667  1
  W  W11  1  0.333333  0.666667  0.565833  1
