# generated using pymatgen
data_Gd3Y2(ReO6)2
_symmetry_space_group_name_H-M   'P 1'
_cell_length_a   6.87494812
_cell_length_b   6.87494796
_cell_length_c   7.58829400
_cell_angle_alpha   73.70422873
_cell_angle_beta   73.70422913
_cell_angle_gamma   48.86968364
_symmetry_Int_Tables_number   1
_chemical_formula_structural   Gd3Y2(ReO6)2
_chemical_formula_sum   'Gd3 Y2 Re2 O12'
_cell_volume   256.99783241
_cell_formula_units_Z   1
loop_
 _symmetry_equiv_pos_site_id
 _symmetry_equiv_pos_as_xyz
  1  'x, y, z'
loop_
 _atom_site_type_symbol
 _atom_site_label
 _atom_site_symmetry_multiplicity
 _atom_site_fract_x
 _atom_site_fract_y
 _atom_site_fract_z
 _atom_site_occupancy
  Gd  Gd0  1  0.304013  0.304013  0.359192  1
  Gd  Gd1  1  0.684958  0.684958  0.175472  1
  Gd  Gd2  1  0.315031  0.315031  0.824817  1
  Y  Y3  1  0.696025  0.696025  0.641901  1
  Y  Y4  1  0.999809  0.999809  0.500436  1
  Re  Re5  1  0.786040  0.214192  0.999717  1
  Re  Re6  1  0.214192  0.786040  0.999717  1
  O  O7  1  0.001379  0.001379  0.205402  1
  O  O8  1  0.998982  0.998982  0.794432  1
  O  O9  1  0.584404  0.087689  0.083363  1
  O  O10  1  0.416841  0.911501  0.914133  1
  O  O11  1  0.911501  0.416841  0.914133  1
  O  O12  1  0.087689  0.584404  0.083363  1
  O  O13  1  0.498762  0.498762  0.174616  1
  O  O14  1  0.502563  0.502563  0.823506  1
  O  O15  1  0.404672  0.900169  0.429304  1
  O  O16  1  0.597071  0.095899  0.573595  1
  O  O17  1  0.095899  0.597071  0.573595  1
  O  O18  1  0.900169  0.404672  0.429304  1
