# generated using pymatgen
data_LaEr2IrO7
_symmetry_space_group_name_H-M   'P 1'
_cell_length_a   6.45949597
_cell_length_b   6.45949618
_cell_length_c   7.48916600
_cell_angle_alpha   90.00000000
_cell_angle_beta   90.00000000
_cell_angle_gamma   109.63981455
_symmetry_Int_Tables_number   1
_chemical_formula_structural   LaEr2IrO7
_chemical_formula_sum   'La2 Er4 Ir2 O14'
_cell_volume   294.30696711
_cell_formula_units_Z   2
loop_
 _symmetry_equiv_pos_site_id
 _symmetry_equiv_pos_as_xyz
  1  'x, y, z'
loop_
 _atom_site_type_symbol
 _atom_site_label
 _atom_site_symmetry_multiplicity
 _atom_site_fract_x
 _atom_site_fract_y
 _atom_site_fract_z
 _atom_site_occupancy
  La  La0  1  0.000000  0.000000  0.500000  1
  La  La1  1  0.000000  0.000000  0.000000  1
  Er  Er2  1  0.516625  0.064453  0.250000  1
  Er  Er3  1  0.935547  0.483375  0.750000  1
  Er  Er4  1  0.483375  0.935547  0.750000  1
  Er  Er5  1  0.064453  0.516625  0.250000  1
  Ir  Ir6  1  0.500000  0.500000  0.500000  1
  Ir  Ir7  1  0.500000  0.500000  0.000000  1
  O  O8  1  0.443193  0.180134  0.535667  1
  O  O9  1  0.819866  0.556807  0.464333  1
  O  O10  1  0.443193  0.180134  0.964333  1
  O  O11  1  0.819866  0.556807  0.035667  1
  O  O12  1  0.556807  0.819866  0.464333  1
  O  O13  1  0.180134  0.443193  0.535667  1
  O  O14  1  0.556807  0.819866  0.035667  1
  O  O15  1  0.180134  0.443193  0.964333  1
  O  O16  1  0.164475  0.878523  0.250000  1
  O  O17  1  0.121477  0.835525  0.750000  1
  O  O18  1  0.835525  0.121477  0.750000  1
  O  O19  1  0.878523  0.164475  0.250000  1
  O  O20  1  0.404862  0.404862  0.250000  1
  O  O21  1  0.595138  0.595138  0.750000  1
