# generated using pymatgen
data_Eu2ThSn3IrRh2
_symmetry_space_group_name_H-M   'P 1'
_cell_length_a   7.54770775
_cell_length_b   7.70698787
_cell_length_c   4.16565500
_cell_angle_alpha   90.00000000
_cell_angle_beta   90.00000000
_cell_angle_gamma   120.67315759
_symmetry_Int_Tables_number   1
_chemical_formula_structural   Eu2ThSn3IrRh2
_chemical_formula_sum   'Eu2 Th1 Sn3 Ir1 Rh2'
_cell_volume   208.41435840
_cell_formula_units_Z   1
loop_
 _symmetry_equiv_pos_site_id
 _symmetry_equiv_pos_as_xyz
  1  'x, y, z'
loop_
 _atom_site_type_symbol
 _atom_site_label
 _atom_site_symmetry_multiplicity
 _atom_site_fract_x
 _atom_site_fract_y
 _atom_site_fract_z
 _atom_site_occupancy
  Eu  Eu0  1  0.413040  0.411256  0.500000  1
  Eu  Eu1  1  0.590429  0.004985  0.500000  1
  Th  Th2  1  0.999642  0.585932  0.500000  1
  Sn  Sn3  1  0.735279  0.747989  0.000000  1
  Sn  Sn4  1  0.262619  0.010613  0.000000  1
  Sn  Sn5  1  0.001646  0.239145  0.000000  1
  Ir  Ir6  1  0.698219  0.358738  0.000000  1
  Rh  Rh7  1  0.300182  0.661129  0.000000  1
  Rh  Rh8  1  0.998945  0.980214  0.500000  1
