# generated using pymatgen
data_Tb5Cd3InAu2
_symmetry_space_group_name_H-M   'P 1'
_cell_length_a   8.19326642
_cell_length_b   18.58309801
_cell_length_c   3.67900200
_cell_angle_alpha   90.00000000
_cell_angle_beta   90.00000000
_cell_angle_gamma   89.90029214
_symmetry_Int_Tables_number   1
_chemical_formula_structural   Tb5Cd3InAu2
_chemical_formula_sum   'Tb10 Cd6 In2 Au4'
_cell_volume   560.15028478
_cell_formula_units_Z   2
loop_
 _symmetry_equiv_pos_site_id
 _symmetry_equiv_pos_as_xyz
  1  'x, y, z'
loop_
 _atom_site_type_symbol
 _atom_site_label
 _atom_site_symmetry_multiplicity
 _atom_site_fract_x
 _atom_site_fract_y
 _atom_site_fract_z
 _atom_site_occupancy
  Tb  Tb0  1  0.500000  0.500000  0.000000  1
  Tb  Tb1  1  0.000000  0.000000  0.000000  1
  Tb  Tb2  1  0.740888  0.284342  0.000000  1
  Tb  Tb3  1  0.259112  0.715658  0.000000  1
  Tb  Tb4  1  0.757709  0.783570  0.000000  1
  Tb  Tb5  1  0.242291  0.216430  0.000000  1
  Tb  Tb6  1  0.617069  0.081430  0.000000  1
  Tb  Tb7  1  0.382931  0.918570  0.000000  1
  Tb  Tb8  1  0.884441  0.580843  0.000000  1
  Tb  Tb9  1  0.115559  0.419157  0.000000  1
  Cd  Cd10  1  0.710149  0.933563  0.500000  1
  Cd  Cd11  1  0.289851  0.066437  0.500000  1
  Cd  Cd12  1  0.786997  0.432997  0.500000  1
  Cd  Cd13  1  0.213003  0.567003  0.500000  1
  Cd  Cd14  1  0.575239  0.645889  0.500000  1
  Cd  Cd15  1  0.424761  0.354111  0.500000  1
  In  In16  1  0.925569  0.146444  0.500000  1
  In  In17  1  0.074431  0.853556  0.500000  1
  Au  Au18  1  0.528410  0.197740  0.500000  1
  Au  Au19  1  0.471590  0.802260  0.500000  1
  Au  Au20  1  0.971320  0.696999  0.500000  1
  Au  Au21  1  0.028680  0.303001  0.500000  1
