# generated using pymatgen
data_Zr11Ta2Al9(CoIr3)2
_symmetry_space_group_name_H-M   'P 1'
_cell_length_a   9.12271946
_cell_length_b   9.05056106
_cell_length_c   9.12271867
_cell_angle_alpha   59.82305585
_cell_angle_beta   59.90446910
_cell_angle_gamma   59.82305912
_symmetry_Int_Tables_number   1
_chemical_formula_structural   Zr11Ta2Al9(CoIr3)2
_chemical_formula_sum   'Zr11 Ta2 Al9 Co2 Ir6'
_cell_volume   530.79833924
_cell_formula_units_Z   1
loop_
 _symmetry_equiv_pos_site_id
 _symmetry_equiv_pos_as_xyz
  1  'x, y, z'
loop_
 _atom_site_type_symbol
 _atom_site_label
 _atom_site_symmetry_multiplicity
 _atom_site_fract_x
 _atom_site_fract_y
 _atom_site_fract_z
 _atom_site_occupancy
  Zr  Zr0  1  0.214088  0.183627  0.798465  1
  Zr  Zr1  1  0.798465  0.183627  0.214088  1
  Zr  Zr2  1  0.187844  0.812420  0.187844  1
  Zr  Zr3  1  0.806914  0.811306  0.185300  1
  Zr  Zr4  1  0.185300  0.811306  0.806914  1
  Zr  Zr5  1  0.797187  0.184329  0.797187  1
  Zr  Zr6  1  0.380398  0.384718  0.380398  1
  Zr  Zr7  1  0.381489  0.855769  0.381489  1
  Zr  Zr8  1  0.854350  0.384336  0.381135  1
  Zr  Zr9  1  0.381135  0.384336  0.854350  1
  Zr  Zr10  1  0.843565  0.476373  0.843565  1
  Ta  Ta11  1  0.514796  0.827140  0.832288  1
  Ta  Ta12  1  0.832288  0.827140  0.514796  1
  Al  Al13  1  0.160824  0.163699  0.160824  1
  Al  Al14  1  0.164498  0.506855  0.164498  1
  Al  Al15  1  0.511449  0.164977  0.161820  1
  Al  Al16  1  0.161820  0.164977  0.511449  1
  Al  Al17  1  0.617652  0.619886  0.617652  1
  Al  Al18  1  0.619078  0.144317  0.619078  1
  Al  Al19  1  0.149783  0.619337  0.617827  1
  Al  Al20  1  0.617827  0.619337  0.149783  1
  Al  Al21  1  0.831606  0.826119  0.831606  1
  Co  Co22  1  0.501849  0.500254  0.501849  1
  Co  Co23  1  0.986318  0.028536  0.986318  1
  Ir  Ir24  1  0.002553  0.001477  0.499056  1
  Ir  Ir25  1  0.499056  0.001477  0.002553  1
  Ir  Ir26  1  0.005496  0.502106  0.005496  1
  Ir  Ir27  1  0.489142  0.503425  0.006030  1
  Ir  Ir28  1  0.006030  0.503425  0.489142  1
  Ir  Ir29  1  0.497202  0.003374  0.497202  1
