# generated using pymatgen
data_La7SmSc12Si15As
_symmetry_space_group_name_H-M   'P 1'
_cell_length_a   7.34447836
_cell_length_b   7.58818410
_cell_length_c   14.26939559
_cell_angle_alpha   90.09842529
_cell_angle_beta   89.11473040
_cell_angle_gamma   90.40274450
_symmetry_Int_Tables_number   1
_chemical_formula_structural   La7SmSc12Si15As
_chemical_formula_sum   'La7 Sm1 Sc12 Si15 As1'
_cell_volume   795.13571219
_cell_formula_units_Z   1
loop_
 _symmetry_equiv_pos_site_id
 _symmetry_equiv_pos_as_xyz
  1  'x, y, z'
loop_
 _atom_site_type_symbol
 _atom_site_label
 _atom_site_symmetry_multiplicity
 _atom_site_fract_x
 _atom_site_fract_y
 _atom_site_fract_z
 _atom_site_occupancy
  La  La0  1  0.011803  0.171606  0.097436  1
  La  La1  1  0.988824  0.829134  0.901491  1
  La  La2  1  0.488559  0.671094  0.902209  1
  La  La3  1  0.991915  0.823896  0.595952  1
  La  La4  1  0.511573  0.329339  0.097380  1
  La  La5  1  0.009256  0.175926  0.404431  1
  La  La6  1  0.503522  0.325645  0.402402  1
  Sm  Sm7  1  0.500010  0.674233  0.599759  1
  Sc  Sc8  1  0.163028  0.497018  0.749267  1
  Sc  Sc9  1  0.837559  0.504417  0.253354  1
  Sc  Sc10  1  0.338370  0.993957  0.251230  1
  Sc  Sc11  1  0.662103  0.004477  0.748395  1
  Sc  Sc12  1  0.339284  0.170960  0.627731  1
  Sc  Sc13  1  0.662061  0.827333  0.373433  1
  Sc  Sc14  1  0.160592  0.671181  0.377722  1
  Sc  Sc15  1  0.668495  0.825944  0.126270  1
  Sc  Sc16  1  0.835924  0.330600  0.622164  1
  Sc  Sc17  1  0.331300  0.173606  0.872227  1
  Sc  Sc18  1  0.831410  0.324895  0.873198  1
  Sc  Sc19  1  0.167863  0.675948  0.125520  1
  Si  Si20  1  0.034470  0.128399  0.747766  1
  Si  Si21  1  0.964762  0.872624  0.250964  1
  Si  Si22  1  0.459088  0.627938  0.249190  1
  Si  Si23  1  0.539144  0.374623  0.749717  1
  Si  Si24  1  0.293620  0.879741  0.748471  1
  Si  Si25  1  0.709176  0.115611  0.249775  1
  Si  Si26  1  0.207293  0.387732  0.250084  1
  Si  Si27  1  0.790996  0.614605  0.748384  1
  Si  Si28  1  0.817132  0.544451  0.455015  1
  Si  Si29  1  0.346167  0.957047  0.462263  1
  Si  Si30  1  0.850726  0.537157  0.039511  1
  Si  Si31  1  0.653669  0.034919  0.541366  1
  Si  Si32  1  0.148885  0.463759  0.959379  1
  Si  Si33  1  0.649144  0.036750  0.959091  1
  Si  Si34  1  0.350991  0.964071  0.040065  1
  As  As35  1  0.181283  0.459366  0.547385  1
