# generated using pymatgen
data_Yb2PrErCu2Sn5
_symmetry_space_group_name_H-M   'P 1'
_cell_length_a   4.43353800
_cell_length_b   8.76772400
_cell_length_c   14.26408500
_cell_angle_alpha   90.00000000
_cell_angle_beta   90.00000000
_cell_angle_gamma   90.00000000
_symmetry_Int_Tables_number   1
_chemical_formula_structural   Yb2PrErCu2Sn5
_chemical_formula_sum   'Yb4 Pr2 Er2 Cu4 Sn10'
_cell_volume   554.47404742
_cell_formula_units_Z   2
loop_
 _symmetry_equiv_pos_site_id
 _symmetry_equiv_pos_as_xyz
  1  'x, y, z'
loop_
 _atom_site_type_symbol
 _atom_site_label
 _atom_site_symmetry_multiplicity
 _atom_site_fract_x
 _atom_site_fract_y
 _atom_site_fract_z
 _atom_site_occupancy
  Yb  Yb0  1  0.500000  0.792668  0.745229  1
  Yb  Yb1  1  0.000000  0.207332  0.754771  1
  Yb  Yb2  1  0.000000  0.207332  0.245229  1
  Yb  Yb3  1  0.500000  0.792668  0.254771  1
  Pr  Pr4  1  0.500000  0.142417  0.000000  1
  Pr  Pr5  1  0.000000  0.857583  0.500000  1
  Er  Er6  1  0.500000  0.694252  0.000000  1
  Er  Er7  1  0.000000  0.305748  0.500000  1
  Cu  Cu8  1  0.500000  0.378257  0.644371  1
  Cu  Cu9  1  0.000000  0.621743  0.855629  1
  Cu  Cu10  1  0.000000  0.621743  0.144371  1
  Cu  Cu11  1  0.500000  0.378257  0.355629  1
  Sn  Sn12  1  0.500000  0.084455  0.396912  1
  Sn  Sn13  1  0.000000  0.556574  0.664612  1
  Sn  Sn14  1  0.000000  0.416574  0.000000  1
  Sn  Sn15  1  0.500000  0.443426  0.164612  1
  Sn  Sn16  1  0.500000  0.583426  0.500000  1
  Sn  Sn17  1  0.500000  0.443426  0.835388  1
  Sn  Sn18  1  0.000000  0.915545  0.896912  1
  Sn  Sn19  1  0.000000  0.556574  0.335388  1
  Sn  Sn20  1  0.500000  0.084455  0.603088  1
  Sn  Sn21  1  0.000000  0.915545  0.103088  1
