# generated using pymatgen
data_ErCo5As3
_symmetry_space_group_name_H-M   'P 1'
_cell_length_a   3.79083000
_cell_length_b   12.19475700
_cell_length_c   10.69470400
_cell_angle_alpha   90.00000000
_cell_angle_beta   90.00000000
_cell_angle_gamma   90.00000000
_symmetry_Int_Tables_number   1
_chemical_formula_structural   ErCo5As3
_chemical_formula_sum   'Er4 Co20 As12'
_cell_volume   494.39745744
_cell_formula_units_Z   4
loop_
 _symmetry_equiv_pos_site_id
 _symmetry_equiv_pos_as_xyz
  1  'x, y, z'
loop_
 _atom_site_type_symbol
 _atom_site_label
 _atom_site_symmetry_multiplicity
 _atom_site_fract_x
 _atom_site_fract_y
 _atom_site_fract_z
 _atom_site_occupancy
  Er  Er0  1  0.750000  0.702036  0.081351  1
  Er  Er1  1  0.250000  0.297964  0.918649  1
  Er  Er2  1  0.250000  0.797964  0.581351  1
  Er  Er3  1  0.750000  0.202036  0.418649  1
  Co  Co4  1  0.750000  0.697289  0.384056  1
  Co  Co5  1  0.250000  0.302711  0.615944  1
  Co  Co6  1  0.250000  0.802711  0.884056  1
  Co  Co7  1  0.750000  0.197289  0.115944  1
  Co  Co8  1  0.750000  0.991327  0.212393  1
  Co  Co9  1  0.250000  0.008673  0.787607  1
  Co  Co10  1  0.250000  0.508673  0.712393  1
  Co  Co11  1  0.750000  0.491327  0.287607  1
  Co  Co12  1  0.750000  0.677662  0.783654  1
  Co  Co13  1  0.250000  0.322338  0.216346  1
  Co  Co14  1  0.250000  0.822338  0.283654  1
  Co  Co15  1  0.750000  0.177662  0.716346  1
  Co  Co16  1  0.750000  0.931999  0.969022  1
  Co  Co17  1  0.250000  0.068001  0.030978  1
  Co  Co18  1  0.250000  0.568001  0.469022  1
  Co  Co19  1  0.750000  0.431999  0.530978  1
  Co  Co20  1  0.750000  0.987477  0.592712  1
  Co  Co21  1  0.250000  0.012523  0.407288  1
  Co  Co22  1  0.250000  0.512523  0.092712  1
  Co  Co23  1  0.750000  0.487476  0.907288  1
  As  As24  1  0.750000  0.614342  0.584424  1
  As  As25  1  0.250000  0.385658  0.415576  1
  As  As26  1  0.250000  0.885658  0.084424  1
  As  As27  1  0.750000  0.114342  0.915576  1
  As  As28  1  0.750000  0.890384  0.399679  1
  As  As29  1  0.250000  0.109616  0.600321  1
  As  As30  1  0.250000  0.609616  0.899679  1
  As  As31  1  0.750000  0.390384  0.100321  1
  As  As32  1  0.750000  0.869979  0.768417  1
  As  As33  1  0.250000  0.130021  0.231583  1
  As  As34  1  0.250000  0.630021  0.268417  1
  As  As35  1  0.750000  0.369979  0.731583  1
