# generated using pymatgen
data_Gd8Tm11LuPb16
_symmetry_space_group_name_H-M   'P 1'
_cell_length_a   8.15995600
_cell_length_b   8.23660022
_cell_length_c   15.52938700
_cell_angle_alpha   90.00000000
_cell_angle_beta   90.00000000
_cell_angle_gamma   90.01318903
_symmetry_Int_Tables_number   1
_chemical_formula_structural   Gd8Tm11LuPb16
_chemical_formula_sum   'Gd8 Tm11 Lu1 Pb16'
_cell_volume   1043.73465954
_cell_formula_units_Z   1
loop_
 _symmetry_equiv_pos_site_id
 _symmetry_equiv_pos_as_xyz
  1  'x, y, z'
loop_
 _atom_site_type_symbol
 _atom_site_label
 _atom_site_symmetry_multiplicity
 _atom_site_fract_x
 _atom_site_fract_y
 _atom_site_fract_z
 _atom_site_occupancy
  Gd  Gd0  1  0.534632  0.323154  0.901446  1
  Gd  Gd1  1  0.034379  0.177169  0.598116  1
  Gd  Gd2  1  0.465166  0.676934  0.400893  1
  Gd  Gd3  1  0.966019  0.824205  0.098844  1
  Gd  Gd4  1  0.465166  0.676934  0.099107  1
  Gd  Gd5  1  0.966019  0.824205  0.401156  1
  Gd  Gd6  1  0.534632  0.323154  0.598554  1
  Gd  Gd7  1  0.034379  0.177169  0.901884  1
  Tm  Tm8  1  0.374488  0.842415  0.878671  1
  Tm  Tm9  1  0.874587  0.657243  0.621346  1
  Tm  Tm10  1  0.625047  0.157270  0.378263  1
  Tm  Tm11  1  0.125776  0.342350  0.121720  1
  Tm  Tm12  1  0.625047  0.157270  0.121737  1
  Tm  Tm13  1  0.125776  0.342350  0.378280  1
  Tm  Tm14  1  0.374488  0.842415  0.621329  1
  Tm  Tm15  1  0.874587  0.657243  0.878654  1
  Tm  Tm16  1  0.207452  0.504987  0.750000  1
  Tm  Tm17  1  0.707126  0.995456  0.750000  1
  Tm  Tm18  1  0.793073  0.494718  0.250000  1
  Lu  Lu19  1  0.292640  0.004462  0.250000  1
  Pb  Pb20  1  0.285950  0.036166  0.043797  1
  Pb  Pb21  1  0.784923  0.463863  0.456319  1
  Pb  Pb22  1  0.714035  0.964254  0.543545  1
  Pb  Pb23  1  0.215111  0.535858  0.956839  1
  Pb  Pb24  1  0.714035  0.964254  0.956455  1
  Pb  Pb25  1  0.215111  0.535858  0.543161  1
  Pb  Pb26  1  0.285950  0.036166  0.456203  1
  Pb  Pb27  1  0.784923  0.463863  0.043681  1
  Pb  Pb28  1  0.569434  0.628751  0.750000  1
  Pb  Pb29  1  0.069239  0.871562  0.750000  1
  Pb  Pb30  1  0.430174  0.371037  0.250000  1
  Pb  Pb31  1  0.930743  0.128067  0.250000  1
  Pb  Pb32  1  0.345792  0.152377  0.750000  1
  Pb  Pb33  1  0.846511  0.347403  0.750000  1
  Pb  Pb34  1  0.653308  0.846918  0.250000  1
  Pb  Pb35  1  0.154279  0.652499  0.250000  1
