# generated using pymatgen
data_Sc7U(Co4P3)4
_symmetry_space_group_name_H-M   'P 1'
_cell_length_a   12.11989838
_cell_length_b   12.11989718
_cell_length_c   3.65507500
_cell_angle_alpha   90.00000000
_cell_angle_beta   90.00000000
_cell_angle_gamma   120.57814233
_symmetry_Int_Tables_number   1
_chemical_formula_structural   Sc7U(Co4P3)4
_chemical_formula_sum   'Sc7 U1 Co16 P12'
_cell_volume   462.23747759
_cell_formula_units_Z   1
loop_
 _symmetry_equiv_pos_site_id
 _symmetry_equiv_pos_as_xyz
  1  'x, y, z'
loop_
 _atom_site_type_symbol
 _atom_site_label
 _atom_site_symmetry_multiplicity
 _atom_site_fract_x
 _atom_site_fract_y
 _atom_site_fract_z
 _atom_site_occupancy
  Sc  Sc0  1  0.439349  0.439349  0.000000  1
  Sc  Sc1  1  0.000553  0.186443  0.500000  1
  Sc  Sc2  1  0.556272  0.998566  0.000000  1
  Sc  Sc3  1  0.333800  0.666137  0.000000  1
  Sc  Sc4  1  0.666137  0.333800  0.000000  1
  Sc  Sc5  1  0.998566  0.556272  0.000000  1
  Sc  Sc6  1  0.186443  0.000553  0.500000  1
  U  U7  1  0.827368  0.827368  0.500000  1
  Co  Co8  1  0.629309  0.822374  0.000000  1
  Co  Co9  1  0.369869  0.193092  0.000000  1
  Co  Co10  1  0.001178  0.720802  0.500000  1
  Co  Co11  1  0.276381  0.276381  0.500000  1
  Co  Co12  1  0.873987  0.356066  0.500000  1
  Co  Co13  1  0.720802  0.001178  0.500000  1
  Co  Co14  1  0.822374  0.629309  0.000000  1
  Co  Co15  1  0.180267  0.805686  0.000000  1
  Co  Co16  1  0.356066  0.873987  0.500000  1
  Co  Co17  1  0.125706  0.478995  0.500000  1
  Co  Co18  1  0.645809  0.520408  0.500000  1
  Co  Co19  1  0.993044  0.993044  0.000000  1
  Co  Co20  1  0.520408  0.645809  0.500000  1
  Co  Co21  1  0.478995  0.125706  0.500000  1
  Co  Co22  1  0.193092  0.369869  0.000000  1
  Co  Co23  1  0.805686  0.180267  0.000000  1
  P  P24  1  0.000894  0.350663  0.000000  1
  P  P25  1  0.826334  0.516031  0.500000  1
  P  P26  1  0.688600  0.174417  0.500000  1
  P  P27  1  0.172844  0.172844  0.000000  1
  P  P28  1  0.647100  0.647100  0.000000  1
  P  P29  1  0.822727  0.007829  0.000000  1
  P  P30  1  0.516031  0.826334  0.500000  1
  P  P31  1  0.174417  0.688600  0.500000  1
  P  P32  1  0.350663  0.000894  0.000000  1
  P  P33  1  0.482242  0.308858  0.500000  1
  P  P34  1  0.007829  0.822727  0.000000  1
  P  P35  1  0.308858  0.482242  0.500000  1
