# generated using pymatgen
data_Zr10CuGe(BiPb)3
_symmetry_space_group_name_H-M   'P 1'
_cell_length_a   8.83234800
_cell_length_b   8.83234822
_cell_length_c   5.94873000
_cell_angle_alpha   90.00000000
_cell_angle_beta   90.00000000
_cell_angle_gamma   119.99999917
_symmetry_Int_Tables_number   1
_chemical_formula_structural   Zr10CuGe(BiPb)3
_chemical_formula_sum   'Zr10 Cu1 Ge1 Bi3 Pb3'
_cell_volume   401.89004473
_cell_formula_units_Z   1
loop_
 _symmetry_equiv_pos_site_id
 _symmetry_equiv_pos_as_xyz
  1  'x, y, z'
loop_
 _atom_site_type_symbol
 _atom_site_label
 _atom_site_symmetry_multiplicity
 _atom_site_fract_x
 _atom_site_fract_y
 _atom_site_fract_z
 _atom_site_occupancy
  Zr  Zr0  1  0.732793  0.000000  0.244665  1
  Zr  Zr1  1  0.000000  0.732793  0.244665  1
  Zr  Zr2  1  0.267207  0.267207  0.244665  1
  Zr  Zr3  1  0.254955  0.000000  0.753504  1
  Zr  Zr4  1  0.000000  0.254955  0.753504  1
  Zr  Zr5  1  0.745045  0.745045  0.753504  1
  Zr  Zr6  1  0.333333  0.666667  0.496744  1
  Zr  Zr7  1  0.666667  0.333333  0.496744  1
  Zr  Zr8  1  0.666667  0.333333  0.002097  1
  Zr  Zr9  1  0.333333  0.666667  0.002097  1
  Cu  Cu10  1  0.000000  0.000000  0.020942  1
  Ge  Ge11  1  0.000000  0.000000  0.486138  1
  Bi  Bi12  1  0.607028  0.000000  0.750928  1
  Bi  Bi13  1  0.000000  0.607028  0.750928  1
  Bi  Bi14  1  0.392972  0.392972  0.750928  1
  Pb  Pb15  1  0.384814  0.000000  0.249317  1
  Pb  Pb16  1  0.000000  0.384814  0.249317  1
  Pb  Pb17  1  0.615186  0.615186  0.249317  1
