# generated using pymatgen
data_TmLu2Al3Ge2Pt
_symmetry_space_group_name_H-M   'P 1'
_cell_length_a   6.92583300
_cell_length_b   6.91982622
_cell_length_c   4.16142200
_cell_angle_alpha   90.00000000
_cell_angle_beta   90.00000000
_cell_angle_gamma   120.02872390
_symmetry_Int_Tables_number   1
_chemical_formula_structural   TmLu2Al3Ge2Pt
_chemical_formula_sum   'Tm1 Lu2 Al3 Ge2 Pt1'
_cell_volume   172.66877928
_cell_formula_units_Z   1
loop_
 _symmetry_equiv_pos_site_id
 _symmetry_equiv_pos_as_xyz
  1  'x, y, z'
loop_
 _atom_site_type_symbol
 _atom_site_label
 _atom_site_symmetry_multiplicity
 _atom_site_fract_x
 _atom_site_fract_y
 _atom_site_fract_z
 _atom_site_occupancy
  Tm  Tm0  1  0.412417  0.000000  0.000000  1
  Lu  Lu1  1  0.000218  0.411937  0.000000  1
  Lu  Lu2  1  0.588280  0.588062  0.000000  1
  Al  Al3  1  0.765004  0.000000  0.500001  1
  Al  Al4  1  0.235299  0.235330  0.500001  1
  Al  Al5  1  0.999969  0.764669  0.500001  1
  Ge  Ge6  1  0.668022  0.335265  0.500001  1
  Ge  Ge7  1  0.332758  0.664736  0.500001  1
  Pt  Pt8  1  0.998034  0.000000  0.000000  1
