# generated using pymatgen
data_Ac5TlTe8
_symmetry_space_group_name_H-M   'P 1'
_cell_length_a   8.69283160
_cell_length_b   8.69282446
_cell_length_c   8.69279468
_cell_angle_alpha   109.37152821
_cell_angle_beta   109.67011193
_cell_angle_gamma   109.37204692
_symmetry_Int_Tables_number   1
_chemical_formula_structural   Ac5TlTe8
_chemical_formula_sum   'Ac5 Tl1 Te8'
_cell_volume   505.65770178
_cell_formula_units_Z   1
loop_
 _symmetry_equiv_pos_site_id
 _symmetry_equiv_pos_as_xyz
  1  'x, y, z'
loop_
 _atom_site_type_symbol
 _atom_site_label
 _atom_site_symmetry_multiplicity
 _atom_site_fract_x
 _atom_site_fract_y
 _atom_site_fract_z
 _atom_site_occupancy
  Ac  Ac0  1  0.243394  0.627993  0.376004  1
  Ac  Ac1  1  0.375000  0.250000  0.624999  1
  Ac  Ac2  1  0.623997  0.367389  0.251989  1
  Ac  Ac3  1  0.748010  0.872006  0.115399  1
  Ac  Ac4  1  0.884602  0.132613  0.756607  1
  Tl  Tl5  1  0.125000  0.750001  0.875000  1
  Te  Te6  1  0.995016  0.851071  0.491565  1
  Te  Te7  1  0.155969  0.161088  0.160270  1
  Te  Te8  1  0.356056  0.496550  0.004985  1
  Te  Te9  1  0.640495  0.648928  0.643944  1
  Te  Te10  1  0.505119  0.004301  0.844029  1
  Te  Te11  1  0.508434  0.003449  0.359505  1
  Te  Te12  1  0.839729  0.495700  0.000818  1
  Te  Te13  1  0.999182  0.338911  0.494881  1
