# generated using pymatgen
data_Th3Mg3RePd2
_symmetry_space_group_name_H-M   'P 1'
_cell_length_a   7.66663200
_cell_length_b   7.66663244
_cell_length_c   4.05982500
_cell_angle_alpha   90.00000000
_cell_angle_beta   90.00000000
_cell_angle_gamma   119.99999927
_symmetry_Int_Tables_number   1
_chemical_formula_structural   Th3Mg3RePd2
_chemical_formula_sum   'Th3 Mg3 Re1 Pd2'
_cell_volume   206.65561420
_cell_formula_units_Z   1
loop_
 _symmetry_equiv_pos_site_id
 _symmetry_equiv_pos_as_xyz
  1  'x, y, z'
loop_
 _atom_site_type_symbol
 _atom_site_label
 _atom_site_symmetry_multiplicity
 _atom_site_fract_x
 _atom_site_fract_y
 _atom_site_fract_z
 _atom_site_occupancy
  Th  Th0  1  0.429549  0.412299  0.500000  1
  Th  Th1  1  0.587701  0.017249  0.500000  1
  Th  Th2  1  0.982751  0.570451  0.500000  1
  Mg  Mg3  1  0.760865  0.762975  0.000000  1
  Mg  Mg4  1  0.237025  0.997891  0.000000  1
  Mg  Mg5  1  0.002109  0.239135  0.000000  1
  Re  Re6  1  0.666667  0.333333  0.000000  1
  Pd  Pd7  1  0.333333  0.666667  0.000000  1
  Pd  Pd8  1  0.000000  0.000000  0.500000  1
