# generated using pymatgen
data_Ti4Al2B4(RuRh)5
_symmetry_space_group_name_H-M   'P 1'
_cell_length_a   2.98285300
_cell_length_b   9.20581470
_cell_length_c   9.26442351
_cell_angle_alpha   90.16523778
_cell_angle_beta   90.00000000
_cell_angle_gamma   90.00000000
_symmetry_Int_Tables_number   1
_chemical_formula_structural   Ti4Al2B4(RuRh)5
_chemical_formula_sum   'Ti4 Al2 B4 Ru5 Rh5'
_cell_volume   254.39623152
_cell_formula_units_Z   1
loop_
 _symmetry_equiv_pos_site_id
 _symmetry_equiv_pos_as_xyz
  1  'x, y, z'
loop_
 _atom_site_type_symbol
 _atom_site_label
 _atom_site_symmetry_multiplicity
 _atom_site_fract_x
 _atom_site_fract_y
 _atom_site_fract_z
 _atom_site_occupancy
  Ti  Ti0  1  0.000000  0.827856  0.178929  1
  Ti  Ti1  1  0.000000  0.326687  0.315258  1
  Ti  Ti2  1  0.000000  0.673252  0.671809  1
  Ti  Ti3  1  0.000000  0.178319  0.835893  1
  Al  Al4  1  0.000000  0.498644  0.002438  1
  Al  Al5  1  0.000000  0.000654  0.497800  1
  B  B6  1  0.000000  0.125840  0.127145  1
  B  B7  1  0.000000  0.620825  0.371853  1
  B  B8  1  0.000000  0.377029  0.623658  1
  B  B9  1  0.000000  0.876527  0.876622  1
  Ru  Ru10  1  0.499999  0.996978  0.999287  1
  Ru  Ru11  1  0.499999  0.285163  0.069192  1
  Ru  Ru12  1  0.499999  0.577299  0.213266  1
  Ru  Ru13  1  0.499999  0.071978  0.286003  1
  Ru  Ru14  1  0.499999  0.498582  0.499782  1
  Rh  Rh15  1  0.499999  0.786169  0.431506  1
  Rh  Rh16  1  0.499999  0.212452  0.576889  1
  Rh  Rh17  1  0.499999  0.926413  0.712701  1
  Rh  Rh18  1  0.499999  0.427961  0.786588  1
  Rh  Rh19  1  0.499999  0.711378  0.923385  1
