# generated using pymatgen
data_Nb9Mo3Os4
_symmetry_space_group_name_H-M   'P 1'
_cell_length_a   6.44283200
_cell_length_b   6.44283200
_cell_length_c   6.44283200
_cell_angle_alpha   90.00000000
_cell_angle_beta   90.00000000
_cell_angle_gamma   90.00000000
_symmetry_Int_Tables_number   1
_chemical_formula_structural   Nb9Mo3Os4
_chemical_formula_sum   'Nb9 Mo3 Os4'
_cell_volume   267.44249868
_cell_formula_units_Z   1
loop_
 _symmetry_equiv_pos_site_id
 _symmetry_equiv_pos_as_xyz
  1  'x, y, z'
loop_
 _atom_site_type_symbol
 _atom_site_label
 _atom_site_symmetry_multiplicity
 _atom_site_fract_x
 _atom_site_fract_y
 _atom_site_fract_z
 _atom_site_occupancy
  Nb  Nb0  1  0.249407  0.249407  0.249407  1
  Nb  Nb1  1  0.750593  0.249407  0.249407  1
  Nb  Nb2  1  0.249407  0.750593  0.249407  1
  Nb  Nb3  1  0.750593  0.750593  0.249407  1
  Nb  Nb4  1  0.500000  0.500000  0.500000  1
  Nb  Nb5  1  0.249407  0.249407  0.750593  1
  Nb  Nb6  1  0.750593  0.249407  0.750593  1
  Nb  Nb7  1  0.249407  0.750593  0.750593  1
  Nb  Nb8  1  0.750593  0.750593  0.750593  1
  Mo  Mo9  1  0.500000  0.000000  0.000000  1
  Mo  Mo10  1  0.000000  0.500000  0.000000  1
  Mo  Mo11  1  0.000000  0.000000  0.500000  1
  Os  Os12  1  0.000000  0.000000  0.000000  1
  Os  Os13  1  0.500000  0.500000  0.000000  1
  Os  Os14  1  0.500000  0.000000  0.500000  1
  Os  Os15  1  0.000000  0.500000  0.500000  1
