# generated using pymatgen
data_YU2(AlIr)3
_symmetry_space_group_name_H-M   'P 1'
_cell_length_a   7.08151494
_cell_length_b   7.08151549
_cell_length_c   4.02003300
_cell_angle_alpha   90.00000000
_cell_angle_beta   90.00000000
_cell_angle_gamma   121.51995636
_symmetry_Int_Tables_number   1
_chemical_formula_structural   YU2(AlIr)3
_chemical_formula_sum   'Y1 U2 Al3 Ir3'
_cell_volume   171.85218453
_cell_formula_units_Z   1
loop_
 _symmetry_equiv_pos_site_id
 _symmetry_equiv_pos_as_xyz
  1  'x, y, z'
loop_
 _atom_site_type_symbol
 _atom_site_label
 _atom_site_symmetry_multiplicity
 _atom_site_fract_x
 _atom_site_fract_y
 _atom_site_fract_z
 _atom_site_occupancy
  Y  Y0  1  0.417672  0.417672  0.500000  1
  U  U1  1  0.581174  0.003043  0.500000  1
  U  U2  1  0.003043  0.581174  0.500000  1
  Al  Al3  1  0.751053  0.751053  0.000000  1
  Al  Al4  1  0.234661  0.007392  0.000000  1
  Al  Al5  1  0.007392  0.234661  0.000000  1
  Ir  Ir6  1  0.693558  0.329689  0.000000  1
  Ir  Ir7  1  0.329689  0.693558  0.000000  1
  Ir  Ir8  1  0.981757  0.981757  0.500000  1
