# generated using pymatgen
data_Ho3ErPdPt3O14
_symmetry_space_group_name_H-M   'P 1'
_cell_length_a   7.23699955
_cell_length_b   7.23700080
_cell_length_c   7.24431709
_cell_angle_alpha   60.03340633
_cell_angle_beta   60.03341105
_cell_angle_gamma   60.00001193
_symmetry_Int_Tables_number   1
_chemical_formula_structural   Ho3ErPdPt3O14
_chemical_formula_sum   'Ho3 Er1 Pd1 Pt3 O14'
_cell_volume   268.42241612
_cell_formula_units_Z   1
loop_
 _symmetry_equiv_pos_site_id
 _symmetry_equiv_pos_as_xyz
  1  'x, y, z'
loop_
 _atom_site_type_symbol
 _atom_site_label
 _atom_site_symmetry_multiplicity
 _atom_site_fract_x
 _atom_site_fract_y
 _atom_site_fract_z
 _atom_site_occupancy
  Ho  Ho0  1  0.625000  0.625000  0.625000  1
  Ho  Ho1  1  0.625000  0.125000  0.625000  1
  Ho  Ho2  1  0.125000  0.625000  0.625000  1
  Er  Er3  1  0.625000  0.625000  0.125000  1
  Pd  Pd4  1  0.125000  0.125000  0.625000  1
  Pt  Pt5  1  0.625000  0.125000  0.125000  1
  Pt  Pt6  1  0.125000  0.125000  0.125000  1
  Pt  Pt7  1  0.125000  0.625000  0.125000  1
  O  O8  1  0.033427  0.467830  0.465316  1
  O  O9  1  0.782804  0.782804  0.216585  1
  O  O10  1  0.782804  0.217805  0.216585  1
  O  O11  1  0.749537  0.749537  0.751388  1
  O  O12  1  0.032195  0.467196  0.033415  1
  O  O13  1  0.467830  0.033427  0.465316  1
  O  O14  1  0.033427  0.033427  0.465316  1
  O  O15  1  0.500463  0.500463  0.498612  1
  O  O16  1  0.216573  0.216573  0.784684  1
  O  O17  1  0.217805  0.782804  0.216585  1
  O  O18  1  0.782170  0.216573  0.784684  1
  O  O19  1  0.467196  0.032195  0.033415  1
  O  O20  1  0.467196  0.467196  0.033415  1
  O  O21  1  0.216573  0.782170  0.784684  1
