# generated using pymatgen
data_Mg3Sc(Ta3B10)2
_symmetry_space_group_name_H-M   'P 1'
_cell_length_a   6.15077696
_cell_length_b   7.02351232
_cell_length_c   7.47243132
_cell_angle_alpha   94.62129578
_cell_angle_beta   101.91808693
_cell_angle_gamma   115.91489454
_symmetry_Int_Tables_number   1
_chemical_formula_structural   Mg3Sc(Ta3B10)2
_chemical_formula_sum   'Mg3 Sc1 Ta6 B20'
_cell_volume   278.68712224
_cell_formula_units_Z   1
loop_
 _symmetry_equiv_pos_site_id
 _symmetry_equiv_pos_as_xyz
  1  'x, y, z'
loop_
 _atom_site_type_symbol
 _atom_site_label
 _atom_site_symmetry_multiplicity
 _atom_site_fract_x
 _atom_site_fract_y
 _atom_site_fract_z
 _atom_site_occupancy
  Mg  Mg0  1  0.497952  0.997787  0.997076  1
  Mg  Mg1  1  0.000097  0.202438  0.604591  1
  Mg  Mg2  1  0.003878  0.602995  0.801806  1
  Sc  Sc3  1  0.998061  0.997486  0.000113  1
  Ta  Ta4  1  0.499526  0.798128  0.402157  1
  Ta  Ta5  1  0.999309  0.399148  0.202325  1
  Ta  Ta6  1  0.500850  0.205175  0.596301  1
  Ta  Ta7  1  0.000088  0.801509  0.398127  1
  Ta  Ta8  1  0.501211  0.600819  0.797568  1
  Ta  Ta9  1  0.499400  0.395755  0.200778  1
  B  B10  1  0.334460  0.234810  0.866456  1
  B  B11  1  0.332101  0.631034  0.067055  1
  B  B12  1  0.165996  0.367030  0.932930  1
  B  B13  1  0.333928  0.032496  0.265624  1
  B  B14  1  0.166510  0.763834  0.133500  1
  B  B15  1  0.833741  0.234700  0.866586  1
  B  B16  1  0.165024  0.166184  0.335328  1
  B  B17  1  0.832884  0.631526  0.064738  1
  B  B18  1  0.331340  0.432460  0.467640  1
  B  B19  1  0.666432  0.365865  0.934340  1
  B  B20  1  0.830602  0.030255  0.266886  1
  B  B21  1  0.664472  0.765445  0.132233  1
  B  B22  1  0.333262  0.835102  0.667488  1
  B  B23  1  0.166516  0.566893  0.535931  1
  B  B24  1  0.667592  0.165449  0.335943  1
  B  B25  1  0.836189  0.434165  0.469101  1
  B  B26  1  0.168256  0.968557  0.728325  1
  B  B27  1  0.834181  0.835558  0.663689  1
  B  B28  1  0.670059  0.568971  0.533904  1
  B  B29  1  0.666083  0.968425  0.731460  1
