# generated using pymatgen
data_Tm8Sc12Si15Ni
_symmetry_space_group_name_H-M   'P 1'
_cell_length_a   7.00910804
_cell_length_b   7.38795786
_cell_length_c   13.85732700
_cell_angle_alpha   90.00000000
_cell_angle_beta   90.00000000
_cell_angle_gamma   89.96555369
_symmetry_Int_Tables_number   1
_chemical_formula_structural   Tm8Sc12Si15Ni
_chemical_formula_sum   'Tm8 Sc12 Si15 Ni1'
_cell_volume   717.57376336
_cell_formula_units_Z   1
loop_
 _symmetry_equiv_pos_site_id
 _symmetry_equiv_pos_as_xyz
  1  'x, y, z'
loop_
 _atom_site_type_symbol
 _atom_site_label
 _atom_site_symmetry_multiplicity
 _atom_site_fract_x
 _atom_site_fract_y
 _atom_site_fract_z
 _atom_site_occupancy
  Tm  Tm0  1  0.010840  0.179123  0.095700  1
  Tm  Tm1  1  0.989830  0.823664  0.905014  1
  Tm  Tm2  1  0.489829  0.678367  0.904548  1
  Tm  Tm3  1  0.989830  0.823664  0.594986  1
  Tm  Tm4  1  0.511052  0.322172  0.095536  1
  Tm  Tm5  1  0.010840  0.179123  0.404300  1
  Tm  Tm6  1  0.511052  0.322172  0.404464  1
  Tm  Tm7  1  0.489829  0.678367  0.595452  1
  Sc  Sc8  1  0.163551  0.509447  0.750000  1
  Sc  Sc9  1  0.838674  0.496931  0.250000  1
  Sc  Sc10  1  0.338761  0.006007  0.250000  1
  Sc  Sc11  1  0.671189  0.998097  0.750000  1
  Sc  Sc12  1  0.315971  0.172141  0.627802  1
  Sc  Sc13  1  0.671296  0.826084  0.374380  1
  Sc  Sc14  1  0.170376  0.677174  0.374235  1
  Sc  Sc15  1  0.671296  0.826084  0.125620  1
  Sc  Sc16  1  0.837164  0.319095  0.627830  1
  Sc  Sc17  1  0.315971  0.172141  0.872198  1
  Sc  Sc18  1  0.837164  0.319095  0.872170  1
  Sc  Sc19  1  0.170376  0.677174  0.125765  1
  Si  Si20  1  0.969232  0.887655  0.250000  1
  Si  Si21  1  0.469617  0.613455  0.250000  1
  Si  Si22  1  0.532474  0.386428  0.750000  1
  Si  Si23  1  0.282946  0.872118  0.750000  1
  Si  Si24  1  0.713370  0.132959  0.250000  1
  Si  Si25  1  0.213260  0.369760  0.250000  1
  Si  Si26  1  0.782248  0.626835  0.750000  1
  Si  Si27  1  0.160873  0.466793  0.538569  1
  Si  Si28  1  0.840012  0.535089  0.462521  1
  Si  Si29  1  0.342180  0.965978  0.461395  1
  Si  Si30  1  0.840012  0.535089  0.037479  1
  Si  Si31  1  0.658358  0.034396  0.539989  1
  Si  Si32  1  0.160873  0.466793  0.961431  1
  Si  Si33  1  0.658358  0.034396  0.960011  1
  Si  Si34  1  0.342180  0.965978  0.038605  1
  Ni  Ni35  1  0.029119  0.100156  0.750000  1
