# generated using pymatgen
data_TaP2Br12N
_symmetry_space_group_name_H-M   'P 1'
_cell_length_a   8.80105564
_cell_length_b   8.80105581
_cell_length_c   17.18021100
_cell_angle_alpha   101.47657867
_cell_angle_beta   101.47657877
_cell_angle_gamma   67.19105056
_symmetry_Int_Tables_number   1
_chemical_formula_structural   TaP2Br12N
_chemical_formula_sum   'Ta2 P4 Br24 N2'
_cell_volume   1191.18341195
_cell_formula_units_Z   2
loop_
 _symmetry_equiv_pos_site_id
 _symmetry_equiv_pos_as_xyz
  1  'x, y, z'
loop_
 _atom_site_type_symbol
 _atom_site_label
 _atom_site_symmetry_multiplicity
 _atom_site_fract_x
 _atom_site_fract_y
 _atom_site_fract_z
 _atom_site_occupancy
  Ta  Ta0  1  0.000000  0.000000  0.000000  1
  Ta  Ta1  1  0.000000  0.000000  0.500000  1
  P  P2  1  0.325838  0.463065  0.229745  1
  P  P3  1  0.536935  0.674162  0.270255  1
  P  P4  1  0.463065  0.325838  0.729745  1
  P  P5  1  0.674162  0.536935  0.770255  1
  Br  Br6  1  0.785860  0.293024  0.008966  1
  Br  Br7  1  0.784445  0.895454  0.027747  1
  Br  Br8  1  0.095855  0.524210  0.148309  1
  Br  Br9  1  0.091333  0.046041  0.149065  1
  Br  Br10  1  0.596609  0.724421  0.163118  1
  Br  Br11  1  0.504785  0.237454  0.173903  1
  Br  Br12  1  0.762546  0.495215  0.326097  1
  Br  Br13  1  0.275578  0.403390  0.336882  1
  Br  Br14  1  0.953958  0.908666  0.350936  1
  Br  Br15  1  0.475789  0.904144  0.351691  1
  Br  Br16  1  0.104547  0.215556  0.472252  1
  Br  Br17  1  0.706977  0.214141  0.491034  1
  Br  Br18  1  0.293023  0.785860  0.508967  1
  Br  Br19  1  0.895454  0.784445  0.527747  1
  Br  Br20  1  0.524210  0.095855  0.648309  1
  Br  Br21  1  0.046041  0.091333  0.649064  1
  Br  Br22  1  0.724421  0.596609  0.663119  1
  Br  Br23  1  0.237454  0.504785  0.673902  1
  Br  Br24  1  0.495214  0.762546  0.826097  1
  Br  Br25  1  0.403391  0.275578  0.836882  1
  Br  Br26  1  0.908666  0.953958  0.850936  1
  Br  Br27  1  0.904144  0.475789  0.851691  1
  Br  Br28  1  0.215555  0.104546  0.972253  1
  Br  Br29  1  0.214141  0.706977  0.991033  1
  N  N30  1  0.384619  0.615381  0.250001  1
  N  N31  1  0.615381  0.384619  0.750000  1
