# generated using pymatgen
data_Tb6Ho4Si5Bi
_symmetry_space_group_name_H-M   'P 1'
_cell_length_a   8.56284700
_cell_length_b   8.60448671
_cell_length_c   6.37573000
_cell_angle_alpha   90.00000000
_cell_angle_beta   90.00000000
_cell_angle_gamma   119.84004202
_symmetry_Int_Tables_number   1
_chemical_formula_structural   Tb6Ho4Si5Bi
_chemical_formula_sum   'Tb6 Ho4 Si5 Bi1'
_cell_volume   407.47546271
_cell_formula_units_Z   1
loop_
 _symmetry_equiv_pos_site_id
 _symmetry_equiv_pos_as_xyz
  1  'x, y, z'
loop_
 _atom_site_type_symbol
 _atom_site_label
 _atom_site_symmetry_multiplicity
 _atom_site_fract_x
 _atom_site_fract_y
 _atom_site_fract_z
 _atom_site_occupancy
  Tb  Tb0  1  0.984854  0.744591  0.750000  1
  Tb  Tb1  1  0.998344  0.243751  0.250000  1
  Tb  Tb2  1  0.754595  0.756249  0.250000  1
  Tb  Tb3  1  0.767318  0.000000  0.750000  1
  Tb  Tb4  1  0.240264  0.255409  0.750000  1
  Tb  Tb5  1  0.240657  0.000000  0.250000  1
  Ho  Ho6  1  0.330691  0.653886  0.495099  1
  Ho  Ho7  1  0.676806  0.346114  0.004901  1
  Ho  Ho8  1  0.676806  0.346114  0.495099  1
  Ho  Ho9  1  0.330691  0.653886  0.004901  1
  Si  Si10  1  0.393591  0.391080  0.250000  1
  Si  Si11  1  0.002511  0.608920  0.250000  1
  Si  Si12  1  0.998650  0.394818  0.750000  1
  Si  Si13  1  0.603832  0.605182  0.750000  1
  Si  Si14  1  0.606589  0.000000  0.250000  1
  Bi  Bi15  1  0.393800  0.000000  0.750000  1
