# generated using pymatgen
data_Tb4Fe5Co11(MoP3)4
_symmetry_space_group_name_H-M   'P 1'
_cell_length_a   3.71736600
_cell_length_b   10.40631172
_cell_length_c   11.91971883
_cell_angle_alpha   89.95723663
_cell_angle_beta   90.00000000
_cell_angle_gamma   90.00000000
_symmetry_Int_Tables_number   1
_chemical_formula_structural   Tb4Fe5Co11(MoP3)4
_chemical_formula_sum   'Tb4 Fe5 Co11 Mo4 P12'
_cell_volume   461.10310190
_cell_formula_units_Z   1
loop_
 _symmetry_equiv_pos_site_id
 _symmetry_equiv_pos_as_xyz
  1  'x, y, z'
loop_
 _atom_site_type_symbol
 _atom_site_label
 _atom_site_symmetry_multiplicity
 _atom_site_fract_x
 _atom_site_fract_y
 _atom_site_fract_z
 _atom_site_occupancy
  Tb  Tb0  1  0.250000  0.580973  0.705685  1
  Tb  Tb1  1  0.250000  0.918371  0.205752  1
  Tb  Tb2  1  0.750000  0.418172  0.294473  1
  Tb  Tb3  1  0.750000  0.082058  0.795245  1
  Fe  Fe4  1  0.750000  0.381646  0.798236  1
  Fe  Fe5  1  0.250000  0.464489  0.935179  1
  Fe  Fe6  1  0.250000  0.036657  0.433416  1
  Fe  Fe7  1  0.750000  0.536935  0.067419  1
  Fe  Fe8  1  0.750000  0.963629  0.567023  1
  Co  Co9  1  0.250000  0.406761  0.487976  1
  Co  Co10  1  0.250000  0.093813  0.988649  1
  Co  Co11  1  0.750000  0.592900  0.510531  1
  Co  Co12  1  0.750000  0.906750  0.011066  1
  Co  Co13  1  0.250000  0.222962  0.175831  1
  Co  Co14  1  0.250000  0.277398  0.674046  1
  Co  Co15  1  0.750000  0.776782  0.824336  1
  Co  Co16  1  0.750000  0.723802  0.323984  1
  Co  Co17  1  0.250000  0.883871  0.702692  1
  Co  Co18  1  0.250000  0.616103  0.202538  1
  Co  Co19  1  0.750000  0.115576  0.297510  1
  Mo  Mo20  1  0.250000  0.704863  0.990128  1
  Mo  Mo21  1  0.250000  0.794063  0.490147  1
  Mo  Mo22  1  0.750000  0.295439  0.010215  1
  Mo  Mo23  1  0.750000  0.205193  0.509253  1
  P  P24  1  0.250000  0.424004  0.114337  1
  P  P25  1  0.250000  0.075689  0.613738  1
  P  P26  1  0.750000  0.574050  0.885691  1
  P  P27  1  0.750000  0.924046  0.386771  1
  P  P28  1  0.250000  0.272559  0.861008  1
  P  P29  1  0.250000  0.229991  0.362925  1
  P  P30  1  0.750000  0.730606  0.136585  1
  P  P31  1  0.750000  0.769492  0.636786  1
  P  P32  1  0.250000  0.596988  0.391750  1
  P  P33  1  0.250000  0.903298  0.891961  1
  P  P34  1  0.750000  0.403238  0.609047  1
  P  P35  1  0.750000  0.096831  0.108069  1
