# generated using pymatgen
data_NiBi6(SbO9)2
_symmetry_space_group_name_H-M   'P 1'
_cell_length_a   9.22461300
_cell_length_b   9.22461308
_cell_length_c   5.22899100
_cell_angle_alpha   90.00000000
_cell_angle_beta   90.00000000
_cell_angle_gamma   120.00000330
_symmetry_Int_Tables_number   1
_chemical_formula_structural   NiBi6(SbO9)2
_chemical_formula_sum   'Ni1 Bi6 Sb2 O18'
_cell_volume   385.34065015
_cell_formula_units_Z   1
loop_
 _symmetry_equiv_pos_site_id
 _symmetry_equiv_pos_as_xyz
  1  'x, y, z'
loop_
 _atom_site_type_symbol
 _atom_site_label
 _atom_site_symmetry_multiplicity
 _atom_site_fract_x
 _atom_site_fract_y
 _atom_site_fract_z
 _atom_site_occupancy
  Ni  Ni0  1  0.000000  0.000000  0.500000  1
  Bi  Bi1  1  0.000000  0.363355  0.500000  1
  Bi  Bi2  1  0.283610  0.283610  0.000000  1
  Bi  Bi3  1  0.000000  0.716390  0.000000  1
  Bi  Bi4  1  0.636645  0.636645  0.500000  1
  Bi  Bi5  1  0.363355  0.000000  0.500000  1
  Bi  Bi6  1  0.716390  0.000000  0.000000  1
  Sb  Sb7  1  0.333333  0.666667  0.000875  1
  Sb  Sb8  1  0.666667  0.333333  0.999125  1
  O  O9  1  0.089372  0.209454  0.728390  1
  O  O10  1  0.232782  0.457204  0.221922  1
  O  O11  1  0.127221  0.597755  0.790083  1
  O  O12  1  0.402245  0.529466  0.790083  1
  O  O13  1  0.224423  0.767218  0.221922  1
  O  O14  1  0.120082  0.910628  0.728390  1
  O  O15  1  0.542796  0.775577  0.221922  1
  O  O16  1  0.209454  0.089372  0.271610  1
  O  O17  1  0.470534  0.872779  0.790083  1
  O  O18  1  0.790546  0.879918  0.728390  1
  O  O19  1  0.457204  0.232782  0.778078  1
  O  O20  1  0.597755  0.127221  0.209917  1
  O  O21  1  0.529466  0.402245  0.209917  1
  O  O22  1  0.767218  0.224423  0.778078  1
  O  O23  1  0.910628  0.120082  0.271610  1
  O  O24  1  0.775577  0.542796  0.778078  1
  O  O25  1  0.872779  0.470534  0.209917  1
  O  O26  1  0.879918  0.790546  0.271610  1
