# generated using pymatgen
data_Ba(PPd3)2
_symmetry_space_group_name_H-M   'P 1'
_cell_length_a   8.65301000
_cell_length_b   8.65301000
_cell_length_c   8.65301000
_cell_angle_alpha   90.00000000
_cell_angle_beta   90.00000000
_cell_angle_gamma   90.00000000
_symmetry_Int_Tables_number   1
_chemical_formula_structural   Ba(PPd3)2
_chemical_formula_sum   'Ba4 P8 Pd24'
_cell_volume   647.89050731
_cell_formula_units_Z   4
loop_
 _symmetry_equiv_pos_site_id
 _symmetry_equiv_pos_as_xyz
  1  'x, y, z'
loop_
 _atom_site_type_symbol
 _atom_site_label
 _atom_site_symmetry_multiplicity
 _atom_site_fract_x
 _atom_site_fract_y
 _atom_site_fract_z
 _atom_site_occupancy
  Ba  Ba0  1  0.500000  0.500000  0.000000  1
  Ba  Ba1  1  0.500000  0.000000  0.500000  1
  Ba  Ba2  1  0.000000  0.500000  0.500000  1
  Ba  Ba3  1  0.000000  0.000000  0.000000  1
  P  P4  1  0.806466  0.306466  0.193534  1
  P  P5  1  0.193534  0.806466  0.306466  1
  P  P6  1  0.693534  0.693534  0.693534  1
  P  P7  1  0.306466  0.193534  0.806466  1
  P  P8  1  0.193534  0.693534  0.806466  1
  P  P9  1  0.806466  0.193534  0.693534  1
  P  P10  1  0.306466  0.306466  0.306466  1
  P  P11  1  0.693534  0.806466  0.193534  1
  Pd  Pd12  1  0.421373  0.844692  0.157554  1
  Pd  Pd13  1  0.578627  0.344692  0.342446  1
  Pd  Pd14  1  0.078627  0.155308  0.657554  1
  Pd  Pd15  1  0.921373  0.655308  0.842446  1
  Pd  Pd16  1  0.157554  0.421373  0.844692  1
  Pd  Pd17  1  0.342446  0.578627  0.344692  1
  Pd  Pd18  1  0.657554  0.078627  0.155308  1
  Pd  Pd19  1  0.842446  0.921373  0.655308  1
  Pd  Pd20  1  0.844692  0.157554  0.421373  1
  Pd  Pd21  1  0.344692  0.342446  0.578627  1
  Pd  Pd22  1  0.155308  0.657554  0.078627  1
  Pd  Pd23  1  0.655308  0.842446  0.921373  1
  Pd  Pd24  1  0.578627  0.155308  0.842446  1
  Pd  Pd25  1  0.421373  0.655308  0.657554  1
  Pd  Pd26  1  0.921373  0.844692  0.342446  1
  Pd  Pd27  1  0.078627  0.344692  0.157554  1
  Pd  Pd28  1  0.842446  0.578627  0.155308  1
  Pd  Pd29  1  0.657554  0.421373  0.655308  1
  Pd  Pd30  1  0.342446  0.921373  0.844692  1
  Pd  Pd31  1  0.157554  0.078627  0.344692  1
  Pd  Pd32  1  0.155308  0.842446  0.578627  1
  Pd  Pd33  1  0.655308  0.657554  0.421373  1
  Pd  Pd34  1  0.844692  0.342446  0.921373  1
  Pd  Pd35  1  0.344692  0.157554  0.078627  1
