# generated using pymatgen
data_Cr20Mo2PC6
_symmetry_space_group_name_H-M   'P 1'
_cell_length_a   7.52184128
_cell_length_b   7.52184053
_cell_length_c   7.52184100
_cell_angle_alpha   60.00000233
_cell_angle_beta   60.00000562
_cell_angle_gamma   59.99999792
_symmetry_Int_Tables_number   1
_chemical_formula_structural   Cr20Mo2PC6
_chemical_formula_sum   'Cr20 Mo2 P1 C6'
_cell_volume   300.92443727
_cell_formula_units_Z   1
loop_
 _symmetry_equiv_pos_site_id
 _symmetry_equiv_pos_as_xyz
  1  'x, y, z'
loop_
 _atom_site_type_symbol
 _atom_site_label
 _atom_site_symmetry_multiplicity
 _atom_site_fract_x
 _atom_site_fract_y
 _atom_site_fract_z
 _atom_site_occupancy
  Cr  Cr0  1  0.616580  0.616580  0.150258  1
  Cr  Cr1  1  0.616580  0.150258  0.616580  1
  Cr  Cr2  1  0.150258  0.616580  0.616580  1
  Cr  Cr3  1  0.616580  0.616580  0.616580  1
  Cr  Cr4  1  0.383420  0.383420  0.849742  1
  Cr  Cr5  1  0.383420  0.849742  0.383420  1
  Cr  Cr6  1  0.849742  0.383420  0.383420  1
  Cr  Cr7  1  0.383420  0.383420  0.383420  1
  Cr  Cr8  1  0.000000  0.000000  0.336324  1
  Cr  Cr9  1  0.663676  0.000000  0.336324  1
  Cr  Cr10  1  0.000000  0.663676  0.336324  1
  Cr  Cr11  1  0.663676  0.336324  0.000000  1
  Cr  Cr12  1  0.000000  0.336324  0.000000  1
  Cr  Cr13  1  0.000000  0.336324  0.663676  1
  Cr  Cr14  1  0.336324  0.663676  0.000000  1
  Cr  Cr15  1  0.336324  0.000000  0.663676  1
  Cr  Cr16  1  0.336324  0.000000  0.000000  1
  Cr  Cr17  1  0.000000  0.000000  0.663676  1
  Cr  Cr18  1  0.000000  0.663676  0.000000  1
  Cr  Cr19  1  0.663676  0.000000  0.000000  1
  Mo  Mo20  1  0.750000  0.750000  0.750000  1
  Mo  Mo21  1  0.250000  0.250000  0.250000  1
  P  P22  1  0.000000  0.000000  0.000000  1
  C  C23  1  0.720496  0.720496  0.279504  1
  C  C24  1  0.279504  0.720496  0.279504  1
  C  C25  1  0.720496  0.279504  0.279504  1
  C  C26  1  0.279504  0.279504  0.720496  1
  C  C27  1  0.720496  0.279504  0.720496  1
  C  C28  1  0.279504  0.720496  0.720496  1
