# generated using pymatgen
data_TaTiNb10Al8(PtC)4
_symmetry_space_group_name_H-M   'P 1'
_cell_length_a   8.37644339
_cell_length_b   8.37644404
_cell_length_c   8.35983900
_cell_angle_alpha   60.06555790
_cell_angle_beta   60.06555534
_cell_angle_gamma   60.01608296
_symmetry_Int_Tables_number   1
_chemical_formula_structural   TaTiNb10Al8(PtC)4
_chemical_formula_sum   'Ta1 Ti1 Nb10 Al8 Pt4 C4'
_cell_volume   415.22620657
_cell_formula_units_Z   1
loop_
 _symmetry_equiv_pos_site_id
 _symmetry_equiv_pos_as_xyz
  1  'x, y, z'
loop_
 _atom_site_type_symbol
 _atom_site_label
 _atom_site_symmetry_multiplicity
 _atom_site_fract_x
 _atom_site_fract_y
 _atom_site_fract_z
 _atom_site_occupancy
  Ta  Ta0  1  0.932204  0.932204  0.567796  1
  Ti  Ti1  1  0.567830  0.567830  0.932170  1
  Nb  Nb2  1  0.682794  0.317925  0.315837  1
  Nb  Nb3  1  0.317925  0.682794  0.683444  1
  Nb  Nb4  1  0.682465  0.682465  0.317535  1
  Nb  Nb5  1  0.682794  0.317925  0.683444  1
  Nb  Nb6  1  0.317925  0.682794  0.315837  1
  Nb  Nb7  1  0.568098  0.931982  0.565572  1
  Nb  Nb8  1  0.568098  0.931982  0.934349  1
  Nb  Nb9  1  0.931982  0.568098  0.565572  1
  Nb  Nb10  1  0.931982  0.568098  0.934349  1
  Nb  Nb11  1  0.317171  0.317171  0.682829  1
  Al  Al12  1  0.913855  0.255190  0.915478  1
  Al  Al13  1  0.334266  0.334266  0.997443  1
  Al  Al14  1  0.996668  0.335058  0.334136  1
  Al  Al15  1  0.334266  0.334266  0.334024  1
  Al  Al16  1  0.255190  0.913855  0.915478  1
  Al  Al17  1  0.915745  0.915745  0.916494  1
  Al  Al18  1  0.915745  0.915745  0.252017  1
  Al  Al19  1  0.335058  0.996668  0.334136  1
  Pt  Pt20  1  0.126818  0.624924  0.124129  1
  Pt  Pt21  1  0.124305  0.124305  0.625425  1
  Pt  Pt22  1  0.624924  0.126818  0.124129  1
  Pt  Pt23  1  0.124305  0.124305  0.125965  1
  C  C24  1  0.625798  0.124064  0.625069  1
  C  C25  1  0.623863  0.623863  0.121552  1
  C  C26  1  0.124064  0.625798  0.625069  1
  C  C27  1  0.623863  0.623863  0.630723  1
