# generated using pymatgen
data_Nd12Si8NiRh3
_symmetry_space_group_name_H-M   'P 1'
_cell_length_a   4.27415100
_cell_length_b   11.59762463
_cell_length_c   11.86060486
_cell_angle_alpha   89.89694077
_cell_angle_beta   90.00000000
_cell_angle_gamma   90.00000000
_symmetry_Int_Tables_number   1
_chemical_formula_structural   Nd12Si8NiRh3
_chemical_formula_sum   'Nd12 Si8 Ni1 Rh3'
_cell_volume   587.92921883
_cell_formula_units_Z   1
loop_
 _symmetry_equiv_pos_site_id
 _symmetry_equiv_pos_as_xyz
  1  'x, y, z'
loop_
 _atom_site_type_symbol
 _atom_site_label
 _atom_site_symmetry_multiplicity
 _atom_site_fract_x
 _atom_site_fract_y
 _atom_site_fract_z
 _atom_site_occupancy
  Nd  Nd0  1  0.250000  0.374418  0.056899  1
  Nd  Nd1  1  0.750000  0.624922  0.943942  1
  Nd  Nd2  1  0.750000  0.877525  0.441440  1
  Nd  Nd3  1  0.250000  0.124574  0.556699  1
  Nd  Nd4  1  0.250000  0.697316  0.212700  1
  Nd  Nd5  1  0.750000  0.300845  0.786449  1
  Nd  Nd6  1  0.750000  0.196612  0.285724  1
  Nd  Nd7  1  0.250000  0.802818  0.713245  1
  Nd  Nd8  1  0.250000  0.442234  0.380190  1
  Nd  Nd9  1  0.750000  0.557038  0.619055  1
  Nd  Nd10  1  0.750000  0.941543  0.118738  1
  Nd  Nd11  1  0.250000  0.057433  0.883459  1
  Si  Si12  1  0.250000  0.687149  0.476068  1
  Si  Si13  1  0.750000  0.312659  0.523055  1
  Si  Si14  1  0.750000  0.184287  0.030553  1
  Si  Si15  1  0.250000  0.814405  0.976981  1
  Si  Si16  1  0.250000  0.007193  0.299800  1
  Si  Si17  1  0.750000  0.997051  0.696162  1
  Si  Si18  1  0.750000  0.503583  0.195264  1
  Si  Si19  1  0.250000  0.494668  0.805921  1
  Ni  Ni20  1  0.250000  0.134419  0.128403  1
  Rh  Rh21  1  0.750000  0.866009  0.868971  1
  Rh  Rh22  1  0.750000  0.635559  0.369210  1
  Rh  Rh23  1  0.250000  0.365740  0.631074  1
