# generated using pymatgen
data_La3Pr(Nd3Ir2)2
_symmetry_space_group_name_H-M   'P 1'
_cell_length_a   9.10029121
_cell_length_b   9.09009124
_cell_length_c   7.35488909
_cell_angle_alpha   83.97896469
_cell_angle_beta   83.68987398
_cell_angle_gamma   43.43540414
_symmetry_Int_Tables_number   1
_chemical_formula_structural   La3Pr(Nd3Ir2)2
_chemical_formula_sum   'La3 Pr1 Nd6 Ir4'
_cell_volume   415.49273107
_cell_formula_units_Z   1
loop_
 _symmetry_equiv_pos_site_id
 _symmetry_equiv_pos_as_xyz
  1  'x, y, z'
loop_
 _atom_site_type_symbol
 _atom_site_label
 _atom_site_symmetry_multiplicity
 _atom_site_fract_x
 _atom_site_fract_y
 _atom_site_fract_z
 _atom_site_occupancy
  La  La0  1  0.015490  0.796433  0.914972  1
  La  La1  1  0.204078  0.982587  0.584351  1
  La  La2  1  0.983793  0.202615  0.086637  1
  Pr  Pr3  1  0.793652  0.018812  0.419554  1
  Nd  Nd4  1  0.354027  0.212256  0.816554  1
  Nd  Nd5  1  0.788053  0.646448  0.681396  1
  Nd  Nd6  1  0.647171  0.787303  0.183050  1
  Nd  Nd7  1  0.215024  0.352728  0.317854  1
  Nd  Nd8  1  0.568846  0.431394  0.749469  1
  Nd  Nd9  1  0.430735  0.568067  0.250259  1
  Ir  Ir10  1  0.179565  0.597538  0.578189  1
  Ir  Ir11  1  0.401263  0.822612  0.921927  1
  Ir  Ir12  1  0.822103  0.401209  0.421377  1
  Ir  Ir13  1  0.596203  0.179998  0.074410  1
