# generated using pymatgen
data_NiRu(PtO4)2
_symmetry_space_group_name_H-M   'P 1'
_cell_length_a   5.56986885
_cell_length_b   5.56986792
_cell_length_c   5.56986900
_cell_angle_alpha   108.37335014
_cell_angle_beta   109.06556258
_cell_angle_gamma   110.98616971
_symmetry_Int_Tables_number   1
_chemical_formula_structural   NiRu(PtO4)2
_chemical_formula_sum   'Ni1 Ru1 Pt2 O8'
_cell_volume   132.94409248
_cell_formula_units_Z   1
loop_
 _symmetry_equiv_pos_site_id
 _symmetry_equiv_pos_as_xyz
  1  'x, y, z'
loop_
 _atom_site_type_symbol
 _atom_site_label
 _atom_site_symmetry_multiplicity
 _atom_site_fract_x
 _atom_site_fract_y
 _atom_site_fract_z
 _atom_site_occupancy
  Ni  Ni0  1  0.498493  0.998492  0.500000  1
  Ru  Ru1  1  0.743556  0.743556  0.000000  1
  Pt  Pt2  1  0.257222  0.257222  0.000000  1
  Pt  Pt3  1  0.001362  0.501361  0.500000  1
  O  O4  1  0.997055  0.186924  0.189869  1
  O  O5  1  0.503827  0.692986  0.189160  1
  O  O6  1  0.044563  0.747242  0.297320  1
  O  O7  1  0.558951  0.251545  0.307406  1
  O  O8  1  0.944139  0.251545  0.692593  1
  O  O9  1  0.449922  0.747242  0.702679  1
  O  O10  1  0.503826  0.314667  0.810839  1
  O  O11  1  0.997055  0.807185  0.810130  1
