# generated using pymatgen
data_Dy10Tl7InPt3Au
_symmetry_space_group_name_H-M   'P 1'
_cell_length_a   3.64304600
_cell_length_b   8.27398471
_cell_length_c   18.49449126
_cell_angle_alpha   90.01404737
_cell_angle_beta   90.00000000
_cell_angle_gamma   90.00000000
_symmetry_Int_Tables_number   1
_chemical_formula_structural   Dy10Tl7InPt3Au
_chemical_formula_sum   'Dy10 Tl7 In1 Pt3 Au1'
_cell_volume   557.47031349
_cell_formula_units_Z   1
loop_
 _symmetry_equiv_pos_site_id
 _symmetry_equiv_pos_as_xyz
  1  'x, y, z'
loop_
 _atom_site_type_symbol
 _atom_site_label
 _atom_site_symmetry_multiplicity
 _atom_site_fract_x
 _atom_site_fract_y
 _atom_site_fract_z
 _atom_site_occupancy
  Dy  Dy0  1  0.000000  0.118101  0.418588  1
  Dy  Dy1  1  0.000000  0.885690  0.587276  1
  Dy  Dy2  1  0.000000  0.386010  0.911870  1
  Dy  Dy3  1  0.000000  0.614103  0.085819  1
  Dy  Dy4  1  0.000000  0.255525  0.217199  1
  Dy  Dy5  1  0.000000  0.754360  0.779458  1
  Dy  Dy6  1  0.000000  0.254856  0.720206  1
  Dy  Dy7  1  0.000000  0.730530  0.280294  1
  Dy  Dy8  1  0.000000  0.999814  0.998995  1
  Dy  Dy9  1  0.000000  0.501616  0.500442  1
  Tl  Tl10  1  0.500000  0.422706  0.355237  1
  Tl  Tl11  1  0.500000  0.577975  0.647050  1
  Tl  Tl12  1  0.500000  0.077956  0.852975  1
  Tl  Tl13  1  0.500000  0.920784  0.146231  1
  Tl  Tl14  1  0.500000  0.292809  0.063223  1
  Tl  Tl15  1  0.500000  0.707022  0.934337  1
  Tl  Tl16  1  0.500000  0.208227  0.565796  1
  In  In17  1  0.500000  0.793310  0.435511  1
  Pt  Pt18  1  0.500000  0.971675  0.697829  1
  Pt  Pt19  1  0.500000  0.471778  0.802238  1
  Pt  Pt20  1  0.500000  0.528290  0.196967  1
  Au  Au21  1  0.500000  0.026864  0.302460  1
