# generated using pymatgen
data_Nd4TmIr2
_symmetry_space_group_name_H-M   'P 1'
_cell_length_a   6.63630375
_cell_length_b   7.26283184
_cell_length_c   8.87441161
_cell_angle_alpha   96.33896600
_cell_angle_beta   111.95641677
_cell_angle_gamma   90.00000215
_symmetry_Int_Tables_number   1
_chemical_formula_structural   Nd4TmIr2
_chemical_formula_sum   'Nd8 Tm2 Ir4'
_cell_volume   393.88700154
_cell_formula_units_Z   2
loop_
 _symmetry_equiv_pos_site_id
 _symmetry_equiv_pos_as_xyz
  1  'x, y, z'
loop_
 _atom_site_type_symbol
 _atom_site_label
 _atom_site_symmetry_multiplicity
 _atom_site_fract_x
 _atom_site_fract_y
 _atom_site_fract_z
 _atom_site_occupancy
  Nd  Nd0  1  0.973419  0.924280  0.181465  1
  Nd  Nd1  1  0.791953  0.575720  0.818535  1
  Nd  Nd2  1  0.026581  0.075720  0.818535  1
  Nd  Nd3  1  0.208047  0.424280  0.181465  1
  Nd  Nd4  1  0.646770  0.812058  0.431426  1
  Nd  Nd5  1  0.215343  0.687942  0.568574  1
  Nd  Nd6  1  0.353230  0.187942  0.568574  1
  Nd  Nd7  1  0.784657  0.312058  0.431426  1
  Tm  Tm8  1  0.438102  0.750000  0.000000  1
  Tm  Tm9  1  0.561898  0.250000  0.000000  1
  Ir  Ir10  1  0.808110  0.569259  0.208244  1
  Ir  Ir11  1  0.599865  0.930741  0.791756  1
  Ir  Ir12  1  0.191891  0.430741  0.791756  1
  Ir  Ir13  1  0.400135  0.069259  0.208244  1
