# generated using pymatgen
data_Sr4Sb3As(Se3O2)2
_symmetry_space_group_name_H-M   'P 1'
_cell_length_a   9.63252861
_cell_length_b   4.07401843
_cell_length_c   13.48436509
_cell_angle_alpha   90.36622351
_cell_angle_beta   124.10168244
_cell_angle_gamma   90.54868531
_symmetry_Int_Tables_number   1
_chemical_formula_structural   Sr4Sb3As(Se3O2)2
_chemical_formula_sum   'Sr4 Sb3 As1 Se6 O4'
_cell_volume   438.11025510
_cell_formula_units_Z   1
loop_
 _symmetry_equiv_pos_site_id
 _symmetry_equiv_pos_as_xyz
  1  'x, y, z'
loop_
 _atom_site_type_symbol
 _atom_site_label
 _atom_site_symmetry_multiplicity
 _atom_site_fract_x
 _atom_site_fract_y
 _atom_site_fract_z
 _atom_site_occupancy
  Sr  Sr0  1  0.108192  0.496738  0.400311  1
  Sr  Sr1  1  0.893521  0.987917  0.101891  1
  Sr  Sr2  1  0.895268  0.494653  0.603698  1
  Sr  Sr3  1  0.108114  0.999681  0.900345  1
  Sb  Sb4  1  0.354997  0.001034  0.308369  1
  Sb  Sb5  1  0.359602  0.479054  0.814359  1
  Sb  Sb6  1  0.642393  0.994582  0.689421  1
  As  As7  1  0.661244  0.449859  0.189427  1
  Se  Se8  1  0.501042  0.500618  0.499341  1
  Se  Se9  1  0.503438  0.029245  0.004207  1
  Se  Se10  1  0.202467  0.490282  0.131141  1
  Se  Se11  1  0.781226  0.053662  0.356119  1
  Se  Se12  1  0.788393  0.509848  0.867490  1
  Se  Se13  1  0.200966  0.026337  0.629768  1
  O  O14  1  0.155322  0.500463  0.817458  1
  O  O15  1  0.847418  0.999048  0.687007  1
  O  O16  1  0.844037  0.490162  0.185449  1
  O  O17  1  0.152361  0.996818  0.314198  1
