# generated using pymatgen
data_Er10CoBi5
_symmetry_space_group_name_H-M   'P 1'
_cell_length_a   8.02100700
_cell_length_b   9.35696900
_cell_length_c   12.03334400
_cell_angle_alpha   90.00000000
_cell_angle_beta   90.00000000
_cell_angle_gamma   90.00000000
_symmetry_Int_Tables_number   1
_chemical_formula_structural   Er10CoBi5
_chemical_formula_sum   'Er20 Co2 Bi10'
_cell_volume   903.13031053
_cell_formula_units_Z   2
loop_
 _symmetry_equiv_pos_site_id
 _symmetry_equiv_pos_as_xyz
  1  'x, y, z'
loop_
 _atom_site_type_symbol
 _atom_site_label
 _atom_site_symmetry_multiplicity
 _atom_site_fract_x
 _atom_site_fract_y
 _atom_site_fract_z
 _atom_site_occupancy
  Er  Er0  1  0.427512  0.176113  0.563104  1
  Er  Er1  1  0.572488  0.823887  0.063104  1
  Er  Er2  1  0.069003  0.727844  0.436199  1
  Er  Er3  1  0.930997  0.272156  0.936199  1
  Er  Er4  1  0.069003  0.272156  0.436199  1
  Er  Er5  1  0.930997  0.727844  0.936199  1
  Er  Er6  1  0.427512  0.823887  0.563104  1
  Er  Er7  1  0.572488  0.176113  0.063104  1
  Er  Er8  1  0.573103  0.500000  0.772712  1
  Er  Er9  1  0.426897  0.500000  0.272712  1
  Er  Er10  1  0.908598  0.000000  0.201611  1
  Er  Er11  1  0.091402  0.000000  0.701611  1
  Er  Er12  1  0.261958  0.500000  0.993948  1
  Er  Er13  1  0.738042  0.500000  0.493948  1
  Er  Er14  1  0.198889  0.000000  0.997216  1
  Er  Er15  1  0.801111  0.000000  0.497216  1
  Er  Er16  1  0.090486  0.500000  0.717785  1
  Er  Er17  1  0.909514  0.500000  0.217785  1
  Er  Er18  1  0.373537  0.000000  0.308038  1
  Er  Er19  1  0.626463  0.000000  0.808038  1
  Co  Co20  1  0.170018  0.000000  0.487454  1
  Co  Co21  1  0.829982  0.000000  0.987454  1
  Bi  Bi22  1  0.813568  0.740866  0.672586  1
  Bi  Bi23  1  0.186432  0.259134  0.172586  1
  Bi  Bi24  1  0.680449  0.242246  0.325447  1
  Bi  Bi25  1  0.319551  0.757754  0.825447  1
  Bi  Bi26  1  0.680449  0.757754  0.325447  1
  Bi  Bi27  1  0.319551  0.242246  0.825447  1
  Bi  Bi28  1  0.813568  0.259134  0.672586  1
  Bi  Bi29  1  0.186432  0.740866  0.172586  1
  Bi  Bi30  1  0.345582  0.500000  0.526565  1
  Bi  Bi31  1  0.654418  0.500000  0.026565  1
