# generated using pymatgen
data_Ba5Fe4OsO15
_symmetry_space_group_name_H-M   'P 1'
_cell_length_a   5.77410214
_cell_length_b   7.11418722
_cell_length_c   9.17574637
_cell_angle_alpha   104.87255572
_cell_angle_beta   71.65575547
_cell_angle_gamma   89.99860247
_symmetry_Int_Tables_number   1
_chemical_formula_structural   Ba5Fe4OsO15
_chemical_formula_sum   'Ba5 Fe4 Os1 O15'
_cell_volume   344.43807896
_cell_formula_units_Z   1
loop_
 _symmetry_equiv_pos_site_id
 _symmetry_equiv_pos_as_xyz
  1  'x, y, z'
loop_
 _atom_site_type_symbol
 _atom_site_label
 _atom_site_symmetry_multiplicity
 _atom_site_fract_x
 _atom_site_fract_y
 _atom_site_fract_z
 _atom_site_occupancy
  Ba  Ba0  1  0.599967  0.599982  0.799979  1
  Ba  Ba1  1  0.205532  0.200728  0.588792  1
  Ba  Ba2  1  0.994479  0.999271  0.011183  1
  Ba  Ba3  1  0.396925  0.406090  0.205864  1
  Ba  Ba4  1  0.802990  0.793884  0.394179  1
  Fe  Fe5  1  0.995336  0.529264  0.009249  1
  Fe  Fe6  1  0.204523  0.670791  0.590869  1
  Fe  Fe7  1  0.390640  0.897239  0.218765  1
  Fe  Fe8  1  0.809196  0.302767  0.381334  1
  Os  Os9  1  0.600082  0.099965  0.799978  1
  O  O10  1  0.099980  0.600055  0.800023  1
  O  O11  1  0.100041  0.099994  0.299982  1
  O  O12  1  0.600010  0.099985  0.299995  1
  O  O13  1  0.693918  0.183664  0.612570  1
  O  O14  1  0.506248  0.016247  0.987295  1
  O  O15  1  0.907476  0.397653  0.185045  1
  O  O16  1  0.292546  0.802353  0.414971  1
  O  O17  1  0.505617  0.492846  0.500330  1
  O  O18  1  0.694246  0.707186  0.099722  1
  O  O19  1  0.993721  0.493164  0.500274  1
  O  O20  1  0.206260  0.706816  0.099759  1
  O  O21  1  0.877740  0.912921  0.712306  1
  O  O22  1  0.322456  0.287074  0.887593  1
  O  O23  1  0.410487  0.912796  0.712176  1
  O  O24  1  0.789582  0.287263  0.887771  1
