# generated using pymatgen
data_Lu5Tc4(P4Ir5)3
_symmetry_space_group_name_H-M   'P 1'
_cell_length_a   12.66393315
_cell_length_b   12.55761091
_cell_length_c   3.95320700
_cell_angle_alpha   90.00000000
_cell_angle_beta   90.00000000
_cell_angle_gamma   119.81230726
_symmetry_Int_Tables_number   1
_chemical_formula_structural   Lu5Tc4(P4Ir5)3
_chemical_formula_sum   'Lu5 Tc4 P12 Ir15'
_cell_volume   545.47406251
_cell_formula_units_Z   1
loop_
 _symmetry_equiv_pos_site_id
 _symmetry_equiv_pos_as_xyz
  1  'x, y, z'
loop_
 _atom_site_type_symbol
 _atom_site_label
 _atom_site_symmetry_multiplicity
 _atom_site_fract_x
 _atom_site_fract_y
 _atom_site_fract_z
 _atom_site_occupancy
  Lu  Lu0  1  0.331430  0.663098  0.000000  1
  Lu  Lu1  1  0.666839  0.333507  0.000000  1
  Lu  Lu2  1  0.820734  0.002348  0.500000  1
  Lu  Lu3  1  0.000560  0.818810  0.500000  1
  Lu  Lu4  1  0.183897  0.186044  0.500000  1
  Tc  Tc5  1  0.454516  0.998983  0.000000  1
  Tc  Tc6  1  0.994913  0.452723  0.000000  1
  Tc  Tc7  1  0.548882  0.543762  0.000000  1
  Tc  Tc8  1  0.177777  0.377562  0.000000  1
  P  P9  1  0.177245  0.002223  0.000000  1
  P  P10  1  0.004969  0.182246  0.000000  1
  P  P11  1  0.824053  0.825805  0.000000  1
  P  P12  1  0.171307  0.479613  0.500000  1
  P  P13  1  0.516393  0.684189  0.500000  1
  P  P14  1  0.313479  0.827837  0.500000  1
  P  P15  1  0.684555  0.515706  0.500000  1
  P  P16  1  0.829465  0.314865  0.500000  1
  P  P17  1  0.484080  0.167898  0.500000  1
  P  P18  1  0.638611  0.999213  0.000000  1
  P  P19  1  0.000727  0.639660  0.000000  1
  P  P20  1  0.356967  0.362786  0.000000  1
  Ir  Ir21  1  0.363020  0.490859  0.500000  1
  Ir  Ir22  1  0.507307  0.864993  0.500000  1
  Ir  Ir23  1  0.132181  0.639197  0.500000  1
  Ir  Ir24  1  0.865469  0.509668  0.500000  1
  Ir  Ir25  1  0.640876  0.131873  0.500000  1
  Ir  Ir26  1  0.493741  0.356292  0.500000  1
  Ir  Ir27  1  0.628245  0.807632  0.000000  1
  Ir  Ir28  1  0.192567  0.820376  0.000000  1
  Ir  Ir29  1  0.810717  0.631570  0.000000  1
  Ir  Ir30  1  0.816485  0.190124  0.000000  1
  Ir  Ir31  1  0.372003  0.180326  0.000000  1
  Ir  Ir32  1  0.289287  0.999786  0.500000  1
  Ir  Ir33  1  0.994176  0.285544  0.500000  1
  Ir  Ir34  1  0.712039  0.712234  0.500000  1
  Ir  Ir35  1  0.000485  0.000645  0.000000  1
