# generated using pymatgen
data_EuTh2P3
_symmetry_space_group_name_H-M   'P 1'
_cell_length_a   4.16076500
_cell_length_b   4.16076595
_cell_length_c   10.15955600
_cell_angle_alpha   90.00000000
_cell_angle_beta   90.00000000
_cell_angle_gamma   120.00000038
_symmetry_Int_Tables_number   1
_chemical_formula_structural   EuTh2P3
_chemical_formula_sum   'Eu1 Th2 P3'
_cell_volume   152.31821198
_cell_formula_units_Z   1
loop_
 _symmetry_equiv_pos_site_id
 _symmetry_equiv_pos_as_xyz
  1  'x, y, z'
loop_
 _atom_site_type_symbol
 _atom_site_label
 _atom_site_symmetry_multiplicity
 _atom_site_fract_x
 _atom_site_fract_y
 _atom_site_fract_z
 _atom_site_occupancy
  Eu  Eu0  1  0.000000  0.000000  0.000000  1
  Th  Th1  1  0.333333  0.666667  0.669213  1
  Th  Th2  1  0.666667  0.333333  0.330787  1
  P  P3  1  0.333333  0.666667  0.172500  1
  P  P4  1  0.666667  0.333333  0.827500  1
  P  P5  1  0.000000  0.000000  0.500000  1
