# generated using pymatgen
data_Nd4Pa2Ni20As13
_symmetry_space_group_name_H-M   'P 1'
_cell_length_a   13.16479365
_cell_length_b   13.15986596
_cell_length_c   3.95346700
_cell_angle_alpha   90.00000000
_cell_angle_beta   90.00000000
_cell_angle_gamma   119.90939090
_symmetry_Int_Tables_number   1
_chemical_formula_structural   Nd4Pa2Ni20As13
_chemical_formula_sum   'Nd4 Pa2 Ni20 As13'
_cell_volume   593.70413722
_cell_formula_units_Z   1
loop_
 _symmetry_equiv_pos_site_id
 _symmetry_equiv_pos_as_xyz
  1  'x, y, z'
loop_
 _atom_site_type_symbol
 _atom_site_label
 _atom_site_symmetry_multiplicity
 _atom_site_fract_x
 _atom_site_fract_y
 _atom_site_fract_z
 _atom_site_occupancy
  Nd  Nd0  1  0.814130  0.283794  0.000000  1
  Nd  Nd1  1  0.533554  0.813563  0.500000  1
  Nd  Nd2  1  0.279371  0.466418  0.500000  1
  Nd  Nd3  1  0.185998  0.720190  0.500000  1
  Pa  Pa4  1  0.470587  0.186450  0.000000  1
  Pa  Pa5  1  0.715277  0.529450  0.000000  1
  Ni  Ni6  1  0.333295  0.666768  0.000000  1
  Ni  Ni7  1  0.662014  0.334712  0.500000  1
  Ni  Ni8  1  0.200318  0.087864  0.000000  1
  Ni  Ni9  1  0.887703  0.799192  0.000000  1
  Ni  Ni10  1  0.913037  0.110109  0.000000  1
  Ni  Ni11  1  0.859684  0.935983  0.500000  1
  Ni  Ni12  1  0.079272  0.144737  0.500000  1
  Ni  Ni13  1  0.066403  0.921028  0.500000  1
  Ni  Ni14  1  0.439880  0.411912  0.000000  1
  Ni  Ni15  1  0.971538  0.564149  0.000000  1
  Ni  Ni16  1  0.584612  0.025798  0.000000  1
  Ni  Ni17  1  0.564761  0.585205  0.500000  1
  Ni  Ni18  1  0.023734  0.437084  0.500000  1
  Ni  Ni19  1  0.415613  0.980194  0.500000  1
  Ni  Ni20  1  0.076272  0.319970  0.000000  1
  Ni  Ni21  1  0.246232  0.925756  0.000000  1
  Ni  Ni22  1  0.679182  0.753231  0.000000  1
  Ni  Ni23  1  0.926106  0.685580  0.500000  1
  Ni  Ni24  1  0.759906  0.070423  0.500000  1
  Ni  Ni25  1  0.314226  0.240109  0.500000  1
  As  As26  1  0.231071  0.276877  0.000000  1
  As  As27  1  0.046729  0.770939  0.000000  1
  As  As28  1  0.722653  0.953904  0.000000  1
  As  As29  1  0.766006  0.724362  0.500000  1
  As  As30  1  0.958890  0.233816  0.500000  1
  As  As31  1  0.276321  0.041973  0.500000  1
  As  As32  1  0.476343  0.611495  0.000000  1
  As  As33  1  0.134253  0.523858  0.000000  1
  As  As34  1  0.387550  0.864332  0.000000  1
  As  As35  1  0.518148  0.384154  0.500000  1
  As  As36  1  0.862859  0.479007  0.500000  1
  As  As37  1  0.615734  0.136301  0.500000  1
  As  As38  1  0.000740  0.999314  0.000000  1
