# generated using pymatgen
data_Ac2TbTaO7
_symmetry_space_group_name_H-M   'P 1'
_cell_length_a   7.87579883
_cell_length_b   7.87579690
_cell_length_c   7.87579800
_cell_angle_alpha   120.45672071
_cell_angle_beta   119.79880167
_cell_angle_gamma   89.77980585
_symmetry_Int_Tables_number   1
_chemical_formula_structural   Ac2TbTaO7
_chemical_formula_sum   'Ac4 Tb2 Ta2 O14'
_cell_volume   344.75274967
_cell_formula_units_Z   2
loop_
 _symmetry_equiv_pos_site_id
 _symmetry_equiv_pos_as_xyz
  1  'x, y, z'
loop_
 _atom_site_type_symbol
 _atom_site_label
 _atom_site_symmetry_multiplicity
 _atom_site_fract_x
 _atom_site_fract_y
 _atom_site_fract_z
 _atom_site_occupancy
  Ac  Ac0  1  0.500000  0.000000  0.000000  1
  Ac  Ac1  1  0.500000  0.500000  0.500000  1
  Ac  Ac2  1  0.500000  0.000000  0.500000  1
  Ac  Ac3  1  0.000000  0.000000  0.000000  1
  Tb  Tb4  1  0.000000  0.500000  0.000000  1
  Tb  Tb5  1  0.000000  0.000000  0.500000  1
  Ta  Ta6  1  0.000000  0.500000  0.500000  1
  Ta  Ta7  1  0.500000  0.500000  0.000000  1
  O  O8  1  0.621128  0.871128  0.750000  1
  O  O9  1  0.378872  0.128872  0.250000  1
  O  O10  1  0.294437  0.544437  0.750000  1
  O  O11  1  0.897027  0.147027  0.750000  1
  O  O12  1  0.351501  0.189687  0.786236  1
  O  O13  1  0.903451  0.565266  0.713764  1
  O  O14  1  0.351501  0.565266  0.161815  1
  O  O15  1  0.903451  0.189687  0.338185  1
  O  O16  1  0.705563  0.455563  0.250000  1
  O  O17  1  0.102973  0.852973  0.250000  1
  O  O18  1  0.648499  0.810313  0.213764  1
  O  O19  1  0.096549  0.434734  0.286236  1
  O  O20  1  0.648499  0.434734  0.838185  1
  O  O21  1  0.096549  0.810313  0.661815  1
