# generated using pymatgen
data_YTm15Tl3In3CoOs
_symmetry_space_group_name_H-M   'P 1'
_cell_length_a   10.26274304
_cell_length_b   10.26264816
_cell_length_c   6.99563500
_cell_angle_alpha   90.00486274
_cell_angle_beta   89.99524896
_cell_angle_gamma   120.00707848
_symmetry_Int_Tables_number   1
_chemical_formula_structural   YTm15Tl3In3CoOs
_chemical_formula_sum   'Y1 Tm15 Tl3 In3 Co1 Os1'
_cell_volume   638.04261303
_cell_formula_units_Z   1
loop_
 _symmetry_equiv_pos_site_id
 _symmetry_equiv_pos_as_xyz
  1  'x, y, z'
loop_
 _atom_site_type_symbol
 _atom_site_label
 _atom_site_symmetry_multiplicity
 _atom_site_fract_x
 _atom_site_fract_y
 _atom_site_fract_z
 _atom_site_occupancy
  Y  Y0  1  0.999985  0.000014  0.996282  1
  Tm  Tm1  1  0.466537  0.533429  0.482079  1
  Tm  Tm2  1  0.066767  0.533321  0.481938  1
  Tm  Tm3  1  0.466671  0.933290  0.481920  1
  Tm  Tm4  1  0.536074  0.463927  0.980463  1
  Tm  Tm5  1  0.927921  0.464004  0.980471  1
  Tm  Tm6  1  0.536009  0.072050  0.980488  1
  Tm  Tm7  1  0.820939  0.179085  0.276703  1
  Tm  Tm8  1  0.358076  0.179061  0.276697  1
  Tm  Tm9  1  0.820972  0.641971  0.276648  1
  Tm  Tm10  1  0.177498  0.822468  0.777358  1
  Tm  Tm11  1  0.645026  0.822516  0.777317  1
  Tm  Tm12  1  0.177430  0.354892  0.777272  1
  Tm  Tm13  1  0.333325  0.666719  0.102062  1
  Tm  Tm14  1  0.666682  0.333310  0.591214  1
  Tm  Tm15  1  0.000012  0.999999  0.497187  1
  Tl  Tl16  1  0.162622  0.837365  0.233959  1
  Tl  Tl17  1  0.674748  0.837335  0.234106  1
  Tl  Tl18  1  0.162659  0.325252  0.234076  1
  In  In19  1  0.836180  0.163858  0.731368  1
  In  In20  1  0.327700  0.163833  0.731440  1
  In  In21  1  0.836145  0.672324  0.731377  1
  Co  Co22  1  0.666682  0.333298  0.206711  1
  Os  Os23  1  0.333340  0.666678  0.705415  1
