# generated using pymatgen
data_TbNd2Tm17Sn16
_symmetry_space_group_name_H-M   'P 1'
_cell_length_a   7.98534372
_cell_length_b   8.11535358
_cell_length_c   15.33856543
_cell_angle_alpha   90.01596962
_cell_angle_beta   89.38095066
_cell_angle_gamma   89.95998306
_symmetry_Int_Tables_number   1
_chemical_formula_structural   TbNd2Tm17Sn16
_chemical_formula_sum   'Tb1 Nd2 Tm17 Sn16'
_cell_volume   993.94037207
_cell_formula_units_Z   1
loop_
 _symmetry_equiv_pos_site_id
 _symmetry_equiv_pos_as_xyz
  1  'x, y, z'
loop_
 _atom_site_type_symbol
 _atom_site_label
 _atom_site_symmetry_multiplicity
 _atom_site_fract_x
 _atom_site_fract_y
 _atom_site_fract_z
 _atom_site_occupancy
  Tb  Tb0  1  0.020079  0.179340  0.402690  1
  Nd  Nd1  1  0.982550  0.820329  0.596625  1
  Nd  Nd2  1  0.517581  0.320686  0.403540  1
  Tm  Tm3  1  0.369017  0.837200  0.121429  1
  Tm  Tm4  1  0.134361  0.337778  0.623853  1
  Tm  Tm5  1  0.477502  0.678367  0.903842  1
  Tm  Tm6  1  0.869434  0.662622  0.121824  1
  Tm  Tm7  1  0.131051  0.337291  0.878500  1
  Tm  Tm8  1  0.198517  0.504404  0.248238  1
  Tm  Tm9  1  0.698300  0.996143  0.248299  1
  Tm  Tm10  1  0.479653  0.679325  0.597528  1
  Tm  Tm11  1  0.301681  0.004141  0.751544  1
  Tm  Tm12  1  0.634886  0.161952  0.624046  1
  Tm  Tm13  1  0.801393  0.496391  0.751525  1
  Tm  Tm14  1  0.865208  0.662175  0.375993  1
  Tm  Tm15  1  0.022560  0.178521  0.096307  1
  Tm  Tm16  1  0.976548  0.820846  0.901980  1
  Tm  Tm17  1  0.630523  0.162567  0.878087  1
  Tm  Tm18  1  0.523497  0.320930  0.097912  1
  Tm  Tm19  1  0.365900  0.837301  0.376378  1
  Sn  Sn20  1  0.795710  0.461739  0.542831  1
  Sn  Sn21  1  0.702987  0.960903  0.457372  1
  Sn  Sn22  1  0.666322  0.850398  0.751210  1
  Sn  Sn23  1  0.201187  0.542277  0.459653  1
  Sn  Sn24  1  0.290273  0.035656  0.958447  1
  Sn  Sn25  1  0.832888  0.351166  0.248200  1
  Sn  Sn26  1  0.791023  0.463320  0.958782  1
  Sn  Sn27  1  0.564608  0.621650  0.248860  1
  Sn  Sn28  1  0.209749  0.535634  0.041553  1
  Sn  Sn29  1  0.436056  0.379651  0.750664  1
  Sn  Sn30  1  0.172845  0.646883  0.752672  1
  Sn  Sn31  1  0.935469  0.121752  0.751168  1
  Sn  Sn32  1  0.300000  0.041280  0.540809  1
  Sn  Sn33  1  0.708996  0.963412  0.041196  1
  Sn  Sn34  1  0.327604  0.146861  0.247147  1
  Sn  Sn35  1  0.064044  0.879104  0.249297  1
