# generated using pymatgen
data_NdHoCuSi4Pt3
_symmetry_space_group_name_H-M   'P 1'
_cell_length_a   4.16825200
_cell_length_b   4.18980900
_cell_length_c   9.95798800
_cell_angle_alpha   90.00000000
_cell_angle_beta   90.00000000
_cell_angle_gamma   90.00000000
_symmetry_Int_Tables_number   1
_chemical_formula_structural   NdHoCuSi4Pt3
_chemical_formula_sum   'Nd1 Ho1 Cu1 Si4 Pt3'
_cell_volume   173.90809232
_cell_formula_units_Z   1
loop_
 _symmetry_equiv_pos_site_id
 _symmetry_equiv_pos_as_xyz
  1  'x, y, z'
loop_
 _atom_site_type_symbol
 _atom_site_label
 _atom_site_symmetry_multiplicity
 _atom_site_fract_x
 _atom_site_fract_y
 _atom_site_fract_z
 _atom_site_occupancy
  Nd  Nd0  1  0.500000  0.000000  0.752583  1
  Ho  Ho1  1  0.000000  0.500000  0.247304  1
  Cu  Cu2  1  0.000000  0.000000  0.001287  1
  Si  Si3  1  0.000000  0.000000  0.498326  1
  Si  Si4  1  0.500000  0.500000  0.496589  1
  Si  Si5  1  0.000000  0.500000  0.868579  1
  Si  Si6  1  0.500000  0.000000  0.133953  1
  Pt  Pt7  1  0.500000  0.500000  0.005429  1
  Pt  Pt8  1  0.000000  0.500000  0.621770  1
  Pt  Pt9  1  0.500000  0.000000  0.374180  1
