# generated using pymatgen
data_KLu(SO4)2
_symmetry_space_group_name_H-M   'P 1'
_cell_length_a   5.16204079
_cell_length_b   5.16200904
_cell_length_c   8.20959719
_cell_angle_alpha   86.71232779
_cell_angle_beta   86.74490438
_cell_angle_gamma   63.47401011
_symmetry_Int_Tables_number   1
_chemical_formula_structural   KLu(SO4)2
_chemical_formula_sum   'K1 Lu1 S2 O8'
_cell_volume   195.28776433
_cell_formula_units_Z   1
loop_
 _symmetry_equiv_pos_site_id
 _symmetry_equiv_pos_as_xyz
  1  'x, y, z'
loop_
 _atom_site_type_symbol
 _atom_site_label
 _atom_site_symmetry_multiplicity
 _atom_site_fract_x
 _atom_site_fract_y
 _atom_site_fract_z
 _atom_site_occupancy
  K  K0  1  0.000000  0.000000  0.500000  1
  Lu  Lu1  1  0.000000  0.000000  0.000000  1
  S  S2  1  0.633775  0.633595  0.217114  1
  S  S3  1  0.366224  0.366404  0.782886  1
  O  O4  1  0.763170  0.762714  0.089363  1
  O  O5  1  0.314240  0.762013  0.189690  1
  O  O6  1  0.760683  0.314318  0.189339  1
  O  O7  1  0.685021  0.683508  0.382365  1
  O  O8  1  0.314978  0.316491  0.617636  1
  O  O9  1  0.239317  0.685682  0.810661  1
  O  O10  1  0.685759  0.237986  0.810310  1
  O  O11  1  0.236830  0.237288  0.910637  1
