# generated using pymatgen
data_Np4Al24NiPt8
_symmetry_space_group_name_H-M   'P 1'
_cell_length_a   7.53556315
_cell_length_b   7.53063918
_cell_length_c   13.15794767
_cell_angle_alpha   84.42248013
_cell_angle_beta   79.00562428
_cell_angle_gamma   60.00937967
_symmetry_Int_Tables_number   1
_chemical_formula_structural   Np4Al24NiPt8
_chemical_formula_sum   'Np4 Al24 Ni1 Pt8'
_cell_volume   634.83548978
_cell_formula_units_Z   1
loop_
 _symmetry_equiv_pos_site_id
 _symmetry_equiv_pos_as_xyz
  1  'x, y, z'
loop_
 _atom_site_type_symbol
 _atom_site_label
 _atom_site_symmetry_multiplicity
 _atom_site_fract_x
 _atom_site_fract_y
 _atom_site_fract_z
 _atom_site_occupancy
  Np  Np0  1  0.395546  0.166315  0.806599  1
  Np  Np1  1  0.604454  0.833685  0.193401  1
  Np  Np2  1  0.732521  0.498218  0.806684  1
  Np  Np3  1  0.267479  0.501782  0.193316  1
  Al  Al4  1  0.686602  0.827684  0.948034  1
  Al  Al5  1  0.313398  0.172316  0.051966  1
  Al  Al6  1  0.146015  0.833431  0.560130  1
  Al  Al7  1  0.853985  0.166569  0.439870  1
  Al  Al8  1  0.480410  0.167079  0.558303  1
  Al  Al9  1  0.519590  0.832921  0.441697  1
  Al  Al10  1  0.215189  0.166316  0.328721  1
  Al  Al11  1  0.784811  0.833684  0.671279  1
  Al  Al12  1  0.434783  0.507721  0.671603  1
  Al  Al13  1  0.565217  0.492279  0.328397  1
  Al  Al14  1  0.109168  0.158374  0.670420  1
  Al  Al15  1  0.890832  0.841626  0.329580  1
  Al  Al16  1  0.347723  0.496778  0.948010  1
  Al  Al17  1  0.652277  0.503222  0.051990  1
  Al  Al18  1  0.014837  0.176398  0.954863  1
  Al  Al19  1  0.985163  0.823602  0.045137  1
  Al  Al20  1  0.186398  0.499513  0.441722  1
  Al  Al21  1  0.813602  0.500487  0.558278  1
  Al  Al22  1  0.737457  0.165144  0.181166  1
  Al  Al23  1  0.262543  0.834856  0.818834  1
  Al  Al24  1  0.059198  0.624346  0.821812  1
  Al  Al25  1  0.940802  0.375654  0.178188  1
  Al  Al26  1  0.856434  0.038181  0.818787  1
  Al  Al27  1  0.143566  0.961819  0.181213  1
  Ni  Ni28  1  0.000000  0.500000  0.000000  1
  Pt  Pt29  1  0.120224  0.493743  0.638511  1
  Pt  Pt30  1  0.879776  0.506257  0.361489  1
  Pt  Pt31  1  0.660091  0.169895  0.000183  1
  Pt  Pt32  1  0.339909  0.830105  0.999817  1
  Pt  Pt33  1  0.538807  0.166673  0.361527  1
  Pt  Pt34  1  0.461193  0.833327  0.638473  1
  Pt  Pt35  1  0.779886  0.173940  0.637831  1
  Pt  Pt36  1  0.220114  0.826060  0.362169  1
