# generated using pymatgen
data_Tb2Mn6P7Ir6
_symmetry_space_group_name_H-M   'P 1'
_cell_length_a   9.40630500
_cell_length_b   9.40630591
_cell_length_c   3.85909700
_cell_angle_alpha   90.00000000
_cell_angle_beta   90.00000000
_cell_angle_gamma   119.99999235
_symmetry_Int_Tables_number   1
_chemical_formula_structural   Tb2Mn6P7Ir6
_chemical_formula_sum   'Tb2 Mn6 P7 Ir6'
_cell_volume   295.70217252
_cell_formula_units_Z   1
loop_
 _symmetry_equiv_pos_site_id
 _symmetry_equiv_pos_as_xyz
  1  'x, y, z'
loop_
 _atom_site_type_symbol
 _atom_site_label
 _atom_site_symmetry_multiplicity
 _atom_site_fract_x
 _atom_site_fract_y
 _atom_site_fract_z
 _atom_site_occupancy
  Tb  Tb0  1  0.666667  0.333333  0.000000  1
  Tb  Tb1  1  0.333333  0.666667  0.500000  1
  Mn  Mn2  1  0.270008  0.110780  0.000000  1
  Mn  Mn3  1  0.840772  0.729992  0.000000  1
  Mn  Mn4  1  0.889220  0.159228  0.000000  1
  Mn  Mn5  1  0.095830  0.881059  0.500000  1
  Mn  Mn6  1  0.785229  0.904170  0.500000  1
  Mn  Mn7  1  0.118941  0.214771  0.500000  1
  P  P8  1  0.299669  0.889255  0.000000  1
  P  P9  1  0.589586  0.700331  0.000000  1
  P  P10  1  0.110745  0.410414  0.000000  1
  P  P11  1  0.396529  0.278779  0.500000  1
  P  P12  1  0.882250  0.603471  0.500000  1
  P  P13  1  0.721221  0.117750  0.500000  1
  P  P14  1  0.000000  0.000000  0.000000  1
  Ir  Ir15  1  0.063344  0.638052  0.000000  1
  Ir  Ir16  1  0.574709  0.936656  0.000000  1
  Ir  Ir17  1  0.361948  0.425291  0.000000  1
  Ir  Ir18  1  0.441057  0.054540  0.500000  1
  Ir  Ir19  1  0.613483  0.558943  0.500000  1
  Ir  Ir20  1  0.945460  0.386517  0.500000  1
