# generated using pymatgen
data_Te10Au2Se3
_symmetry_space_group_name_H-M   'P 1'
_cell_length_a   4.19902562
_cell_length_b   7.00001746
_cell_length_c   16.37248644
_cell_angle_alpha   107.74417144
_cell_angle_beta   91.03529932
_cell_angle_gamma   107.10414590
_symmetry_Int_Tables_number   1
_chemical_formula_structural   Te10Au2Se3
_chemical_formula_sum   'Te10 Au2 Se3'
_cell_volume   434.99756842
_cell_formula_units_Z   1
loop_
 _symmetry_equiv_pos_site_id
 _symmetry_equiv_pos_as_xyz
  1  'x, y, z'
loop_
 _atom_site_type_symbol
 _atom_site_label
 _atom_site_symmetry_multiplicity
 _atom_site_fract_x
 _atom_site_fract_y
 _atom_site_fract_z
 _atom_site_occupancy
  Te  Te0  1  0.866980  0.746457  0.106282  1
  Te  Te1  1  0.412186  0.918278  0.892687  1
  Te  Te2  1  0.100335  0.139168  0.697607  1
  Te  Te3  1  0.637292  0.296213  0.501759  1
  Te  Te4  1  0.224065  0.469691  0.304926  1
  Te  Te5  1  0.554675  0.068063  0.106034  1
  Te  Te6  1  0.145618  0.266258  0.909445  1
  Te  Te7  1  0.721983  0.459458  0.693366  1
  Te  Te8  1  0.370703  0.724056  0.498870  1
  Te  Te9  1  0.965603  0.902287  0.302301  1
  Au  Au10  1  0.000139  0.003775  0.494758  1
  Au  Au11  1  0.596615  0.192092  0.306578  1
  Se  Se12  1  0.856455  0.622617  0.900435  1
  Se  Se13  1  0.395766  0.832924  0.688937  1
  Se  Se14  1  0.151583  0.358664  0.096015  1
