# generated using pymatgen
data_LuHf2Ga5Ru
_symmetry_space_group_name_H-M   'P 1'
_cell_length_a   6.72687030
_cell_length_b   6.63675624
_cell_length_c   4.15053200
_cell_angle_alpha   90.00000000
_cell_angle_beta   90.00000000
_cell_angle_gamma   119.55785503
_symmetry_Int_Tables_number   1
_chemical_formula_structural   LuHf2Ga5Ru
_chemical_formula_sum   'Lu1 Hf2 Ga5 Ru1'
_cell_volume   161.18367780
_cell_formula_units_Z   1
loop_
 _symmetry_equiv_pos_site_id
 _symmetry_equiv_pos_as_xyz
  1  'x, y, z'
loop_
 _atom_site_type_symbol
 _atom_site_label
 _atom_site_symmetry_multiplicity
 _atom_site_fract_x
 _atom_site_fract_y
 _atom_site_fract_z
 _atom_site_occupancy
  Lu  Lu0  1  0.000000  0.581218  0.500000  1
  Hf  Hf1  1  0.588010  0.995417  0.500000  1
  Hf  Hf2  1  0.411990  0.407407  0.500000  1
  Ga  Ga3  1  0.241707  0.001634  0.000000  1
  Ga  Ga4  1  0.000000  0.242678  0.000000  1
  Ga  Ga5  1  0.658878  0.327033  0.000000  1
  Ga  Ga6  1  0.341122  0.668156  0.000000  1
  Ga  Ga7  1  0.758293  0.759926  0.000000  1
  Ru  Ru8  1  0.000000  0.016531  0.500000  1
