# generated using pymatgen
data_SmY3(Ga2Ag)4
_symmetry_space_group_name_H-M   'P 1'
_cell_length_a   4.40365900
_cell_length_b   7.01343169
_cell_length_c   10.32300489
_cell_angle_alpha   90.13244997
_cell_angle_beta   90.00000000
_cell_angle_gamma   90.00000000
_symmetry_Int_Tables_number   1
_chemical_formula_structural   SmY3(Ga2Ag)4
_chemical_formula_sum   'Sm1 Y3 Ga8 Ag4'
_cell_volume   318.82269290
_cell_formula_units_Z   1
loop_
 _symmetry_equiv_pos_site_id
 _symmetry_equiv_pos_as_xyz
  1  'x, y, z'
loop_
 _atom_site_type_symbol
 _atom_site_label
 _atom_site_symmetry_multiplicity
 _atom_site_fract_x
 _atom_site_fract_y
 _atom_site_fract_z
 _atom_site_occupancy
  Sm  Sm0  1  0.250000  0.279603  0.676280  1
  Y  Y1  1  0.250000  0.779504  0.824213  1
  Y  Y2  1  0.750000  0.220175  0.176420  1
  Y  Y3  1  0.750000  0.720272  0.323532  1
  Ga  Ga4  1  0.250000  0.927765  0.154639  1
  Ga  Ga5  1  0.750000  0.070878  0.846313  1
  Ga  Ga6  1  0.750000  0.574367  0.654293  1
  Ga  Ga7  1  0.250000  0.428281  0.345276  1
  Ga  Ga8  1  0.250000  0.701996  0.534881  1
  Ga  Ga9  1  0.750000  0.299907  0.463976  1
  Ga  Ga10  1  0.750000  0.799849  0.035245  1
  Ga  Ga11  1  0.250000  0.198993  0.966224  1
  Ag  Ag12  1  0.250000  0.545086  0.095208  1
  Ag  Ag13  1  0.750000  0.455075  0.905440  1
  Ag  Ag14  1  0.750000  0.953854  0.594455  1
  Ag  Ag15  1  0.250000  0.044397  0.403602  1
