# generated using pymatgen
data_Y3(Sn2Ru)2
_symmetry_space_group_name_H-M   'P 1'
_cell_length_a   7.59324700
_cell_length_b   7.59324742
_cell_length_c   4.12602200
_cell_angle_alpha   90.00000000
_cell_angle_beta   90.00000000
_cell_angle_gamma   119.99999496
_symmetry_Int_Tables_number   1
_chemical_formula_structural   Y3(Sn2Ru)2
_chemical_formula_sum   'Y3 Sn4 Ru2'
_cell_volume   206.02374236
_cell_formula_units_Z   1
loop_
 _symmetry_equiv_pos_site_id
 _symmetry_equiv_pos_as_xyz
  1  'x, y, z'
loop_
 _atom_site_type_symbol
 _atom_site_label
 _atom_site_symmetry_multiplicity
 _atom_site_fract_x
 _atom_site_fract_y
 _atom_site_fract_z
 _atom_site_occupancy
  Y  Y0  1  0.393683  0.976951  0.500000  1
  Y  Y1  1  0.023049  0.416732  0.500000  1
  Y  Y2  1  0.583268  0.606317  0.500000  1
  Sn  Sn3  1  0.666667  0.333333  0.000000  1
  Sn  Sn4  1  0.743422  0.979920  0.000000  1
  Sn  Sn5  1  0.020080  0.763500  0.000000  1
  Sn  Sn6  1  0.236500  0.256578  0.000000  1
  Ru  Ru7  1  0.333333  0.666667  0.000000  1
  Ru  Ru8  1  0.000000  0.000000  0.500000  1
