# generated using pymatgen
data_Dy6Al4Tc12O
_symmetry_space_group_name_H-M   'P 1'
_cell_length_a   8.03450806
_cell_length_b   8.04716041
_cell_length_c   8.09062835
_cell_angle_alpha   109.06530940
_cell_angle_beta   109.37339848
_cell_angle_gamma   109.99514941
_symmetry_Int_Tables_number   1
_chemical_formula_structural   Dy6Al4Tc12O
_chemical_formula_sum   'Dy6 Al4 Tc12 O1'
_cell_volume   402.56103341
_cell_formula_units_Z   1
loop_
 _symmetry_equiv_pos_site_id
 _symmetry_equiv_pos_as_xyz
  1  'x, y, z'
loop_
 _atom_site_type_symbol
 _atom_site_label
 _atom_site_symmetry_multiplicity
 _atom_site_fract_x
 _atom_site_fract_y
 _atom_site_fract_z
 _atom_site_occupancy
  Dy  Dy0  1  0.265742  0.004740  0.260405  1
  Dy  Dy1  1  0.999488  0.260069  0.255250  1
  Dy  Dy2  1  0.001233  0.738185  0.737521  1
  Dy  Dy3  1  0.267760  0.268951  0.996588  1
  Dy  Dy4  1  0.737212  0.735366  0.996405  1
  Dy  Dy5  1  0.736993  0.996042  0.732353  1
  Al  Al6  1  0.346331  0.998354  0.654324  1
  Al  Al7  1  0.678935  0.343830  0.345953  1
  Al  Al8  1  0.002589  0.345766  0.660232  1
  Al  Al9  1  0.653272  0.656496  0.316553  1
  Tc  Tc10  1  0.997954  0.998188  0.472900  1
  Tc  Tc11  1  0.517316  0.001330  0.002874  1
  Tc  Tc12  1  0.000355  0.507993  0.000267  1
  Tc  Tc13  1  0.490187  0.500867  0.507831  1
  Tc  Tc14  1  0.338933  0.656954  0.009786  1
  Tc  Tc15  1  0.343195  0.687970  0.351971  1
  Tc  Tc16  1  0.657800  0.311823  0.661208  1
  Tc  Tc17  1  0.333357  0.332374  0.682148  1
  Tc  Tc18  1  0.310547  0.657649  0.666080  1
  Tc  Tc19  1  0.657269  0.334734  0.002062  1
  Tc  Tc20  1  0.998537  0.658450  0.345205  1
  Tc  Tc21  1  0.662307  0.002908  0.346743  1
  O  O22  1  0.002688  0.000960  0.995341  1
