# generated using pymatgen
data_TbTmZr2Al23ZnPt9
_symmetry_space_group_name_H-M   'P 1'
_cell_length_a   7.50783522
_cell_length_b   7.51540281
_cell_length_c   13.05328800
_cell_angle_alpha   84.53030941
_cell_angle_beta   78.96920047
_cell_angle_gamma   59.94576924
_symmetry_Int_Tables_number   1
_chemical_formula_structural   TbTmZr2Al23ZnPt9
_chemical_formula_sum   'Tb1 Tm1 Zr2 Al23 Zn1 Pt9'
_cell_volume   625.72141078
_cell_formula_units_Z   1
loop_
 _symmetry_equiv_pos_site_id
 _symmetry_equiv_pos_as_xyz
  1  'x, y, z'
loop_
 _atom_site_type_symbol
 _atom_site_label
 _atom_site_symmetry_multiplicity
 _atom_site_fract_x
 _atom_site_fract_y
 _atom_site_fract_z
 _atom_site_occupancy
  Tb  Tb0  1  0.732922  0.499108  0.809851  1
  Tm  Tm1  1  0.266366  0.501629  0.191697  1
  Zr  Zr2  1  0.391573  0.168731  0.809735  1
  Zr  Zr3  1  0.608159  0.831557  0.189332  1
  Al  Al4  1  0.324891  0.159146  0.055308  1
  Al  Al5  1  0.146926  0.833067  0.562646  1
  Al  Al6  1  0.853339  0.166915  0.437369  1
  Al  Al7  1  0.480265  0.166746  0.560790  1
  Al  Al8  1  0.519820  0.833317  0.439201  1
  Al  Al9  1  0.221022  0.163118  0.325821  1
  Al  Al10  1  0.779785  0.836709  0.672579  1
  Al  Al11  1  0.435946  0.504229  0.674630  1
  Al  Al12  1  0.564262  0.495619  0.325185  1
  Al  Al13  1  0.110409  0.160038  0.673482  1
  Al  Al14  1  0.889595  0.839871  0.326237  1
  Al  Al15  1  0.352827  0.497797  0.943112  1
  Al  Al16  1  0.646970  0.507560  0.057431  1
  Al  Al17  1  0.018978  0.166696  0.952391  1
  Al  Al18  1  0.978082  0.831777  0.047062  1
  Al  Al19  1  0.186794  0.499400  0.440872  1
  Al  Al20  1  0.813298  0.500661  0.559332  1
  Al  Al21  1  0.733378  0.159857  0.183284  1
  Al  Al22  1  0.264958  0.841771  0.817129  1
  Al  Al23  1  0.063129  0.627772  0.817110  1
  Al  Al24  1  0.936580  0.371954  0.184442  1
  Al  Al25  1  0.847443  0.040089  0.817997  1
  Al  Al26  1  0.149061  0.958260  0.184009  1
  Zn  Zn27  1  0.681779  0.836656  0.938378  1
  Pt  Pt28  1  0.120666  0.491226  0.639237  1
  Pt  Pt29  1  0.880255  0.509308  0.360678  1
  Pt  Pt30  1  0.656383  0.180165  0.000932  1
  Pt  Pt31  1  0.336335  0.826941  0.002274  1
  Pt  Pt32  1  0.536376  0.167371  0.361078  1
  Pt  Pt33  1  0.462703  0.833089  0.638366  1
  Pt  Pt34  1  0.779268  0.175633  0.637592  1
  Pt  Pt35  1  0.222048  0.823165  0.362213  1
  Pt  Pt36  1  0.007408  0.493052  0.001216  1
