# generated using pymatgen
data_Tb5YHo10In4Ir3Pt
_symmetry_space_group_name_H-M   'P 1'
_cell_length_a   9.65855859
_cell_length_b   9.66206271
_cell_length_c   9.66164154
_cell_angle_alpha   60.22772376
_cell_angle_beta   60.20120285
_cell_angle_gamma   60.13237565
_symmetry_Int_Tables_number   1
_chemical_formula_structural   Tb5YHo10In4Ir3Pt
_chemical_formula_sum   'Tb5 Y1 Ho10 In4 Ir3 Pt1'
_cell_volume   640.25603213
_cell_formula_units_Z   1
loop_
 _symmetry_equiv_pos_site_id
 _symmetry_equiv_pos_as_xyz
  1  'x, y, z'
loop_
 _atom_site_type_symbol
 _atom_site_label
 _atom_site_symmetry_multiplicity
 _atom_site_fract_x
 _atom_site_fract_y
 _atom_site_fract_z
 _atom_site_occupancy
  Tb  Tb0  1  0.652000  0.647630  0.050902  1
  Tb  Tb1  1  0.187196  0.810128  0.194678  1
  Tb  Tb2  1  0.060644  0.437551  0.060077  1
  Tb  Tb3  1  0.188461  0.810298  0.807815  1
  Tb  Tb4  1  0.060998  0.436917  0.439653  1
  Y  Y5  1  0.441582  0.434841  0.061169  1
  Ho  Ho6  1  0.809730  0.190406  0.190583  1
  Ho  Ho7  1  0.655513  0.650035  0.650020  1
  Ho  Ho8  1  0.809412  0.191716  0.808977  1
  Ho  Ho9  1  0.188086  0.195288  0.808344  1
  Ho  Ho10  1  0.045464  0.650573  0.650401  1
  Ho  Ho11  1  0.441311  0.059843  0.060390  1
  Ho  Ho12  1  0.059971  0.058672  0.440018  1
  Ho  Ho13  1  0.652338  0.050520  0.647661  1
  Ho  Ho14  1  0.808648  0.810443  0.191689  1
  Ho  Ho15  1  0.441615  0.059971  0.436726  1
  In  In16  1  0.416666  0.416495  0.417680  1
  In  In17  1  0.417252  0.416965  0.748145  1
  In  In18  1  0.416592  0.749053  0.417648  1
  In  In19  1  0.747649  0.416766  0.417866  1
  Ir  Ir20  1  0.856893  0.860692  0.858191  1
  Ir  Ir21  1  0.859064  0.423677  0.859073  1
  Ir  Ir22  1  0.856296  0.860688  0.425414  1
  Pt  Pt23  1  0.426615  0.860837  0.856886  1
