# generated using pymatgen
data_Rb2MoCl5O
_symmetry_space_group_name_H-M   'P 1'
_cell_length_a   7.25998700
_cell_length_b   10.33932800
_cell_length_c   14.40740600
_cell_angle_alpha   90.00000000
_cell_angle_beta   90.00000000
_cell_angle_gamma   90.00000000
_symmetry_Int_Tables_number   1
_chemical_formula_structural   Rb2MoCl5O
_chemical_formula_sum   'Rb8 Mo4 Cl20 O4'
_cell_volume   1081.46869035
_cell_formula_units_Z   4
loop_
 _symmetry_equiv_pos_site_id
 _symmetry_equiv_pos_as_xyz
  1  'x, y, z'
loop_
 _atom_site_type_symbol
 _atom_site_label
 _atom_site_symmetry_multiplicity
 _atom_site_fract_x
 _atom_site_fract_y
 _atom_site_fract_z
 _atom_site_occupancy
  Rb  Rb0  1  0.697566  0.998935  0.141229  1
  Rb  Rb1  1  0.802434  0.501065  0.641229  1
  Rb  Rb2  1  0.302434  0.498935  0.858771  1
  Rb  Rb3  1  0.197566  0.001065  0.358771  1
  Rb  Rb4  1  0.302434  0.001065  0.858771  1
  Rb  Rb5  1  0.197566  0.498935  0.358771  1
  Rb  Rb6  1  0.697566  0.501065  0.141229  1
  Rb  Rb7  1  0.802434  0.998935  0.641229  1
  Mo  Mo8  1  0.689809  0.750000  0.398731  1
  Mo  Mo9  1  0.810191  0.750000  0.898731  1
  Mo  Mo10  1  0.310191  0.250000  0.601269  1
  Mo  Mo11  1  0.189809  0.250000  0.101269  1
  Cl  Cl12  1  0.960600  0.750000  0.499142  1
  Cl  Cl13  1  0.539400  0.750000  0.999142  1
  Cl  Cl14  1  0.039400  0.250000  0.500858  1
  Cl  Cl15  1  0.460600  0.250000  0.000858  1
  Cl  Cl16  1  0.927237  0.750000  0.264095  1
  Cl  Cl17  1  0.572763  0.750000  0.764095  1
  Cl  Cl18  1  0.072763  0.250000  0.735905  1
  Cl  Cl19  1  0.427237  0.250000  0.235905  1
  Cl  Cl20  1  0.463954  0.750000  0.272767  1
  Cl  Cl21  1  0.036046  0.750000  0.772767  1
  Cl  Cl22  1  0.536046  0.250000  0.727233  1
  Cl  Cl23  1  0.963954  0.250000  0.227233  1
  Cl  Cl24  1  0.709173  0.984873  0.388537  1
  Cl  Cl25  1  0.790827  0.515127  0.888538  1
  Cl  Cl26  1  0.290827  0.484873  0.611462  1
  Cl  Cl27  1  0.209173  0.015127  0.111463  1
  Cl  Cl28  1  0.290827  0.015127  0.611462  1
  Cl  Cl29  1  0.209173  0.484873  0.111463  1
  Cl  Cl30  1  0.709173  0.515127  0.388537  1
  Cl  Cl31  1  0.790827  0.984873  0.888538  1
  O  O32  1  0.529480  0.750000  0.485778  1
  O  O33  1  0.970520  0.750000  0.985778  1
  O  O34  1  0.470520  0.250000  0.514222  1
  O  O35  1  0.029480  0.250000  0.014222  1
