# generated using pymatgen
data_Tb2Lu4Si2Os
_symmetry_space_group_name_H-M   'P 1'
_cell_length_a   7.61729707
_cell_length_b   7.61729708
_cell_length_c   4.31293900
_cell_angle_alpha   90.00000000
_cell_angle_beta   90.00000000
_cell_angle_gamma   120.01594195
_symmetry_Int_Tables_number   1
_chemical_formula_structural   Tb2Lu4Si2Os
_chemical_formula_sum   'Tb2 Lu4 Si2 Os1'
_cell_volume   216.68854148
_cell_formula_units_Z   1
loop_
 _symmetry_equiv_pos_site_id
 _symmetry_equiv_pos_as_xyz
  1  'x, y, z'
loop_
 _atom_site_type_symbol
 _atom_site_label
 _atom_site_symmetry_multiplicity
 _atom_site_fract_x
 _atom_site_fract_y
 _atom_site_fract_z
 _atom_site_occupancy
  Tb  Tb0  1  0.403707  0.000499  0.000000  1
  Tb  Tb1  1  0.000499  0.403707  0.000000  1
  Lu  Lu2  1  0.599039  0.599039  0.000000  1
  Lu  Lu3  1  0.748743  0.998195  0.499999  1
  Lu  Lu4  1  0.251679  0.251679  0.499999  1
  Lu  Lu5  1  0.998195  0.748743  0.499999  1
  Si  Si6  1  0.665701  0.334975  0.499999  1
  Si  Si7  1  0.334975  0.665701  0.499999  1
  Os  Os8  1  0.997461  0.997461  0.000000  1
