# generated using pymatgen
data_Gd7Lu3(SiSb)4
_symmetry_space_group_name_H-M   'P 1'
_cell_length_a   8.67937695
_cell_length_b   8.73269977
_cell_length_c   8.01903200
_cell_angle_alpha   90.21002005
_cell_angle_beta   90.15545586
_cell_angle_gamma   125.33275347
_symmetry_Int_Tables_number   1
_chemical_formula_structural   Gd7Lu3(SiSb)4
_chemical_formula_sum   'Gd7 Lu3 Si4 Sb4'
_cell_volume   495.83362947
_cell_formula_units_Z   1
loop_
 _symmetry_equiv_pos_site_id
 _symmetry_equiv_pos_as_xyz
  1  'x, y, z'
loop_
 _atom_site_type_symbol
 _atom_site_label
 _atom_site_symmetry_multiplicity
 _atom_site_fract_x
 _atom_site_fract_y
 _atom_site_fract_z
 _atom_site_occupancy
  Gd  Gd0  1  0.966555  0.716673  0.659250  1
  Gd  Gd1  1  0.468118  0.219369  0.841141  1
  Gd  Gd2  1  0.792608  0.539857  0.162658  1
  Gd  Gd3  1  0.533903  0.785298  0.159380  1
  Gd  Gd4  1  0.209867  0.463317  0.838530  1
  Gd  Gd5  1  0.707426  0.961639  0.660430  1
  Gd  Gd6  1  0.289811  0.036722  0.339063  1
  Lu  Lu7  1  0.033887  0.275705  0.343477  1
  Lu  Lu8  1  0.000413  0.002061  0.000413  1
  Lu  Lu9  1  0.498076  0.498121  0.498865  1
  Si  Si10  1  0.353090  0.356071  0.145678  1
  Si  Si11  1  0.644176  0.644923  0.856105  1
  Si  Si12  1  0.142510  0.143553  0.641014  1
  Si  Si13  1  0.857467  0.859111  0.358269  1
  Sb  Sb14  1  0.801071  0.202660  0.007967  1
  Sb  Sb15  1  0.205662  0.804797  0.994854  1
  Sb  Sb16  1  0.706738  0.299126  0.501377  1
  Sb  Sb17  1  0.288621  0.690997  0.491535  1
