# generated using pymatgen
data_Ca14SmPa5Pt16
_symmetry_space_group_name_H-M   'P 1'
_cell_length_a   7.54826070
_cell_length_b   7.65049508
_cell_length_c   14.59924800
_cell_angle_alpha   90.14692250
_cell_angle_beta   89.95154164
_cell_angle_gamma   90.10545182
_symmetry_Int_Tables_number   1
_chemical_formula_structural   Ca14SmPa5Pt16
_chemical_formula_sum   'Ca14 Sm1 Pa5 Pt16'
_cell_volume   843.07187329
_cell_formula_units_Z   1
loop_
 _symmetry_equiv_pos_site_id
 _symmetry_equiv_pos_as_xyz
  1  'x, y, z'
loop_
 _atom_site_type_symbol
 _atom_site_label
 _atom_site_symmetry_multiplicity
 _atom_site_fract_x
 _atom_site_fract_y
 _atom_site_fract_z
 _atom_site_occupancy
  Ca  Ca0  1  0.647824  0.162554  0.882125  1
  Ca  Ca1  1  0.149567  0.334121  0.619599  1
  Ca  Ca2  1  0.493896  0.675620  0.598466  1
  Ca  Ca3  1  0.992361  0.827027  0.902493  1
  Ca  Ca4  1  0.504470  0.321662  0.091118  1
  Ca  Ca5  1  0.004361  0.177407  0.408399  1
  Ca  Ca6  1  0.501794  0.322223  0.407845  1
  Ca  Ca7  1  0.000100  0.178243  0.092980  1
  Ca  Ca8  1  0.499399  0.682220  0.901510  1
  Ca  Ca9  1  0.992618  0.817735  0.598756  1
  Ca  Ca10  1  0.806714  0.509759  0.748760  1
  Ca  Ca11  1  0.315135  0.987523  0.750845  1
  Ca  Ca12  1  0.198002  0.473298  0.248932  1
  Ca  Ca13  1  0.698981  0.024725  0.249472  1
  Sm  Sm14  1  0.651160  0.159601  0.621572  1
  Pa  Pa15  1  0.154145  0.345145  0.878809  1
  Pa  Pa16  1  0.349387  0.841986  0.119874  1
  Pa  Pa17  1  0.850204  0.659649  0.377492  1
  Pa  Pa18  1  0.351580  0.838697  0.377450  1
  Pa  Pa19  1  0.852753  0.657565  0.120860  1
  Pt  Pt20  1  0.682916  0.942044  0.454671  1
  Pt  Pt21  1  0.190793  0.556863  0.038310  1
  Pt  Pt22  1  0.298538  0.053297  0.966487  1
  Pt  Pt23  1  0.807712  0.462094  0.531371  1
  Pt  Pt24  1  0.314761  0.025323  0.534443  1
  Pt  Pt25  1  0.827117  0.465624  0.961472  1
  Pt  Pt26  1  0.675221  0.938957  0.045902  1
  Pt  Pt27  1  0.177163  0.558267  0.454218  1
  Pt  Pt28  1  0.440390  0.368036  0.752812  1
  Pt  Pt29  1  0.956253  0.136496  0.761328  1
  Pt  Pt30  1  0.550801  0.646150  0.248426  1
  Pt  Pt31  1  0.052939  0.851615  0.248488  1
  Pt  Pt32  1  0.698390  0.872551  0.747585  1
  Pt  Pt33  1  0.179730  0.626942  0.756895  1
  Pt  Pt34  1  0.317849  0.112789  0.250878  1
  Pt  Pt35  1  0.814977  0.386193  0.249358  1
