# generated using pymatgen
data_Tm3Fe(Si3Rh4)2
_symmetry_space_group_name_H-M   'P 1'
_cell_length_a   3.93629600
_cell_length_b   11.34656700
_cell_length_c   12.62727800
_cell_angle_alpha   90.00000000
_cell_angle_beta   90.00000000
_cell_angle_gamma   90.00000000
_symmetry_Int_Tables_number   1
_chemical_formula_structural   Tm3Fe(Si3Rh4)2
_chemical_formula_sum   'Tm6 Fe2 Si12 Rh16'
_cell_volume   563.97775282
_cell_formula_units_Z   2
loop_
 _symmetry_equiv_pos_site_id
 _symmetry_equiv_pos_as_xyz
  1  'x, y, z'
loop_
 _atom_site_type_symbol
 _atom_site_label
 _atom_site_symmetry_multiplicity
 _atom_site_fract_x
 _atom_site_fract_y
 _atom_site_fract_z
 _atom_site_occupancy
  Tm  Tm0  1  0.000000  0.500000  0.525175  1
  Tm  Tm1  1  0.500000  0.000000  0.474825  1
  Tm  Tm2  1  0.500000  0.815292  0.198580  1
  Tm  Tm3  1  0.500000  0.184708  0.198580  1
  Tm  Tm4  1  0.000000  0.684708  0.801420  1
  Tm  Tm5  1  0.000000  0.315292  0.801420  1
  Fe  Fe6  1  0.000000  0.500000  0.972970  1
  Fe  Fe7  1  0.500000  0.000000  0.027030  1
  Si  Si8  1  0.500000  0.500000  0.877036  1
  Si  Si9  1  0.000000  0.000000  0.122964  1
  Si  Si10  1  0.500000  0.500000  0.337838  1
  Si  Si11  1  0.000000  0.000000  0.662162  1
  Si  Si12  1  0.500000  0.303173  0.619266  1
  Si  Si13  1  0.500000  0.696827  0.619266  1
  Si  Si14  1  0.000000  0.196827  0.380734  1
  Si  Si15  1  0.000000  0.803173  0.380734  1
  Si  Si16  1  0.500000  0.857490  0.902877  1
  Si  Si17  1  0.500000  0.142510  0.902877  1
  Si  Si18  1  0.000000  0.642510  0.097123  1
  Si  Si19  1  0.000000  0.357490  0.097123  1
  Rh  Rh20  1  0.500000  0.500000  0.149826  1
  Rh  Rh21  1  0.000000  0.000000  0.850174  1
  Rh  Rh22  1  0.500000  0.500000  0.688161  1
  Rh  Rh23  1  0.000000  0.000000  0.311839  1
  Rh  Rh24  1  0.500000  0.332572  0.984244  1
  Rh  Rh25  1  0.500000  0.667428  0.984244  1
  Rh  Rh26  1  0.000000  0.167428  0.015756  1
  Rh  Rh27  1  0.000000  0.832572  0.015756  1
  Rh  Rh28  1  0.500000  0.304266  0.430658  1
  Rh  Rh29  1  0.500000  0.695734  0.430658  1
  Rh  Rh30  1  0.000000  0.195734  0.569342  1
  Rh  Rh31  1  0.000000  0.804266  0.569342  1
  Rh  Rh32  1  0.500000  0.878269  0.715039  1
  Rh  Rh33  1  0.500000  0.121731  0.715039  1
  Rh  Rh34  1  0.000000  0.621731  0.284961  1
  Rh  Rh35  1  0.000000  0.378269  0.284961  1
