# generated using pymatgen
data_Eu6LuSe8
_symmetry_space_group_name_H-M   'P 1'
_cell_length_a   8.62696819
_cell_length_b   8.62673970
_cell_length_c   8.62384100
_cell_angle_alpha   120.01877690
_cell_angle_beta   89.94353418
_cell_angle_gamma   120.01752052
_symmetry_Int_Tables_number   1
_chemical_formula_structural   Eu6LuSe8
_chemical_formula_sum   'Eu6 Lu1 Se8'
_cell_volume   453.80171644
_cell_formula_units_Z   1
loop_
 _symmetry_equiv_pos_site_id
 _symmetry_equiv_pos_as_xyz
  1  'x, y, z'
loop_
 _atom_site_type_symbol
 _atom_site_label
 _atom_site_symmetry_multiplicity
 _atom_site_fract_x
 _atom_site_fract_y
 _atom_site_fract_z
 _atom_site_occupancy
  Eu  Eu0  1  0.249970  0.999982  0.250017  1
  Eu  Eu1  1  0.249983  0.500012  0.250024  1
  Eu  Eu2  1  0.749964  0.999976  0.250015  1
  Eu  Eu3  1  0.250051  0.000030  0.749968  1
  Eu  Eu4  1  0.749987  0.000029  0.749994  1
  Eu  Eu5  1  0.749999  0.499948  0.749956  1
  Lu  Lu6  1  0.250028  0.500012  0.750024  1
  Se  Se7  1  0.000019  0.999961  0.999922  1
  Se  Se8  1  0.500005  0.000032  0.500034  1
  Se  Se9  1  0.015438  0.030900  0.515480  1
  Se  Se10  1  0.015401  0.500043  0.515421  1
  Se  Se11  1  0.484564  0.500053  0.515500  1
  Se  Se12  1  0.015435  0.499979  0.984550  1
  Se  Se13  1  0.484604  0.499966  0.984587  1
  Se  Se14  1  0.484557  0.969082  0.984518  1
