# generated using pymatgen
data_Hf5Zr(AuN)2
_symmetry_space_group_name_H-M   'P 1'
_cell_length_a   5.93580973
_cell_length_b   5.93581016
_cell_length_c   9.03507800
_cell_angle_alpha   90.00000000
_cell_angle_beta   90.00000000
_cell_angle_gamma   147.36024595
_symmetry_Int_Tables_number   1
_chemical_formula_structural   Hf5Zr(AuN)2
_chemical_formula_sum   'Hf5 Zr1 Au2 N2'
_cell_volume   171.69859294
_cell_formula_units_Z   1
loop_
 _symmetry_equiv_pos_site_id
 _symmetry_equiv_pos_as_xyz
  1  'x, y, z'
loop_
 _atom_site_type_symbol
 _atom_site_label
 _atom_site_symmetry_multiplicity
 _atom_site_fract_x
 _atom_site_fract_y
 _atom_site_fract_z
 _atom_site_occupancy
  Hf  Hf0  1  0.626760  0.373238  0.044225  1
  Hf  Hf1  1  0.626760  0.373238  0.455776  1
  Hf  Hf2  1  0.374025  0.625973  0.546215  1
  Hf  Hf3  1  0.044877  0.955122  0.750000  1
  Hf  Hf4  1  0.374025  0.625973  0.953785  1
  Zr  Zr5  1  0.954982  0.045017  0.250000  1
  Au  Au6  1  0.245083  0.754915  0.250000  1
  Au  Au7  1  0.751664  0.248334  0.750000  1
  N  N8  1  0.000909  0.999091  0.996344  1
  N  N9  1  0.000909  0.999091  0.503656  1
