# generated using pymatgen
data_Tb2Y6Re3RuC8
_symmetry_space_group_name_H-M   'P 1'
_cell_length_a   5.13332900
_cell_length_b   6.57751370
_cell_length_c   9.87434202
_cell_angle_alpha   89.90560583
_cell_angle_beta   90.00000000
_cell_angle_gamma   90.00000000
_symmetry_Int_Tables_number   1
_chemical_formula_structural   Tb2Y6Re3RuC8
_chemical_formula_sum   'Tb2 Y6 Re3 Ru1 C8'
_cell_volume   333.40218178
_cell_formula_units_Z   1
loop_
 _symmetry_equiv_pos_site_id
 _symmetry_equiv_pos_as_xyz
  1  'x, y, z'
loop_
 _atom_site_type_symbol
 _atom_site_label
 _atom_site_symmetry_multiplicity
 _atom_site_fract_x
 _atom_site_fract_y
 _atom_site_fract_z
 _atom_site_occupancy
  Tb  Tb0  1  0.750000  0.530562  0.786477  1
  Tb  Tb1  1  0.250000  0.969252  0.283130  1
  Y  Y2  1  0.750000  0.679498  0.444128  1
  Y  Y3  1  0.250000  0.824776  0.945289  1
  Y  Y4  1  0.750000  0.180534  0.056722  1
  Y  Y5  1  0.250000  0.318909  0.556522  1
  Y  Y6  1  0.250000  0.468091  0.215809  1
  Y  Y7  1  0.750000  0.032896  0.715449  1
  Re  Re8  1  0.250000  0.778143  0.635473  1
  Re  Re9  1  0.750000  0.222189  0.365713  1
  Re  Re10  1  0.750000  0.722727  0.134481  1
  Ru  Ru11  1  0.250000  0.277668  0.864547  1
  C  C12  1  0.250000  0.677208  0.451557  1
  C  C13  1  0.250000  0.545933  0.757037  1
  C  C14  1  0.750000  0.455586  0.240677  1
  C  C15  1  0.750000  0.821335  0.949974  1
  C  C16  1  0.250000  0.043376  0.739846  1
  C  C17  1  0.250000  0.175767  0.047714  1
  C  C18  1  0.750000  0.320700  0.549940  1
  C  C19  1  0.750000  0.954852  0.259516  1
