# generated using pymatgen
data_ThGa2RuAu
_symmetry_space_group_name_H-M   'P 1'
_cell_length_a   4.44868000
_cell_length_b   4.44868000
_cell_length_c   10.05644900
_cell_angle_alpha   90.00000000
_cell_angle_beta   90.00000000
_cell_angle_gamma   90.00000000
_symmetry_Int_Tables_number   1
_chemical_formula_structural   ThGa2RuAu
_chemical_formula_sum   'Th2 Ga4 Ru2 Au2'
_cell_volume   199.02470568
_cell_formula_units_Z   2
loop_
 _symmetry_equiv_pos_site_id
 _symmetry_equiv_pos_as_xyz
  1  'x, y, z'
loop_
 _atom_site_type_symbol
 _atom_site_label
 _atom_site_symmetry_multiplicity
 _atom_site_fract_x
 _atom_site_fract_y
 _atom_site_fract_z
 _atom_site_occupancy
  Th  Th0  1  0.000000  0.500000  0.219892  1
  Th  Th1  1  0.500000  0.000000  0.780108  1
  Ga  Ga2  1  0.000000  0.000000  0.500000  1
  Ga  Ga3  1  0.500000  0.500000  0.500000  1
  Ga  Ga4  1  0.000000  0.500000  0.885572  1
  Ga  Ga5  1  0.500000  0.000000  0.114428  1
  Ru  Ru6  1  0.000000  0.000000  0.000000  1
  Ru  Ru7  1  0.500000  0.500000  0.000000  1
  Au  Au8  1  0.000000  0.500000  0.635440  1
  Au  Au9  1  0.500000  0.000000  0.364560  1
