# generated using pymatgen
data_SmY7(C2Cl3)2
_symmetry_space_group_name_H-M   'P 1'
_cell_length_a   3.67513200
_cell_length_b   10.55017080
_cell_length_c   19.88739954
_cell_angle_alpha   90.26447155
_cell_angle_beta   90.00000000
_cell_angle_gamma   90.00000000
_symmetry_Int_Tables_number   1
_chemical_formula_structural   SmY7(C2Cl3)2
_chemical_formula_sum   'Sm2 Y14 C8 Cl12'
_cell_volume   771.09130335
_cell_formula_units_Z   2
loop_
 _symmetry_equiv_pos_site_id
 _symmetry_equiv_pos_as_xyz
  1  'x, y, z'
loop_
 _atom_site_type_symbol
 _atom_site_label
 _atom_site_symmetry_multiplicity
 _atom_site_fract_x
 _atom_site_fract_y
 _atom_site_fract_z
 _atom_site_occupancy
  Sm  Sm0  1  0.250000  0.861918  0.572942  1
  Sm  Sm1  1  0.750000  0.138082  0.427058  1
  Y  Y2  1  0.750000  0.636045  0.074201  1
  Y  Y3  1  0.250000  0.363955  0.925799  1
  Y  Y4  1  0.250000  0.865866  0.745017  1
  Y  Y5  1  0.750000  0.134134  0.254983  1
  Y  Y6  1  0.750000  0.634289  0.243339  1
  Y  Y7  1  0.250000  0.365711  0.756661  1
  Y  Y8  1  0.250000  0.871763  0.165260  1
  Y  Y9  1  0.750000  0.128237  0.834740  1
  Y  Y10  1  0.750000  0.627040  0.667074  1
  Y  Y11  1  0.250000  0.372960  0.332926  1
  Y  Y12  1  0.250000  0.897393  0.331076  1
  Y  Y13  1  0.750000  0.102607  0.668924  1
  Y  Y14  1  0.750000  0.603583  0.832794  1
  Y  Y15  1  0.250000  0.396417  0.167206  1
  C  C16  1  0.250000  0.614514  0.751932  1
  C  C17  1  0.750000  0.385486  0.248068  1
  C  C18  1  0.750000  0.884254  0.249661  1
  C  C19  1  0.250000  0.115746  0.750339  1
  C  C20  1  0.250000  0.632511  0.151882  1
  C  C21  1  0.750000  0.367489  0.848118  1
  C  C22  1  0.750000  0.865664  0.654710  1
  C  C23  1  0.250000  0.134336  0.345290  1
  Cl  Cl24  1  0.250000  0.607323  0.559764  1
  Cl  Cl25  1  0.750000  0.392677  0.440236  1
  Cl  Cl26  1  0.750000  0.884225  0.057182  1
  Cl  Cl27  1  0.250000  0.115775  0.942818  1
  Cl  Cl28  1  0.250000  0.622298  0.953694  1
  Cl  Cl29  1  0.750000  0.377702  0.046306  1
  Cl  Cl30  1  0.750000  0.873167  0.449298  1
  Cl  Cl31  1  0.250000  0.126833  0.550702  1
  Cl  Cl32  1  0.250000  0.637022  0.352218  1
  Cl  Cl33  1  0.750000  0.362978  0.647782  1
  Cl  Cl34  1  0.750000  0.864168  0.854673  1
  Cl  Cl35  1  0.250000  0.135832  0.145327  1
