# generated using pymatgen
data_Ca2Nd8Sn5Bi3
_symmetry_space_group_name_H-M   'P 1'
_cell_length_a   8.32691100
_cell_length_b   8.39755715
_cell_length_c   16.07455500
_cell_angle_alpha   90.00000000
_cell_angle_beta   90.00000000
_cell_angle_gamma   90.06347355
_symmetry_Int_Tables_number   1
_chemical_formula_structural   Ca2Nd8Sn5Bi3
_chemical_formula_sum   'Ca4 Nd16 Sn10 Bi6'
_cell_volume   1124.02399814
_cell_formula_units_Z   2
loop_
 _symmetry_equiv_pos_site_id
 _symmetry_equiv_pos_as_xyz
  1  'x, y, z'
loop_
 _atom_site_type_symbol
 _atom_site_label
 _atom_site_symmetry_multiplicity
 _atom_site_fract_x
 _atom_site_fract_y
 _atom_site_fract_z
 _atom_site_occupancy
  Ca  Ca0  1  0.211610  0.501037  0.249210  1
  Ca  Ca1  1  0.712712  0.998454  0.248283  1
  Ca  Ca2  1  0.287288  0.001546  0.748283  1
  Ca  Ca3  1  0.788390  0.498963  0.749210  1
  Nd  Nd4  1  0.039876  0.174384  0.394802  1
  Nd  Nd5  1  0.388143  0.836823  0.120416  1
  Nd  Nd6  1  0.119648  0.332616  0.620852  1
  Nd  Nd7  1  0.467483  0.681305  0.894077  1
  Nd  Nd8  1  0.880352  0.667384  0.120852  1
  Nd  Nd9  1  0.116497  0.336322  0.878788  1
  Nd  Nd10  1  0.462469  0.681767  0.607238  1
  Nd  Nd11  1  0.611857  0.163177  0.620416  1
  Nd  Nd12  1  0.883503  0.663678  0.378788  1
  Nd  Nd13  1  0.028828  0.174455  0.105109  1
  Nd  Nd14  1  0.960124  0.825616  0.894802  1
  Nd  Nd15  1  0.617667  0.161947  0.880247  1
  Nd  Nd16  1  0.537531  0.318233  0.107238  1
  Nd  Nd17  1  0.382333  0.838053  0.380247  1
  Nd  Nd18  1  0.971172  0.825545  0.605109  1
  Nd  Nd19  1  0.532517  0.318695  0.394077  1
  Sn  Sn20  1  0.665313  0.862181  0.749506  1
  Sn  Sn21  1  0.835832  0.360767  0.250999  1
  Sn  Sn22  1  0.583335  0.616398  0.251068  1
  Sn  Sn23  1  0.416665  0.383602  0.751068  1
  Sn  Sn24  1  0.164168  0.639233  0.750999  1
  Sn  Sn25  1  0.915854  0.118183  0.749829  1
  Sn  Sn26  1  0.277545  0.029749  0.541305  1
  Sn  Sn27  1  0.722455  0.970251  0.041305  1
  Sn  Sn28  1  0.334687  0.137819  0.249506  1
  Sn  Sn29  1  0.084146  0.881817  0.249829  1
  Bi  Bi30  1  0.775343  0.473088  0.542203  1
  Bi  Bi31  1  0.723470  0.971626  0.457989  1
  Bi  Bi32  1  0.222796  0.528301  0.458082  1
  Bi  Bi33  1  0.276530  0.028374  0.957989  1
  Bi  Bi34  1  0.777204  0.471699  0.958082  1
  Bi  Bi35  1  0.224657  0.526912  0.042203  1
