# generated using pymatgen
data_Nd19PaRh16
_symmetry_space_group_name_H-M   'P 1'
_cell_length_a   7.58063463
_cell_length_b   7.68767984
_cell_length_c   14.96711088
_cell_angle_alpha   90.03983324
_cell_angle_beta   90.09012151
_cell_angle_gamma   89.90872783
_symmetry_Int_Tables_number   1
_chemical_formula_structural   Nd19PaRh16
_chemical_formula_sum   'Nd19 Pa1 Rh16'
_cell_volume   872.24329059
_cell_formula_units_Z   1
loop_
 _symmetry_equiv_pos_site_id
 _symmetry_equiv_pos_as_xyz
  1  'x, y, z'
loop_
 _atom_site_type_symbol
 _atom_site_label
 _atom_site_symmetry_multiplicity
 _atom_site_fract_x
 _atom_site_fract_y
 _atom_site_fract_z
 _atom_site_occupancy
  Nd  Nd0  1  0.164199  0.335082  0.877635  1
  Nd  Nd1  1  0.337752  0.833413  0.122506  1
  Nd  Nd2  1  0.838331  0.667341  0.379765  1
  Nd  Nd3  1  0.336642  0.835678  0.379647  1
  Nd  Nd4  1  0.836308  0.667356  0.122524  1
  Nd  Nd5  1  0.663374  0.164056  0.877567  1
  Nd  Nd6  1  0.160630  0.335515  0.619732  1
  Nd  Nd7  1  0.510416  0.680387  0.594478  1
  Nd  Nd8  1  0.016637  0.814336  0.909333  1
  Nd  Nd9  1  0.486522  0.318003  0.092852  1
  Nd  Nd10  1  0.989016  0.183993  0.404983  1
  Nd  Nd11  1  0.487582  0.322631  0.407091  1
  Nd  Nd12  1  0.986963  0.181189  0.093032  1
  Nd  Nd13  1  0.513056  0.683083  0.907361  1
  Nd  Nd14  1  0.012392  0.819721  0.593581  1
  Nd  Nd15  1  0.826260  0.512735  0.751262  1
  Nd  Nd16  1  0.316918  0.989079  0.751100  1
  Nd  Nd17  1  0.175827  0.490617  0.250026  1
  Nd  Nd18  1  0.675725  0.011785  0.250036  1
  Pa  Pa19  1  0.662088  0.161663  0.622657  1
  Rh  Rh20  1  0.691970  0.979224  0.474912  1
  Rh  Rh21  1  0.177507  0.532130  0.040628  1
  Rh  Rh22  1  0.321476  0.031773  0.958033  1
  Rh  Rh23  1  0.802390  0.440794  0.542426  1
  Rh  Rh24  1  0.346965  0.039610  0.548670  1
  Rh  Rh25  1  0.823018  0.471361  0.956669  1
  Rh  Rh26  1  0.676730  0.969355  0.041722  1
  Rh  Rh27  1  0.168758  0.532592  0.457551  1
  Rh  Rh28  1  0.470575  0.375289  0.738627  1
  Rh  Rh29  1  0.940782  0.115470  0.737314  1
  Rh  Rh30  1  0.541892  0.604970  0.252868  1
  Rh  Rh31  1  0.040838  0.899665  0.251692  1
  Rh  Rh32  1  0.687143  0.865091  0.741134  1
  Rh  Rh33  1  0.210037  0.634364  0.749259  1
  Rh  Rh34  1  0.303078  0.143958  0.250722  1
  Rh  Rh35  1  0.800205  0.356689  0.250604  1
