# generated using pymatgen
data_HoEr19CoBi8Os3
_symmetry_space_group_name_H-M   'P 1'
_cell_length_a   7.91314226
_cell_length_b   8.97538500
_cell_length_c   12.38660569
_cell_angle_alpha   90.00000000
_cell_angle_beta   89.75776312
_cell_angle_gamma   90.00000000
_symmetry_Int_Tables_number   1
_chemical_formula_structural   HoEr19CoBi8Os3
_chemical_formula_sum   'Ho1 Er19 Co1 Bi8 Os3'
_cell_volume   879.73220593
_cell_formula_units_Z   1
loop_
 _symmetry_equiv_pos_site_id
 _symmetry_equiv_pos_as_xyz
  1  'x, y, z'
loop_
 _atom_site_type_symbol
 _atom_site_label
 _atom_site_symmetry_multiplicity
 _atom_site_fract_x
 _atom_site_fract_y
 _atom_site_fract_z
 _atom_site_occupancy
  Ho  Ho0  1  0.558353  0.250000  0.003589  1
  Er  Er1  1  0.344202  0.750000  0.701332  1
  Er  Er2  1  0.658386  0.250000  0.292397  1
  Er  Er3  1  0.842371  0.250000  0.790841  1
  Er  Er4  1  0.156424  0.750000  0.206781  1
  Er  Er5  1  0.879428  0.750000  0.806021  1
  Er  Er6  1  0.120218  0.250000  0.193544  1
  Er  Er7  1  0.378557  0.250000  0.692896  1
  Er  Er8  1  0.616122  0.750000  0.313017  1
  Er  Er9  1  0.674331  0.542575  0.563393  1
  Er  Er10  1  0.326007  0.461020  0.437179  1
  Er  Er11  1  0.174179  0.457840  0.936145  1
  Er  Er12  1  0.326007  0.038980  0.437179  1
  Er  Er13  1  0.825065  0.543407  0.064246  1
  Er  Er14  1  0.674331  0.957425  0.563393  1
  Er  Er15  1  0.825065  0.956593  0.064246  1
  Er  Er16  1  0.174179  0.042160  0.936145  1
  Er  Er17  1  0.056276  0.750000  0.497062  1
  Er  Er18  1  0.944405  0.250000  0.503061  1
  Er  Er19  1  0.442175  0.750000  0.995815  1
  Co  Co20  1  0.429305  0.750000  0.491272  1
  Bi  Bi21  1  0.569680  0.508725  0.827188  1
  Bi  Bi22  1  0.430060  0.492525  0.173106  1
  Bi  Bi23  1  0.070914  0.492033  0.671721  1
  Bi  Bi24  1  0.430060  0.007475  0.173106  1
  Bi  Bi25  1  0.929951  0.508811  0.328616  1
  Bi  Bi26  1  0.569680  0.991275  0.827188  1
  Bi  Bi27  1  0.929951  0.991189  0.328616  1
  Bi  Bi28  1  0.070914  0.007967  0.671721  1
  Os  Os29  1  0.075216  0.750000  0.989338  1
  Os  Os30  1  0.924414  0.250000  0.009881  1
  Os  Os31  1  0.573778  0.250000  0.509970  1
