# generated using pymatgen
data_K3Cu(AgP)2
_symmetry_space_group_name_H-M   'P 1'
_cell_length_a   7.61947621
_cell_length_b   7.61947640
_cell_length_c   7.66810572
_cell_angle_alpha   45.27414836
_cell_angle_beta   45.27414850
_cell_angle_gamma   46.69994502
_symmetry_Int_Tables_number   1
_chemical_formula_structural   K3Cu(AgP)2
_chemical_formula_sum   'K3 Cu1 Ag2 P2'
_cell_volume   208.08559213
_cell_formula_units_Z   1
loop_
 _symmetry_equiv_pos_site_id
 _symmetry_equiv_pos_as_xyz
  1  'x, y, z'
loop_
 _atom_site_type_symbol
 _atom_site_label
 _atom_site_symmetry_multiplicity
 _atom_site_fract_x
 _atom_site_fract_y
 _atom_site_fract_z
 _atom_site_occupancy
  K  K0  1  0.909105  0.909105  0.902220  1
  K  K1  1  0.500000  0.500000  0.500000  1
  K  K2  1  0.090895  0.090895  0.097780  1
  Cu  Cu3  1  0.500000  0.500000  0.000000  1
  Ag  Ag4  1  0.000000  0.500000  0.500000  1
  Ag  Ag5  1  0.500000  0.000000  0.500000  1
  P  P6  1  0.265509  0.265509  0.223368  1
  P  P7  1  0.734491  0.734491  0.776632  1
