# generated using pymatgen
data_Nb5In2TcSe12
_symmetry_space_group_name_H-M   'P 1'
_cell_length_a   6.01439600
_cell_length_b   6.01439624
_cell_length_c   16.34836100
_cell_angle_alpha   90.00000000
_cell_angle_beta   90.00000000
_cell_angle_gamma   119.99999869
_symmetry_Int_Tables_number   1
_chemical_formula_structural   Nb5In2TcSe12
_chemical_formula_sum   'Nb5 In2 Tc1 Se12'
_cell_volume   512.14025438
_cell_formula_units_Z   1
loop_
 _symmetry_equiv_pos_site_id
 _symmetry_equiv_pos_as_xyz
  1  'x, y, z'
loop_
 _atom_site_type_symbol
 _atom_site_label
 _atom_site_symmetry_multiplicity
 _atom_site_fract_x
 _atom_site_fract_y
 _atom_site_fract_z
 _atom_site_occupancy
  Nb  Nb0  1  0.666667  0.333333  0.000020  1
  Nb  Nb1  1  0.666667  0.333333  0.500619  1
  Nb  Nb2  1  0.333333  0.666667  0.000120  1
  Nb  Nb3  1  0.000000  0.000000  0.500127  1
  Nb  Nb4  1  0.000000  0.000000  0.000210  1
  In  In5  1  0.666667  0.333333  0.754240  1
  In  In6  1  0.333333  0.666667  0.244339  1
  Tc  Tc7  1  0.333333  0.666667  0.499253  1
  Se  Se8  1  0.333821  0.332056  0.102837  1
  Se  Se9  1  0.667944  0.001765  0.102837  1
  Se  Se10  1  0.998235  0.666179  0.102837  1
  Se  Se11  1  0.010477  0.342849  0.600850  1
  Se  Se12  1  0.666297  0.998207  0.897309  1
  Se  Se13  1  0.657151  0.667628  0.600850  1
  Se  Se14  1  0.332372  0.989523  0.600850  1
  Se  Se15  1  0.659326  0.666490  0.399361  1
  Se  Se16  1  0.333510  0.992836  0.399361  1
  Se  Se17  1  0.331910  0.333703  0.897309  1
  Se  Se18  1  0.001793  0.668090  0.897309  1
  Se  Se19  1  0.007164  0.340674  0.399361  1
