# generated using pymatgen
data_Tb3Tm3Co16(TcP6)2
_symmetry_space_group_name_H-M   'P 1'
_cell_length_a   3.70584700
_cell_length_b   10.52742406
_cell_length_c   12.22658106
_cell_angle_alpha   90.01177932
_cell_angle_beta   90.00000000
_cell_angle_gamma   90.00000000
_symmetry_Int_Tables_number   1
_chemical_formula_structural   Tb3Tm3Co16(TcP6)2
_chemical_formula_sum   'Tb3 Tm3 Co16 Tc2 P12'
_cell_volume   476.99587642
_cell_formula_units_Z   1
loop_
 _symmetry_equiv_pos_site_id
 _symmetry_equiv_pos_as_xyz
  1  'x, y, z'
loop_
 _atom_site_type_symbol
 _atom_site_label
 _atom_site_symmetry_multiplicity
 _atom_site_fract_x
 _atom_site_fract_y
 _atom_site_fract_z
 _atom_site_occupancy
  Tb  Tb0  1  0.000000  0.500298  0.523940  1
  Tb  Tb1  1  0.500000  0.999828  0.475981  1
  Tb  Tb2  1  0.000000  0.317729  0.794179  1
  Tm  Tm3  1  0.500000  0.817576  0.205857  1
  Tm  Tm4  1  0.500000  0.182271  0.205696  1
  Tm  Tm5  1  0.000000  0.682626  0.794240  1
  Co  Co6  1  0.500000  0.501236  0.703493  1
  Co  Co7  1  0.000000  0.999904  0.296006  1
  Co  Co8  1  0.000000  0.500479  0.987342  1
  Co  Co9  1  0.500000  0.999706  0.013318  1
  Co  Co10  1  0.500000  0.332180  0.990713  1
  Co  Co11  1  0.500000  0.668160  0.989909  1
  Co  Co12  1  0.000000  0.167497  0.010666  1
  Co  Co13  1  0.000000  0.832045  0.010278  1
  Co  Co14  1  0.500000  0.296352  0.430262  1
  Co  Co15  1  0.500000  0.703775  0.430504  1
  Co  Co16  1  0.000000  0.203484  0.568811  1
  Co  Co17  1  0.000000  0.796306  0.569453  1
  Co  Co18  1  0.500000  0.878301  0.708498  1
  Co  Co19  1  0.500000  0.120422  0.707915  1
  Co  Co20  1  0.000000  0.621554  0.291553  1
  Co  Co21  1  0.000000  0.378461  0.291428  1
  Tc  Tc22  1  0.500000  0.500202  0.156331  1
  Tc  Tc23  1  0.000000  0.999685  0.843750  1
  P  P24  1  0.500000  0.501067  0.881369  1
  P  P25  1  0.000000  0.999882  0.119363  1
  P  P26  1  0.500000  0.500007  0.348249  1
  P  P27  1  0.000000  0.000145  0.651663  1
  P  P28  1  0.500000  0.311104  0.615796  1
  P  P29  1  0.500000  0.688880  0.617037  1
  P  P30  1  0.000000  0.188493  0.382698  1
  P  P31  1  0.000000  0.811303  0.382863  1
  P  P32  1  0.500000  0.845413  0.892286  1
  P  P33  1  0.500000  0.153515  0.893068  1
  P  P34  1  0.000000  0.654725  0.107858  1
  P  P35  1  0.000000  0.345388  0.107624  1
