# generated using pymatgen
data_Sr2NdEr(Ir2O7)2
_symmetry_space_group_name_H-M   'P 1'
_cell_length_a   7.38334280
_cell_length_b   7.36702851
_cell_length_c   7.38334462
_cell_angle_alpha   59.89551099
_cell_angle_beta   59.73403984
_cell_angle_gamma   59.89551347
_symmetry_Int_Tables_number   1
_chemical_formula_structural   Sr2NdEr(Ir2O7)2
_chemical_formula_sum   'Sr2 Nd1 Er1 Ir4 O14'
_cell_volume   282.95543331
_cell_formula_units_Z   1
loop_
 _symmetry_equiv_pos_site_id
 _symmetry_equiv_pos_as_xyz
  1  'x, y, z'
loop_
 _atom_site_type_symbol
 _atom_site_label
 _atom_site_symmetry_multiplicity
 _atom_site_fract_x
 _atom_site_fract_y
 _atom_site_fract_z
 _atom_site_occupancy
  Sr  Sr0  1  0.625000  0.125000  0.125000  1
  Sr  Sr1  1  0.125000  0.125000  0.625000  1
  Nd  Nd2  1  0.125000  0.125000  0.125000  1
  Er  Er3  1  0.125000  0.625000  0.125000  1
  Ir  Ir4  1  0.125000  0.625000  0.625000  1
  Ir  Ir5  1  0.625000  0.125000  0.625000  1
  Ir  Ir6  1  0.625000  0.625000  0.125000  1
  Ir  Ir7  1  0.625000  0.625000  0.625000  1
  O  O8  1  0.717299  0.685082  0.298064  1
  O  O9  1  0.296718  0.299773  0.708365  1
  O  O10  1  0.697908  0.302917  0.697908  1
  O  O11  1  0.297517  0.693738  0.297517  1
  O  O12  1  0.298064  0.685082  0.717299  1
  O  O13  1  0.708365  0.299773  0.296718  1
  O  O14  1  0.532701  0.564918  0.951936  1
  O  O15  1  0.953282  0.950227  0.541635  1
  O  O16  1  0.552092  0.947083  0.552092  1
  O  O17  1  0.952483  0.556262  0.952483  1
  O  O18  1  0.951936  0.564918  0.532701  1
  O  O19  1  0.541635  0.950227  0.953282  1
  O  O20  1  0.236746  0.272440  0.236746  1
  O  O21  1  0.013254  0.977560  0.013254  1
