# generated using pymatgen
data_Hf8Ti12Si15Se
_symmetry_space_group_name_H-M   'P 1'
_cell_length_a   6.82037811
_cell_length_b   6.80638916
_cell_length_c   12.49162622
_cell_angle_alpha   89.94753533
_cell_angle_beta   89.71300732
_cell_angle_gamma   90.06381705
_symmetry_Int_Tables_number   1
_chemical_formula_structural   Hf8Ti12Si15Se
_chemical_formula_sum   'Hf8 Ti12 Si15 Se1'
_cell_volume   579.88023658
_cell_formula_units_Z   1
loop_
 _symmetry_equiv_pos_site_id
 _symmetry_equiv_pos_as_xyz
  1  'x, y, z'
loop_
 _atom_site_type_symbol
 _atom_site_label
 _atom_site_symmetry_multiplicity
 _atom_site_fract_x
 _atom_site_fract_y
 _atom_site_fract_z
 _atom_site_occupancy
  Hf  Hf0  1  0.343735  0.995897  0.465243  1
  Hf  Hf1  1  0.503855  0.842452  0.720603  1
  Hf  Hf2  1  0.498158  0.155600  0.217949  1
  Hf  Hf3  1  0.843364  0.499696  0.282128  1
  Hf  Hf4  1  0.157351  0.500232  0.781766  1
  Hf  Hf5  1  0.660866  0.997583  0.970619  1
  Hf  Hf6  1  0.990646  0.347873  0.528229  1
  Hf  Hf7  1  0.002388  0.657529  0.032095  1
  Ti  Ti8  1  0.328701  0.329899  0.999960  1
  Ti  Ti9  1  0.170938  0.829545  0.249796  1
  Ti  Ti10  1  0.826806  0.171481  0.749898  1
  Ti  Ti11  1  0.669663  0.669541  0.499910  1
  Ti  Ti12  1  0.156908  0.006676  0.871661  1
  Ti  Ti13  1  0.496030  0.652745  0.122471  1
  Ti  Ti14  1  0.502398  0.345224  0.624243  1
  Ti  Ti15  1  0.656452  0.500528  0.878742  1
  Ti  Ti16  1  0.345231  0.503338  0.377618  1
  Ti  Ti17  1  0.845982  0.996838  0.372785  1
  Ti  Ti18  1  0.004398  0.152271  0.127166  1
  Ti  Ti19  1  0.992460  0.843479  0.625256  1
  Si  Si20  1  0.364646  0.706120  0.927142  1
  Si  Si21  1  0.632428  0.294171  0.427078  1
  Si  Si22  1  0.706506  0.364472  0.073670  1
  Si  Si23  1  0.295169  0.636136  0.572819  1
  Si  Si24  1  0.795152  0.863668  0.177897  1
  Si  Si25  1  0.134855  0.205273  0.322501  1
  Si  Si26  1  0.867389  0.796162  0.822719  1
  Si  Si27  1  0.295287  0.955903  0.063636  1
  Si  Si28  1  0.545155  0.791905  0.313024  1
  Si  Si29  1  0.468575  0.207471  0.821855  1
  Si  Si30  1  0.792461  0.544815  0.686470  1
  Si  Si31  1  0.205516  0.455165  0.186300  1
  Si  Si32  1  0.703512  0.043738  0.563164  1
  Si  Si33  1  0.956054  0.294147  0.936671  1
  Si  Si34  1  0.043797  0.706616  0.434854  1
  Se  Se35  1  0.197168  0.135813  0.672061  1
