# generated using pymatgen
data_Dy9Tm(Lu5Sn8)2
_symmetry_space_group_name_H-M   'P 1'
_cell_length_a   7.95282310
_cell_length_b   8.08005188
_cell_length_c   15.27414706
_cell_angle_alpha   90.02622602
_cell_angle_beta   89.99249490
_cell_angle_gamma   90.06054713
_symmetry_Int_Tables_number   1
_chemical_formula_structural   Dy9Tm(Lu5Sn8)2
_chemical_formula_sum   'Dy9 Tm1 Lu10 Sn16'
_cell_volume   981.50416676
_cell_formula_units_Z   1
loop_
 _symmetry_equiv_pos_site_id
 _symmetry_equiv_pos_as_xyz
  1  'x, y, z'
loop_
 _atom_site_type_symbol
 _atom_site_label
 _atom_site_symmetry_multiplicity
 _atom_site_fract_x
 _atom_site_fract_y
 _atom_site_fract_z
 _atom_site_occupancy
  Dy  Dy0  1  0.866130  0.663533  0.877706  1
  Dy  Dy1  1  0.520364  0.321161  0.904165  1
  Dy  Dy2  1  0.020565  0.178779  0.595581  1
  Dy  Dy3  1  0.479256  0.678472  0.403897  1
  Dy  Dy4  1  0.978921  0.822450  0.097445  1
  Dy  Dy5  1  0.480742  0.677914  0.096302  1
  Dy  Dy6  1  0.979473  0.821697  0.403474  1
  Dy  Dy7  1  0.519692  0.321079  0.595382  1
  Dy  Dy8  1  0.020291  0.178435  0.903733  1
  Tm  Tm9  1  0.364593  0.837420  0.876214  1
  Lu  Lu10  1  0.865199  0.661938  0.623017  1
  Lu  Lu11  1  0.634949  0.161584  0.376621  1
  Lu  Lu12  1  0.135024  0.337938  0.123679  1
  Lu  Lu13  1  0.633840  0.161952  0.124633  1
  Lu  Lu14  1  0.134737  0.337464  0.376583  1
  Lu  Lu15  1  0.365955  0.838135  0.622714  1
  Lu  Lu16  1  0.196813  0.504658  0.749591  1
  Lu  Lu17  1  0.696222  0.995768  0.749196  1
  Lu  Lu18  1  0.803614  0.494897  0.250392  1
  Lu  Lu19  1  0.303206  0.004751  0.250021  1
  Sn  Sn20  1  0.296472  0.039577  0.041666  1
  Sn  Sn21  1  0.796891  0.460595  0.458209  1
  Sn  Sn22  1  0.704073  0.960279  0.541221  1
  Sn  Sn23  1  0.206612  0.537891  0.959039  1
  Sn  Sn24  1  0.701211  0.963875  0.958799  1
  Sn  Sn25  1  0.202585  0.539615  0.541413  1
  Sn  Sn26  1  0.296550  0.039234  0.458297  1
  Sn  Sn27  1  0.796670  0.458844  0.043134  1
  Sn  Sn28  1  0.561833  0.619959  0.748887  1
  Sn  Sn29  1  0.062883  0.881062  0.748868  1
  Sn  Sn30  1  0.437716  0.379805  0.250716  1
  Sn  Sn31  1  0.937712  0.120311  0.250108  1
  Sn  Sn32  1  0.330525  0.149597  0.749553  1
  Sn  Sn33  1  0.830071  0.350290  0.749361  1
  Sn  Sn34  1  0.669112  0.849917  0.250224  1
  Sn  Sn35  1  0.169502  0.649124  0.250159  1
