# generated using pymatgen
data_DyTm11(TcOs)2
_symmetry_space_group_name_H-M   'P 1'
_cell_length_a   6.21674334
_cell_length_b   7.35770540
_cell_length_c   8.93952600
_cell_angle_alpha   90.00000000
_cell_angle_beta   90.00000000
_cell_angle_gamma   90.03764143
_symmetry_Int_Tables_number   1
_chemical_formula_structural   DyTm11(TcOs)2
_chemical_formula_sum   'Dy1 Tm11 Tc2 Os2'
_cell_volume   408.90246649
_cell_formula_units_Z   1
loop_
 _symmetry_equiv_pos_site_id
 _symmetry_equiv_pos_as_xyz
  1  'x, y, z'
loop_
 _atom_site_type_symbol
 _atom_site_label
 _atom_site_symmetry_multiplicity
 _atom_site_fract_x
 _atom_site_fract_y
 _atom_site_fract_z
 _atom_site_occupancy
  Dy  Dy0  1  0.622805  0.039680  0.250000  1
  Tm  Tm1  1  0.337564  0.675172  0.061996  1
  Tm  Tm2  1  0.161619  0.175496  0.438264  1
  Tm  Tm3  1  0.664722  0.324934  0.563041  1
  Tm  Tm4  1  0.835603  0.824018  0.936769  1
  Tm  Tm5  1  0.664722  0.324934  0.936959  1
  Tm  Tm6  1  0.835603  0.824018  0.563231  1
  Tm  Tm7  1  0.337564  0.675172  0.438004  1
  Tm  Tm8  1  0.161619  0.175496  0.061736  1
  Tm  Tm9  1  0.876680  0.539376  0.250000  1
  Tm  Tm10  1  0.130426  0.458897  0.750000  1
  Tm  Tm11  1  0.369837  0.958986  0.750000  1
  Tc  Tc12  1  0.039536  0.883767  0.250000  1
  Tc  Tc13  1  0.461714  0.384759  0.250000  1
  Os  Os14  1  0.959353  0.117697  0.750000  1
  Os  Os15  1  0.540633  0.617599  0.750000  1
