# generated using pymatgen
data_Ba6Lu3RhS12
_symmetry_space_group_name_H-M   'P 1'
_cell_length_a   8.36368570
_cell_length_b   8.36368459
_cell_length_c   8.36368535
_cell_angle_alpha   93.34413143
_cell_angle_beta   93.34412703
_cell_angle_gamma   93.34414150
_symmetry_Int_Tables_number   1
_chemical_formula_structural   Ba6Lu3RhS12
_chemical_formula_sum   'Ba6 Lu3 Rh1 S12'
_cell_volume   581.93951472
_cell_formula_units_Z   1
loop_
 _symmetry_equiv_pos_site_id
 _symmetry_equiv_pos_as_xyz
  1  'x, y, z'
loop_
 _atom_site_type_symbol
 _atom_site_label
 _atom_site_symmetry_multiplicity
 _atom_site_fract_x
 _atom_site_fract_y
 _atom_site_fract_z
 _atom_site_occupancy
  Ba  Ba0  1  0.369760  0.746375  0.131479  1
  Ba  Ba1  1  0.131479  0.369760  0.746375  1
  Ba  Ba2  1  0.746375  0.131479  0.369760  1
  Ba  Ba3  1  0.630240  0.253625  0.868521  1
  Ba  Ba4  1  0.868521  0.630240  0.253625  1
  Ba  Ba5  1  0.253625  0.868521  0.630240  1
  Lu  Lu6  1  0.000000  0.000000  0.000000  1
  Lu  Lu7  1  0.255922  0.255922  0.255922  1
  Lu  Lu8  1  0.744078  0.744078  0.744078  1
  Rh  Rh9  1  0.500000  0.500000  0.500000  1
  S  S10  1  0.533427  0.416311  0.216390  1
  S  S11  1  0.216390  0.533427  0.416311  1
  S  S12  1  0.416311  0.216390  0.533427  1
  S  S13  1  0.965201  0.302820  0.097074  1
  S  S14  1  0.097074  0.965201  0.302820  1
  S  S15  1  0.302820  0.097074  0.965201  1
  S  S16  1  0.466573  0.583689  0.783610  1
  S  S17  1  0.783610  0.466573  0.583689  1
  S  S18  1  0.583689  0.783610  0.466573  1
  S  S19  1  0.034799  0.697180  0.902926  1
  S  S20  1  0.697180  0.902926  0.034799  1
  S  S21  1  0.902926  0.034799  0.697180  1
