# generated using pymatgen
data_Y8Be4Si11Hg
_symmetry_space_group_name_H-M   'P 1'
_cell_length_a   7.97720600
_cell_length_b   7.94686504
_cell_length_c   8.11886400
_cell_angle_alpha   90.00212581
_cell_angle_beta   90.00000000
_cell_angle_gamma   120.12637829
_symmetry_Int_Tables_number   1
_chemical_formula_structural   Y8Be4Si11Hg
_chemical_formula_sum   'Y8 Be4 Si11 Hg1'
_cell_volume   445.16198600
_cell_formula_units_Z   1
loop_
 _symmetry_equiv_pos_site_id
 _symmetry_equiv_pos_as_xyz
  1  'x, y, z'
loop_
 _atom_site_type_symbol
 _atom_site_label
 _atom_site_symmetry_multiplicity
 _atom_site_fract_x
 _atom_site_fract_y
 _atom_site_fract_z
 _atom_site_occupancy
  Y  Y0  1  0.996319  0.992639  0.254335  1
  Y  Y1  1  0.996296  0.992591  0.745642  1
  Y  Y2  1  0.996233  0.502753  0.253973  1
  Y  Y3  1  0.506521  0.502753  0.253973  1
  Y  Y4  1  0.500062  0.000126  0.749091  1
  Y  Y5  1  0.500046  0.000092  0.250866  1
  Y  Y6  1  0.506469  0.502835  0.746045  1
  Y  Y7  1  0.996365  0.502835  0.746045  1
  Be  Be8  1  0.339902  0.679804  0.999536  1
  Be  Be9  1  0.333869  0.667740  0.500451  1
  Be  Be10  1  0.666284  0.332567  0.000445  1
  Be  Be11  1  0.666728  0.333455  0.499557  1
  Si  Si12  1  0.653834  0.827478  0.000039  1
  Si  Si13  1  0.172092  0.344183  0.499957  1
  Si  Si14  1  0.349593  0.166456  0.999978  1
  Si  Si15  1  0.173643  0.827478  0.000039  1
  Si  Si16  1  0.654776  0.827589  0.499932  1
  Si  Si17  1  0.827695  0.655390  0.999972  1
  Si  Si18  1  0.345565  0.172691  0.500052  1
  Si  Si19  1  0.172813  0.827589  0.499932  1
  Si  Si20  1  0.827412  0.654823  0.500055  1
  Si  Si21  1  0.816863  0.166456  0.999978  1
  Si  Si22  1  0.827126  0.172691  0.500052  1
  Hg  Hg23  1  0.173493  0.346986  0.000055  1
