# generated using pymatgen
data_Th5Si4Hg
_symmetry_space_group_name_H-M   'P 1'
_cell_length_a   7.83327300
_cell_length_b   7.83327300
_cell_length_c   4.08021400
_cell_angle_alpha   90.00000000
_cell_angle_beta   90.00000000
_cell_angle_gamma   90.00000000
_symmetry_Int_Tables_number   1
_chemical_formula_structural   Th5Si4Hg
_chemical_formula_sum   'Th5 Si4 Hg1'
_cell_volume   250.36260792
_cell_formula_units_Z   1
loop_
 _symmetry_equiv_pos_site_id
 _symmetry_equiv_pos_as_xyz
  1  'x, y, z'
loop_
 _atom_site_type_symbol
 _atom_site_label
 _atom_site_symmetry_multiplicity
 _atom_site_fract_x
 _atom_site_fract_y
 _atom_site_fract_z
 _atom_site_occupancy
  Th  Th0  1  0.000000  0.000000  0.000000  1
  Th  Th1  1  0.668634  0.193188  0.500000  1
  Th  Th2  1  0.331366  0.806812  0.500000  1
  Th  Th3  1  0.193188  0.331366  0.500000  1
  Th  Th4  1  0.806812  0.668634  0.500000  1
  Si  Si5  1  0.094609  0.623338  0.000000  1
  Si  Si6  1  0.905391  0.376662  0.000000  1
  Si  Si7  1  0.623338  0.905391  0.000000  1
  Si  Si8  1  0.376662  0.094609  0.000000  1
  Hg  Hg9  1  0.500000  0.500000  0.000000  1
