# generated using pymatgen
data_Pa6FeSb8Pt5
_symmetry_space_group_name_H-M   'P 1'
_cell_length_a   8.40973475
_cell_length_b   8.40973422
_cell_length_c   8.40973562
_cell_angle_alpha   109.41808015
_cell_angle_beta   109.57756282
_cell_angle_gamma   109.41807256
_symmetry_Int_Tables_number   1
_chemical_formula_structural   Pa6FeSb8Pt5
_chemical_formula_sum   'Pa6 Fe1 Sb8 Pt5'
_cell_volume   457.85070996
_cell_formula_units_Z   1
loop_
 _symmetry_equiv_pos_site_id
 _symmetry_equiv_pos_as_xyz
  1  'x, y, z'
loop_
 _atom_site_type_symbol
 _atom_site_label
 _atom_site_symmetry_multiplicity
 _atom_site_fract_x
 _atom_site_fract_y
 _atom_site_fract_z
 _atom_site_occupancy
  Pa  Pa0  1  0.875000  0.250000  0.125000  1
  Pa  Pa1  1  0.625000  0.750000  0.375000  1
  Pa  Pa2  1  0.252732  0.129927  0.866655  1
  Pa  Pa3  1  0.736728  0.370073  0.622805  1
  Pa  Pa4  1  0.133345  0.886077  0.263272  1
  Pa  Pa5  1  0.377195  0.613923  0.747268  1
  Fe  Fe6  1  0.375000  0.250000  0.625000  1
  Sb  Sb7  1  0.666535  0.491325  0.985540  1
  Sb  Sb8  1  0.494215  0.008675  0.675210  1
  Sb  Sb9  1  0.000389  0.676916  0.501019  1
  Sb  Sb10  1  0.824103  0.823084  0.823473  1
  Sb  Sb11  1  0.498981  0.999371  0.175897  1
  Sb  Sb12  1  0.176527  0.500629  0.999611  1
  Sb  Sb13  1  0.014460  0.180995  0.505785  1
  Sb  Sb14  1  0.324790  0.319005  0.333465  1
  Pt  Pt15  1  0.125000  0.750000  0.875000  1
  Pt  Pt16  1  0.252401  0.624319  0.376708  1
  Pt  Pt17  1  0.752389  0.875681  0.128082  1
  Pt  Pt18  1  0.623292  0.375693  0.247611  1
  Pt  Pt19  1  0.871918  0.124307  0.747599  1
