# generated using pymatgen
data_Tm4Al13Ga5Ir6
_symmetry_space_group_name_H-M   'P 1'
_cell_length_a   7.51340906
_cell_length_b   7.51188094
_cell_length_c   9.52101800
_cell_angle_alpha   90.00000000
_cell_angle_beta   90.00000000
_cell_angle_gamma   119.60739977
_symmetry_Int_Tables_number   1
_chemical_formula_structural   Tm4Al13Ga5Ir6
_chemical_formula_sum   'Tm4 Al13 Ga5 Ir6'
_cell_volume   467.20157929
_cell_formula_units_Z   1
loop_
 _symmetry_equiv_pos_site_id
 _symmetry_equiv_pos_as_xyz
  1  'x, y, z'
loop_
 _atom_site_type_symbol
 _atom_site_label
 _atom_site_symmetry_multiplicity
 _atom_site_fract_x
 _atom_site_fract_y
 _atom_site_fract_z
 _atom_site_occupancy
  Tm  Tm0  1  0.994841  0.670060  0.250000  1
  Tm  Tm1  1  0.001776  0.327290  0.750000  1
  Tm  Tm2  1  0.670194  0.995900  0.250000  1
  Tm  Tm3  1  0.330013  0.006196  0.750000  1
  Al  Al4  1  0.001727  0.334854  0.073170  1
  Al  Al5  1  0.999492  0.665435  0.926542  1
  Al  Al6  1  0.999492  0.665435  0.573458  1
  Al  Al7  1  0.334728  0.001212  0.427024  1
  Al  Al8  1  0.001727  0.334854  0.426830  1
  Al  Al9  1  0.665004  0.998567  0.573696  1
  Al  Al10  1  0.665004  0.998567  0.926304  1
  Al  Al11  1  0.334728  0.001212  0.072976  1
  Al  Al12  1  0.333443  0.333800  0.557212  1
  Al  Al13  1  0.666253  0.666340  0.445381  1
  Al  Al14  1  0.666253  0.666340  0.054619  1
  Al  Al15  1  0.333443  0.333800  0.942788  1
  Al  Al16  1  0.450960  0.661574  0.750000  1
  Ga  Ga17  1  0.128054  0.128153  0.250000  1
  Ga  Ga18  1  0.870602  0.870070  0.750000  1
  Ga  Ga19  1  0.338898  0.547955  0.250000  1
  Ga  Ga20  1  0.661452  0.453399  0.750000  1
  Ga  Ga21  1  0.548054  0.339360  0.250000  1
  Ir  Ir22  1  0.672615  0.327634  0.000296  1
  Ir  Ir23  1  0.328955  0.672037  0.997679  1
  Ir  Ir24  1  0.328955  0.672037  0.502321  1
  Ir  Ir25  1  0.672615  0.327634  0.499704  1
  Ir  Ir26  1  0.000362  0.000142  0.000117  1
  Ir  Ir27  1  0.000362  0.000142  0.499883  1
