# generated using pymatgen
data_Er3B4Ru10W3
_symmetry_space_group_name_H-M   'P 1'
_cell_length_a   9.57640115
_cell_length_b   9.57640200
_cell_length_c   3.05729600
_cell_angle_alpha   90.00000000
_cell_angle_beta   90.00000000
_cell_angle_gamma   89.85507321
_symmetry_Int_Tables_number   1
_chemical_formula_structural   Er3B4Ru10W3
_chemical_formula_sum   'Er3 B4 Ru10 W3'
_cell_volume   280.37597558
_cell_formula_units_Z   1
loop_
 _symmetry_equiv_pos_site_id
 _symmetry_equiv_pos_as_xyz
  1  'x, y, z'
loop_
 _atom_site_type_symbol
 _atom_site_label
 _atom_site_symmetry_multiplicity
 _atom_site_fract_x
 _atom_site_fract_y
 _atom_site_fract_z
 _atom_site_occupancy
  Er  Er0  1  0.175179  0.824821  0.000000  1
  Er  Er1  1  0.324072  0.323955  0.000000  1
  Er  Er2  1  0.676045  0.675928  0.000000  1
  B  B3  1  0.623492  0.376508  0.000000  1
  B  B4  1  0.382460  0.617540  0.000000  1
  B  B5  1  0.118730  0.122209  0.000000  1
  B  B6  1  0.877791  0.881270  0.000000  1
  Ru  Ru7  1  0.504349  0.495651  0.500000  1
  Ru  Ru8  1  0.989769  0.010231  0.500000  1
  Ru  Ru9  1  0.583516  0.210894  0.500000  1
  Ru  Ru10  1  0.432509  0.782680  0.500000  1
  Ru  Ru11  1  0.056505  0.281881  0.500000  1
  Ru  Ru12  1  0.929599  0.719739  0.500000  1
  Ru  Ru13  1  0.280261  0.070401  0.500000  1
  Ru  Ru14  1  0.718119  0.943495  0.500000  1
  Ru  Ru15  1  0.217320  0.567491  0.500000  1
  Ru  Ru16  1  0.789106  0.416484  0.500000  1
  W  W17  1  0.495610  0.997275  0.000000  1
  W  W18  1  0.002725  0.504390  0.000000  1
  W  W19  1  0.822846  0.177154  0.000000  1
