# generated using pymatgen
data_TbDy(Tc2P)4
_symmetry_space_group_name_H-M   'P 1'
_cell_length_a   7.41776814
_cell_length_b   7.41776814
_cell_length_c   3.95132500
_cell_angle_alpha   90.00000000
_cell_angle_beta   90.00000000
_cell_angle_gamma   89.97793989
_symmetry_Int_Tables_number   1
_chemical_formula_structural   TbDy(Tc2P)4
_chemical_formula_sum   'Tb1 Dy1 Tc8 P4'
_cell_volume   217.41486209
_cell_formula_units_Z   1
loop_
 _symmetry_equiv_pos_site_id
 _symmetry_equiv_pos_as_xyz
  1  'x, y, z'
loop_
 _atom_site_type_symbol
 _atom_site_label
 _atom_site_symmetry_multiplicity
 _atom_site_fract_x
 _atom_site_fract_y
 _atom_site_fract_z
 _atom_site_occupancy
  Tb  Tb0  1  0.000000  0.000000  0.000000  1
  Dy  Dy1  1  0.500000  0.500000  0.500000  1
  Tc  Tc2  1  0.582717  0.839312  0.000000  1
  Tc  Tc3  1  0.839312  0.582717  0.000000  1
  Tc  Tc4  1  0.160688  0.417283  0.000000  1
  Tc  Tc5  1  0.417283  0.160688  0.000000  1
  Tc  Tc6  1  0.660292  0.082939  0.500000  1
  Tc  Tc7  1  0.917061  0.339708  0.500000  1
  Tc  Tc8  1  0.082939  0.660292  0.500000  1
  Tc  Tc9  1  0.339708  0.917061  0.500000  1
  P  P10  1  0.711514  0.288486  0.000000  1
  P  P11  1  0.288486  0.711514  0.000000  1
  P  P12  1  0.788103  0.788103  0.500000  1
  P  P13  1  0.211897  0.211897  0.500000  1
