# generated using pymatgen
data_TmLu5Co16(P6Ru)2
_symmetry_space_group_name_H-M   'P 1'
_cell_length_a   3.66535100
_cell_length_b   10.45597200
_cell_length_c   12.14606300
_cell_angle_alpha   90.00000000
_cell_angle_beta   90.00000000
_cell_angle_gamma   90.00000000
_symmetry_Int_Tables_number   1
_chemical_formula_structural   TmLu5Co16(P6Ru)2
_chemical_formula_sum   'Tm1 Lu5 Co16 P12 Ru2'
_cell_volume   465.49552546
_cell_formula_units_Z   1
loop_
 _symmetry_equiv_pos_site_id
 _symmetry_equiv_pos_as_xyz
  1  'x, y, z'
loop_
 _atom_site_type_symbol
 _atom_site_label
 _atom_site_symmetry_multiplicity
 _atom_site_fract_x
 _atom_site_fract_y
 _atom_site_fract_z
 _atom_site_occupancy
  Tm  Tm0  1  0.500000  0.000000  0.474786  1
  Lu  Lu1  1  0.000000  0.500000  0.525226  1
  Lu  Lu2  1  0.500000  0.817720  0.206991  1
  Lu  Lu3  1  0.500000  0.182280  0.206991  1
  Lu  Lu4  1  0.000000  0.682100  0.792915  1
  Lu  Lu5  1  0.000000  0.317900  0.792915  1
  Co  Co6  1  0.500000  0.500000  0.703372  1
  Co  Co7  1  0.000000  0.000000  0.296106  1
  Co  Co8  1  0.000000  0.500000  0.985774  1
  Co  Co9  1  0.500000  0.000000  0.014174  1
  Co  Co10  1  0.500000  0.332361  0.989929  1
  Co  Co11  1  0.500000  0.667639  0.989929  1
  Co  Co12  1  0.000000  0.167690  0.010038  1
  Co  Co13  1  0.000000  0.832310  0.010038  1
  Co  Co14  1  0.500000  0.297667  0.431418  1
  Co  Co15  1  0.500000  0.702333  0.431418  1
  Co  Co16  1  0.000000  0.202936  0.568733  1
  Co  Co17  1  0.000000  0.797064  0.568733  1
  Co  Co18  1  0.500000  0.877673  0.707600  1
  Co  Co19  1  0.500000  0.122327  0.707600  1
  Co  Co20  1  0.000000  0.622201  0.292546  1
  Co  Co21  1  0.000000  0.377799  0.292546  1
  P  P22  1  0.500000  0.500000  0.880237  1
  P  P23  1  0.000000  0.000000  0.119632  1
  P  P24  1  0.500000  0.500000  0.352367  1
  P  P25  1  0.000000  0.000000  0.648169  1
  P  P26  1  0.500000  0.313301  0.616952  1
  P  P27  1  0.500000  0.686699  0.616952  1
  P  P28  1  0.000000  0.187085  0.382889  1
  P  P29  1  0.000000  0.812915  0.382889  1
  P  P30  1  0.500000  0.845490  0.892136  1
  P  P31  1  0.500000  0.154510  0.892136  1
  P  P32  1  0.000000  0.654410  0.107858  1
  P  P33  1  0.000000  0.345590  0.107858  1
  Ru  Ru34  1  0.500000  0.500000  0.159821  1
  Ru  Ru35  1  0.000000  0.000000  0.840328  1
