# generated using pymatgen
data_LiHf3Ge6Ir7
_symmetry_space_group_name_H-M   'P 1'
_cell_length_a   7.04775494
_cell_length_b   7.15244532
_cell_length_c   7.04775555
_cell_angle_alpha   109.77241126
_cell_angle_beta   109.16834572
_cell_angle_gamma   109.77241591
_symmetry_Int_Tables_number   1
_chemical_formula_structural   LiHf3Ge6Ir7
_chemical_formula_sum   'Li1 Hf3 Ge6 Ir7'
_cell_volume   272.46234509
_cell_formula_units_Z   1
loop_
 _symmetry_equiv_pos_site_id
 _symmetry_equiv_pos_as_xyz
  1  'x, y, z'
loop_
 _atom_site_type_symbol
 _atom_site_label
 _atom_site_symmetry_multiplicity
 _atom_site_fract_x
 _atom_site_fract_y
 _atom_site_fract_z
 _atom_site_occupancy
  Li  Li0  1  0.000000  0.500000  0.000000  1
  Hf  Hf1  1  0.000000  0.000000  0.500000  1
  Hf  Hf2  1  0.500000  0.000000  0.000000  1
  Hf  Hf3  1  0.500000  0.500000  0.500000  1
  Ge  Ge4  1  0.698643  0.680223  0.000000  1
  Ge  Ge5  1  0.301357  0.981580  0.301357  1
  Ge  Ge6  1  0.000000  0.319777  0.301357  1
  Ge  Ge7  1  0.301357  0.319777  0.000000  1
  Ge  Ge8  1  0.698643  0.018420  0.698643  1
  Ge  Ge9  1  0.000000  0.680223  0.698643  1
  Ir  Ir10  1  0.747845  0.247845  0.495691  1
  Ir  Ir11  1  0.747845  0.500000  0.252155  1
  Ir  Ir12  1  0.495691  0.247845  0.747845  1
  Ir  Ir13  1  0.252155  0.500000  0.747845  1
  Ir  Ir14  1  0.252155  0.752155  0.504309  1
  Ir  Ir15  1  0.504309  0.752155  0.252155  1
  Ir  Ir16  1  0.000000  0.000000  0.000000  1
