# generated using pymatgen
data_Pr3Nd5(Si3Pt)4
_symmetry_space_group_name_H-M   'P 1'
_cell_length_a   8.23810300
_cell_length_b   8.23767712
_cell_length_c   8.61644800
_cell_angle_alpha   90.00000000
_cell_angle_beta   90.00000000
_cell_angle_gamma   120.00170618
_symmetry_Int_Tables_number   1
_chemical_formula_structural   Pr3Nd5(Si3Pt)4
_chemical_formula_sum   'Pr3 Nd5 Si12 Pt4'
_cell_volume   506.38801620
_cell_formula_units_Z   1
loop_
 _symmetry_equiv_pos_site_id
 _symmetry_equiv_pos_as_xyz
  1  'x, y, z'
loop_
 _atom_site_type_symbol
 _atom_site_label
 _atom_site_symmetry_multiplicity
 _atom_site_fract_x
 _atom_site_fract_y
 _atom_site_fract_z
 _atom_site_occupancy
  Pr  Pr0  1  0.499646  0.999291  0.750000  1
  Pr  Pr1  1  0.000000  0.000000  0.750000  1
  Pr  Pr2  1  0.000000  0.000000  0.250000  1
  Nd  Nd3  1  0.499647  0.500352  0.750000  1
  Nd  Nd4  1  0.500353  0.499646  0.250000  1
  Nd  Nd5  1  0.000705  0.500352  0.750000  1
  Nd  Nd6  1  0.999293  0.499646  0.250000  1
  Nd  Nd7  1  0.500354  0.000707  0.250000  1
  Si  Si8  1  0.834027  0.166141  0.999034  1
  Si  Si9  1  0.165975  0.833861  0.001089  1
  Si  Si10  1  0.332114  0.166141  0.999034  1
  Si  Si11  1  0.165975  0.833861  0.498911  1
  Si  Si12  1  0.667886  0.833861  0.001089  1
  Si  Si13  1  0.834027  0.166141  0.500966  1
  Si  Si14  1  0.833928  0.667856  0.998980  1
  Si  Si15  1  0.667886  0.833861  0.498911  1
  Si  Si16  1  0.166072  0.332144  0.001035  1
  Si  Si17  1  0.332114  0.166141  0.500966  1
  Si  Si18  1  0.166072  0.332144  0.498965  1
  Si  Si19  1  0.833928  0.667856  0.501020  1
  Pt  Pt20  1  0.666727  0.333453  0.999956  1
  Pt  Pt21  1  0.333273  0.666546  0.000281  1
  Pt  Pt22  1  0.333273  0.666546  0.499719  1
  Pt  Pt23  1  0.666727  0.333453  0.500044  1
