# generated using pymatgen
data_Nb3Fe2SiC
_symmetry_space_group_name_H-M   'P 1'
_cell_length_a   8.04370447
_cell_length_b   8.04458218
_cell_length_c   8.04637407
_cell_angle_alpha   59.98585746
_cell_angle_beta   59.99705500
_cell_angle_gamma   60.02037082
_symmetry_Int_Tables_number   1
_chemical_formula_structural   Nb3Fe2SiC
_chemical_formula_sum   'Nb12 Fe8 Si4 C4'
_cell_volume   368.17603275
_cell_formula_units_Z   4
loop_
 _symmetry_equiv_pos_site_id
 _symmetry_equiv_pos_as_xyz
  1  'x, y, z'
loop_
 _atom_site_type_symbol
 _atom_site_label
 _atom_site_symmetry_multiplicity
 _atom_site_fract_x
 _atom_site_fract_y
 _atom_site_fract_z
 _atom_site_occupancy
  Nb  Nb0  1  0.798996  0.799002  0.200997  1
  Nb  Nb1  1  0.201021  0.200988  0.798997  1
  Nb  Nb2  1  0.798980  0.201005  0.798973  1
  Nb  Nb3  1  0.201031  0.798977  0.201026  1
  Nb  Nb4  1  0.201032  0.798971  0.798960  1
  Nb  Nb5  1  0.798957  0.201033  0.201061  1
  Nb  Nb6  1  0.451004  0.450998  0.049003  1
  Nb  Nb7  1  0.048979  0.049012  0.451003  1
  Nb  Nb8  1  0.451020  0.048995  0.451027  1
  Nb  Nb9  1  0.048969  0.451023  0.048974  1
  Nb  Nb10  1  0.048968  0.451029  0.451040  1
  Nb  Nb11  1  0.451043  0.048967  0.048939  1
  Fe  Fe12  1  0.735786  0.421367  0.421402  1
  Fe  Fe13  1  0.421408  0.735754  0.421410  1
  Fe  Fe14  1  0.421408  0.421374  0.735789  1
  Fe  Fe15  1  0.421431  0.421371  0.421410  1
  Fe  Fe16  1  0.514214  0.828633  0.828598  1
  Fe  Fe17  1  0.828592  0.514246  0.828590  1
  Fe  Fe18  1  0.828592  0.828626  0.514211  1
  Fe  Fe19  1  0.828569  0.828629  0.828590  1
  Si  Si20  1  0.125000  0.625000  0.625000  1
  Si  Si21  1  0.625000  0.125000  0.625000  1
  Si  Si22  1  0.625000  0.625000  0.125000  1
  Si  Si23  1  0.625000  0.625000  0.625000  1
  C  C24  1  0.625000  0.125000  0.125000  1
  C  C25  1  0.125000  0.625000  0.125000  1
  C  C26  1  0.125000  0.125000  0.625000  1
  C  C27  1  0.125000  0.125000  0.125000  1
