# generated using pymatgen
data_Tb2ThAl9Si3Os4
_symmetry_space_group_name_H-M   'P 1'
_cell_length_a   8.78701600
_cell_length_b   8.76726275
_cell_length_c   9.55532300
_cell_angle_alpha   90.00000000
_cell_angle_beta   90.00000000
_cell_angle_gamma   120.07455140
_symmetry_Int_Tables_number   1
_chemical_formula_structural   Tb2ThAl9Si3Os4
_chemical_formula_sum   'Tb4 Th2 Al18 Si6 Os8'
_cell_volume   637.02239158
_cell_formula_units_Z   2
loop_
 _symmetry_equiv_pos_site_id
 _symmetry_equiv_pos_as_xyz
  1  'x, y, z'
loop_
 _atom_site_type_symbol
 _atom_site_label
 _atom_site_symmetry_multiplicity
 _atom_site_fract_x
 _atom_site_fract_y
 _atom_site_fract_z
 _atom_site_occupancy
  Tb  Tb0  1  0.609412  0.807492  0.250000  1
  Tb  Tb1  1  0.390588  0.192508  0.750000  1
  Tb  Tb2  1  0.198081  0.807492  0.250000  1
  Tb  Tb3  1  0.801919  0.192508  0.750000  1
  Th  Th4  1  0.191279  0.382558  0.250000  1
  Th  Th5  1  0.808721  0.617442  0.750000  1
  Al  Al6  1  0.163999  0.327996  0.580780  1
  Al  Al7  1  0.836001  0.672004  0.419220  1
  Al  Al8  1  0.670881  0.836328  0.575774  1
  Al  Al9  1  0.836001  0.672004  0.080780  1
  Al  Al10  1  0.329119  0.163672  0.424226  1
  Al  Al11  1  0.163999  0.327996  0.919220  1
  Al  Al12  1  0.165449  0.836328  0.575774  1
  Al  Al13  1  0.329119  0.163672  0.075774  1
  Al  Al14  1  0.834551  0.163672  0.424226  1
  Al  Al15  1  0.670881  0.836328  0.924226  1
  Al  Al16  1  0.834551  0.163672  0.075774  1
  Al  Al17  1  0.165449  0.836328  0.924226  1
  Al  Al18  1  0.868887  0.432347  0.250000  1
  Al  Al19  1  0.131113  0.567653  0.750000  1
  Al  Al20  1  0.563460  0.432347  0.250000  1
  Al  Al21  1  0.436540  0.567653  0.750000  1
  Al  Al22  1  0.995135  0.990270  0.250000  1
  Al  Al23  1  0.004865  0.009730  0.750000  1
  Si  Si24  1  0.333688  0.667378  0.034687  1
  Si  Si25  1  0.666312  0.332622  0.965313  1
  Si  Si26  1  0.666312  0.332622  0.534687  1
  Si  Si27  1  0.333688  0.667378  0.465313  1
  Si  Si28  1  0.562495  0.124991  0.250000  1
  Si  Si29  1  0.437505  0.875009  0.750000  1
  Os  Os30  1  0.500000  0.000000  0.000000  1
  Os  Os31  1  0.000000  0.500000  0.000000  1
  Os  Os32  1  0.500000  0.000000  0.500000  1
  Os  Os33  1  0.500000  0.500000  0.000000  1
  Os  Os34  1  0.000000  0.500000  0.500000  1
  Os  Os35  1  0.500000  0.500000  0.500000  1
  Os  Os36  1  0.000000  0.000000  0.000000  1
  Os  Os37  1  0.000000  0.000000  0.500000  1
