# generated using pymatgen
data_LuTh3(ZnCo)4
_symmetry_space_group_name_H-M   'P 1'
_cell_length_a   3.81279200
_cell_length_b   6.87727809
_cell_length_c   8.28154431
_cell_angle_alpha   90.66969130
_cell_angle_beta   90.00000000
_cell_angle_gamma   90.00000000
_symmetry_Int_Tables_number   1
_chemical_formula_structural   LuTh3(ZnCo)4
_chemical_formula_sum   'Lu1 Th3 Zn4 Co4'
_cell_volume   217.14076473
_cell_formula_units_Z   1
loop_
 _symmetry_equiv_pos_site_id
 _symmetry_equiv_pos_as_xyz
  1  'x, y, z'
loop_
 _atom_site_type_symbol
 _atom_site_label
 _atom_site_symmetry_multiplicity
 _atom_site_fract_x
 _atom_site_fract_y
 _atom_site_fract_z
 _atom_site_occupancy
  Lu  Lu0  1  0.250000  0.048684  0.313231  1
  Th  Th1  1  0.250000  0.546162  0.190746  1
  Th  Th2  1  0.750000  0.459478  0.815395  1
  Th  Th3  1  0.750000  0.958625  0.677984  1
  Zn  Zn4  1  0.250000  0.625601  0.551043  1
  Zn  Zn5  1  0.750000  0.356735  0.444392  1
  Zn  Zn6  1  0.750000  0.883135  0.060022  1
  Zn  Zn7  1  0.250000  0.126314  0.951791  1
  Co  Co8  1  0.250000  0.743857  0.857568  1
  Co  Co9  1  0.750000  0.263206  0.134597  1
  Co  Co10  1  0.750000  0.747385  0.359956  1
  Co  Co11  1  0.250000  0.240817  0.643274  1
