# generated using pymatgen
data_Ca4CuH12Rh
_symmetry_space_group_name_H-M   'P 1'
_cell_length_a   7.21124509
_cell_length_b   7.21124437
_cell_length_c   5.22483248
_cell_angle_alpha   90.08676453
_cell_angle_beta   90.08677333
_cell_angle_gamma   137.54689302
_symmetry_Int_Tables_number   1
_chemical_formula_structural   Ca4CuH12Rh
_chemical_formula_sum   'Ca4 Cu1 H12 Rh1'
_cell_volume   183.39359737
_cell_formula_units_Z   1
loop_
 _symmetry_equiv_pos_site_id
 _symmetry_equiv_pos_as_xyz
  1  'x, y, z'
loop_
 _atom_site_type_symbol
 _atom_site_label
 _atom_site_symmetry_multiplicity
 _atom_site_fract_x
 _atom_site_fract_y
 _atom_site_fract_z
 _atom_site_occupancy
  Ca  Ca0  1  0.150546  0.849454  0.500000  1
  Ca  Ca1  1  0.649945  0.350055  0.000000  1
  Ca  Ca2  1  0.849454  0.150546  0.500000  1
  Ca  Ca3  1  0.350055  0.649945  0.000000  1
  Cu  Cu4  1  0.000000  0.000000  0.000000  1
  H  H5  1  0.999741  0.500225  0.751705  1
  H  H6  1  0.499775  0.000259  0.248295  1
  H  H7  1  0.000259  0.499775  0.248295  1
  H  H8  1  0.500225  0.999741  0.751705  1
  H  H9  1  0.375291  0.624709  0.500000  1
  H  H10  1  0.881706  0.118294  0.000000  1
  H  H11  1  0.624709  0.375291  0.500000  1
  H  H12  1  0.118294  0.881706  0.000000  1
  H  H13  1  0.268240  0.268240  0.731631  1
  H  H14  1  0.731760  0.731760  0.268369  1
  H  H15  1  0.267207  0.267207  0.267732  1
  H  H16  1  0.732793  0.732793  0.732268  1
  Rh  Rh17  1  0.500000  0.500000  0.500000  1
