# generated using pymatgen
data_Y8Er12PdPt15
_symmetry_space_group_name_H-M   'P 1'
_cell_length_a   7.46476806
_cell_length_b   7.53913206
_cell_length_c   14.69929800
_cell_angle_alpha   90.00000000
_cell_angle_beta   90.00000000
_cell_angle_gamma   90.01399945
_symmetry_Int_Tables_number   1
_chemical_formula_structural   Y8Er12PdPt15
_chemical_formula_sum   'Y8 Er12 Pd1 Pt15'
_cell_volume   827.24518872
_cell_formula_units_Z   1
loop_
 _symmetry_equiv_pos_site_id
 _symmetry_equiv_pos_as_xyz
  1  'x, y, z'
loop_
 _atom_site_type_symbol
 _atom_site_label
 _atom_site_symmetry_multiplicity
 _atom_site_fract_x
 _atom_site_fract_y
 _atom_site_fract_z
 _atom_site_occupancy
  Y  Y0  1  0.999847  0.821750  0.408075  1
  Y  Y1  1  0.497665  0.679373  0.092624  1
  Y  Y2  1  0.501585  0.320525  0.592997  1
  Y  Y3  1  0.001647  0.179709  0.906941  1
  Y  Y4  1  0.001647  0.179709  0.593059  1
  Y  Y5  1  0.501585  0.320525  0.907003  1
  Y  Y6  1  0.497665  0.679373  0.407376  1
  Y  Y7  1  0.999847  0.821750  0.091925  1
  Er  Er8  1  0.680403  0.990834  0.250000  1
  Er  Er9  1  0.182943  0.510048  0.250000  1
  Er  Er10  1  0.819121  0.489363  0.750000  1
  Er  Er11  1  0.318956  0.010847  0.750000  1
  Er  Er12  1  0.656229  0.832579  0.622287  1
  Er  Er13  1  0.156431  0.667209  0.877709  1
  Er  Er14  1  0.843712  0.331301  0.378084  1
  Er  Er15  1  0.343822  0.167370  0.122289  1
  Er  Er16  1  0.343822  0.167370  0.377711  1
  Er  Er17  1  0.843712  0.331301  0.121916  1
  Er  Er18  1  0.156431  0.667209  0.622291  1
  Er  Er19  1  0.656229  0.832579  0.877713  1
  Pd  Pd20  1  0.814040  0.641785  0.250000  1
  Pt  Pt21  1  0.315848  0.858205  0.250000  1
  Pt  Pt22  1  0.683855  0.141432  0.750000  1
  Pt  Pt23  1  0.183737  0.358592  0.750000  1
  Pt  Pt24  1  0.547813  0.385540  0.250000  1
  Pt  Pt25  1  0.046343  0.114578  0.250000  1
  Pt  Pt26  1  0.953311  0.884673  0.750000  1
  Pt  Pt27  1  0.453443  0.615376  0.750000  1
  Pt  Pt28  1  0.817716  0.533714  0.541791  1
  Pt  Pt29  1  0.317469  0.966493  0.958041  1
  Pt  Pt30  1  0.682457  0.032476  0.457535  1
  Pt  Pt31  1  0.181514  0.466866  0.042493  1
  Pt  Pt32  1  0.181514  0.466866  0.457507  1
  Pt  Pt33  1  0.682457  0.032476  0.042465  1
  Pt  Pt34  1  0.317469  0.966493  0.541959  1
  Pt  Pt35  1  0.817716  0.533714  0.958209  1
