# generated using pymatgen
data_Dy12Re7Si16Tc
_symmetry_space_group_name_H-M   'P 1'
_cell_length_a   10.58993446
_cell_length_b   10.58813648
_cell_length_c   14.34890812
_cell_angle_alpha   54.99970132
_cell_angle_beta   55.00685552
_cell_angle_gamma   30.67076217
_symmetry_Int_Tables_number   1
_chemical_formula_structural   Dy12Re7Si16Tc
_chemical_formula_sum   'Dy12 Re7 Si16 Tc1'
_cell_volume   659.80630472
_cell_formula_units_Z   1
loop_
 _symmetry_equiv_pos_site_id
 _symmetry_equiv_pos_as_xyz
  1  'x, y, z'
loop_
 _atom_site_type_symbol
 _atom_site_label
 _atom_site_symmetry_multiplicity
 _atom_site_fract_x
 _atom_site_fract_y
 _atom_site_fract_z
 _atom_site_occupancy
  Dy  Dy0  1  0.752749  0.484690  0.049681  1
  Dy  Dy1  1  0.536746  0.308436  0.153363  1
  Dy  Dy2  1  0.515392  0.247008  0.450318  1
  Dy  Dy3  1  0.463026  0.691802  0.846516  1
  Dy  Dy4  1  0.292405  0.041404  0.138480  1
  Dy  Dy5  1  0.958405  0.707587  0.361454  1
  Dy  Dy6  1  0.707595  0.958622  0.861471  1
  Dy  Dy7  1  0.041258  0.292480  0.638525  1
  Dy  Dy8  1  0.247283  0.515179  0.950427  1
  Dy  Dy9  1  0.484454  0.752935  0.549747  1
  Dy  Dy10  1  0.308203  0.536894  0.653416  1
  Dy  Dy11  1  0.692074  0.463287  0.346534  1
  Re  Re12  1  0.832176  0.639775  0.780966  1
  Re  Re13  1  0.360244  0.167861  0.718973  1
  Re  Re14  1  0.168060  0.360166  0.218828  1
  Re  Re15  1  0.137326  0.912222  0.077689  1
  Re  Re16  1  0.087676  0.862826  0.422207  1
  Re  Re17  1  0.862618  0.087965  0.922205  1
  Re  Re18  1  0.911973  0.137280  0.577975  1
  Si  Si19  1  0.907085  0.092872  0.250048  1
  Si  Si20  1  0.092875  0.907231  0.749972  1
  Si  Si21  1  0.340258  0.659715  0.250005  1
  Si  Si22  1  0.659565  0.340446  0.749993  1
  Si  Si23  1  0.999952  0.228224  0.878325  1
  Si  Si24  1  0.771753  0.000124  0.621641  1
  Si  Si25  1  0.000480  0.771118  0.121687  1
  Si  Si26  1  0.228004  0.000654  0.378004  1
  Si  Si27  1  0.607584  0.046250  0.076497  1
  Si  Si28  1  0.954304  0.391237  0.424401  1
  Si  Si29  1  0.392219  0.953320  0.924473  1
  Si  Si30  1  0.046670  0.607946  0.575425  1
  Si  Si31  1  0.381516  0.162135  0.378198  1
  Si  Si32  1  0.838213  0.618513  0.121336  1
  Si  Si33  1  0.618606  0.837776  0.621322  1
  Si  Si34  1  0.161943  0.381625  0.878834  1
  Tc  Tc35  1  0.639308  0.832394  0.281064  1
