# generated using pymatgen
data_Tm2Lu10In2Fe2Ru
_symmetry_space_group_name_H-M   'P 1'
_cell_length_a   8.20633604
_cell_length_b   8.20633702
_cell_length_c   8.18941932
_cell_angle_alpha   108.51314604
_cell_angle_beta   108.51313364
_cell_angle_gamma   111.48545383
_symmetry_Int_Tables_number   1
_chemical_formula_structural   Tm2Lu10In2Fe2Ru
_chemical_formula_sum   'Tm2 Lu10 In2 Fe2 Ru1'
_cell_volume   423.74885840
_cell_formula_units_Z   1
loop_
 _symmetry_equiv_pos_site_id
 _symmetry_equiv_pos_as_xyz
  1  'x, y, z'
loop_
 _atom_site_type_symbol
 _atom_site_label
 _atom_site_symmetry_multiplicity
 _atom_site_fract_x
 _atom_site_fract_y
 _atom_site_fract_z
 _atom_site_occupancy
  Tm  Tm0  1  0.692319  0.307681  0.000000  1
  Tm  Tm1  1  0.307681  0.692319  0.000000  1
  Lu  Lu2  1  0.193017  0.430362  0.238527  1
  Lu  Lu3  1  0.806983  0.569638  0.761473  1
  Lu  Lu4  1  0.191833  0.954491  0.761473  1
  Lu  Lu5  1  0.954491  0.191833  0.761473  1
  Lu  Lu6  1  0.808167  0.045509  0.238527  1
  Lu  Lu7  1  0.045509  0.808167  0.238527  1
  Lu  Lu8  1  0.430362  0.193017  0.238527  1
  Lu  Lu9  1  0.569638  0.806983  0.761473  1
  Lu  Lu10  1  0.308330  0.308330  0.616660  1
  Lu  Lu11  1  0.691670  0.691670  0.383340  1
  In  In12  1  0.000000  0.500000  0.500000  1
  In  In13  1  0.500000  0.000000  0.500000  1
  Fe  Fe14  1  0.383435  0.383435  0.000000  1
  Fe  Fe15  1  0.616565  0.616565  0.000000  1
  Ru  Ru16  1  0.000000  0.000000  0.000000  1
