# generated using pymatgen
data_La5HoU4O20
_symmetry_space_group_name_H-M   'P 1'
_cell_length_a   6.80491638
_cell_length_b   7.76051827
_cell_length_c   8.67914941
_cell_angle_alpha   101.69364570
_cell_angle_beta   97.67405367
_cell_angle_gamma   107.13474727
_symmetry_Int_Tables_number   1
_chemical_formula_structural   La5HoU4O20
_chemical_formula_sum   'La5 Ho1 U4 O20'
_cell_volume   419.66317471
_cell_formula_units_Z   1
loop_
 _symmetry_equiv_pos_site_id
 _symmetry_equiv_pos_as_xyz
  1  'x, y, z'
loop_
 _atom_site_type_symbol
 _atom_site_label
 _atom_site_symmetry_multiplicity
 _atom_site_fract_x
 _atom_site_fract_y
 _atom_site_fract_z
 _atom_site_occupancy
  La  La0  1  0.611951  0.703750  0.699659  1
  La  La1  1  0.388049  0.296250  0.300341  1
  La  La2  1  0.198877  0.898002  0.892820  1
  La  La3  1  0.000000  0.500000  0.500000  1
  La  La4  1  0.801123  0.101998  0.107180  1
  Ho  Ho5  1  0.000000  0.000000  0.500000  1
  U  U6  1  0.401608  0.804865  0.302050  1
  U  U7  1  0.198036  0.401071  0.901057  1
  U  U8  1  0.801964  0.598929  0.098943  1
  U  U9  1  0.598392  0.195135  0.697950  1
  O  O10  1  0.437713  0.535559  0.131756  1
  O  O11  1  0.558342  0.996385  0.836347  1
  O  O12  1  0.273658  0.151903  0.740419  1
  O  O13  1  0.360323  0.602405  0.435999  1
  O  O14  1  0.054089  0.735184  0.325382  1
  O  O15  1  0.441658  0.003615  0.163653  1
  O  O16  1  0.151183  0.191900  0.027827  1
  O  O17  1  0.562287  0.464441  0.868244  1
  O  O18  1  0.856601  0.342739  0.949098  1
  O  O19  1  0.254561  0.599412  0.764665  1
  O  O20  1  0.955424  0.781274  0.645014  1
  O  O21  1  0.352298  0.055087  0.455768  1
  O  O22  1  0.647702  0.944913  0.544232  1
  O  O23  1  0.044576  0.218726  0.354986  1
  O  O24  1  0.745439  0.400588  0.235335  1
  O  O25  1  0.143399  0.657261  0.050902  1
  O  O26  1  0.848817  0.808100  0.972173  1
  O  O27  1  0.945911  0.264816  0.674618  1
  O  O28  1  0.639677  0.397595  0.564001  1
  O  O29  1  0.726342  0.848097  0.259581  1
