# generated using pymatgen
data_Pr4Nd16Si15Cl
_symmetry_space_group_name_H-M   'P 1'
_cell_length_a   7.85195875
_cell_length_b   7.92513786
_cell_length_c   15.26605027
_cell_angle_alpha   88.74887473
_cell_angle_beta   85.76001707
_cell_angle_gamma   89.77583100
_symmetry_Int_Tables_number   1
_chemical_formula_structural   Pr4Nd16Si15Cl
_chemical_formula_sum   'Pr4 Nd16 Si15 Cl1'
_cell_volume   947.14524165
_cell_formula_units_Z   1
loop_
 _symmetry_equiv_pos_site_id
 _symmetry_equiv_pos_as_xyz
  1  'x, y, z'
loop_
 _atom_site_type_symbol
 _atom_site_label
 _atom_site_symmetry_multiplicity
 _atom_site_fract_x
 _atom_site_fract_y
 _atom_site_fract_z
 _atom_site_occupancy
  Pr  Pr0  1  0.157461  0.515252  0.746214  1
  Pr  Pr1  1  0.848996  0.349554  0.613697  1
  Pr  Pr2  1  0.462073  0.692018  0.895990  1
  Pr  Pr3  1  0.960775  0.814805  0.896902  1
  Nd  Nd4  1  0.182233  0.675044  0.121927  1
  Nd  Nd5  1  0.681685  0.816637  0.121913  1
  Nd  Nd6  1  0.317879  0.183156  0.880573  1
  Nd  Nd7  1  0.149791  0.659998  0.383506  1
  Nd  Nd8  1  0.039571  0.183770  0.105883  1
  Nd  Nd9  1  0.355653  0.175244  0.616086  1
  Nd  Nd10  1  0.838977  0.484528  0.241231  1
  Nd  Nd11  1  0.340249  0.997966  0.254242  1
  Nd  Nd12  1  0.496997  0.302166  0.395592  1
  Nd  Nd13  1  0.818969  0.323544  0.879894  1
  Nd  Nd14  1  0.008546  0.843464  0.606065  1
  Nd  Nd15  1  0.481551  0.705340  0.611116  1
  Nd  Nd16  1  0.004642  0.162341  0.395781  1
  Nd  Nd17  1  0.645733  0.825236  0.385679  1
  Nd  Nd18  1  0.661573  0.004664  0.746372  1
  Nd  Nd19  1  0.537220  0.306119  0.105049  1
  Si  Si20  1  0.459153  0.597404  0.253582  1
  Si  Si21  1  0.228995  0.369995  0.250364  1
  Si  Si22  1  0.542198  0.402775  0.751991  1
  Si  Si23  1  0.633362  0.026994  0.957919  1
  Si  Si24  1  0.039683  0.116101  0.751584  1
  Si  Si25  1  0.766730  0.628862  0.751455  1
  Si  Si26  1  0.727451  0.112104  0.251096  1
  Si  Si27  1  0.301606  0.962040  0.456268  1
  Si  Si28  1  0.958241  0.888400  0.251377  1
  Si  Si29  1  0.366720  0.973900  0.044335  1
  Si  Si30  1  0.709778  0.037160  0.541230  1
  Si  Si31  1  0.135171  0.474466  0.958810  1
  Si  Si32  1  0.204954  0.480134  0.547605  1
  Si  Si33  1  0.865631  0.522987  0.042588  1
  Si  Si34  1  0.269214  0.889294  0.753807  1
  Cl  Cl35  1  0.800540  0.496538  0.432277  1
