# generated using pymatgen
data_Y2GaNiRu
_symmetry_space_group_name_H-M   'P 1'
_cell_length_a   5.43971285
_cell_length_b   5.43971336
_cell_length_c   5.43971207
_cell_angle_alpha   135.13811200
_cell_angle_beta   118.16366660
_cell_angle_gamma   79.58357380
_symmetry_Int_Tables_number   1
_chemical_formula_structural   Y2GaNiRu
_chemical_formula_sum   'Y2 Ga1 Ni1 Ru1'
_cell_volume   96.99300753
_cell_formula_units_Z   1
loop_
 _symmetry_equiv_pos_site_id
 _symmetry_equiv_pos_as_xyz
  1  'x, y, z'
loop_
 _atom_site_type_symbol
 _atom_site_label
 _atom_site_symmetry_multiplicity
 _atom_site_fract_x
 _atom_site_fract_y
 _atom_site_fract_z
 _atom_site_occupancy
  Y  Y0  1  0.696928  0.204551  0.492377  1
  Y  Y1  1  0.287825  0.795449  0.492377  1
  Ga  Ga2  1  0.996327  0.000000  0.996327  1
  Ni  Ni3  1  0.737514  0.500000  0.237514  1
  Ru  Ru4  1  0.281405  0.500000  0.781405  1
