# generated using pymatgen
data_Dy6Al19Si5Ru8
_symmetry_space_group_name_H-M   'P 1'
_cell_length_a   8.66705501
_cell_length_b   8.66705326
_cell_length_c   9.58012700
_cell_angle_alpha   90.00000000
_cell_angle_beta   90.00000000
_cell_angle_gamma   119.89648253
_symmetry_Int_Tables_number   1
_chemical_formula_structural   Dy6Al19Si5Ru8
_chemical_formula_sum   'Dy6 Al19 Si5 Ru8'
_cell_volume   623.87414694
_cell_formula_units_Z   1
loop_
 _symmetry_equiv_pos_site_id
 _symmetry_equiv_pos_as_xyz
  1  'x, y, z'
loop_
 _atom_site_type_symbol
 _atom_site_label
 _atom_site_symmetry_multiplicity
 _atom_site_fract_x
 _atom_site_fract_y
 _atom_site_fract_z
 _atom_site_occupancy
  Dy  Dy0  1  0.805579  0.194421  0.750000  1
  Dy  Dy1  1  0.193885  0.806115  0.250000  1
  Dy  Dy2  1  0.391156  0.198115  0.750000  1
  Dy  Dy3  1  0.610868  0.805621  0.250000  1
  Dy  Dy4  1  0.801885  0.608844  0.750000  1
  Dy  Dy5  1  0.194379  0.389132  0.250000  1
  Al  Al6  1  0.835312  0.164688  0.420651  1
  Al  Al7  1  0.165169  0.834831  0.579532  1
  Al  Al8  1  0.329965  0.165174  0.421539  1
  Al  Al9  1  0.165169  0.834831  0.920468  1
  Al  Al10  1  0.670533  0.835990  0.579428  1
  Al  Al11  1  0.835312  0.164688  0.079349  1
  Al  Al12  1  0.834826  0.670035  0.421539  1
  Al  Al13  1  0.670533  0.835990  0.920572  1
  Al  Al14  1  0.164010  0.329467  0.579428  1
  Al  Al15  1  0.329965  0.165174  0.078461  1
  Al  Al16  1  0.164010  0.329467  0.920572  1
  Al  Al17  1  0.834826  0.670035  0.078461  1
  Al  Al18  1  0.562696  0.437304  0.250000  1
  Al  Al19  1  0.126835  0.560742  0.750000  1
  Al  Al20  1  0.873042  0.437022  0.250000  1
  Al  Al21  1  0.439258  0.873165  0.750000  1
  Al  Al22  1  0.562978  0.126958  0.250000  1
  Al  Al23  1  0.000093  0.999907  0.750000  1
  Al  Al24  1  0.999658  0.000342  0.250000  1
  Si  Si25  1  0.667495  0.332505  0.963173  1
  Si  Si26  1  0.332624  0.667376  0.038840  1
  Si  Si27  1  0.332624  0.667376  0.461160  1
  Si  Si28  1  0.667495  0.332505  0.536827  1
  Si  Si29  1  0.436492  0.563508  0.750000  1
  Ru  Ru30  1  0.499178  0.500822  0.994164  1
  Ru  Ru31  1  0.001188  0.500061  0.999442  1
  Ru  Ru32  1  0.499178  0.500822  0.505836  1
  Ru  Ru33  1  0.499939  0.998812  0.999442  1
  Ru  Ru34  1  0.001188  0.500061  0.500558  1
  Ru  Ru35  1  0.499939  0.998812  0.500558  1
  Ru  Ru36  1  0.000358  0.999642  0.999964  1
  Ru  Ru37  1  0.000358  0.999642  0.500036  1
