# generated using pymatgen
data_Ac2P7Ru3(Rh2W)3
_symmetry_space_group_name_H-M   'P 1'
_cell_length_a   4.00482000
_cell_length_b   9.70469680
_cell_length_c   9.70408400
_cell_angle_alpha   120.00090871
_cell_angle_beta   89.99998910
_cell_angle_gamma   90.00000485
_symmetry_Int_Tables_number   1
_chemical_formula_structural   Ac2P7Ru3(Rh2W)3
_chemical_formula_sum   'Ac2 P7 Ru3 Rh6 W3'
_cell_volume   326.62255736
_cell_formula_units_Z   1
loop_
 _symmetry_equiv_pos_site_id
 _symmetry_equiv_pos_as_xyz
  1  'x, y, z'
loop_
 _atom_site_type_symbol
 _atom_site_label
 _atom_site_symmetry_multiplicity
 _atom_site_fract_x
 _atom_site_fract_y
 _atom_site_fract_z
 _atom_site_occupancy
  Ac  Ac0  1  0.261898  0.666631  0.333350  1
  Ac  Ac1  1  0.761913  0.333400  0.666706  1
  P  P2  1  0.262038  0.999991  0.999995  1
  P  P3  1  0.761864  0.892419  0.606887  1
  P  P4  1  0.761866  0.393099  0.285546  1
  P  P5  1  0.761863  0.714467  0.107553  1
  P  P6  1  0.262032  0.109373  0.402699  1
  P  P7  1  0.262033  0.597353  0.706712  1
  P  P8  1  0.262034  0.293310  0.890639  1
  Ru  Ru9  1  0.261779  0.887950  0.154164  1
  Ru  Ru10  1  0.261753  0.845849  0.733752  1
  Ru  Ru11  1  0.261770  0.266238  0.112088  1
  Rh  Rh12  1  0.761910  0.613622  0.564241  1
  Rh  Rh13  1  0.761920  0.435737  0.049291  1
  Rh  Rh14  1  0.761911  0.950500  0.386366  1
  Rh  Rh15  1  0.261908  0.367157  0.431594  1
  Rh  Rh16  1  0.261905  0.568464  0.935528  1
  Rh  Rh17  1  0.261910  0.064427  0.632876  1
  W  W18  1  0.761895  0.093967  0.880998  1
  W  W19  1  0.761901  0.119016  0.212976  1
  W  W20  1  0.761895  0.787028  0.906040  1
