# generated using pymatgen
data_TlV4Ag(PO4)6
_symmetry_space_group_name_H-M   'P 1'
_cell_length_a   8.46500311
_cell_length_b   8.44917674
_cell_length_c   9.05281744
_cell_angle_alpha   62.45895157
_cell_angle_beta   62.35727778
_cell_angle_gamma   59.77526415
_symmetry_Int_Tables_number   1
_chemical_formula_structural   TlV4Ag(PO4)6
_chemical_formula_sum   'Tl1 V4 Ag1 P6 O24'
_cell_volume   472.93526837
_cell_formula_units_Z   1
loop_
 _symmetry_equiv_pos_site_id
 _symmetry_equiv_pos_as_xyz
  1  'x, y, z'
loop_
 _atom_site_type_symbol
 _atom_site_label
 _atom_site_symmetry_multiplicity
 _atom_site_fract_x
 _atom_site_fract_y
 _atom_site_fract_z
 _atom_site_occupancy
  Tl  Tl0  1  0.999632  0.490278  0.995568  1
  V  V1  1  0.349012  0.849723  0.938786  1
  V  V2  1  0.849618  0.345109  0.447824  1
  V  V3  1  0.153619  0.647571  0.543285  1
  V  V4  1  0.642516  0.147396  0.052567  1
  Ag  Ag5  1  0.502035  0.991821  0.495400  1
  P  P6  1  0.031571  0.967083  0.743870  1
  P  P7  1  0.746845  0.531859  0.744661  1
  P  P8  1  0.529113  0.750053  0.246786  1
  P  P9  1  0.961849  0.027975  0.249453  1
  P  P10  1  0.467715  0.244178  0.741763  1
  P  P11  1  0.248921  0.464653  0.245550  1
  O  O12  1  0.948441  0.187434  0.300915  1
  O  O13  1  0.719984  0.368403  0.916904  1
  O  O14  1  0.504920  0.776063  0.075436  1
  O  O15  1  0.341697  0.767312  0.401300  1
  O  O16  1  0.217263  0.910012  0.780475  1
  O  O17  1  0.940868  0.542914  0.695850  1
  O  O18  1  0.585529  0.913901  0.214700  1
  O  O19  1  0.688118  0.553951  0.290956  1
  O  O20  1  0.127445  0.012616  0.078291  1
  O  O21  1  0.992510  0.838602  0.401878  1
  O  O22  1  0.579629  0.723198  0.767506  1
  O  O23  1  0.269006  0.485494  0.394577  1
  O  O24  1  0.737682  0.500647  0.591880  1
  O  O25  1  0.038330  0.805761  0.702826  1
  O  O26  1  0.017980  0.151822  0.588032  1
  O  O27  1  0.308095  0.443761  0.688280  1
  O  O28  1  0.860025  0.996394  0.912089  1
  O  O29  1  0.772556  0.078971  0.223839  1
  O  O30  1  0.053507  0.455317  0.291391  1
  O  O31  1  0.656631  0.227079  0.593269  1
  O  O32  1  0.479907  0.229629  0.912670  1
  O  O33  1  0.271987  0.631669  0.074517  1
  O  O34  1  0.414762  0.275395  0.211493  1
  O  O35  1  0.408100  0.083375  0.773241  1
