# generated using pymatgen
data_ErFe3NiMoP3
_symmetry_space_group_name_H-M   'P 1'
_cell_length_a   3.70022500
_cell_length_b   10.30876700
_cell_length_c   12.06083800
_cell_angle_alpha   90.00000000
_cell_angle_beta   90.00000000
_cell_angle_gamma   90.00000000
_symmetry_Int_Tables_number   1
_chemical_formula_structural   ErFe3NiMoP3
_chemical_formula_sum   'Er4 Fe12 Ni4 Mo4 P12'
_cell_volume   460.05773922
_cell_formula_units_Z   4
loop_
 _symmetry_equiv_pos_site_id
 _symmetry_equiv_pos_as_xyz
  1  'x, y, z'
loop_
 _atom_site_type_symbol
 _atom_site_label
 _atom_site_symmetry_multiplicity
 _atom_site_fract_x
 _atom_site_fract_y
 _atom_site_fract_z
 _atom_site_occupancy
  Er  Er0  1  0.250000  0.583260  0.709660  1
  Er  Er1  1  0.250000  0.916740  0.209660  1
  Er  Er2  1  0.750000  0.416740  0.290340  1
  Er  Er3  1  0.750000  0.083260  0.790340  1
  Fe  Fe4  1  0.250000  0.216522  0.172424  1
  Fe  Fe5  1  0.250000  0.283478  0.672424  1
  Fe  Fe6  1  0.750000  0.783478  0.827576  1
  Fe  Fe7  1  0.750000  0.716522  0.327576  1
  Fe  Fe8  1  0.250000  0.883874  0.699115  1
  Fe  Fe9  1  0.250000  0.616126  0.199115  1
  Fe  Fe10  1  0.750000  0.116126  0.300885  1
  Fe  Fe11  1  0.750000  0.383874  0.800885  1
  Fe  Fe12  1  0.250000  0.464625  0.935155  1
  Fe  Fe13  1  0.250000  0.035375  0.435155  1
  Fe  Fe14  1  0.750000  0.535375  0.064845  1
  Fe  Fe15  1  0.750000  0.964625  0.564845  1
  Ni  Ni16  1  0.250000  0.410052  0.484547  1
  Ni  Ni17  1  0.250000  0.089949  0.984547  1
  Ni  Ni18  1  0.750000  0.589948  0.515453  1
  Ni  Ni19  1  0.750000  0.910052  0.015453  1
  Mo  Mo20  1  0.250000  0.705459  0.992307  1
  Mo  Mo21  1  0.250000  0.794541  0.492307  1
  Mo  Mo22  1  0.750000  0.294541  0.007693  1
  Mo  Mo23  1  0.750000  0.205459  0.507693  1
  P  P24  1  0.250000  0.421020  0.113432  1
  P  P25  1  0.250000  0.078980  0.613432  1
  P  P26  1  0.750000  0.578980  0.886568  1
  P  P27  1  0.750000  0.921020  0.386568  1
  P  P28  1  0.250000  0.273953  0.856485  1
  P  P29  1  0.250000  0.226047  0.356485  1
  P  P30  1  0.750000  0.726047  0.143515  1
  P  P31  1  0.750000  0.773953  0.643515  1
  P  P32  1  0.250000  0.599021  0.383562  1
  P  P33  1  0.250000  0.900979  0.883562  1
  P  P34  1  0.750000  0.400979  0.616438  1
  P  P35  1  0.750000  0.099021  0.116438  1
