# generated using pymatgen
data_LuSc5CoTe2
_symmetry_space_group_name_H-M   'P 1'
_cell_length_a   3.79264500
_cell_length_b   7.92683673
_cell_length_c   7.92683604
_cell_angle_alpha   121.74969996
_cell_angle_beta   90.00000000
_cell_angle_gamma   90.00000000
_symmetry_Int_Tables_number   1
_chemical_formula_structural   LuSc5CoTe2
_chemical_formula_sum   'Lu1 Sc5 Co1 Te2'
_cell_volume   202.64796251
_cell_formula_units_Z   1
loop_
 _symmetry_equiv_pos_site_id
 _symmetry_equiv_pos_as_xyz
  1  'x, y, z'
loop_
 _atom_site_type_symbol
 _atom_site_label
 _atom_site_symmetry_multiplicity
 _atom_site_fract_x
 _atom_site_fract_y
 _atom_site_fract_z
 _atom_site_occupancy
  Lu  Lu0  1  0.000000  0.383664  0.383664  1
  Sc  Sc1  1  0.500000  0.766707  0.766707  1
  Sc  Sc2  1  0.500000  0.991062  0.227916  1
  Sc  Sc3  1  0.500000  0.227916  0.991062  1
  Sc  Sc4  1  0.000000  0.999427  0.609791  1
  Sc  Sc5  1  0.000000  0.609791  0.999427  1
  Co  Co6  1  0.000000  0.019998  0.019998  1
  Te  Te7  1  0.500000  0.671632  0.329804  1
  Te  Te8  1  0.500000  0.329804  0.671632  1
