# generated using pymatgen
data_Ac2Ho6S11
_symmetry_space_group_name_H-M   'P 1'
_cell_length_a   6.76222606
_cell_length_b   6.76222560
_cell_length_c   36.05132500
_cell_angle_alpha   90.00000000
_cell_angle_beta   90.00000000
_cell_angle_gamma   146.26437406
_symmetry_Int_Tables_number   1
_chemical_formula_structural   Ac2Ho6S11
_chemical_formula_sum   'Ac4 Ho12 S22'
_cell_volume   915.53812833
_cell_formula_units_Z   2
loop_
 _symmetry_equiv_pos_site_id
 _symmetry_equiv_pos_as_xyz
  1  'x, y, z'
loop_
 _atom_site_type_symbol
 _atom_site_label
 _atom_site_symmetry_multiplicity
 _atom_site_fract_x
 _atom_site_fract_y
 _atom_site_fract_z
 _atom_site_occupancy
  Ac  Ac0  1  0.503164  0.496836  0.247153  1
  Ac  Ac1  1  0.496836  0.503164  0.747153  1
  Ac  Ac2  1  0.741291  0.258709  0.940219  1
  Ac  Ac3  1  0.258709  0.741291  0.440219  1
  Ho  Ho4  1  0.757671  0.242329  0.317799  1
  Ho  Ho5  1  0.240025  0.759975  0.679060  1
  Ho  Ho6  1  0.759975  0.240025  0.179060  1
  Ho  Ho7  1  0.242329  0.757671  0.817799  1
  Ho  Ho8  1  0.983155  0.016845  0.865455  1
  Ho  Ho9  1  0.021934  0.978066  0.132379  1
  Ho  Ho10  1  0.978066  0.021934  0.632379  1
  Ho  Ho11  1  0.016845  0.983155  0.365455  1
  Ho  Ho12  1  0.998559  0.001441  0.504471  1
  Ho  Ho13  1  0.001441  0.998559  0.004471  1
  Ho  Ho14  1  0.257636  0.742364  0.057892  1
  Ho  Ho15  1  0.742364  0.257636  0.557892  1
  S  S16  1  0.882059  0.117941  0.798457  1
  S  S17  1  0.122225  0.877775  0.199351  1
  S  S18  1  0.877775  0.122225  0.699351  1
  S  S19  1  0.117941  0.882059  0.298457  1
  S  S20  1  0.930579  0.069421  0.433114  1
  S  S21  1  0.095986  0.904014  0.570615  1
  S  S22  1  0.904014  0.095986  0.070615  1
  S  S23  1  0.069421  0.930579  0.933114  1
  S  S24  1  0.832534  0.167466  0.249104  1
  S  S25  1  0.167466  0.832534  0.749104  1
  S  S26  1  0.391952  0.608048  0.338200  1
  S  S27  1  0.600001  0.399999  0.662896  1
  S  S28  1  0.399999  0.600001  0.162896  1
  S  S29  1  0.608048  0.391952  0.838200  1
  S  S30  1  0.640808  0.359192  0.488396  1
  S  S31  1  0.356061  0.643939  0.518971  1
  S  S32  1  0.643939  0.356061  0.018971  1
  S  S33  1  0.359192  0.640808  0.988396  1
  S  S34  1  0.656704  0.343296  0.385456  1
  S  S35  1  0.338881  0.661119  0.611012  1
  S  S36  1  0.661119  0.338881  0.111012  1
  S  S37  1  0.343296  0.656704  0.885456  1
