# generated using pymatgen
data_Zr3Co6SiB2
_symmetry_space_group_name_H-M   'P 1'
_cell_length_a   4.99503800
_cell_length_b   4.99503817
_cell_length_c   13.51195900
_cell_angle_alpha   90.00000000
_cell_angle_beta   90.00000000
_cell_angle_gamma   119.99999886
_symmetry_Int_Tables_number   1
_chemical_formula_structural   Zr3Co6SiB2
_chemical_formula_sum   'Zr6 Co12 Si2 B4'
_cell_volume   291.96215693
_cell_formula_units_Z   2
loop_
 _symmetry_equiv_pos_site_id
 _symmetry_equiv_pos_as_xyz
  1  'x, y, z'
loop_
 _atom_site_type_symbol
 _atom_site_label
 _atom_site_symmetry_multiplicity
 _atom_site_fract_x
 _atom_site_fract_y
 _atom_site_fract_z
 _atom_site_occupancy
  Zr  Zr0  1  0.333333  0.666667  0.250000  1
  Zr  Zr1  1  0.666667  0.333333  0.750000  1
  Zr  Zr2  1  0.333333  0.666667  0.037760  1
  Zr  Zr3  1  0.666667  0.333333  0.537760  1
  Zr  Zr4  1  0.666667  0.333333  0.962240  1
  Zr  Zr5  1  0.333333  0.666667  0.462240  1
  Co  Co6  1  0.833279  0.666558  0.143945  1
  Co  Co7  1  0.166721  0.833279  0.643945  1
  Co  Co8  1  0.666558  0.833279  0.643945  1
  Co  Co9  1  0.333442  0.166721  0.143945  1
  Co  Co10  1  0.833279  0.166721  0.143945  1
  Co  Co11  1  0.166721  0.333442  0.856055  1
  Co  Co12  1  0.166721  0.833279  0.856055  1
  Co  Co13  1  0.166721  0.333442  0.643945  1
  Co  Co14  1  0.666558  0.833279  0.856055  1
  Co  Co15  1  0.333442  0.166721  0.356055  1
  Co  Co16  1  0.833279  0.666558  0.356055  1
  Co  Co17  1  0.833279  0.166721  0.356055  1
  Si  Si18  1  0.000000  0.000000  0.000000  1
  Si  Si19  1  0.000000  0.000000  0.500000  1
  B  B20  1  0.000000  0.000000  0.250000  1
  B  B21  1  0.000000  0.000000  0.750000  1
  B  B22  1  0.333333  0.666667  0.750000  1
  B  B23  1  0.666667  0.333333  0.250000  1
