# generated using pymatgen
data_KAl6Ag7
_symmetry_space_group_name_H-M   'P 1'
_cell_length_a   9.14823110
_cell_length_b   9.14823083
_cell_length_c   9.14823118
_cell_angle_alpha   120.43712999
_cell_angle_beta   121.47073898
_cell_angle_gamma   88.35792200
_symmetry_Int_Tables_number   1
_chemical_formula_structural   KAl6Ag7
_chemical_formula_sum   'K2 Al12 Ag14'
_cell_volume   533.27291898
_cell_formula_units_Z   2
loop_
 _symmetry_equiv_pos_site_id
 _symmetry_equiv_pos_as_xyz
  1  'x, y, z'
loop_
 _atom_site_type_symbol
 _atom_site_label
 _atom_site_symmetry_multiplicity
 _atom_site_fract_x
 _atom_site_fract_y
 _atom_site_fract_z
 _atom_site_occupancy
  K  K0  1  0.250000  0.750000  0.500000  1
  K  K1  1  0.750000  0.250000  0.500000  1
  Al  Al2  1  0.558069  0.556055  0.347170  1
  Al  Al3  1  0.441931  0.443945  0.652830  1
  Al  Al4  1  0.208885  0.210900  0.652830  1
  Al  Al5  1  0.291115  0.943945  0.002014  1
  Al  Al6  1  0.791115  0.789100  0.347170  1
  Al  Al7  1  0.708885  0.056055  0.997986  1
  Al  Al8  1  0.941931  0.289100  0.997986  1
  Al  Al9  1  0.058069  0.710900  0.002014  1
  Al  Al10  1  0.066550  0.288816  0.355366  1
  Al  Al11  1  0.933450  0.711184  0.644634  1
  Al  Al12  1  0.566550  0.211184  0.777733  1
  Al  Al13  1  0.433450  0.788816  0.222267  1
  Ag  Ag14  1  0.313890  0.316294  0.262051  1
  Ag  Ag15  1  0.686110  0.683706  0.737949  1
  Ag  Ag16  1  0.054243  0.051839  0.737949  1
  Ag  Ag17  1  0.445757  0.183706  0.997596  1
  Ag  Ag18  1  0.945757  0.948161  0.262051  1
  Ag  Ag19  1  0.554243  0.816294  0.002404  1
  Ag  Ag20  1  0.186110  0.448161  0.002404  1
  Ag  Ag21  1  0.813890  0.551839  0.997596  1
  Ag  Ag22  1  0.000000  0.000000  0.000000  1
  Ag  Ag23  1  0.500000  0.500000  0.000000  1
  Ag  Ag24  1  0.314384  0.057544  0.371929  1
  Ag  Ag25  1  0.685616  0.942456  0.628071  1
  Ag  Ag26  1  0.814384  0.442456  0.256839  1
  Ag  Ag27  1  0.185616  0.557544  0.743161  1
