# generated using pymatgen
data_Tm3LuCoB14
_symmetry_space_group_name_H-M   'P 1'
_cell_length_a   7.16851200
_cell_length_b   7.17070489
_cell_length_c   7.40896000
_cell_angle_alpha   90.00000000
_cell_angle_beta   90.00000000
_cell_angle_gamma   90.12062102
_symmetry_Int_Tables_number   1
_chemical_formula_structural   Tm3LuCoB14
_chemical_formula_sum   'Tm6 Lu2 Co2 B28'
_cell_volume   380.84403148
_cell_formula_units_Z   2
loop_
 _symmetry_equiv_pos_site_id
 _symmetry_equiv_pos_as_xyz
  1  'x, y, z'
loop_
 _atom_site_type_symbol
 _atom_site_label
 _atom_site_symmetry_multiplicity
 _atom_site_fract_x
 _atom_site_fract_y
 _atom_site_fract_z
 _atom_site_occupancy
  Tm  Tm0  1  0.192470  0.331169  0.000000  1
  Tm  Tm1  1  0.669120  0.192766  0.000000  1
  Tm  Tm2  1  0.330880  0.807234  0.000000  1
  Tm  Tm3  1  0.692990  0.169223  0.500000  1
  Tm  Tm4  1  0.307010  0.830777  0.500000  1
  Tm  Tm5  1  0.807530  0.668831  0.000000  1
  Lu  Lu6  1  0.831364  0.692367  0.500000  1
  Lu  Lu7  1  0.168636  0.307633  0.500000  1
  Co  Co8  1  0.000000  0.000000  0.000000  1
  Co  Co9  1  0.500000  0.500000  0.500000  1
  B  B10  1  0.175033  0.038948  0.230827  1
  B  B11  1  0.961561  0.175096  0.231142  1
  B  B12  1  0.038439  0.824904  0.231142  1
  B  B13  1  0.675069  0.461590  0.270120  1
  B  B14  1  0.324931  0.538410  0.270120  1
  B  B15  1  0.824967  0.961052  0.230827  1
  B  B16  1  0.539081  0.675046  0.269928  1
  B  B17  1  0.460919  0.324954  0.269928  1
  B  B18  1  0.824967  0.961052  0.769173  1
  B  B19  1  0.038439  0.824904  0.768858  1
  B  B20  1  0.961561  0.175096  0.768858  1
  B  B21  1  0.324931  0.538410  0.729880  1
  B  B22  1  0.675069  0.461590  0.729880  1
  B  B23  1  0.175033  0.038948  0.769173  1
  B  B24  1  0.460919  0.324954  0.730072  1
  B  B25  1  0.539081  0.675046  0.730072  1
  B  B26  1  0.087692  0.587828  0.251213  1
  B  B27  1  0.412331  0.087682  0.250238  1
  B  B28  1  0.587669  0.912318  0.250238  1
  B  B29  1  0.912308  0.412172  0.251213  1
  B  B30  1  0.912308  0.412172  0.748787  1
  B  B31  1  0.587669  0.912318  0.749762  1
  B  B32  1  0.412331  0.087682  0.749762  1
  B  B33  1  0.087692  0.587828  0.748787  1
  B  B34  1  0.000000  0.000000  0.388630  1
  B  B35  1  0.500000  0.500000  0.111830  1
  B  B36  1  0.000000  0.000000  0.611370  1
  B  B37  1  0.500000  0.500000  0.888170  1
