# generated using pymatgen
data_Tb4Ga20OsRu5
_symmetry_space_group_name_H-M   'P 1'
_cell_length_a   8.91326300
_cell_length_b   8.91326300
_cell_length_c   6.46450900
_cell_angle_alpha   90.00000000
_cell_angle_beta   90.00000000
_cell_angle_gamma   90.00000000
_symmetry_Int_Tables_number   1
_chemical_formula_structural   Tb4Ga20OsRu5
_chemical_formula_sum   'Tb4 Ga20 Os1 Ru5'
_cell_volume   513.58104538
_cell_formula_units_Z   1
loop_
 _symmetry_equiv_pos_site_id
 _symmetry_equiv_pos_as_xyz
  1  'x, y, z'
loop_
 _atom_site_type_symbol
 _atom_site_label
 _atom_site_symmetry_multiplicity
 _atom_site_fract_x
 _atom_site_fract_y
 _atom_site_fract_z
 _atom_site_occupancy
  Tb  Tb0  1  0.182715  0.683214  0.000000  1
  Tb  Tb1  1  0.817285  0.316786  0.000000  1
  Tb  Tb2  1  0.683214  0.817285  0.000000  1
  Tb  Tb3  1  0.316786  0.182715  0.000000  1
  Ga  Ga4  1  0.060922  0.206392  0.705065  1
  Ga  Ga5  1  0.939078  0.793608  0.705065  1
  Ga  Ga6  1  0.560919  0.293784  0.705442  1
  Ga  Ga7  1  0.439081  0.706216  0.705442  1
  Ga  Ga8  1  0.793608  0.060922  0.705065  1
  Ga  Ga9  1  0.206392  0.939078  0.705065  1
  Ga  Ga10  1  0.706216  0.560919  0.705442  1
  Ga  Ga11  1  0.293784  0.439081  0.705442  1
  Ga  Ga12  1  0.939078  0.793608  0.294935  1
  Ga  Ga13  1  0.060922  0.206392  0.294935  1
  Ga  Ga14  1  0.439081  0.706216  0.294558  1
  Ga  Ga15  1  0.560919  0.293784  0.294558  1
  Ga  Ga16  1  0.206392  0.939078  0.294935  1
  Ga  Ga17  1  0.793608  0.060922  0.294935  1
  Ga  Ga18  1  0.293784  0.439081  0.294558  1
  Ga  Ga19  1  0.706216  0.560919  0.294558  1
  Ga  Ga20  1  0.000000  0.500000  0.709740  1
  Ga  Ga21  1  0.500000  0.000000  0.709740  1
  Ga  Ga22  1  0.000000  0.500000  0.290260  1
  Ga  Ga23  1  0.500000  0.000000  0.290260  1
  Os  Os24  1  0.000000  0.000000  0.000000  1
  Ru  Ru25  1  0.178428  0.678694  0.500000  1
  Ru  Ru26  1  0.821572  0.321306  0.500000  1
  Ru  Ru27  1  0.678694  0.821572  0.500000  1
  Ru  Ru28  1  0.321306  0.178428  0.500000  1
  Ru  Ru29  1  0.500000  0.500000  0.000000  1
