# generated using pymatgen
data_CaHo2ErB16
_symmetry_space_group_name_H-M   'P 1'
_cell_length_a   7.10206214
_cell_length_b   7.10206814
_cell_length_c   4.01968200
_cell_angle_alpha   90.00000000
_cell_angle_beta   90.00000000
_cell_angle_gamma   90.16694859
_symmetry_Int_Tables_number   1
_chemical_formula_structural   CaHo2ErB16
_chemical_formula_sum   'Ca1 Ho2 Er1 B16'
_cell_volume   202.74920335
_cell_formula_units_Z   1
loop_
 _symmetry_equiv_pos_site_id
 _symmetry_equiv_pos_as_xyz
  1  'x, y, z'
loop_
 _atom_site_type_symbol
 _atom_site_label
 _atom_site_symmetry_multiplicity
 _atom_site_fract_x
 _atom_site_fract_y
 _atom_site_fract_z
 _atom_site_occupancy
  Ca  Ca0  1  0.181003  0.680994  0.000000  1
  Ho  Ho1  1  0.681683  0.818338  0.000000  1
  Ho  Ho2  1  0.818901  0.318897  0.000000  1
  Er  Er3  1  0.318378  0.181660  0.000000  1
  B  B4  1  0.323960  0.460669  0.500000  1
  B  B5  1  0.676972  0.537856  0.500000  1
  B  B6  1  0.538738  0.324017  0.500000  1
  B  B7  1  0.462857  0.675878  0.500000  1
  B  B8  1  0.000048  0.999577  0.203023  1
  B  B9  1  0.499469  0.499888  0.796981  1
  B  B10  1  0.000048  0.999577  0.796977  1
  B  B11  1  0.499469  0.499888  0.203019  1
  B  B12  1  0.586983  0.087146  0.500000  1
  B  B13  1  0.086154  0.412777  0.500000  1
  B  B14  1  0.912788  0.586133  0.500000  1
  B  B15  1  0.413649  0.913818  0.500000  1
  B  B16  1  0.037987  0.177034  0.500000  1
  B  B17  1  0.175992  0.962981  0.500000  1
  B  B18  1  0.824127  0.038840  0.500000  1
  B  B19  1  0.960789  0.824031  0.500000  1
