# generated using pymatgen
data_Dy8Lu11Si16Tc
_symmetry_space_group_name_H-M   'P 1'
_cell_length_a   7.19244024
_cell_length_b   7.56157662
_cell_length_c   14.25979100
_cell_angle_alpha   90.00000000
_cell_angle_beta   90.00000000
_cell_angle_gamma   90.14564248
_symmetry_Int_Tables_number   1
_chemical_formula_structural   Dy8Lu11Si16Tc
_chemical_formula_sum   'Dy8 Lu11 Si16 Tc1'
_cell_volume   775.53316818
_cell_formula_units_Z   1
loop_
 _symmetry_equiv_pos_site_id
 _symmetry_equiv_pos_as_xyz
  1  'x, y, z'
loop_
 _atom_site_type_symbol
 _atom_site_label
 _atom_site_symmetry_multiplicity
 _atom_site_fract_x
 _atom_site_fract_y
 _atom_site_fract_z
 _atom_site_occupancy
  Dy  Dy0  1  0.014384  0.180069  0.093636  1
  Dy  Dy1  1  0.991788  0.814391  0.899114  1
  Dy  Dy2  1  0.484367  0.673079  0.900994  1
  Dy  Dy3  1  0.991788  0.814391  0.600886  1
  Dy  Dy4  1  0.514228  0.321417  0.095901  1
  Dy  Dy5  1  0.014384  0.180069  0.406364  1
  Dy  Dy6  1  0.514228  0.321417  0.404099  1
  Dy  Dy7  1  0.484367  0.673079  0.599006  1
  Lu  Lu8  1  0.840683  0.491490  0.250000  1
  Lu  Lu9  1  0.342129  0.009500  0.250000  1
  Lu  Lu10  1  0.657097  0.987092  0.750000  1
  Lu  Lu11  1  0.323220  0.181263  0.627505  1
  Lu  Lu12  1  0.674911  0.822847  0.376021  1
  Lu  Lu13  1  0.174114  0.675316  0.378608  1
  Lu  Lu14  1  0.674911  0.822847  0.123979  1
  Lu  Lu15  1  0.825963  0.331055  0.628020  1
  Lu  Lu16  1  0.323220  0.181263  0.872495  1
  Lu  Lu17  1  0.825963  0.331055  0.871980  1
  Lu  Lu18  1  0.174114  0.675316  0.121392  1
  Si  Si19  1  0.026510  0.109391  0.750000  1
  Si  Si20  1  0.974574  0.891917  0.250000  1
  Si  Si21  1  0.468556  0.610085  0.250000  1
  Si  Si22  1  0.513873  0.406522  0.750000  1
  Si  Si23  1  0.280169  0.853227  0.750000  1
  Si  Si24  1  0.721427  0.131217  0.250000  1
  Si  Si25  1  0.218155  0.370198  0.250000  1
  Si  Si26  1  0.794704  0.630625  0.750000  1
  Si  Si27  1  0.155810  0.471617  0.548728  1
  Si  Si28  1  0.843368  0.532692  0.463467  1
  Si  Si29  1  0.347332  0.968568  0.463721  1
  Si  Si30  1  0.843368  0.532692  0.036533  1
  Si  Si31  1  0.656333  0.032712  0.539870  1
  Si  Si32  1  0.155810  0.471617  0.951272  1
  Si  Si33  1  0.656333  0.032712  0.960130  1
  Si  Si34  1  0.347332  0.968568  0.036279  1
  Tc  Tc35  1  0.150487  0.498683  0.750000  1
