# generated using pymatgen
data_Li6CaTb2In3
_symmetry_space_group_name_H-M   'P 1'
_cell_length_a   4.90089100
_cell_length_b   6.90391300
_cell_length_c   14.78706400
_cell_angle_alpha   90.00000000
_cell_angle_beta   89.99957645
_cell_angle_gamma   90.00000000
_symmetry_Int_Tables_number   1
_chemical_formula_structural   Li6CaTb2In3
_chemical_formula_sum   'Li12 Ca2 Tb4 In6'
_cell_volume   500.32511751
_cell_formula_units_Z   2
loop_
 _symmetry_equiv_pos_site_id
 _symmetry_equiv_pos_as_xyz
  1  'x, y, z'
loop_
 _atom_site_type_symbol
 _atom_site_label
 _atom_site_symmetry_multiplicity
 _atom_site_fract_x
 _atom_site_fract_y
 _atom_site_fract_z
 _atom_site_occupancy
  Li  Li0  1  0.500022  0.247945  0.999806  1
  Li  Li1  1  0.500022  0.752054  0.999806  1
  Li  Li2  1  0.000331  0.250280  0.166940  1
  Li  Li3  1  0.000331  0.749719  0.166940  1
  Li  Li4  1  0.500321  0.249709  0.333031  1
  Li  Li5  1  0.500321  0.750292  0.333031  1
  Li  Li6  1  0.000023  0.252065  0.500186  1
  Li  Li7  1  0.000023  0.747934  0.500186  1
  Li  Li8  1  0.499644  0.251232  0.667844  1
  Li  Li9  1  0.499644  0.748769  0.667844  1
  Li  Li10  1  0.999648  0.248786  0.832165  1
  Li  Li11  1  0.999648  0.751213  0.832165  1
  Ca  Ca12  1  0.999684  0.500000  0.666176  1
  Ca  Ca13  1  0.499686  0.000000  0.833826  1
  Tb  Tb14  1  0.000026  0.500000  0.000179  1
  Tb  Tb15  1  0.500315  0.000000  0.167623  1
  Tb  Tb16  1  0.000317  0.500000  0.332355  1
  Tb  Tb17  1  0.500025  0.000000  0.499813  1
  In  In18  1  0.000007  0.000000  0.006258  1
  In  In19  1  0.500230  0.500000  0.167230  1
  In  In20  1  0.000117  0.000000  0.332761  1
  In  In21  1  0.500006  0.500000  0.493826  1
  In  In22  1  0.999792  0.000000  0.661514  1
  In  In23  1  0.499807  0.500000  0.838496  1
