# generated using pymatgen
data_Ce8Si12IrRu3
_symmetry_space_group_name_H-M   'P 1'
_cell_length_a   8.23703604
_cell_length_b   8.23195111
_cell_length_c   8.15398100
_cell_angle_alpha   90.00002088
_cell_angle_beta   89.99461615
_cell_angle_gamma   119.99246509
_symmetry_Int_Tables_number   1
_chemical_formula_structural   Ce8Si12IrRu3
_chemical_formula_sum   'Ce8 Si12 Ir1 Ru3'
_cell_volume   478.85832528
_cell_formula_units_Z   1
loop_
 _symmetry_equiv_pos_site_id
 _symmetry_equiv_pos_as_xyz
  1  'x, y, z'
loop_
 _atom_site_type_symbol
 _atom_site_label
 _atom_site_symmetry_multiplicity
 _atom_site_fract_x
 _atom_site_fract_y
 _atom_site_fract_z
 _atom_site_occupancy
  Ce  Ce0  1  0.999995  0.999999  0.249731  1
  Ce  Ce1  1  0.999996  0.999993  0.749984  1
  Ce  Ce2  1  0.501476  0.498529  0.252154  1
  Ce  Ce3  1  0.501490  0.002985  0.252156  1
  Ce  Ce4  1  0.997038  0.498519  0.252101  1
  Ce  Ce5  1  0.500397  0.499578  0.748084  1
  Ce  Ce6  1  0.500404  0.000818  0.748064  1
  Ce  Ce7  1  0.999197  0.499592  0.748096  1
  Si  Si8  1  0.165565  0.834473  0.499392  1
  Si  Si9  1  0.165542  0.331102  0.499379  1
  Si  Si10  1  0.668894  0.834473  0.499331  1
  Si  Si11  1  0.834846  0.165112  0.500842  1
  Si  Si12  1  0.834867  0.669741  0.500851  1
  Si  Si13  1  0.330257  0.165110  0.500778  1
  Si  Si14  1  0.833961  0.165985  0.002309  1
  Si  Si15  1  0.833978  0.667962  0.002344  1
  Si  Si16  1  0.332036  0.165994  0.002399  1
  Si  Si17  1  0.165222  0.834806  0.997729  1
  Si  Si18  1  0.165200  0.330405  0.997735  1
  Si  Si19  1  0.669602  0.834821  0.997800  1
  Ir  Ir20  1  0.333501  0.666795  0.007386  1
  Ru  Ru21  1  0.333518  0.666846  0.499318  1
  Ru  Ru22  1  0.666509  0.333200  0.501716  1
  Ru  Ru23  1  0.666508  0.333161  0.990321  1
