# generated using pymatgen
data_NaYb(CuPt)2
_symmetry_space_group_name_H-M   'P 1'
_cell_length_a   5.22863410
_cell_length_b   5.22863309
_cell_length_c   5.49558600
_cell_angle_alpha   58.29620643
_cell_angle_beta   58.29621327
_cell_angle_gamma   58.17877928
_symmetry_Int_Tables_number   1
_chemical_formula_structural   NaYb(CuPt)2
_chemical_formula_sum   'Na1 Yb1 Cu2 Pt2'
_cell_volume   101.99510281
_cell_formula_units_Z   1
loop_
 _symmetry_equiv_pos_site_id
 _symmetry_equiv_pos_as_xyz
  1  'x, y, z'
loop_
 _atom_site_type_symbol
 _atom_site_label
 _atom_site_symmetry_multiplicity
 _atom_site_fract_x
 _atom_site_fract_y
 _atom_site_fract_z
 _atom_site_occupancy
  Na  Na0  1  0.001597  0.001597  0.998403  1
  Yb  Yb1  1  0.254689  0.254689  0.245311  1
  Cu  Cu2  1  0.623443  0.122845  0.626856  1
  Cu  Cu3  1  0.122845  0.623443  0.626856  1
  Pt  Pt4  1  0.623712  0.623712  0.625551  1
  Pt  Pt5  1  0.623712  0.623712  0.127023  1
