# generated using pymatgen
data_Tb3Y9Ru4
_symmetry_space_group_name_H-M   'P 1'
_cell_length_a   6.36920402
_cell_length_b   7.32632680
_cell_length_c   9.24891500
_cell_angle_alpha   90.00000000
_cell_angle_beta   90.00000000
_cell_angle_gamma   89.92332718
_symmetry_Int_Tables_number   1
_chemical_formula_structural   Tb3Y9Ru4
_chemical_formula_sum   'Tb3 Y9 Ru4'
_cell_volume   431.58053309
_cell_formula_units_Z   1
loop_
 _symmetry_equiv_pos_site_id
 _symmetry_equiv_pos_as_xyz
  1  'x, y, z'
loop_
 _atom_site_type_symbol
 _atom_site_label
 _atom_site_symmetry_multiplicity
 _atom_site_fract_x
 _atom_site_fract_y
 _atom_site_fract_z
 _atom_site_occupancy
  Tb  Tb0  1  0.636367  0.042970  0.250000  1
  Tb  Tb1  1  0.135927  0.457407  0.750000  1
  Tb  Tb2  1  0.363604  0.957113  0.750000  1
  Y  Y3  1  0.328832  0.676539  0.065210  1
  Y  Y4  1  0.171508  0.176218  0.435239  1
  Y  Y5  1  0.671066  0.323496  0.565357  1
  Y  Y6  1  0.828586  0.823801  0.934775  1
  Y  Y7  1  0.671066  0.323496  0.934643  1
  Y  Y8  1  0.828586  0.823801  0.565225  1
  Y  Y9  1  0.328832  0.676539  0.434790  1
  Y  Y10  1  0.171508  0.176218  0.064761  1
  Y  Y11  1  0.865291  0.541403  0.250000  1
  Ru  Ru12  1  0.035736  0.886485  0.250000  1
  Ru  Ru13  1  0.463230  0.384414  0.250000  1
  Ru  Ru14  1  0.966018  0.115099  0.750000  1
  Ru  Ru15  1  0.533844  0.614997  0.750000  1
