# generated using pymatgen
data_ErTh2In3Pd2Pt
_symmetry_space_group_name_H-M   'P 1'
_cell_length_a   7.72004056
_cell_length_b   7.69792776
_cell_length_c   4.03534500
_cell_angle_alpha   90.00000000
_cell_angle_beta   90.00000000
_cell_angle_gamma   119.85949487
_symmetry_Int_Tables_number   1
_chemical_formula_structural   ErTh2In3Pd2Pt
_chemical_formula_sum   'Er1 Th2 In3 Pd2 Pt1'
_cell_volume   207.97822146
_cell_formula_units_Z   1
loop_
 _symmetry_equiv_pos_site_id
 _symmetry_equiv_pos_as_xyz
  1  'x, y, z'
loop_
 _atom_site_type_symbol
 _atom_site_label
 _atom_site_symmetry_multiplicity
 _atom_site_fract_x
 _atom_site_fract_y
 _atom_site_fract_z
 _atom_site_occupancy
  Er  Er0  1  0.996294  0.587989  0.500000  1
  Th  Th1  1  0.589295  0.003955  0.500000  1
  Th  Th2  1  0.415744  0.412213  0.500000  1
  In  In3  1  0.755763  0.748221  0.000000  1
  In  In4  1  0.002355  0.261235  0.000000  1
  In  In5  1  0.241720  0.987739  0.000000  1
  Pd  Pd6  1  0.338174  0.666974  0.000000  1
  Pd  Pd7  1  0.000335  0.003771  0.500000  1
  Pt  Pt8  1  0.660320  0.327902  0.000000  1
