# generated using pymatgen
data_Hf4Si4Ir3Rh
_symmetry_space_group_name_H-M   'P 1'
_cell_length_a   3.95876000
_cell_length_b   6.49663191
_cell_length_c   7.41773432
_cell_angle_alpha   90.10845907
_cell_angle_beta   90.00000000
_cell_angle_gamma   90.00000000
_symmetry_Int_Tables_number   1
_chemical_formula_structural   Hf4Si4Ir3Rh
_chemical_formula_sum   'Hf4 Si4 Ir3 Rh1'
_cell_volume   190.77344866
_cell_formula_units_Z   1
loop_
 _symmetry_equiv_pos_site_id
 _symmetry_equiv_pos_as_xyz
  1  'x, y, z'
loop_
 _atom_site_type_symbol
 _atom_site_label
 _atom_site_symmetry_multiplicity
 _atom_site_fract_x
 _atom_site_fract_y
 _atom_site_fract_z
 _atom_site_occupancy
  Hf  Hf0  1  0.250000  0.519644  0.182087  1
  Hf  Hf1  1  0.750000  0.478803  0.818247  1
  Hf  Hf2  1  0.250000  0.019402  0.318496  1
  Hf  Hf3  1  0.750000  0.981516  0.681021  1
  Si  Si4  1  0.250000  0.776162  0.879547  1
  Si  Si5  1  0.750000  0.223536  0.120353  1
  Si  Si6  1  0.250000  0.275372  0.618573  1
  Si  Si7  1  0.750000  0.724978  0.381478  1
  Ir  Ir8  1  0.750000  0.845007  0.064001  1
  Ir  Ir9  1  0.250000  0.155781  0.936063  1
  Ir  Ir10  1  0.750000  0.347209  0.435182  1
  Rh  Rh11  1  0.250000  0.652589  0.564953  1
