# generated using pymatgen
data_Pr5Sn3Br
_symmetry_space_group_name_H-M   'P 1'
_cell_length_a   9.60395500
_cell_length_b   9.60395524
_cell_length_c   6.89917200
_cell_angle_alpha   90.00000000
_cell_angle_beta   90.00000000
_cell_angle_gamma   120.00000260
_symmetry_Int_Tables_number   1
_chemical_formula_structural   Pr5Sn3Br
_chemical_formula_sum   'Pr10 Sn6 Br2'
_cell_volume   551.09673313
_cell_formula_units_Z   2
loop_
 _symmetry_equiv_pos_site_id
 _symmetry_equiv_pos_as_xyz
  1  'x, y, z'
loop_
 _atom_site_type_symbol
 _atom_site_label
 _atom_site_symmetry_multiplicity
 _atom_site_fract_x
 _atom_site_fract_y
 _atom_site_fract_z
 _atom_site_occupancy
  Pr  Pr0  1  0.267754  0.267754  0.750000  1
  Pr  Pr1  1  0.000000  0.732246  0.750000  1
  Pr  Pr2  1  0.732246  0.000000  0.750000  1
  Pr  Pr3  1  0.000000  0.267754  0.250000  1
  Pr  Pr4  1  0.333333  0.666667  0.500000  1
  Pr  Pr5  1  0.732246  0.732246  0.250000  1
  Pr  Pr6  1  0.666667  0.333333  0.500000  1
  Pr  Pr7  1  0.267754  0.000000  0.250000  1
  Pr  Pr8  1  0.333333  0.666667  0.000000  1
  Pr  Pr9  1  0.666667  0.333333  0.000000  1
  Sn  Sn10  1  0.613678  0.000000  0.250000  1
  Sn  Sn11  1  0.000000  0.386322  0.750000  1
  Sn  Sn12  1  0.386322  0.000000  0.750000  1
  Sn  Sn13  1  0.613678  0.613678  0.750000  1
  Sn  Sn14  1  0.000000  0.613678  0.250000  1
  Sn  Sn15  1  0.386322  0.386322  0.250000  1
  Br  Br16  1  0.000000  0.000000  0.000000  1
  Br  Br17  1  0.000000  0.000000  0.500000  1
