# generated using pymatgen
data_Dy8Si16Tc11Ir
_symmetry_space_group_name_H-M   'P 1'
_cell_length_a   6.78486932
_cell_length_b   6.79587742
_cell_length_c   12.74850353
_cell_angle_alpha   89.58750984
_cell_angle_beta   90.18724638
_cell_angle_gamma   89.86548185
_symmetry_Int_Tables_number   1
_chemical_formula_structural   Dy8Si16Tc11Ir
_chemical_formula_sum   'Dy8 Si16 Tc11 Ir1'
_cell_volume   587.80251189
_cell_formula_units_Z   1
loop_
 _symmetry_equiv_pos_site_id
 _symmetry_equiv_pos_as_xyz
  1  'x, y, z'
loop_
 _atom_site_type_symbol
 _atom_site_label
 _atom_site_symmetry_multiplicity
 _atom_site_fract_x
 _atom_site_fract_y
 _atom_site_fract_z
 _atom_site_occupancy
  Dy  Dy0  1  0.009293  0.660633  0.031154  1
  Dy  Dy1  1  0.991848  0.337354  0.531505  1
  Dy  Dy2  1  0.664339  0.004440  0.970398  1
  Dy  Dy3  1  0.161735  0.494926  0.779571  1
  Dy  Dy4  1  0.835220  0.506788  0.280694  1
  Dy  Dy5  1  0.494047  0.162427  0.218682  1
  Dy  Dy6  1  0.504927  0.838448  0.718318  1
  Dy  Dy7  1  0.333701  0.993194  0.468384  1
  Si  Si8  1  0.017124  0.724103  0.438077  1
  Si  Si9  1  0.992730  0.260500  0.938184  1
  Si  Si10  1  0.722315  0.018864  0.560390  1
  Si  Si11  1  0.226353  0.481666  0.190788  1
  Si  Si12  1  0.763601  0.514803  0.687722  1
  Si  Si13  1  0.483392  0.231407  0.811520  1
  Si  Si14  1  0.517169  0.773028  0.312929  1
  Si  Si15  1  0.270534  0.981388  0.061562  1
  Si  Si16  1  0.807922  0.888345  0.185905  1
  Si  Si17  1  0.303428  0.614289  0.564721  1
  Si  Si18  1  0.692051  0.389907  0.063394  1
  Si  Si19  1  0.613196  0.305116  0.435389  1
  Si  Si20  1  0.392809  0.689885  0.937192  1
  Si  Si21  1  0.113005  0.194004  0.313554  1
  Si  Si22  1  0.191432  0.112091  0.686595  1
  Si  Si23  1  0.891050  0.813009  0.812522  1
  Tc  Tc24  1  0.313514  0.477545  0.381663  1
  Tc  Tc25  1  0.816670  0.018387  0.371549  1
  Tc  Tc26  1  0.980111  0.189492  0.129574  1
  Tc  Tc27  1  0.013337  0.817474  0.628726  1
  Tc  Tc28  1  0.474415  0.313541  0.618952  1
  Tc  Tc29  1  0.194312  0.970029  0.869524  1
  Tc  Tc30  1  0.661412  0.664205  0.499508  1
  Tc  Tc31  1  0.835871  0.166488  0.754013  1
  Tc  Tc32  1  0.163145  0.835602  0.250212  1
  Tc  Tc33  1  0.339115  0.334664  0.995653  1
  Tc  Tc34  1  0.518052  0.686168  0.123083  1
  Ir  Ir35  1  0.696825  0.535795  0.878388  1
